# generated using pymatgen
data_Co2(GeTe)3
_symmetry_space_group_name_H-M   'P 1'
_cell_length_a   8.78877587
_cell_length_b   8.78877587
_cell_length_c   8.78877587
_cell_angle_alpha   89.96767920
_cell_angle_beta   89.96767920
_cell_angle_gamma   89.96767920
_symmetry_Int_Tables_number   1
_chemical_formula_structural   Co2(GeTe)3
_chemical_formula_sum   'Co8 Ge12 Te12'
_cell_volume   678.86741178
_cell_formula_units_Z   4
loop_
 _symmetry_equiv_pos_site_id
 _symmetry_equiv_pos_as_xyz
  1  'x, y, z'
loop_
 _atom_site_type_symbol
 _atom_site_label
 _atom_site_symmetry_multiplicity
 _atom_site_fract_x
 _atom_site_fract_y
 _atom_site_fract_z
 _atom_site_occupancy
  Co  Co0  1  0.74471199  0.74781235  -0.75169227  1.0
  Co  Co1  1  0.25218765  0.75169227  -0.74471199  1.0
  Co  Co2  1  0.75169227  0.25528801  -0.74781235  1.0
  Co  Co3  1  0.25528801  0.25218765  -0.24830773  1.0
  Co  Co4  1  0.74781235  0.24830773  -0.25528801  1.0
  Co  Co5  1  0.24830773  0.74471199  -0.25218765  1.0
  Co  Co6  1  0.75579057  0.75579057  -0.24420943  1.0
  Co  Co7  1  1.24420943  1.24420943  0.24420943  1.0
  Ge  Ge8  1  0.66820094  0.49935298  -0.81865494  1.0
  Ge  Ge9  1  0.50064702  0.81865494  -0.66820094  1.0
  Ge  Ge10  1  0.81865494  0.33179906  -0.49935298  1.0
  Ge  Ge11  1  0.33179906  0.50064702  -0.18134506  1.0
  Ge  Ge12  1  0.49935298  0.18134506  -0.33179906  1.0
  Ge  Ge13  1  0.18134506  0.66820094  -0.50064702  1.0
  Ge  Ge14  1  0.68135588  -0.16746944  0.00358784  1.0
  Ge  Ge15  1  0.16746944  0.99641216  -0.68135588  1.0
  Ge  Ge16  1  0.99641216  0.31864412  -0.83253056  1.0
  Ge  Ge17  1  0.31864412  0.16746944  -0.00358784  1.0
  Ge  Ge18  1  0.83253056  0.00358784  -0.31864412  1.0
  Ge  Ge19  1  1.00358784  -0.31864412  -0.16746944  1.0
  Te  Te20  1  0.64752275  0.50436975  -0.15473415  1.0
  Te  Te21  1  1.49563025  1.15473415  0.35247725  1.0
  Te  Te22  1  1.15473415  1.35247725  0.49563025  1.0
  Te  Te23  1  1.35247725  1.49563025  0.15473415  1.0
  Te  Te24  1  0.50436975  0.84526585  -0.35247725  1.0
  Te  Te25  1  0.84526585  0.64752275  -0.49563025  1.0
  Te  Te26  1  1.65521142  1.14805026  0.00094343  1.0
  Te  Te27  1  0.85194974  -0.00094343  0.34478858  1.0
  Te  Te28  1  0.99905657  -0.65521142  -0.14805026  1.0
  Te  Te29  1  0.34478858  -0.14805026  -0.00094343  1.0
  Te  Te30  1  1.14805026  0.00094343  -0.34478858  1.0
  Te  Te31  1  1.00094343  1.65521142  0.14805026  1.0
