# generated using pymatgen
data_La4S3NCl3
_symmetry_space_group_name_H-M   'P 1'
_cell_length_a   9.48846666
_cell_length_b   9.48846666
_cell_length_c   7.04371669
_cell_angle_alpha   90.00000000
_cell_angle_beta   90.00000000
_cell_angle_gamma   120.00000000
_symmetry_Int_Tables_number   1
_chemical_formula_structural   La4S3NCl3
_chemical_formula_sum   'La8 S6 N2 Cl6'
_cell_volume   549.19248213
_cell_formula_units_Z   2
loop_
 _symmetry_equiv_pos_site_id
 _symmetry_equiv_pos_as_xyz
  1  'x, y, z'
loop_
 _atom_site_type_symbol
 _atom_site_label
 _atom_site_symmetry_multiplicity
 _atom_site_fract_x
 _atom_site_fract_y
 _atom_site_fract_z
 _atom_site_occupancy
  La  La0  1  0.40269189  0.20134594  0.38469212  1.0
  La  La1  1  0.20134594  0.40269189  0.88469212  1.0
  La  La2  1  0.20134594  0.79865406  0.88469212  1.0
  La  La3  1  0.79865406  0.20134594  0.38469212  1.0
  La  La4  1  0.79865406  0.59730811  0.38469212  1.0
  La  La5  1  0.59730811  0.79865406  0.88469212  1.0
  La  La6  1  0.33333333  0.66666667  0.34521178  1.0
  La  La7  1  0.66666667  0.33333333  0.84521178  1.0
  S  S8  1  0.93591753  0.46795876  0.10548448  1.0
  S  S9  1  0.46795876  0.93591753  0.60548448  1.0
  S  S10  1  0.46795876  0.53204124  0.60548448  1.0
  S  S11  1  0.53204124  0.46795876  0.10548448  1.0
  S  S12  1  0.53204124  0.06408247  0.10548448  1.0
  S  S13  1  0.06408247  0.53204124  0.60548448  1.0
  N  N14  1  0.33333333  0.66666667  0.00008202  1.0
  N  N15  1  0.66666667  0.33333333  0.50008202  1.0
  Cl  Cl16  1  0.73618906  0.86809453  0.27522547  1.0
  Cl  Cl17  1  0.86809453  0.73618906  0.77522547  1.0
  Cl  Cl18  1  0.86809453  0.13190547  0.77522547  1.0
  Cl  Cl19  1  0.13190547  0.86809453  0.27522547  1.0
  Cl  Cl20  1  0.13190547  0.26381094  0.27522547  1.0
  Cl  Cl21  1  0.26381094  0.13190547  0.77522547  1.0
