# generated using pymatgen
data_KPb2C2O6F
_symmetry_space_group_name_H-M   'P 1'
_cell_length_a   5.35805724
_cell_length_b   5.35805724
_cell_length_c   14.40579015
_cell_angle_alpha   90.00000000
_cell_angle_beta   90.00000000
_cell_angle_gamma   120.00000000
_symmetry_Int_Tables_number   1
_chemical_formula_structural   KPb2C2O6F
_chemical_formula_sum   'K2 Pb4 C4 O12 F2'
_cell_volume   358.16439686
_cell_formula_units_Z   2
loop_
 _symmetry_equiv_pos_site_id
 _symmetry_equiv_pos_as_xyz
  1  'x, y, z'
loop_
 _atom_site_type_symbol
 _atom_site_label
 _atom_site_symmetry_multiplicity
 _atom_site_fract_x
 _atom_site_fract_y
 _atom_site_fract_z
 _atom_site_occupancy
  K  K0  1  0.33333333  0.66666667  0.25000000  1.0
  K  K1  1  0.66666667  0.33333333  0.75000000  1.0
  Pb  Pb2  1  0.33333333  0.66666667  0.91442765  1.0
  Pb  Pb3  1  0.33333333  0.66666667  0.58557235  1.0
  Pb  Pb4  1  0.66666667  0.33333333  0.41442765  1.0
  Pb  Pb5  1  0.66666667  0.33333333  0.08557235  1.0
  C  C6  1  0.00000000  0.00000000  0.39357522  1.0
  C  C7  1  0.00000000  0.00000000  0.10642478  1.0
  C  C8  1  0.00000000  0.00000000  0.89357522  1.0
  C  C9  1  0.00000000  0.00000000  0.60642478  1.0
  O  O10  1  0.13993012  0.86006988  0.39387646  1.0
  O  O11  1  0.13993012  0.86006988  0.10612354  1.0
  O  O12  1  0.13993012  0.27986025  0.39387646  1.0
  O  O13  1  0.13993012  0.27986025  0.10612354  1.0
  O  O14  1  0.86006988  0.13993012  0.89387646  1.0
  O  O15  1  0.86006988  0.13993012  0.60612354  1.0
  O  O16  1  0.86006988  0.72013975  0.89387646  1.0
  O  O17  1  0.86006988  0.72013975  0.60612354  1.0
  O  O18  1  0.72013975  0.86006988  0.39387646  1.0
  O  O19  1  0.72013975  0.86006988  0.10612354  1.0
  O  O20  1  0.27986025  0.13993012  0.89387646  1.0
  O  O21  1  0.27986025  0.13993012  0.60612354  1.0
  F  F22  1  0.33333333  0.66666667  0.75000000  1.0
  F  F23  1  0.66666667  0.33333333  0.25000000  1.0
