# generated using pymatgen
data_Gd5NiSb2
_symmetry_space_group_name_H-M   'P 1'
_cell_length_a   12.22936891
_cell_length_b   8.95999539
_cell_length_c   8.01701027
_cell_angle_alpha   90.00000000
_cell_angle_beta   90.00000000
_cell_angle_gamma   90.00000000
_symmetry_Int_Tables_number   1
_chemical_formula_structural   Gd5NiSb2
_chemical_formula_sum   'Gd20 Ni4 Sb8'
_cell_volume   878.46461428
_cell_formula_units_Z   4
loop_
 _symmetry_equiv_pos_site_id
 _symmetry_equiv_pos_as_xyz
  1  'x, y, z'
loop_
 _atom_site_type_symbol
 _atom_site_label
 _atom_site_symmetry_multiplicity
 _atom_site_fract_x
 _atom_site_fract_y
 _atom_site_fract_z
 _atom_site_occupancy
  Gd  Gd0  1  0.93367406  0.95980198  0.18489786  1.0
  Gd  Gd1  1  0.93367406  0.54019802  0.18489786  1.0
  Gd  Gd2  1  0.43367406  0.95980198  0.31510214  1.0
  Gd  Gd3  1  0.43367406  0.54019802  0.31510214  1.0
  Gd  Gd4  1  0.06632594  0.45980198  0.81510214  1.0
  Gd  Gd5  1  0.06632594  0.04019802  0.81510214  1.0
  Gd  Gd6  1  0.56632594  0.45980198  0.68489786  1.0
  Gd  Gd7  1  0.56632594  0.04019802  0.68489786  1.0
  Gd  Gd8  1  0.99931353  0.25000000  0.45509386  1.0
  Gd  Gd9  1  0.49931353  0.25000000  0.04490614  1.0
  Gd  Gd10  1  0.00068647  0.75000000  0.54490614  1.0
  Gd  Gd11  1  0.50068647  0.75000000  0.95509386  1.0
  Gd  Gd12  1  0.80448999  0.25000000  0.87536015  1.0
  Gd  Gd13  1  0.30448999  0.25000000  0.62463985  1.0
  Gd  Gd14  1  0.19551001  0.75000000  0.12463985  1.0
  Gd  Gd15  1  0.69551001  0.75000000  0.37536015  1.0
  Gd  Gd16  1  0.70632462  0.25000000  0.34646728  1.0
  Gd  Gd17  1  0.20632462  0.25000000  0.15353272  1.0
  Gd  Gd18  1  0.29367538  0.75000000  0.65353272  1.0
  Gd  Gd19  1  0.79367538  0.75000000  0.84646728  1.0
  Ni  Ni20  1  0.98624794  0.25000000  0.08025392  1.0
  Ni  Ni21  1  0.48624794  0.25000000  0.41974608  1.0
  Ni  Ni22  1  0.01375206  0.75000000  0.91974608  1.0
  Ni  Ni23  1  0.51375206  0.75000000  0.58025392  1.0
  Sb  Sb24  1  0.67289373  0.50747294  0.07326284  1.0
  Sb  Sb25  1  0.67289373  0.99252706  0.07326284  1.0
  Sb  Sb26  1  0.17289373  0.50747294  0.42673716  1.0
  Sb  Sb27  1  0.17289373  0.99252706  0.42673716  1.0
  Sb  Sb28  1  0.32710627  0.00747294  0.92673716  1.0
  Sb  Sb29  1  0.32710627  0.49252706  0.92673716  1.0
  Sb  Sb30  1  0.82710627  0.00747294  0.57326284  1.0
  Sb  Sb31  1  0.82710627  0.49252706  0.57326284  1.0
