# generated using pymatgen
data_NaSrBO3
_symmetry_space_group_name_H-M   'P 1'
_cell_length_a   5.38251438
_cell_length_b   9.33752986
_cell_length_c   6.14209384
_cell_angle_alpha   90.00000000
_cell_angle_beta   100.41187882
_cell_angle_gamma   90.00000000
_symmetry_Int_Tables_number   1
_chemical_formula_structural   NaSrBO3
_chemical_formula_sum   'Na4 Sr4 B4 O12'
_cell_volume   303.61486983
_cell_formula_units_Z   4
loop_
 _symmetry_equiv_pos_site_id
 _symmetry_equiv_pos_as_xyz
  1  'x, y, z'
loop_
 _atom_site_type_symbol
 _atom_site_label
 _atom_site_symmetry_multiplicity
 _atom_site_fract_x
 _atom_site_fract_y
 _atom_site_fract_z
 _atom_site_occupancy
  Na  Na0  1  0.74477945  0.73998625  0.46845308  1.0
  Na  Na1  1  0.74477945  0.76001375  0.96845308  1.0
  Na  Na2  1  0.25522055  0.23998625  0.03154692  1.0
  Na  Na3  1  0.25522055  0.26001375  0.53154692  1.0
  Sr  Sr4  1  0.75252436  0.08750857  0.28497318  1.0
  Sr  Sr5  1  0.75252436  0.41249143  0.78497318  1.0
  Sr  Sr6  1  0.24747564  0.58750857  0.21502682  1.0
  Sr  Sr7  1  0.24747564  0.91249143  0.71502682  1.0
  B  B8  1  0.75445169  0.42037815  0.26224486  1.0
  B  B9  1  0.75445169  0.07962185  0.76224486  1.0
  B  B10  1  0.24554831  0.92037815  0.23775514  1.0
  B  B11  1  0.24554831  0.57962185  0.73775514  1.0
  O  O12  1  0.96109936  0.34461173  0.21545303  1.0
  O  O13  1  0.96109936  0.15538827  0.71545303  1.0
  O  O14  1  0.03890064  0.84461173  0.28454697  1.0
  O  O15  1  0.03890064  0.65538827  0.78454697  1.0
  O  O16  1  0.57868827  0.35536885  0.36966120  1.0
  O  O17  1  0.57868827  0.14463115  0.86966120  1.0
  O  O18  1  0.42131173  0.85536885  0.13033880  1.0
  O  O19  1  0.42131173  0.64463115  0.63033880  1.0
  O  O20  1  0.27525067  0.06101928  0.31092155  1.0
  O  O21  1  0.27525067  0.43898072  0.81092155  1.0
  O  O22  1  0.72474933  0.56101928  0.18907845  1.0
  O  O23  1  0.72474933  0.93898072  0.68907845  1.0
