# generated using pymatgen
data_Lu2ReC2
_symmetry_space_group_name_H-M   'P 1'
_cell_length_a   6.46484675
_cell_length_b   4.97619754
_cell_length_c   9.64805134
_cell_angle_alpha   90.00000000
_cell_angle_beta   90.00000000
_cell_angle_gamma   90.00000000
_symmetry_Int_Tables_number   1
_chemical_formula_structural   Lu2ReC2
_chemical_formula_sum   'Lu8 Re4 C8'
_cell_volume   310.38123188
_cell_formula_units_Z   4
loop_
 _symmetry_equiv_pos_site_id
 _symmetry_equiv_pos_as_xyz
  1  'x, y, z'
loop_
 _atom_site_type_symbol
 _atom_site_label
 _atom_site_symmetry_multiplicity
 _atom_site_fract_x
 _atom_site_fract_y
 _atom_site_fract_z
 _atom_site_occupancy
  Lu  Lu0  1  0.96341601  0.75000000  0.71707781  1.0
  Lu  Lu1  1  0.46341601  0.75000000  0.78292219  1.0
  Lu  Lu2  1  0.03658399  0.25000000  0.28292219  1.0
  Lu  Lu3  1  0.53658399  0.25000000  0.21707781  1.0
  Lu  Lu4  1  0.82493398  0.75000000  0.05806544  1.0
  Lu  Lu5  1  0.32493398  0.75000000  0.44193456  1.0
  Lu  Lu6  1  0.17506602  0.25000000  0.94193456  1.0
  Lu  Lu7  1  0.67506602  0.25000000  0.55806544  1.0
  Re  Re8  1  0.78633384  0.75000000  0.37106479  1.0
  Re  Re9  1  0.28633384  0.75000000  0.12893521  1.0
  Re  Re10  1  0.21366616  0.25000000  0.62893521  1.0
  Re  Re11  1  0.71366616  0.25000000  0.87106479  1.0
  C  C12  1  1.05441355  0.75000000  0.25899532  1.0
  C  C13  1  0.55441355  0.75000000  0.24100468  1.0
  C  C14  1  -0.05441355  0.25000000  0.74100468  1.0
  C  C15  1  0.44558645  0.25000000  0.75899532  1.0
  C  C16  1  0.67080086  0.75000000  0.55584805  1.0
  C  C17  1  0.17080086  0.75000000  0.94415195  1.0
  C  C18  1  0.32919914  0.25000000  0.44415195  1.0
  C  C19  1  0.82919914  0.25000000  0.05584805  1.0
