# generated using pymatgen
data_Ba7Al4Sb9
_symmetry_space_group_name_H-M   'P 1'
_cell_length_a   10.92257005
_cell_length_b   18.37060241
_cell_length_c   7.23497669
_cell_angle_alpha   90.00000000
_cell_angle_beta   90.00000000
_cell_angle_gamma   90.00000000
_symmetry_Int_Tables_number   1
_chemical_formula_structural   Ba7Al4Sb9
_chemical_formula_sum   'Ba14 Al8 Sb18'
_cell_volume   1451.72839849
_cell_formula_units_Z   2
loop_
 _symmetry_equiv_pos_site_id
 _symmetry_equiv_pos_as_xyz
  1  'x, y, z'
loop_
 _atom_site_type_symbol
 _atom_site_label
 _atom_site_symmetry_multiplicity
 _atom_site_fract_x
 _atom_site_fract_y
 _atom_site_fract_z
 _atom_site_occupancy
  Ba  Ba0  1  0.50000000  0.78444792  0.45537353  1.0
  Ba  Ba1  1  0.50000000  0.21555208  0.45537353  1.0
  Ba  Ba2  1  0.00000000  0.71555208  0.54462647  1.0
  Ba  Ba3  1  0.00000000  0.28444792  0.54462647  1.0
  Ba  Ba4  1  0.27354789  0.87540505  0.95352332  1.0
  Ba  Ba5  1  0.72645211  0.87540505  0.95352332  1.0
  Ba  Ba6  1  0.27354789  0.12459495  0.95352332  1.0
  Ba  Ba7  1  0.72645211  0.12459495  0.95352332  1.0
  Ba  Ba8  1  0.22645211  0.62459495  0.04647668  1.0
  Ba  Ba9  1  0.77354789  0.62459495  0.04647668  1.0
  Ba  Ba10  1  0.22645211  0.37540505  0.04647668  1.0
  Ba  Ba11  1  0.77354789  0.37540505  0.04647668  1.0
  Ba  Ba12  1  0.50000000  0.50000000  0.41465593  1.0
  Ba  Ba13  1  0.00000000  0.00000000  0.58534407  1.0
  Al  Al14  1  0.50000000  0.37346007  0.75905306  1.0
  Al  Al15  1  0.50000000  0.62653993  0.75905306  1.0
  Al  Al16  1  0.00000000  0.12653993  0.24094694  1.0
  Al  Al17  1  0.00000000  0.87346007  0.24094694  1.0
  Al  Al18  1  0.82294207  0.50000000  0.55997546  1.0
  Al  Al19  1  0.17705793  0.50000000  0.55997546  1.0
  Al  Al20  1  0.67705793  0.00000000  0.44002454  1.0
  Al  Al21  1  0.32294207  0.00000000  0.44002454  1.0
  Sb  Sb22  1  0.29000072  0.36909844  0.54768172  1.0
  Sb  Sb23  1  0.70999928  0.36909844  0.54768172  1.0
  Sb  Sb24  1  0.29000072  0.63090156  0.54768172  1.0
  Sb  Sb25  1  0.70999928  0.63090156  0.54768172  1.0
  Sb  Sb26  1  0.20999928  0.13090156  0.45231828  1.0
  Sb  Sb27  1  0.79000072  0.13090156  0.45231828  1.0
  Sb  Sb28  1  0.20999928  0.86909844  0.45231828  1.0
  Sb  Sb29  1  0.79000072  0.86909844  0.45231828  1.0
  Sb  Sb30  1  0.50000000  0.25877920  0.97960196  1.0
  Sb  Sb31  1  0.50000000  0.74122080  0.97960196  1.0
  Sb  Sb32  1  0.00000000  0.24122080  0.02039804  1.0
  Sb  Sb33  1  0.00000000  0.75877920  0.02039804  1.0
  Sb  Sb34  1  0.50000000  0.00000000  0.71048731  1.0
  Sb  Sb35  1  0.00000000  0.50000000  0.28951269  1.0
  Sb  Sb36  1  0.50000000  0.00000000  0.16784446  1.0
  Sb  Sb37  1  0.00000000  0.50000000  0.83215554  1.0
  Sb  Sb38  1  0.50000000  0.50000000  0.95241080  1.0
  Sb  Sb39  1  0.00000000  0.00000000  0.04758920  1.0
