# generated using pymatgen
data_KBePO4
_symmetry_space_group_name_H-M   'P 1'
_cell_length_a   8.48008989
_cell_length_b   8.62250273
_cell_length_c   4.98349672
_cell_angle_alpha   90.00000000
_cell_angle_beta   90.00000000
_cell_angle_gamma   90.00000000
_symmetry_Int_Tables_number   1
_chemical_formula_structural   KBePO4
_chemical_formula_sum   'K4 Be4 P4 O16'
_cell_volume   364.39127808
_cell_formula_units_Z   4
loop_
 _symmetry_equiv_pos_site_id
 _symmetry_equiv_pos_as_xyz
  1  'x, y, z'
loop_
 _atom_site_type_symbol
 _atom_site_label
 _atom_site_symmetry_multiplicity
 _atom_site_fract_x
 _atom_site_fract_y
 _atom_site_fract_z
 _atom_site_occupancy
  K  K0  1  0.49777437  0.29215730  0.21208495  1.0
  K  K1  1  0.50222563  0.70784270  0.71208495  1.0
  K  K2  1  0.00222563  0.79215730  0.71208495  1.0
  K  K3  1  0.99777437  0.20784270  0.21208495  1.0
  Be  Be4  1  0.81942900  0.40862860  0.72270769  1.0
  Be  Be5  1  0.18057100  0.59137140  0.22270769  1.0
  Be  Be6  1  0.68057100  0.90862860  0.22270769  1.0
  Be  Be7  1  0.31942900  0.09137140  0.72270769  1.0
  P  P8  1  0.69078314  0.08006060  0.72411592  1.0
  P  P9  1  0.30921686  0.91993940  0.22411592  1.0
  P  P10  1  0.80921686  0.58006060  0.22411592  1.0
  P  P11  1  0.19078314  0.41993940  0.72411592  1.0
  O  O12  1  0.76342932  0.23577000  0.81746666  1.0
  O  O13  1  0.23657068  0.76423000  0.31746666  1.0
  O  O14  1  0.73657068  0.73577000  0.31746666  1.0
  O  O15  1  0.26342932  0.26423000  0.81746666  1.0
  O  O16  1  0.51021354  0.09577236  0.72565647  1.0
  O  O17  1  0.48978646  0.90422764  0.22565647  1.0
  O  O18  1  0.98978646  0.59577236  0.22565647  1.0
  O  O19  1  0.01021354  0.40422764  0.72565647  1.0
  O  O20  1  0.75448647  0.44991563  0.42162147  1.0
  O  O21  1  0.24551353  0.55008437  0.92162147  1.0
  O  O22  1  0.74551353  0.94991563  0.92162147  1.0
  O  O23  1  0.25448647  0.05008437  0.42162147  1.0
  O  O24  1  0.75084660  0.03816554  0.43734683  1.0
  O  O25  1  0.24915340  0.96183446  0.93734683  1.0
  O  O26  1  0.74915340  0.53816554  0.93734683  1.0
  O  O27  1  0.25084660  0.46183446  0.43734683  1.0
