# generated using pymatgen
data_Si
_symmetry_space_group_name_H-M   'P 1'
_cell_length_a   10.01732987
_cell_length_b   10.01732987
_cell_length_c   16.12582327
_cell_angle_alpha   90.00000000
_cell_angle_beta   90.00000000
_cell_angle_gamma   120.00000000
_symmetry_Int_Tables_number   1
_chemical_formula_structural   Si
_chemical_formula_sum   Si58
_cell_volume   1401.38181714
_cell_formula_units_Z   58
loop_
 _symmetry_equiv_pos_site_id
 _symmetry_equiv_pos_as_xyz
  1  'x, y, z'
loop_
 _atom_site_type_symbol
 _atom_site_label
 _atom_site_symmetry_multiplicity
 _atom_site_fract_x
 _atom_site_fract_y
 _atom_site_fract_z
 _atom_site_occupancy
  Si  Si0  1  0.62039256  0.61943451  0.70499231  1.0
  Si  Si1  1  0.99904195  0.37960744  0.70499231  1.0
  Si  Si2  1  0.38056549  0.00095805  0.70499231  1.0
  Si  Si3  1  0.62039256  0.00095805  0.70499231  1.0
  Si  Si4  1  0.38056549  0.37960744  0.70499231  1.0
  Si  Si5  1  0.99904195  0.61943451  0.70499231  1.0
  Si  Si6  1  0.37960744  0.38056549  0.29500769  1.0
  Si  Si7  1  0.00095805  0.62039256  0.29500769  1.0
  Si  Si8  1  0.61943451  0.99904195  0.29500769  1.0
  Si  Si9  1  0.37960744  0.99904195  0.29500769  1.0
  Si  Si10  1  0.61943451  0.62039256  0.29500769  1.0
  Si  Si11  1  0.00095805  0.38056549  0.29500769  1.0
  Si  Si12  1  0.75547717  0.99939581  0.82652345  1.0
  Si  Si13  1  0.24391864  0.24452283  0.82652345  1.0
  Si  Si14  1  0.00060419  0.75608136  0.82652345  1.0
  Si  Si15  1  0.75547717  0.75608136  0.82652345  1.0
  Si  Si16  1  0.00060419  0.24452283  0.82652345  1.0
  Si  Si17  1  0.24391864  0.99939581  0.82652345  1.0
  Si  Si18  1  0.24452283  0.00060419  0.17347655  1.0
  Si  Si19  1  0.75608136  0.75547717  0.17347655  1.0
  Si  Si20  1  0.99939581  0.24391864  0.17347655  1.0
  Si  Si21  1  0.24452283  0.24391864  0.17347655  1.0
  Si  Si22  1  0.99939581  0.75547717  0.17347655  1.0
  Si  Si23  1  0.75608136  0.00060419  0.17347655  1.0
  Si  Si24  1  0.57869463  0.66648108  0.94191070  1.0
  Si  Si25  1  0.08778645  0.42130537  0.94191070  1.0
  Si  Si26  1  0.33351892  0.91221355  0.94191070  1.0
  Si  Si27  1  0.57869463  0.91221355  0.94191070  1.0
  Si  Si28  1  0.33351892  0.42130537  0.94191070  1.0
  Si  Si29  1  0.08778645  0.66648108  0.94191070  1.0
  Si  Si30  1  0.42130537  0.33351892  0.05808930  1.0
  Si  Si31  1  0.91221355  0.57869463  0.05808930  1.0
  Si  Si32  1  0.66648108  0.08778645  0.05808930  1.0
  Si  Si33  1  0.42130537  0.08778645  0.05808930  1.0
  Si  Si34  1  0.66648108  0.57869463  0.05808930  1.0
  Si  Si35  1  0.91221355  0.33351892  0.05808930  1.0
  Si  Si36  1  0.73299639  0.86649820  0.50048602  1.0
  Si  Si37  1  0.13350180  0.26700361  0.50048602  1.0
  Si  Si38  1  0.13350180  0.86649820  0.50048602  1.0
  Si  Si39  1  0.26700361  0.13350180  0.49951398  1.0
  Si  Si40  1  0.86649820  0.73299639  0.49951398  1.0
  Si  Si41  1  0.86649820  0.13350180  0.49951398  1.0
  Si  Si42  1  0.58282300  0.79141150  0.37828060  1.0
  Si  Si43  1  0.20858850  0.41717700  0.37828060  1.0
  Si  Si44  1  0.20858850  0.79141150  0.37828060  1.0
  Si  Si45  1  0.41717700  0.20858850  0.62171940  1.0
  Si  Si46  1  0.79141150  0.58282300  0.62171940  1.0
  Si  Si47  1  0.79141150  0.20858850  0.62171940  1.0
  Si  Si48  1  0.58300001  0.79150000  0.62295913  1.0
  Si  Si49  1  0.20850000  0.41699999  0.62295913  1.0
  Si  Si50  1  0.20850000  0.79150000  0.62295913  1.0
  Si  Si51  1  0.41699999  0.20850000  0.37704087  1.0
  Si  Si52  1  0.79150000  0.58300001  0.37704087  1.0
  Si  Si53  1  0.79150000  0.20850000  0.37704087  1.0
  Si  Si54  1  0.33333333  0.66666667  0.57283813  1.0
  Si  Si55  1  0.66666667  0.33333333  0.42716187  1.0
  Si  Si56  1  0.33333333  0.66666667  0.42851009  1.0
  Si  Si57  1  0.66666667  0.33333333  0.57148991  1.0
