# generated using pymatgen
data_KNa2AuO2
_symmetry_space_group_name_H-M   'P 1'
_cell_length_a   5.54103295
_cell_length_b   10.29082567
_cell_length_c   3.97084674
_cell_angle_alpha   90.00000000
_cell_angle_beta   90.00000000
_cell_angle_gamma   90.00000000
_symmetry_Int_Tables_number   1
_chemical_formula_structural   KNa2AuO2
_chemical_formula_sum   'K2 Na4 Au2 O4'
_cell_volume   226.42484483
_cell_formula_units_Z   2
loop_
 _symmetry_equiv_pos_site_id
 _symmetry_equiv_pos_as_xyz
  1  'x, y, z'
loop_
 _atom_site_type_symbol
 _atom_site_label
 _atom_site_symmetry_multiplicity
 _atom_site_fract_x
 _atom_site_fract_y
 _atom_site_fract_z
 _atom_site_occupancy
  K  K0  1  0.50000000  0.00000000  0.50000000  1.0
  K  K1  1  0.00000000  0.50000000  0.00000000  1.0
  Na  Na2  1  0.91837380  0.77195772  0.50000000  1.0
  Na  Na3  1  0.41837380  0.72804228  0.00000000  1.0
  Na  Na4  1  0.08162620  0.22804228  0.50000000  1.0
  Na  Na5  1  0.58162620  0.27195772  0.00000000  1.0
  Au  Au6  1  0.50000000  0.50000000  0.50000000  1.0
  Au  Au7  1  0.00000000  0.00000000  0.00000000  1.0
  O  O8  1  0.25520459  0.64620353  0.50000000  1.0
  O  O9  1  0.75520459  0.85379647  0.00000000  1.0
  O  O10  1  0.74479541  0.35379647  0.50000000  1.0
  O  O11  1  0.24479541  0.14620353  0.00000000  1.0
