# generated using pymatgen
data_Pr(PdO2)2
_symmetry_space_group_name_H-M   'P 1'
_cell_length_a   6.59910887
_cell_length_b   6.59910887
_cell_length_c   6.59910887
_cell_angle_alpha   127.03793740
_cell_angle_beta   127.03793740
_cell_angle_gamma   78.18880038
_symmetry_Int_Tables_number   1
_chemical_formula_structural   Pr(PdO2)2
_chemical_formula_sum   'Pr2 Pd4 O8'
_cell_volume   177.38460874
_cell_formula_units_Z   2
loop_
 _symmetry_equiv_pos_site_id
 _symmetry_equiv_pos_as_xyz
  1  'x, y, z'
loop_
 _atom_site_type_symbol
 _atom_site_label
 _atom_site_symmetry_multiplicity
 _atom_site_fract_x
 _atom_site_fract_y
 _atom_site_fract_z
 _atom_site_occupancy
  Pr  Pr0  1  0.75000000  0.25000000  0.50000000  1.0
  Pr  Pr1  1  1.00000000  1.00000000  1.00000000  1.0
  Pd  Pd2  1  0.37500000  1.12500000  0.75000000  1.0
  Pd  Pd3  1  0.37500000  0.62500000  0.25000000  1.0
  Pd  Pd4  1  0.37500000  0.62500000  0.75000000  1.0
  Pd  Pd5  1  0.87500000  0.62500000  1.25000000  1.0
  O  O6  1  0.71094627  0.85428019  0.46813061  1.0
  O  O7  1  1.38614958  1.24281567  1.53186939  1.0
  O  O8  1  0.99281567  0.96094627  1.35666609  1.0
  O  O9  1  0.60428019  0.63614958  0.64333391  1.0
  O  O10  1  1.03905373  0.39571981  1.03186939  1.0
  O  O11  1  0.36385042  1.00718433  0.96813061  1.0
  O  O12  1  0.75718433  1.28905373  1.14333391  1.0
  O  O13  1  1.14571981  0.61385042  0.85666609  1.0
