# generated using pymatgen
data_NbFeS2
_symmetry_space_group_name_H-M   'P 1'
_cell_length_a   3.34840169
_cell_length_b   3.34840169
_cell_length_c   12.40719522
_cell_angle_alpha   90.00000000
_cell_angle_beta   90.00000000
_cell_angle_gamma   120.00000000
_symmetry_Int_Tables_number   1
_chemical_formula_structural   NbFeS2
_chemical_formula_sum   'Nb2 Fe2 S4'
_cell_volume   120.47012270
_cell_formula_units_Z   2
loop_
 _symmetry_equiv_pos_site_id
 _symmetry_equiv_pos_as_xyz
  1  'x, y, z'
loop_
 _atom_site_type_symbol
 _atom_site_label
 _atom_site_symmetry_multiplicity
 _atom_site_fract_x
 _atom_site_fract_y
 _atom_site_fract_z
 _atom_site_occupancy
  Nb  Nb0  1  0.00000000  0.00000000  0.25000000  1.0
  Nb  Nb1  1  0.00000000  0.00000000  0.75000000  1.0
  Fe  Fe2  1  0.00000000  0.00000000  0.50000000  1.0
  Fe  Fe3  1  0.00000000  0.00000000  0.00000000  1.0
  S  S4  1  0.33333333  0.66666667  0.37956144  1.0
  S  S5  1  0.33333333  0.66666667  0.12043856  1.0
  S  S6  1  0.66666667  0.33333333  0.87956144  1.0
  S  S7  1  0.66666667  0.33333333  0.62043856  1.0
