# generated using pymatgen
data_Rb2Li3GaO4
_symmetry_space_group_name_H-M   'P 1'
_cell_length_a   7.98444676
_cell_length_b   7.98444676
_cell_length_c   7.98444676
_cell_angle_alpha   143.83470080
_cell_angle_beta   103.79203736
_cell_angle_gamma   87.37973265
_symmetry_Int_Tables_number   1
_chemical_formula_structural   Rb2Li3GaO4
_chemical_formula_sum   'Rb4 Li6 Ga2 O8'
_cell_volume   281.99477660
_cell_formula_units_Z   2
loop_
 _symmetry_equiv_pos_site_id
 _symmetry_equiv_pos_as_xyz
  1  'x, y, z'
loop_
 _atom_site_type_symbol
 _atom_site_label
 _atom_site_symmetry_multiplicity
 _atom_site_fract_x
 _atom_site_fract_y
 _atom_site_fract_z
 _atom_site_occupancy
  Rb  Rb0  1  1.37083349  1.26534133  1.63617483  1.0
  Rb  Rb1  1  1.12916651  0.76534133  0.89450784  1.0
  Rb  Rb2  1  0.87083349  1.23465867  1.10549216  1.0
  Rb  Rb3  1  0.62916651  0.73465867  0.36382517  1.0
  Li  Li4  1  1.25000000  1.25000000  1.00000000  1.0
  Li  Li5  1  0.75000000  0.75000000  1.00000000  1.0
  Li  Li6  1  1.01003863  1.25000000  0.76003863  1.0
  Li  Li7  1  0.51003863  0.75000000  0.76003863  1.0
  Li  Li8  1  0.98996137  0.75000000  1.23996137  1.0
  Li  Li9  1  1.48996137  1.25000000  1.23996137  1.0
  Ga  Ga10  1  1.25000000  0.75000000  0.50000000  1.0
  Ga  Ga11  1  0.75000000  0.25000000  0.50000000  1.0
  O  O12  1  1.05114532  0.90539133  0.61572480  1.0
  O  O13  1  0.71033348  0.56457948  0.61572480  1.0
  O  O14  1  0.78966652  0.40539133  0.85424600  1.0
  O  O15  1  1.44885468  1.06457948  0.85424600  1.0
  O  O16  1  0.55114532  0.93542052  1.14575400  1.0
  O  O17  1  1.21033348  1.59460867  1.14575400  1.0
  O  O18  1  1.28966652  1.43542052  1.38427520  1.0
  O  O19  1  0.94885468  1.09460867  1.38427520  1.0
