# generated using pymatgen
data_LiC
_symmetry_space_group_name_H-M   'P 1'
_cell_length_a   4.04130183
_cell_length_b   4.04130183
_cell_length_c   4.04130183
_cell_angle_alpha   126.65451356
_cell_angle_beta   106.58948936
_cell_angle_gamma   96.74778456
_symmetry_Int_Tables_number   1
_chemical_formula_structural   LiC
_chemical_formula_sum   'Li2 C2'
_cell_volume   47.05356291
_cell_formula_units_Z   2
loop_
 _symmetry_equiv_pos_site_id
 _symmetry_equiv_pos_as_xyz
  1  'x, y, z'
loop_
 _atom_site_type_symbol
 _atom_site_label
 _atom_site_symmetry_multiplicity
 _atom_site_fract_x
 _atom_site_fract_y
 _atom_site_fract_z
 _atom_site_occupancy
  Li  Li0  1  0.76200104  0.76200104  1.00000000  1.0
  Li  Li1  1  1.23799896  1.23799896  1.00000000  1.0
  C  C2  1  0.63023606  -0.00000000  0.63023606  1.0
  C  C3  1  0.36976394  0.00000000  0.36976394  1.0
