# generated using pymatgen
data_Cs4CdNi3F12
_symmetry_space_group_name_H-M   'P 1'
_cell_length_a   10.81019964
_cell_length_b   10.81019964
_cell_length_c   10.81019964
_cell_angle_alpha   33.92489202
_cell_angle_beta   33.92489202
_cell_angle_gamma   33.92489202
_symmetry_Int_Tables_number   1
_chemical_formula_structural   Cs4CdNi3F12
_chemical_formula_sum   'Cs4 Cd1 Ni3 F12'
_cell_volume   350.70402847
_cell_formula_units_Z   1
loop_
 _symmetry_equiv_pos_site_id
 _symmetry_equiv_pos_as_xyz
  1  'x, y, z'
loop_
 _atom_site_type_symbol
 _atom_site_label
 _atom_site_symmetry_multiplicity
 _atom_site_fract_x
 _atom_site_fract_y
 _atom_site_fract_z
 _atom_site_occupancy
  Cs  Cs0  1  0.78602006  0.78602006  0.78602006  1.0
  Cs  Cs1  1  1.21397994  1.21397994  0.21397994  1.0
  Cs  Cs2  1  1.62959734  0.62959734  0.62959734  1.0
  Cs  Cs3  1  1.37040266  0.37040266  0.37040266  1.0
  F  F4  1  1.28386543  1.28386543  -0.19305036  1.0
  F  F5  1  1.28386543  0.80694964  0.28386543  1.0
  F  F6  1  1.19305036  0.71613457  0.71613457  1.0
  F  F7  1  1.71613457  0.19305036  0.71613457  1.0
  F  F8  1  1.71613457  0.71613457  0.19305036  1.0
  F  F9  1  0.80694964  1.28386543  0.28386543  1.0
  F  F10  1  1.09647963  1.09647963  0.67551456  1.0
  F  F11  1  1.09647963  1.67551456  0.09647963  1.0
  F  F12  1  1.32448544  0.90352037  -0.09647963  1.0
  F  F13  1  0.90352037  1.32448544  -0.09647963  1.0
  F  F14  1  0.90352037  0.90352037  0.32448544  1.0
  F  F15  1  1.67551456  1.09647963  0.09647963  1.0
  Ni  Ni16  1  0.00000000  -0.00000000  -0.00000000  1.0
  Ni  Ni17  1  0.91047301  0.91047301  0.91047301  1.0
  Ni  Ni18  1  1.08952699  1.08952699  0.08952699  1.0
  Cd  Cd19  1  1.50000000  0.50000000  0.50000000  1.0
