# generated using pymatgen
data_Na3Mg2SbO6
_symmetry_space_group_name_H-M   'P 1'
_cell_length_a   5.39856178
_cell_length_b   5.39856178
_cell_length_c   5.75858731
_cell_angle_alpha   80.96355372
_cell_angle_beta   99.03644628
_cell_angle_gamma   60.03525204
_symmetry_Int_Tables_number   1
_chemical_formula_structural   Na3Mg2SbO6
_chemical_formula_sum   'Na3 Mg2 Sb1 O6'
_cell_volume   138.04572806
_cell_formula_units_Z   1
loop_
 _symmetry_equiv_pos_site_id
 _symmetry_equiv_pos_as_xyz
  1  'x, y, z'
loop_
 _atom_site_type_symbol
 _atom_site_label
 _atom_site_symmetry_multiplicity
 _atom_site_fract_x
 _atom_site_fract_y
 _atom_site_fract_z
 _atom_site_occupancy
  Na  Na0  1  0.67100099  -0.32899901  0.50000000  1.0
  Na  Na1  1  1.32899901  0.32899901  0.50000000  1.0
  Na  Na2  1  0.00000000  -0.00000000  0.50000000  1.0
  Mg  Mg3  1  0.83361757  -0.16638243  0.00000000  1.0
  Mg  Mg4  1  1.16638243  0.16638243  0.00000000  1.0
  Sb  Sb5  1  0.50000000  -0.50000000  0.00000000  1.0
  O  O6  1  0.43265098  -0.11417033  0.79728108  1.0
  O  O7  1  1.11417033  0.56734902  0.79728108  1.0
  O  O8  1  0.88582967  -0.56734902  0.20271892  1.0
  O  O9  1  1.56734902  0.11417033  0.20271892  1.0
  O  O10  1  0.75035432  -0.75035432  0.79866469  1.0
  O  O11  1  0.24964568  -0.24964568  0.20133531  1.0
