# generated using pymatgen
data_ZnC2(SN)2
_symmetry_space_group_name_H-M   'P 1'
_cell_length_a   8.28399298
_cell_length_b   8.12941539
_cell_length_c   11.55051737
_cell_angle_alpha   107.68975808
_cell_angle_beta   110.29717836
_cell_angle_gamma   83.60671866
_symmetry_Int_Tables_number   1
_chemical_formula_structural   ZnC2(SN)2
_chemical_formula_sum   'Zn4 C8 S8 N8'
_cell_volume   695.04601511
_cell_formula_units_Z   4
loop_
 _symmetry_equiv_pos_site_id
 _symmetry_equiv_pos_as_xyz
  1  'x, y, z'
loop_
 _atom_site_type_symbol
 _atom_site_label
 _atom_site_symmetry_multiplicity
 _atom_site_fract_x
 _atom_site_fract_y
 _atom_site_fract_z
 _atom_site_occupancy
  Zn  Zn0  1  0.58058043  0.79477625  -0.18105281  1.0
  Zn  Zn1  1  0.41941957  0.20522375  -0.81894719  1.0
  Zn  Zn2  1  0.92586151  0.70193094  -0.71031372  1.0
  Zn  Zn3  1  0.07413849  0.29806906  -0.28968628  1.0
  C  C4  1  0.86343679  0.89705627  -0.91044347  1.0
  C  C5  1  0.13656321  0.10294373  -0.08955653  1.0
  C  C6  1  0.60502933  0.92020383  -0.68800365  1.0
  C  C7  1  0.39497067  0.07979617  -0.31199635  1.0
  C  C8  1  0.74564016  0.51338724  -0.36101090  1.0
  C  C9  1  0.25435984  0.48661276  -0.63898910  1.0
  C  C10  1  0.70022991  0.37965741  -0.86710224  1.0
  C  C11  1  0.29977009  0.62034259  -0.13289776  1.0
  S  S12  1  0.01015099  0.92880727  -0.76685270  1.0
  S  S13  1  0.98984901  0.07119273  -0.23314730  1.0
  S  S14  1  0.71476808  0.78565785  -0.60716223  1.0
  S  S15  1  0.28523192  0.21434215  -0.39283777  1.0
  S  S16  1  0.84122154  0.46866129  -0.90030811  1.0
  S  S17  1  0.15877846  0.53133871  -0.09969189  1.0
  S  S18  1  0.83373217  0.36554004  -0.45442317  1.0
  S  S19  1  0.16626783  0.63445996  -0.54557683  1.0
  N  N20  1  0.52338157  1.01700880  -0.74364002  1.0
  N  N21  1  0.47661843  -0.01700880  -0.25635998  1.0
  N  N22  1  0.76045627  0.87701754  -0.01342132  1.0
  N  N23  1  0.23954373  0.12298246  0.01342132  1.0
  N  N24  1  0.67955656  0.62022792  -0.29757702  1.0
  N  N25  1  0.32044344  0.37977208  -0.70242298  1.0
  N  N26  1  0.59866439  0.31218721  -0.84714295  1.0
  N  N27  1  0.40133561  0.68781279  -0.15285705  1.0
