# generated using pymatgen
data_Zn3SiNi2
_symmetry_space_group_name_H-M   'P 1'
_cell_length_a   7.58076450
_cell_length_b   7.58076450
_cell_length_c   7.58076450
_cell_angle_alpha   60.00000000
_cell_angle_beta   60.00000000
_cell_angle_gamma   60.00000000
_symmetry_Int_Tables_number   1
_chemical_formula_structural   Zn3SiNi2
_chemical_formula_sum   'Zn12 Si4 Ni8'
_cell_volume   308.05198967
_cell_formula_units_Z   4
loop_
 _symmetry_equiv_pos_site_id
 _symmetry_equiv_pos_as_xyz
  1  'x, y, z'
loop_
 _atom_site_type_symbol
 _atom_site_label
 _atom_site_symmetry_multiplicity
 _atom_site_fract_x
 _atom_site_fract_y
 _atom_site_fract_z
 _atom_site_occupancy
  Zn  Zn0  1  0.81339414  0.81339414  -0.81339414  1.0
  Zn  Zn1  1  0.18660586  1.18660586  -0.18660586  1.0
  Zn  Zn2  1  0.81339414  -0.81339414  0.81339414  1.0
  Zn  Zn3  1  0.18660586  -0.18660586  0.18660586  1.0
  Zn  Zn4  1  -0.81339414  0.81339414  0.81339414  1.0
  Zn  Zn5  1  -0.18660586  0.18660586  0.18660586  1.0
  Zn  Zn6  1  0.43660586  1.43660586  0.06339414  1.0
  Zn  Zn7  1  0.06339414  0.06339414  0.43660586  1.0
  Zn  Zn8  1  0.43660586  1.06339414  0.43660586  1.0
  Zn  Zn9  1  0.06339414  1.43660586  0.06339414  1.0
  Zn  Zn10  1  0.06339414  1.43660586  0.43660586  1.0
  Zn  Zn11  1  0.43660586  1.06339414  0.06339414  1.0
  Si  Si12  1  1.12500000  0.62500000  0.62500000  1.0
  Si  Si13  1  0.62500000  1.12500000  -0.37500000  1.0
  Si  Si14  1  -0.37500000  0.62500000  1.12500000  1.0
  Si  Si15  1  -0.37500000  0.62500000  0.62500000  1.0
  Ni  Ni16  1  -0.24101056  0.41367019  0.41367019  1.0
  Ni  Ni17  1  0.41367019  -0.24101056  0.41367019  1.0
  Ni  Ni18  1  0.41367019  1.41367019  -0.24101056  1.0
  Ni  Ni19  1  0.41367019  1.41367019  0.41367019  1.0
  Ni  Ni20  1  0.49101056  0.83632981  -0.16367019  1.0
  Ni  Ni21  1  0.83632981  0.49101056  0.83632981  1.0
  Ni  Ni22  1  0.83632981  0.83632981  -0.50898944  1.0
  Ni  Ni23  1  0.83632981  0.83632981  0.83632981  1.0
