# generated using pymatgen
data_ZrReSi2
_symmetry_space_group_name_H-M   'P 1'
_cell_length_a   9.24879668
_cell_length_b   10.12744966
_cell_length_c   8.10969211
_cell_angle_alpha   90.00000000
_cell_angle_beta   90.00000000
_cell_angle_gamma   90.00000000
_symmetry_Int_Tables_number   1
_chemical_formula_structural   ZrReSi2
_chemical_formula_sum   'Zr12 Re12 Si24'
_cell_volume   759.60828303
_cell_formula_units_Z   12
loop_
 _symmetry_equiv_pos_site_id
 _symmetry_equiv_pos_as_xyz
  1  'x, y, z'
loop_
 _atom_site_type_symbol
 _atom_site_label
 _atom_site_symmetry_multiplicity
 _atom_site_fract_x
 _atom_site_fract_y
 _atom_site_fract_z
 _atom_site_occupancy
  Zr  Zr0  1  0.17435135  0.54843137  0.75265922  1.0
  Zr  Zr1  1  0.17435135  0.54843137  0.24734078  1.0
  Zr  Zr2  1  0.67435135  0.95156863  0.75265922  1.0
  Zr  Zr3  1  0.67435135  0.95156863  0.24734078  1.0
  Zr  Zr4  1  0.82564865  0.45156863  0.75265922  1.0
  Zr  Zr5  1  0.82564865  0.45156863  0.24734078  1.0
  Zr  Zr6  1  0.32564865  0.04843137  0.75265922  1.0
  Zr  Zr7  1  0.32564865  0.04843137  0.24734078  1.0
  Zr  Zr8  1  0.17075897  0.82009017  0.00000000  1.0
  Zr  Zr9  1  0.67075897  0.67990983  0.00000000  1.0
  Zr  Zr10  1  0.82924103  0.17990983  0.00000000  1.0
  Zr  Zr11  1  0.32924103  0.32009017  0.00000000  1.0
  Re  Re12  1  0.41550729  0.75879445  0.74974310  1.0
  Re  Re13  1  0.41550729  0.75879445  0.25025690  1.0
  Re  Re14  1  0.91550729  0.74120555  0.74974310  1.0
  Re  Re15  1  0.91550729  0.74120555  0.25025690  1.0
  Re  Re16  1  0.58449271  0.24120555  0.74974310  1.0
  Re  Re17  1  0.58449271  0.24120555  0.25025690  1.0
  Re  Re18  1  0.08449271  0.25879445  0.74974310  1.0
  Re  Re19  1  0.08449271  0.25879445  0.25025690  1.0
  Re  Re20  1  0.50000000  0.50000000  0.75465870  1.0
  Re  Re21  1  0.50000000  0.50000000  0.24534130  1.0
  Re  Re22  1  0.00000000  0.00000000  0.75465870  1.0
  Re  Re23  1  0.00000000  0.00000000  0.24534130  1.0
  Si  Si24  1  0.16725045  0.81918761  0.64590124  1.0
  Si  Si25  1  0.16725045  0.81918761  0.35409876  1.0
  Si  Si26  1  0.66725045  0.68081239  0.64590124  1.0
  Si  Si27  1  0.66725045  0.68081239  0.35409876  1.0
  Si  Si28  1  0.83274955  0.18081239  0.64590124  1.0
  Si  Si29  1  0.83274955  0.18081239  0.35409876  1.0
  Si  Si30  1  0.33274955  0.31918761  0.64590124  1.0
  Si  Si31  1  0.33274955  0.31918761  0.35409876  1.0
  Si  Si32  1  0.46403629  0.88495397  0.50000000  1.0
  Si  Si33  1  0.96403629  0.61504603  0.50000000  1.0
  Si  Si34  1  0.53596371  0.11504603  0.50000000  1.0
  Si  Si35  1  0.03596371  0.38495397  0.50000000  1.0
  Si  Si36  1  0.37595753  0.59620813  0.50000000  1.0
  Si  Si37  1  0.87595753  0.90379187  0.50000000  1.0
  Si  Si38  1  0.62404247  0.40379187  0.50000000  1.0
  Si  Si39  1  0.12404247  0.09620813  0.50000000  1.0
  Si  Si40  1  0.46518045  0.88472695  0.00000000  1.0
  Si  Si41  1  0.96518045  0.61527305  0.00000000  1.0
  Si  Si42  1  0.53481955  0.11527305  0.00000000  1.0
  Si  Si43  1  0.03481955  0.38472695  0.00000000  1.0
  Si  Si44  1  0.36996009  0.60173770  0.00000000  1.0
  Si  Si45  1  0.86996009  0.89826230  0.00000000  1.0
  Si  Si46  1  0.63003991  0.39826230  0.00000000  1.0
  Si  Si47  1  0.13003991  0.10173770  0.00000000  1.0
