# generated using pymatgen
data_Ir4C5
_symmetry_space_group_name_H-M   'P 1'
_cell_length_a   5.03205685
_cell_length_b   5.03205685
_cell_length_c   15.01698670
_cell_angle_alpha   90.00000000
_cell_angle_beta   90.00000000
_cell_angle_gamma   90.00000000
_symmetry_Int_Tables_number   1
_chemical_formula_structural   Ir4C5
_chemical_formula_sum   'Ir16 C20'
_cell_volume   380.25407277
_cell_formula_units_Z   4
loop_
 _symmetry_equiv_pos_site_id
 _symmetry_equiv_pos_as_xyz
  1  'x, y, z'
loop_
 _atom_site_type_symbol
 _atom_site_label
 _atom_site_symmetry_multiplicity
 _atom_site_fract_x
 _atom_site_fract_y
 _atom_site_fract_z
 _atom_site_occupancy
  Ir  Ir0  1  0.00000000  0.00000000  0.50000000  1.0
  Ir  Ir1  1  0.00000000  0.00000000  0.00000000  1.0
  Ir  Ir2  1  0.00000000  0.00000000  0.25000000  1.0
  Ir  Ir3  1  0.00000000  0.00000000  0.75000000  1.0
  Ir  Ir4  1  0.50000000  0.50000000  0.36472155  1.0
  Ir  Ir5  1  0.50000000  0.50000000  0.86472155  1.0
  Ir  Ir6  1  0.50000000  0.50000000  0.63527845  1.0
  Ir  Ir7  1  0.50000000  0.50000000  0.13527845  1.0
  Ir  Ir8  1  0.00000000  0.50000000  0.43984124  1.0
  Ir  Ir9  1  0.00000000  0.50000000  0.93984124  1.0
  Ir  Ir10  1  0.50000000  0.00000000  0.56015876  1.0
  Ir  Ir11  1  0.50000000  0.00000000  0.06015876  1.0
  Ir  Ir12  1  0.00000000  0.50000000  0.17339038  1.0
  Ir  Ir13  1  0.00000000  0.50000000  0.67339038  1.0
  Ir  Ir14  1  0.50000000  0.00000000  0.82660962  1.0
  Ir  Ir15  1  0.50000000  0.00000000  0.32660962  1.0
  C  C16  1  0.67768270  0.32231730  0.25000000  1.0
  C  C17  1  0.32231730  0.67768270  0.25000000  1.0
  C  C18  1  0.32231730  0.32231730  0.75000000  1.0
  C  C19  1  0.67768270  0.67768270  0.75000000  1.0
  C  C20  1  0.66641649  0.19013189  0.44583181  1.0
  C  C21  1  0.33358351  0.80986811  0.44583181  1.0
  C  C22  1  0.33358351  0.19013189  0.94583181  1.0
  C  C23  1  0.66641649  0.80986811  0.94583181  1.0
  C  C24  1  0.19013189  0.33358351  0.55416819  1.0
  C  C25  1  0.80986811  0.66641649  0.55416819  1.0
  C  C26  1  0.19013189  0.66641649  0.05416819  1.0
  C  C27  1  0.80986811  0.33358351  0.05416819  1.0
  C  C28  1  0.16065208  0.22982765  0.35319545  1.0
  C  C29  1  0.83934792  0.77017235  0.35319545  1.0
  C  C30  1  0.83934792  0.22982765  0.85319545  1.0
  C  C31  1  0.16065208  0.77017235  0.85319545  1.0
  C  C32  1  0.22982765  0.83934792  0.64680455  1.0
  C  C33  1  0.77017235  0.16065208  0.64680455  1.0
  C  C34  1  0.22982765  0.16065208  0.14680455  1.0
  C  C35  1  0.77017235  0.83934792  0.14680455  1.0
