# generated using pymatgen
data_CaAsHO5
_symmetry_space_group_name_H-M   'P 1'
_cell_length_a   6.89392023
_cell_length_b   8.08855118
_cell_length_c   15.50022891
_cell_angle_alpha   90.00000000
_cell_angle_beta   90.00000000
_cell_angle_gamma   90.00000000
_symmetry_Int_Tables_number   1
_chemical_formula_structural   CaAsHO5
_chemical_formula_sum   'Ca8 As8 H8 O40'
_cell_volume   864.32107718
_cell_formula_units_Z   8
loop_
 _symmetry_equiv_pos_site_id
 _symmetry_equiv_pos_as_xyz
  1  'x, y, z'
loop_
 _atom_site_type_symbol
 _atom_site_label
 _atom_site_symmetry_multiplicity
 _atom_site_fract_x
 _atom_site_fract_y
 _atom_site_fract_z
 _atom_site_occupancy
  As  As0  1  0.86916852  0.06113802  0.38459126  1.0
  As  As1  1  0.63083148  0.43886198  0.88459126  1.0
  As  As2  1  0.36916852  0.43886198  0.61540874  1.0
  As  As3  1  0.13083148  0.06113802  0.11540874  1.0
  As  As4  1  0.13083148  0.93886198  0.61540874  1.0
  As  As5  1  0.36916852  0.56113802  0.11540874  1.0
  As  As6  1  0.63083148  0.56113802  0.38459126  1.0
  As  As7  1  0.86916852  0.93886198  0.88459126  1.0
  O  O8  1  0.67412721  0.04228893  0.45386792  1.0
  O  O9  1  0.82587279  0.45771107  0.95386792  1.0
  O  O10  1  0.17412721  0.45771107  0.54613208  1.0
  O  O11  1  0.32587279  0.04228893  0.04613208  1.0
  O  O12  1  0.32587279  0.95771107  0.54613208  1.0
  O  O13  1  0.17412721  0.54228893  0.04613208  1.0
  O  O14  1  0.82587279  0.54228893  0.45386792  1.0
  O  O15  1  0.67412721  0.95771107  0.95386792  1.0
  O  O16  1  0.96923629  0.87169628  0.35808112  1.0
  O  O17  1  0.53076371  0.62830372  0.85808112  1.0
  O  O18  1  0.46923629  0.62830372  0.64191888  1.0
  O  O19  1  0.03076371  0.87169628  0.14191888  1.0
  O  O20  1  0.03076371  0.12830372  0.64191888  1.0
  O  O21  1  0.46923629  0.37169628  0.14191888  1.0
  O  O22  1  0.53076371  0.37169628  0.35808112  1.0
  O  O23  1  0.96923629  0.12830372  0.85808112  1.0
  O  O24  1  0.79735704  0.43224286  0.15536432  1.0
  O  O25  1  0.70264296  0.06775714  0.65536432  1.0
  O  O26  1  0.29735704  0.06775714  0.84463568  1.0
  O  O27  1  0.20264296  0.43224286  0.34463568  1.0
  O  O28  1  0.20264296  0.56775714  0.84463568  1.0
  O  O29  1  0.29735704  0.93224286  0.34463568  1.0
  O  O30  1  0.70264296  0.93224286  0.15536432  1.0
  O  O31  1  0.79735704  0.56775714  0.65536432  1.0
  O  O32  1  0.02832725  0.19270972  0.43616486  1.0
  O  O33  1  0.47167275  0.30729028  0.93616486  1.0
  O  O34  1  0.52832725  0.30729028  0.56383514  1.0
  O  O35  1  0.97167275  0.19270972  0.06383514  1.0
  O  O36  1  0.97167275  0.80729028  0.56383514  1.0
  O  O37  1  0.52832725  0.69270972  0.06383514  1.0
  O  O38  1  0.47167275  0.69270972  0.43616486  1.0
  O  O39  1  0.02832725  0.80729028  0.93616486  1.0
  O  O40  1  0.78427789  0.14318786  0.28499865  1.0
  O  O41  1  0.71572211  0.35681214  0.78499865  1.0
  O  O42  1  0.28427789  0.35681214  0.71500135  1.0
  O  O43  1  0.21572211  0.14318786  0.21500135  1.0
  O  O44  1  0.21572211  0.85681214  0.71500135  1.0
  O  O45  1  0.28427789  0.64318786  0.21500135  1.0
  O  O46  1  0.71572211  0.64318786  0.28499865  1.0
  O  O47  1  0.78427789  0.85681214  0.78499865  1.0
  H  H48  1  0.69859045  0.23927671  0.29879545  1.0
  H  H49  1  0.80140955  0.26072329  0.79879545  1.0
  H  H50  1  0.19859045  0.26072329  0.70120455  1.0
  H  H51  1  0.30140955  0.23927671  0.20120455  1.0
  H  H52  1  0.30140955  0.76072329  0.70120455  1.0
  H  H53  1  0.19859045  0.73927671  0.20120455  1.0
  H  H54  1  0.80140955  0.73927671  0.29879545  1.0
  H  H55  1  0.69859045  0.76072329  0.79879545  1.0
  Ca  Ca56  1  0.86571265  0.67128304  0.05748396  1.0
  Ca  Ca57  1  0.63428735  0.82871696  0.55748396  1.0
  Ca  Ca58  1  0.36571265  0.82871696  0.94251604  1.0
  Ca  Ca59  1  0.13428735  0.67128304  0.44251604  1.0
  Ca  Ca60  1  0.13428735  0.32871696  0.94251604  1.0
  Ca  Ca61  1  0.36571265  0.17128304  0.44251604  1.0
  Ca  Ca62  1  0.63428735  0.17128304  0.05748396  1.0
  Ca  Ca63  1  0.86571265  0.32871696  0.55748396  1.0
