# generated using pymatgen
data_V2Pb3O8
_symmetry_space_group_name_H-M   'P 1'
_cell_length_a   5.76285988
_cell_length_b   5.76285988
_cell_length_c   7.57829930
_cell_angle_alpha   69.12137277
_cell_angle_beta   110.87862723
_cell_angle_gamma   111.63973003
_symmetry_Int_Tables_number   1
_chemical_formula_structural   V2Pb3O8
_chemical_formula_sum   'V2 Pb3 O8'
_cell_volume   211.11991309
_cell_formula_units_Z   1
loop_
 _symmetry_equiv_pos_site_id
 _symmetry_equiv_pos_as_xyz
  1  'x, y, z'
loop_
 _atom_site_type_symbol
 _atom_site_label
 _atom_site_symmetry_multiplicity
 _atom_site_fract_x
 _atom_site_fract_y
 _atom_site_fract_z
 _atom_site_occupancy
  V  V0  1  1.39804212  -0.40595799  0.19823190  1.0
  V  V1  1  0.59404201  0.39804212  0.80176810  1.0
  Pb  Pb2  1  1.15976524  -0.30697973  0.62522327  1.0
  Pb  Pb3  1  0.69302027  0.15976524  0.37477673  1.0
  Pb  Pb4  1  -0.01814837  -0.01814837  -0.00000000  1.0
  O  O5  1  1.26087395  -0.70321413  0.71711581  1.0
  O  O6  1  0.29678587  0.26087395  0.28288419  1.0
  O  O7  1  1.22886766  -0.31515950  0.95963389  1.0
  O  O8  1  0.68484050  0.22886766  0.04036611  1.0
  O  O9  1  0.75719465  0.33948756  0.67644619  1.0
  O  O10  1  1.33948756  -0.24280535  0.32355381  1.0
  O  O11  1  1.66330892  -0.27168037  0.76842853  1.0
  O  O12  1  0.72831963  0.66330892  0.23157147  1.0
