# generated using pymatgen
data_NaTe
_symmetry_space_group_name_H-M   'P 1'
_cell_length_a   15.96400201
_cell_length_b   10.11448727
_cell_length_c   9.15228188
_cell_angle_alpha   90.00000000
_cell_angle_beta   90.00000000
_cell_angle_gamma   90.00000000
_symmetry_Int_Tables_number   1
_chemical_formula_structural   NaTe
_chemical_formula_sum   'Na24 Te24'
_cell_volume   1477.79786010
_cell_formula_units_Z   24
loop_
 _symmetry_equiv_pos_site_id
 _symmetry_equiv_pos_as_xyz
  1  'x, y, z'
loop_
 _atom_site_type_symbol
 _atom_site_label
 _atom_site_symmetry_multiplicity
 _atom_site_fract_x
 _atom_site_fract_y
 _atom_site_fract_z
 _atom_site_occupancy
  Na  Na0  1  0.68931056  0.98239640  0.78874236  1.0
  Na  Na1  1  0.68931056  0.01760360  0.28874236  1.0
  Na  Na2  1  0.18931056  0.48239640  0.71125764  1.0
  Na  Na3  1  0.18931056  0.51760360  0.21125764  1.0
  Na  Na4  1  0.31068944  0.98239640  0.71125764  1.0
  Na  Na5  1  0.31068944  0.01760360  0.21125764  1.0
  Na  Na6  1  0.81068944  0.48239640  0.78874236  1.0
  Na  Na7  1  0.81068944  0.51760360  0.28874236  1.0
  Na  Na8  1  0.52940720  0.81936286  0.56007204  1.0
  Na  Na9  1  0.52940720  0.18063714  0.06007204  1.0
  Na  Na10  1  0.02940720  0.31936286  0.93992796  1.0
  Na  Na11  1  0.02940720  0.68063714  0.43992796  1.0
  Na  Na12  1  0.47059280  0.81936286  0.93992796  1.0
  Na  Na13  1  0.47059280  0.18063714  0.43992796  1.0
  Na  Na14  1  0.97059280  0.31936286  0.56007204  1.0
  Na  Na15  1  0.97059280  0.68063714  0.06007204  1.0
  Na  Na16  1  0.88617159  0.82595973  0.74126298  1.0
  Na  Na17  1  0.88617159  0.17404027  0.24126298  1.0
  Na  Na18  1  0.38617159  0.32595973  0.75873702  1.0
  Na  Na19  1  0.38617159  0.67404027  0.25873702  1.0
  Na  Na20  1  0.11382841  0.82595973  0.75873702  1.0
  Na  Na21  1  0.11382841  0.17404027  0.25873702  1.0
  Na  Na22  1  0.61382841  0.32595973  0.74126298  1.0
  Na  Na23  1  0.61382841  0.67404027  0.24126298  1.0
  Te  Te24  1  0.63349385  0.63716461  0.80468051  1.0
  Te  Te25  1  0.63349385  0.36283539  0.30468051  1.0
  Te  Te26  1  0.13349385  0.13716461  0.69531949  1.0
  Te  Te27  1  0.13349385  0.86283539  0.19531949  1.0
  Te  Te28  1  0.36650615  0.63716461  0.69531949  1.0
  Te  Te29  1  0.36650615  0.36283539  0.19531949  1.0
  Te  Te30  1  0.86650615  0.13716461  0.80468051  1.0
  Te  Te31  1  0.86650615  0.86283539  0.30468051  1.0
  Te  Te32  1  0.00000000  0.57063932  0.75000000  1.0
  Te  Te33  1  0.00000000  0.42936068  0.25000000  1.0
  Te  Te34  1  0.50000000  0.07063932  0.75000000  1.0
  Te  Te35  1  0.50000000  0.92936068  0.25000000  1.0
  Te  Te36  1  0.00000000  0.00000000  0.50000000  1.0
  Te  Te37  1  0.00000000  0.00000000  0.00000000  1.0
  Te  Te38  1  0.50000000  0.50000000  0.00000000  1.0
  Te  Te39  1  0.50000000  0.50000000  0.50000000  1.0
  Te  Te40  1  0.74581667  0.75620871  0.51111378  1.0
  Te  Te41  1  0.74581667  0.24379129  0.01111378  1.0
  Te  Te42  1  0.24581667  0.25620871  0.98888622  1.0
  Te  Te43  1  0.24581667  0.74379129  0.48888622  1.0
  Te  Te44  1  0.25418333  0.75620871  0.98888622  1.0
  Te  Te45  1  0.25418333  0.24379129  0.48888622  1.0
  Te  Te46  1  0.75418333  0.25620871  0.51111378  1.0
  Te  Te47  1  0.75418333  0.74379129  0.01111378  1.0
