# generated using pymatgen
data_LaVO3
_symmetry_space_group_name_H-M   'P 1'
_cell_length_a   5.58673808
_cell_length_b   7.88006743
_cell_length_c   5.55172834
_cell_angle_alpha   90.00000000
_cell_angle_beta   90.00000000
_cell_angle_gamma   90.00000000
_symmetry_Int_Tables_number   1
_chemical_formula_structural   LaVO3
_chemical_formula_sum   'La4 V4 O12'
_cell_volume   244.40858239
_cell_formula_units_Z   4
loop_
 _symmetry_equiv_pos_site_id
 _symmetry_equiv_pos_as_xyz
  1  'x, y, z'
loop_
 _atom_site_type_symbol
 _atom_site_label
 _atom_site_symmetry_multiplicity
 _atom_site_fract_x
 _atom_site_fract_y
 _atom_site_fract_z
 _atom_site_occupancy
  La  La0  1  0.03425608  0.25000000  0.50661746  1.0
  La  La1  1  0.53425608  0.25000000  0.99338254  1.0
  La  La2  1  0.96574392  0.75000000  0.49338254  1.0
  La  La3  1  0.46574392  0.75000000  0.00661746  1.0
  V  V4  1  0.50000000  0.50000000  0.50000000  1.0
  V  V5  1  0.50000000  0.00000000  0.50000000  1.0
  V  V6  1  0.00000000  0.50000000  0.00000000  1.0
  V  V7  1  0.00000000  0.00000000  0.00000000  1.0
  O  O8  1  0.28424368  0.46055332  0.78425299  1.0
  O  O9  1  0.28424368  0.03944668  0.78425299  1.0
  O  O10  1  0.78424368  0.46055332  0.71574701  1.0
  O  O11  1  0.78424368  0.03944668  0.71574701  1.0
  O  O12  1  0.71575632  0.96055332  0.21574701  1.0
  O  O13  1  0.71575632  0.53944668  0.21574701  1.0
  O  O14  1  0.21575632  0.96055332  0.28425299  1.0
  O  O15  1  0.21575632  0.53944668  0.28425299  1.0
  O  O16  1  0.98458895  0.25000000  0.07441744  1.0
  O  O17  1  0.48458895  0.25000000  0.42558256  1.0
  O  O18  1  0.01541105  0.75000000  0.92558256  1.0
  O  O19  1  0.51541105  0.75000000  0.57441744  1.0
