# generated using pymatgen
data_TeS2(NCl)2
_symmetry_space_group_name_H-M   'P 1'
_cell_length_a   11.46018047
_cell_length_b   11.46018047
_cell_length_c   7.71581219
_cell_angle_alpha   84.05655529
_cell_angle_beta   95.94344471
_cell_angle_gamma   128.47120828
_symmetry_Int_Tables_number   1
_chemical_formula_structural   TeS2(NCl)2
_chemical_formula_sum   'Te4 S8 N8 Cl8'
_cell_volume   788.12060954
_cell_formula_units_Z   4
loop_
 _symmetry_equiv_pos_site_id
 _symmetry_equiv_pos_as_xyz
  1  'x, y, z'
loop_
 _atom_site_type_symbol
 _atom_site_label
 _atom_site_symmetry_multiplicity
 _atom_site_fract_x
 _atom_site_fract_y
 _atom_site_fract_z
 _atom_site_occupancy
  Te  Te0  1  0.56538964  -0.23962216  0.80421380  1.0
  Te  Te1  1  1.23962216  0.43461036  0.30421380  1.0
  Te  Te2  1  0.76037784  0.56538964  0.69578620  1.0
  Te  Te3  1  0.43461036  0.23962216  0.19578620  1.0
  S  S4  1  0.82579775  -0.01118928  0.87394392  1.0
  S  S5  1  1.01118928  0.17420225  0.37394392  1.0
  S  S6  1  0.98881072  0.82579775  0.62605608  1.0
  S  S7  1  0.17420225  0.01118928  0.12605608  1.0
  S  S8  1  0.67233467  0.08133317  0.68137356  1.0
  S  S9  1  0.91866683  0.32766533  0.18137356  1.0
  S  S10  1  1.08133317  0.67233467  0.81862644  1.0
  S  S11  1  0.32766533  -0.08133317  0.31862644  1.0
  N  N12  1  0.54042199  -0.08945120  0.67399007  1.0
  N  N13  1  1.08945120  0.45957801  0.17399007  1.0
  N  N14  1  0.91054880  0.54042199  0.82600993  1.0
  N  N15  1  0.45957801  0.08945120  0.32600993  1.0
  N  N16  1  0.11983560  -0.18217011  0.71402162  1.0
  N  N17  1  1.18217011  0.88016440  0.21402162  1.0
  N  N18  1  0.81782989  0.11983560  0.78597838  1.0
  N  N19  1  0.88016440  0.18217011  0.28597838  1.0
  Cl  Cl20  1  0.53411474  0.23686473  0.91856655  1.0
  Cl  Cl21  1  0.76313527  0.46588526  0.41856655  1.0
  Cl  Cl22  1  1.23686473  0.53411474  0.58143345  1.0
  Cl  Cl23  1  0.46588526  -0.23686473  0.08143345  1.0
  Cl  Cl24  1  1.27976075  0.34332081  1.01475165  1.0
  Cl  Cl25  1  0.65667919  -0.27976075  0.51475165  1.0
  Cl  Cl26  1  0.34332081  0.27976075  0.48524835  1.0
  Cl  Cl27  1  0.72023925  0.65667919  -0.01475165  1.0
