# generated using pymatgen
data_BaZr2F10
_symmetry_space_group_name_H-M   'P 1'
_cell_length_a   8.57293442
_cell_length_b   8.57293442
_cell_length_c   8.90279703
_cell_angle_alpha   84.15056835
_cell_angle_beta   95.84943165
_cell_angle_gamma   42.26272728
_symmetry_Int_Tables_number   1
_chemical_formula_structural   BaZr2F10
_chemical_formula_sum   'Ba2 Zr4 F20'
_cell_volume   422.09597219
_cell_formula_units_Z   2
loop_
 _symmetry_equiv_pos_site_id
 _symmetry_equiv_pos_as_xyz
  1  'x, y, z'
loop_
 _atom_site_type_symbol
 _atom_site_label
 _atom_site_symmetry_multiplicity
 _atom_site_fract_x
 _atom_site_fract_y
 _atom_site_fract_z
 _atom_site_occupancy
  Ba  Ba0  1  0.57014913  -0.42985087  0.75000000  1.0
  Ba  Ba1  1  0.42985087  0.42985087  0.25000000  1.0
  Zr  Zr2  1  0.65656361  0.03390640  0.90512001  1.0
  Zr  Zr3  1  0.96609360  -0.65656361  0.40512001  1.0
  Zr  Zr4  1  1.03390640  -0.34343639  0.59487999  1.0
  Zr  Zr5  1  0.34343639  -0.03390640  0.09487999  1.0
  F  F6  1  0.75739857  -0.03005080  0.43805549  1.0
  F  F7  1  1.03005080  -0.75739857  0.93805549  1.0
  F  F8  1  0.96994920  -0.24260143  0.06194451  1.0
  F  F9  1  0.24260143  0.03005080  0.56194451  1.0
  F  F10  1  0.55771021  -0.13762240  0.92612102  1.0
  F  F11  1  1.13762240  -0.55771021  0.42612102  1.0
  F  F12  1  0.86237760  -0.44228979  0.57387898  1.0
  F  F13  1  0.44228979  0.13762240  0.07387898  1.0
  F  F14  1  0.70209363  0.17200887  0.74832326  1.0
  F  F15  1  0.82799113  -0.70209363  0.24832326  1.0
  F  F16  1  1.17200887  -0.29790637  0.75167674  1.0
  F  F17  1  0.29790637  -0.17200887  0.25167674  1.0
  F  F18  1  0.62189702  0.25707957  1.00564710  1.0
  F  F19  1  0.74292043  -0.62189702  0.50564710  1.0
  F  F20  1  1.25707957  -0.37810298  0.49435290  1.0
  F  F21  1  0.37810298  -0.25707957  -0.00564710  1.0
  F  F22  1  0.80476232  -0.19523768  0.75000000  1.0
  F  F23  1  0.19523768  0.19523768  0.25000000  1.0
  F  F24  1  0.30435538  0.30435538  0.75000000  1.0
  F  F25  1  0.69564462  -0.30435538  0.25000000  1.0
