# generated using pymatgen
data_BeAg4
_symmetry_space_group_name_H-M   'P 1'
_cell_length_a   6.37327207
_cell_length_b   6.37327207
_cell_length_c   6.37327207
_cell_angle_alpha   60.00000000
_cell_angle_beta   60.00000000
_cell_angle_gamma   60.00000000
_symmetry_Int_Tables_number   1
_chemical_formula_structural   BeAg4
_chemical_formula_sum   'Be2 Ag8'
_cell_volume   183.05111477
_cell_formula_units_Z   2
loop_
 _symmetry_equiv_pos_site_id
 _symmetry_equiv_pos_as_xyz
  1  'x, y, z'
loop_
 _atom_site_type_symbol
 _atom_site_label
 _atom_site_symmetry_multiplicity
 _atom_site_fract_x
 _atom_site_fract_y
 _atom_site_fract_z
 _atom_site_occupancy
  Be  Be0  1  0.50000000  0.50000000  -0.50000000  1.0
  Be  Be1  1  0.75000000  -0.25000000  0.75000000  1.0
  Ag  Ag2  1  -0.11024456  0.88975544  0.33073369  1.0
  Ag  Ag3  1  0.88975544  -0.66926631  0.88975544  1.0
  Ag  Ag4  1  0.36024456  0.36024456  0.36024456  1.0
  Ag  Ag5  1  -0.08073369  0.36024456  0.36024456  1.0
  Ag  Ag6  1  -0.66926631  0.88975544  0.88975544  1.0
  Ag  Ag7  1  0.88975544  -0.11024456  0.88975544  1.0
  Ag  Ag8  1  0.36024456  -0.08073369  0.36024456  1.0
  Ag  Ag9  1  0.36024456  0.36024456  -0.08073369  1.0
