# generated using pymatgen
data_Sc7NiCl12
_symmetry_space_group_name_H-M   'P 1'
_cell_length_a   8.32573221
_cell_length_b   8.32573221
_cell_length_c   8.32573221
_cell_angle_alpha   107.34342766
_cell_angle_beta   107.34342766
_cell_angle_gamma   107.34342765
_symmetry_Int_Tables_number   1
_chemical_formula_structural   Sc7NiCl12
_chemical_formula_sum   'Sc7 Ni1 Cl12'
_cell_volume   476.05788906
_cell_formula_units_Z   1
loop_
 _symmetry_equiv_pos_site_id
 _symmetry_equiv_pos_as_xyz
  1  'x, y, z'
loop_
 _atom_site_type_symbol
 _atom_site_label
 _atom_site_symmetry_multiplicity
 _atom_site_fract_x
 _atom_site_fract_y
 _atom_site_fract_z
 _atom_site_occupancy
  Cl  Cl0  1  1.61650823  0.53905198  -0.16206088  1.0
  Cl  Cl1  1  0.46094802  1.16206088  -0.61650823  1.0
  Cl  Cl2  1  1.16206088  0.38349177  -0.53905198  1.0
  Cl  Cl3  1  0.38349177  0.46094802  0.16206088  1.0
  Cl  Cl4  1  1.53905198  -0.16206088  0.61650823  1.0
  Cl  Cl5  1  0.83793912  0.61650823  0.53905198  1.0
  Cl  Cl6  1  0.68236507  0.21651307  0.07294075  1.0
  Cl  Cl7  1  0.78348693  0.92705925  0.31763493  1.0
  Cl  Cl8  1  0.92705925  1.31763493  -0.21651307  1.0
  Cl  Cl9  1  1.31763493  0.78348693  -0.07294075  1.0
  Cl  Cl10  1  1.21651307  0.07294075  -0.31763493  1.0
  Cl  Cl11  1  1.07294075  -0.31763493  0.21651307  1.0
  Ni  Ni12  1  0.00000000  0.00000000  0.00000000  1.0
  Sc  Sc13  1  1.68264672  0.89244353  -0.02906245  1.0
  Sc  Sc14  1  1.10755647  0.02906245  -0.68264672  1.0
  Sc  Sc15  1  1.02906245  -0.68264672  0.10755647  1.0
  Sc  Sc16  1  0.31735328  0.10755647  0.02906245  1.0
  Sc  Sc17  1  0.89244353  0.97093755  0.68264672  1.0
  Sc  Sc18  1  0.97093755  1.68264672  -0.10755647  1.0
  Sc  Sc19  1  0.50000000  0.50000000  0.50000000  1.0
