# generated using pymatgen
data_Mg(SiNi)6
_symmetry_space_group_name_H-M   'P 1'
_cell_length_a   4.90844772
_cell_length_b   4.90844772
_cell_length_c   7.66633177
_cell_angle_alpha   90.00000000
_cell_angle_beta   90.00000000
_cell_angle_gamma   120.00000000
_symmetry_Int_Tables_number   1
_chemical_formula_structural   Mg(SiNi)6
_chemical_formula_sum   'Mg1 Si6 Ni6'
_cell_volume   159.95822679
_cell_formula_units_Z   1
loop_
 _symmetry_equiv_pos_site_id
 _symmetry_equiv_pos_as_xyz
  1  'x, y, z'
loop_
 _atom_site_type_symbol
 _atom_site_label
 _atom_site_symmetry_multiplicity
 _atom_site_fract_x
 _atom_site_fract_y
 _atom_site_fract_z
 _atom_site_occupancy
  Mg  Mg0  1  0.00000000  0.00000000  0.00000000  1.0
  Si  Si1  1  -0.00000000  -0.00000000  0.65361678  1.0
  Si  Si2  1  0.00000000  0.00000000  0.34638322  1.0
  Si  Si3  1  0.66666667  0.33333333  -0.00000000  1.0
  Si  Si4  1  0.33333333  0.66666667  0.00000000  1.0
  Si  Si5  1  0.66666667  0.33333333  0.50000000  1.0
  Si  Si6  1  0.33333333  0.66666667  0.50000000  1.0
  Ni  Ni7  1  0.50000000  0.50000000  0.74943509  1.0
  Ni  Ni8  1  0.50000000  -0.00000000  0.74943509  1.0
  Ni  Ni9  1  0.00000000  0.50000000  0.74943509  1.0
  Ni  Ni10  1  0.50000000  0.50000000  0.25056491  1.0
  Ni  Ni11  1  0.50000000  -0.00000000  0.25056491  1.0
  Ni  Ni12  1  0.00000000  0.50000000  0.25056491  1.0
