# generated using pymatgen
data_K2TiF6
_symmetry_space_group_name_H-M   'P 1'
_cell_length_a   5.94984891
_cell_length_b   5.94984891
_cell_length_c   9.57580674
_cell_angle_alpha   90.00000000
_cell_angle_beta   90.00000000
_cell_angle_gamma   120.00000000
_symmetry_Int_Tables_number   1
_chemical_formula_structural   K2TiF6
_chemical_formula_sum   'K4 Ti2 F12'
_cell_volume   293.57419506
_cell_formula_units_Z   2
loop_
 _symmetry_equiv_pos_site_id
 _symmetry_equiv_pos_as_xyz
  1  'x, y, z'
loop_
 _atom_site_type_symbol
 _atom_site_label
 _atom_site_symmetry_multiplicity
 _atom_site_fract_x
 _atom_site_fract_y
 _atom_site_fract_z
 _atom_site_occupancy
  K  K0  1  0.33333333  0.66666667  0.26368073  1.0
  K  K1  1  0.66666667  0.33333333  0.76368073  1.0
  K  K2  1  0.00000000  0.00000000  -0.01504500  1.0
  K  K3  1  0.00000000  0.00000000  0.48495500  1.0
  Ti  Ti4  1  0.33333333  0.66666667  0.65530187  1.0
  Ti  Ti5  1  0.66666667  0.33333333  0.15530187  1.0
  F  F6  1  0.96217312  0.48108656  0.03839985  1.0
  F  F7  1  0.48108656  0.96217312  0.53839985  1.0
  F  F8  1  0.48108656  0.51891344  0.53839985  1.0
  F  F9  1  0.51891344  0.48108656  0.03839985  1.0
  F  F10  1  0.51891344  0.03782688  0.03839985  1.0
  F  F11  1  0.03782688  0.51891344  0.53839985  1.0
  F  F12  1  0.35874320  0.17937160  0.26195428  1.0
  F  F13  1  0.17937160  0.35874320  0.76195428  1.0
  F  F14  1  0.17937160  0.82062840  0.76195428  1.0
  F  F15  1  0.82062840  0.17937160  0.26195428  1.0
  F  F16  1  0.82062840  0.64125680  0.26195428  1.0
  F  F17  1  0.64125680  0.82062840  0.76195428  1.0
