# generated using pymatgen
data_Gd4Zn5Ge6
_symmetry_space_group_name_H-M   'P 1'
_cell_length_a   9.60907372
_cell_length_b   9.60907372
_cell_length_c   15.46539036
_cell_angle_alpha   90.00000000
_cell_angle_beta   90.00000000
_cell_angle_gamma   154.26532186
_symmetry_Int_Tables_number   1
_chemical_formula_structural   Gd4Zn5Ge6
_chemical_formula_sum   'Gd8 Zn10 Ge12'
_cell_volume   620.03775795
_cell_formula_units_Z   2
loop_
 _symmetry_equiv_pos_site_id
 _symmetry_equiv_pos_as_xyz
  1  'x, y, z'
loop_
 _atom_site_type_symbol
 _atom_site_label
 _atom_site_symmetry_multiplicity
 _atom_site_fract_x
 _atom_site_fract_y
 _atom_site_fract_z
 _atom_site_occupancy
  Zn  Zn0  1  0.15148292  0.84851708  0.63749776  1.0
  Zn  Zn1  1  -0.15148292  0.15148292  0.13749776  1.0
  Zn  Zn2  1  0.30012722  0.69987278  0.64005183  1.0
  Zn  Zn3  1  -0.30012722  0.30012722  0.14005183  1.0
  Zn  Zn4  1  0.34503198  0.65496802  0.99080483  1.0
  Zn  Zn5  1  -0.34503198  0.34503198  0.49080483  1.0
  Zn  Zn6  1  0.43375352  0.56624648  0.57986111  1.0
  Zn  Zn7  1  -0.43375352  0.43375352  0.07986111  1.0
  Zn  Zn8  1  -0.34984542  0.34984542  0.78434868  1.0
  Zn  Zn9  1  0.34984542  0.65015458  0.28434868  1.0
  Ge  Ge10  1  0.11144891  0.88855109  0.14733592  1.0
  Ge  Ge11  1  -0.11144891  0.11144891  0.64733592  1.0
  Ge  Ge12  1  0.22140459  0.77859541  0.77760611  1.0
  Ge  Ge13  1  -0.22140459  0.22140459  0.27760611  1.0
  Ge  Ge14  1  0.22649107  0.77350893  0.50021216  1.0
  Ge  Ge15  1  -0.22649107  0.22649107  0.00021216  1.0
  Ge  Ge16  1  0.43137122  0.56862878  0.85843008  1.0
  Ge  Ge17  1  -0.43137122  0.43137122  0.35843008  1.0
  Ge  Ge18  1  -0.44023253  0.44023253  0.91055582  1.0
  Ge  Ge19  1  0.44023253  0.55976747  0.41055582  1.0
  Ge  Ge20  1  -0.43265136  0.43265136  0.63527597  1.0
  Ge  Ge21  1  0.43265136  0.56734864  0.13527597  1.0
  Gd  Gd22  1  0.01997509  0.98002491  0.76536372  1.0
  Gd  Gd23  1  -0.01997509  0.01997509  0.26536372  1.0
  Gd  Gd24  1  0.16832811  0.83167189  0.96190636  1.0
  Gd  Gd25  1  -0.16832811  0.16832811  0.46190636  1.0
  Gd  Gd26  1  0.03239367  0.96760633  0.50238264  1.0
  Gd  Gd27  1  -0.03239367  0.03239367  0.00238264  1.0
  Gd  Gd28  1  0.17583963  0.82416037  0.31916700  1.0
  Gd  Gd29  1  -0.17583963  0.17583963  0.81916700  1.0
