# generated using pymatgen
data_Li10Pb3
_symmetry_space_group_name_H-M   'P 1'
_cell_length_a   10.09324241
_cell_length_b   10.09324241
_cell_length_c   10.09324241
_cell_angle_alpha   90.00000000
_cell_angle_beta   90.00000000
_cell_angle_gamma   90.00000000
_symmetry_Int_Tables_number   1
_chemical_formula_structural   Li10Pb3
_chemical_formula_sum   'Li40 Pb12'
_cell_volume   1028.23435878
_cell_formula_units_Z   4
loop_
 _symmetry_equiv_pos_site_id
 _symmetry_equiv_pos_as_xyz
  1  'x, y, z'
loop_
 _atom_site_type_symbol
 _atom_site_label
 _atom_site_symmetry_multiplicity
 _atom_site_fract_x
 _atom_site_fract_y
 _atom_site_fract_z
 _atom_site_occupancy
  Li  Li0  1  0.88507829  0.88507829  0.11492171  1.0
  Li  Li1  1  0.88507829  0.11492171  0.88507829  1.0
  Li  Li2  1  0.11492171  0.88507829  0.88507829  1.0
  Li  Li3  1  0.11492171  0.11492171  0.11492171  1.0
  Li  Li4  1  0.68530608  0.68530608  0.31469392  1.0
  Li  Li5  1  0.68530608  0.31469392  0.68530608  1.0
  Li  Li6  1  0.31469392  0.68530608  0.68530608  1.0
  Li  Li7  1  0.31469392  0.31469392  0.31469392  1.0
  Li  Li8  1  0.18434486  0.18434486  0.81565514  1.0
  Li  Li9  1  0.18434486  0.81565514  0.18434486  1.0
  Li  Li10  1  0.81565514  0.18434486  0.18434486  1.0
  Li  Li11  1  0.81565514  0.81565514  0.81565514  1.0
  Li  Li12  1  0.39429877  0.39429877  0.60570123  1.0
  Li  Li13  1  0.39429877  0.60570123  0.39429877  1.0
  Li  Li14  1  0.60570123  0.39429877  0.39429877  1.0
  Li  Li15  1  0.60570123  0.60570123  0.60570123  1.0
  Li  Li16  1  0.81122218  0.81122218  0.52751847  1.0
  Li  Li17  1  0.81122218  0.47248153  0.18877782  1.0
  Li  Li18  1  0.81122218  0.18877782  0.47248153  1.0
  Li  Li19  1  0.81122218  0.52751847  0.81122218  1.0
  Li  Li20  1  0.47248153  0.81122218  0.18877782  1.0
  Li  Li21  1  0.47248153  0.18877782  0.81122218  1.0
  Li  Li22  1  0.18877782  0.81122218  0.47248153  1.0
  Li  Li23  1  0.18877782  0.47248153  0.81122218  1.0
  Li  Li24  1  0.18877782  0.18877782  0.52751847  1.0
  Li  Li25  1  0.18877782  0.52751847  0.18877782  1.0
  Li  Li26  1  0.52751847  0.81122218  0.81122218  1.0
  Li  Li27  1  0.52751847  0.18877782  0.18877782  1.0
  Li  Li28  1  0.85781728  0.50000000  0.50000000  1.0
  Li  Li29  1  0.50000000  0.85781728  0.50000000  1.0
  Li  Li30  1  0.50000000  0.50000000  0.14218272  1.0
  Li  Li31  1  0.50000000  0.14218272  0.50000000  1.0
  Li  Li32  1  0.50000000  0.50000000  0.85781728  1.0
  Li  Li33  1  0.14218272  0.50000000  0.50000000  1.0
  Li  Li34  1  0.65001022  0.00000000  0.00000000  1.0
  Li  Li35  1  0.00000000  0.65001022  0.00000000  1.0
  Li  Li36  1  0.00000000  0.00000000  0.34998978  1.0
  Li  Li37  1  0.00000000  0.34998978  0.00000000  1.0
  Li  Li38  1  0.00000000  0.00000000  0.65001022  1.0
  Li  Li39  1  0.34998978  0.00000000  0.00000000  1.0
  Pb  Pb40  1  0.68472359  0.68472359  0.02889493  1.0
  Pb  Pb41  1  0.68472359  0.97110507  0.31527641  1.0
  Pb  Pb42  1  0.68472359  0.31527641  0.97110507  1.0
  Pb  Pb43  1  0.68472359  0.02889493  0.68472359  1.0
  Pb  Pb44  1  0.97110507  0.68472359  0.31527641  1.0
  Pb  Pb45  1  0.97110507  0.31527641  0.68472359  1.0
  Pb  Pb46  1  0.31527641  0.68472359  0.97110507  1.0
  Pb  Pb47  1  0.31527641  0.97110507  0.68472359  1.0
  Pb  Pb48  1  0.31527641  0.31527641  0.02889493  1.0
  Pb  Pb49  1  0.31527641  0.02889493  0.31527641  1.0
  Pb  Pb50  1  0.02889493  0.68472359  0.68472359  1.0
  Pb  Pb51  1  0.02889493  0.31527641  0.31527641  1.0
