# generated using pymatgen
data_KSbAs(O2F)2
_symmetry_space_group_name_H-M   'P 1'
_cell_length_a   6.19226001
_cell_length_b   8.85968970
_cell_length_c   11.63050520
_cell_angle_alpha   90.00000000
_cell_angle_beta   90.07668938
_cell_angle_gamma   90.00000000
_symmetry_Int_Tables_number   1
_chemical_formula_structural   KSbAs(O2F)2
_chemical_formula_sum   'K4 Sb4 As4 O16 F8'
_cell_volume   638.06641538
_cell_formula_units_Z   4
loop_
 _symmetry_equiv_pos_site_id
 _symmetry_equiv_pos_as_xyz
  1  'x, y, z'
loop_
 _atom_site_type_symbol
 _atom_site_label
 _atom_site_symmetry_multiplicity
 _atom_site_fract_x
 _atom_site_fract_y
 _atom_site_fract_z
 _atom_site_occupancy
  K  K0  1  0.74931633  0.37489642  -0.07827027  1.0
  K  K1  1  0.74931633  0.12510358  0.42172973  1.0
  K  K2  1  0.25068367  0.87489642  0.57827027  1.0
  K  K3  1  0.25068367  0.62510358  1.07827027  1.0
  O  O4  1  0.74948170  0.76368633  0.18390724  1.0
  O  O5  1  0.74948170  0.73631367  0.68390724  1.0
  O  O6  1  0.25051830  0.26368633  0.31609276  1.0
  O  O7  1  0.25051830  0.23631367  0.81609276  1.0
  O  O8  1  0.74982072  0.52208255  0.49861897  1.0
  O  O9  1  0.74982072  -0.02208255  -0.00138103  1.0
  O  O10  1  0.25017928  1.02208255  1.00138103  1.0
  O  O11  1  0.25017928  0.47791745  0.50138103  1.0
  O  O12  1  0.47457064  0.54456196  0.28867227  1.0
  O  O13  1  0.47457064  0.95543804  0.78867227  1.0
  O  O14  1  0.52542936  0.04456196  0.21132773  1.0
  O  O15  1  0.52542936  0.45543804  0.71132773  1.0
  O  O16  1  -0.02392402  1.04358411  0.21142902  1.0
  O  O17  1  -0.02392402  0.45641589  0.71142902  1.0
  O  O18  1  1.02392402  0.54358411  0.28857098  1.0
  O  O19  1  1.02392402  -0.04358411  0.78857098  1.0
  As  As20  1  0.75024540  0.95637589  0.14786556  1.0
  As  As21  1  0.75024540  0.54362411  0.64786556  1.0
  As  As22  1  0.24975460  0.45637589  0.35213444  1.0
  As  As23  1  0.24975460  0.04362411  0.85213444  1.0
  F  F24  1  0.54009568  0.81723454  0.42008583  1.0
  F  F25  1  0.54009568  0.68276546  0.92008583  1.0
  F  F26  1  0.45990432  0.31723454  0.07991417  1.0
  F  F27  1  0.45990432  0.18276546  0.57991417  1.0
  F  F28  1  0.96130081  0.81626036  0.42013262  1.0
  F  F29  1  0.96130081  0.68373964  0.92013262  1.0
  F  F30  1  0.03869919  0.31626036  0.07986738  1.0
  F  F31  1  0.03869919  0.18373964  0.57986738  1.0
  Sb  Sb32  1  0.74991444  0.66567231  0.35210865  1.0
  Sb  Sb33  1  0.74991444  0.83432769  0.85210865  1.0
  Sb  Sb34  1  0.25008556  0.16567231  0.14789135  1.0
  Sb  Sb35  1  0.25008556  0.33432769  0.64789135  1.0
