# generated using pymatgen
data_AlAs3S5Cl4
_symmetry_space_group_name_H-M   'P 1'
_cell_length_a   7.00728708
_cell_length_b   9.99714294
_cell_length_c   12.29709160
_cell_angle_alpha   90.00000000
_cell_angle_beta   107.51410208
_cell_angle_gamma   90.00000000
_symmetry_Int_Tables_number   1
_chemical_formula_structural   AlAs3S5Cl4
_chemical_formula_sum   'Al2 As6 S10 Cl8'
_cell_volume   821.51217510
_cell_formula_units_Z   2
loop_
 _symmetry_equiv_pos_site_id
 _symmetry_equiv_pos_as_xyz
  1  'x, y, z'
loop_
 _atom_site_type_symbol
 _atom_site_label
 _atom_site_symmetry_multiplicity
 _atom_site_fract_x
 _atom_site_fract_y
 _atom_site_fract_z
 _atom_site_occupancy
  Al  Al0  1  -0.02818188  0.75000000  0.20204088  1.0
  Al  Al1  1  1.02818188  0.25000000  0.79795912  1.0
  As  As2  1  0.50667262  0.92084583  0.81131091  1.0
  As  As3  1  0.50667262  0.57915417  0.81131091  1.0
  As  As4  1  0.49332738  0.42084583  0.18868909  1.0
  As  As5  1  0.49332738  0.07915417  0.18868909  1.0
  As  As6  1  0.45366018  0.75000000  0.53535186  1.0
  As  As7  1  0.54633982  0.25000000  0.46464814  1.0
  S  S8  1  0.36846033  0.93355426  0.62005244  1.0
  S  S9  1  0.36846033  0.56644574  0.62005244  1.0
  S  S10  1  0.63153967  0.43355426  0.37994756  1.0
  S  S11  1  0.63153967  0.06644574  0.37994756  1.0
  S  S12  1  0.78833713  0.75000000  0.64803931  1.0
  S  S13  1  0.21166287  0.25000000  0.35196069  1.0
  S  S14  1  0.75779374  0.75000000  0.80544309  1.0
  S  S15  1  0.24220626  0.25000000  0.19455691  1.0
  S  S16  1  0.34680434  0.75000000  0.87126395  1.0
  S  S17  1  0.65319566  0.25000000  0.12873605  1.0
  Cl  Cl18  1  0.82916304  0.92732500  0.10989988  1.0
  Cl  Cl19  1  0.82916304  0.57267500  0.10989988  1.0
  Cl  Cl20  1  0.17083696  0.42732500  0.89010012  1.0
  Cl  Cl21  1  0.17083696  0.07267500  0.89010012  1.0
  Cl  Cl22  1  0.94692784  0.75000000  0.37228056  1.0
  Cl  Cl23  1  0.05307216  0.25000000  0.62771944  1.0
  Cl  Cl24  1  0.28133807  0.75000000  0.20630300  1.0
  Cl  Cl25  1  0.71866193  0.25000000  0.79369700  1.0
