# generated using pymatgen
data_C
_symmetry_space_group_name_H-M   'P 1'
_cell_length_a   5.76938978
_cell_length_b   5.76938978
_cell_length_c   5.76938978
_cell_angle_alpha   109.66702353
_cell_angle_beta   109.66702353
_cell_angle_gamma   109.08032060
_symmetry_Int_Tables_number   1
_chemical_formula_structural   C
_chemical_formula_sum   C12
_cell_volume   147.82660485
_cell_formula_units_Z   12
loop_
 _symmetry_equiv_pos_site_id
 _symmetry_equiv_pos_as_xyz
  1  'x, y, z'
loop_
 _atom_site_type_symbol
 _atom_site_label
 _atom_site_symmetry_multiplicity
 _atom_site_fract_x
 _atom_site_fract_y
 _atom_site_fract_z
 _atom_site_occupancy
  C  C0  1  1.12374705  0.87625295  1.00000000  1.0
  C  C1  1  0.87625295  1.12374705  1.00000000  1.0
  C  C2  1  0.12374705  0.12374705  0.24749409  1.0
  C  C3  1  0.87625295  0.87625295  0.75250591  1.0
  C  C4  1  1.38881827  0.96530957  1.00000000  1.0
  C  C5  1  0.96530957  1.38881827  1.00000000  1.0
  C  C6  1  0.38881827  0.38881827  0.42350870  1.0
  C  C7  1  0.96530957  0.96530957  0.57649130  1.0
  C  C8  1  0.61118173  1.03469043  1.00000000  1.0
  C  C9  1  1.03469043  0.61118173  1.00000000  1.0
  C  C10  1  0.61118173  0.61118173  0.57649130  1.0
  C  C11  1  1.03469043  1.03469043  0.42350870  1.0
