# generated using pymatgen
data_Tm6Fe23
_symmetry_space_group_name_H-M   'P 1'
_cell_length_a   8.43837409
_cell_length_b   8.43837409
_cell_length_c   8.43837409
_cell_angle_alpha   60.00000000
_cell_angle_beta   60.00000000
_cell_angle_gamma   60.00000000
_symmetry_Int_Tables_number   1
_chemical_formula_structural   Tm6Fe23
_chemical_formula_sum   'Tm6 Fe23'
_cell_volume   424.87514586
_cell_formula_units_Z   1
loop_
 _symmetry_equiv_pos_site_id
 _symmetry_equiv_pos_as_xyz
  1  'x, y, z'
loop_
 _atom_site_type_symbol
 _atom_site_label
 _atom_site_symmetry_multiplicity
 _atom_site_fract_x
 _atom_site_fract_y
 _atom_site_fract_z
 _atom_site_occupancy
  Tm  Tm0  1  -0.70962637  0.70962637  0.70962637  1.0
  Tm  Tm1  1  -0.29037363  0.29037363  0.70962637  1.0
  Tm  Tm2  1  0.70962637  0.70962637  -0.70962637  1.0
  Tm  Tm3  1  0.29037363  1.29037363  -0.29037363  1.0
  Tm  Tm4  1  0.29037363  -0.29037363  1.29037363  1.0
  Tm  Tm5  1  -0.29037363  0.29037363  0.29037363  1.0
  Fe  Fe6  1  0.87916741  0.87916741  -0.12083259  1.0
  Fe  Fe7  1  1.12083259  0.12083259  0.63750224  1.0
  Fe  Fe8  1  1.12083259  0.63750224  0.12083259  1.0
  Fe  Fe9  1  0.36249776  0.87916741  -0.12083259  1.0
  Fe  Fe10  1  1.63750224  0.12083259  0.12083259  1.0
  Fe  Fe11  1  0.87916741  0.36249776  -0.12083259  1.0
  Fe  Fe12  1  0.87916741  0.87916741  -0.63750224  1.0
  Fe  Fe13  1  1.12083259  0.12083259  0.12083259  1.0
  Fe  Fe14  1  0.67531673  0.67531673  -0.32468327  1.0
  Fe  Fe15  1  1.32468327  0.32468327  0.02595019  1.0
  Fe  Fe16  1  1.32468327  0.02595019  0.32468327  1.0
  Fe  Fe17  1  0.97404981  0.67531673  -0.32468327  1.0
  Fe  Fe18  1  1.02595019  0.32468327  0.32468327  1.0
  Fe  Fe19  1  0.67531673  0.97404981  -0.32468327  1.0
  Fe  Fe20  1  0.67531673  0.67531673  -0.02595019  1.0
  Fe  Fe21  1  1.32468327  0.32468327  0.32468327  1.0
  Fe  Fe22  1  1.50000000  0.00000000  -0.00000000  1.0
  Fe  Fe23  1  1.00000000  0.50000000  -0.50000000  1.0
  Fe  Fe24  1  0.00000000  1.50000000  -0.00000000  1.0
  Fe  Fe25  1  0.50000000  1.00000000  -0.50000000  1.0
  Fe  Fe26  1  0.00000000  0.00000000  0.50000000  1.0
  Fe  Fe27  1  0.50000000  -0.50000000  1.00000000  1.0
  Fe  Fe28  1  -0.00000000  -0.00000000  0.00000000  1.0
