# generated using pymatgen
data_Ni5Se4(ClO6)2
_symmetry_space_group_name_H-M   'P 1'
_cell_length_a   8.15627090
_cell_length_b   9.37547922
_cell_length_c   9.50260490
_cell_angle_alpha   102.12722684
_cell_angle_beta   105.99032073
_cell_angle_gamma   92.24208080
_symmetry_Int_Tables_number   1
_chemical_formula_structural   Ni5Se4(ClO6)2
_chemical_formula_sum   'Ni10 Se8 Cl4 O24'
_cell_volume   679.30312832
_cell_formula_units_Z   2
loop_
 _symmetry_equiv_pos_site_id
 _symmetry_equiv_pos_as_xyz
  1  'x, y, z'
loop_
 _atom_site_type_symbol
 _atom_site_label
 _atom_site_symmetry_multiplicity
 _atom_site_fract_x
 _atom_site_fract_y
 _atom_site_fract_z
 _atom_site_occupancy
  Ni  Ni0  1  0.91295350  0.48730679  0.82206288  1.0
  Ni  Ni1  1  0.08704650  0.51269321  0.17793712  1.0
  Ni  Ni2  1  0.58039184  0.73871510  0.72727059  1.0
  Ni  Ni3  1  0.41960816  0.26128490  0.27272941  1.0
  Ni  Ni4  1  0.96681066  0.11541447  0.12918407  1.0
  Ni  Ni5  1  0.03318934  0.88458553  0.87081593  1.0
  Ni  Ni6  1  0.75689621  0.18794134  0.43958022  1.0
  Ni  Ni7  1  0.24310379  0.81205866  0.56041978  1.0
  Ni  Ni8  1  0.25993767  0.89429875  0.19710890  1.0
  Ni  Ni9  1  0.74006233  0.10570125  0.80289110  1.0
  Cl  Cl10  1  0.97300860  0.36707090  0.60068651  1.0
  Cl  Cl11  1  0.02699140  0.63292910  0.39931349  1.0
  Cl  Cl12  1  0.55698401  0.97149412  0.27601380  1.0
  Cl  Cl13  1  0.44301599  0.02850588  0.72398620  1.0
  O  O14  1  0.45158958  0.73151451  0.49928195  1.0
  O  O15  1  0.54841042  0.26848549  0.50071805  1.0
  O  O16  1  0.65021794  0.76862565  0.95073286  1.0
  O  O17  1  0.34978206  0.23137435  0.04926714  1.0
  O  O18  1  0.98873735  0.88638434  0.07170080  1.0
  O  O19  1  0.01126265  0.11361566  0.92829920  1.0
  O  O20  1  0.71946740  0.13091441  0.01924908  1.0
  O  O21  1  0.28053260  0.86908559  0.98075092  1.0
  O  O22  1  0.94023412  0.09266107  0.34125858  1.0
  O  O23  1  0.05976588  0.90733893  0.65874142  1.0
  O  O24  1  0.93826990  0.33685316  0.18095085  1.0
  O  O25  1  0.06173010  0.66314684  0.81904915  1.0
  O  O26  1  0.78701207  0.86798482  0.73440585  1.0
  O  O27  1  0.21298793  0.13201518  0.26559415  1.0
  O  O28  1  0.33477164  0.69669351  0.72477741  1.0
  O  O29  1  0.66522836  0.30330649  0.27522259  1.0
  O  O30  1  0.71702085  0.32165321  0.80111539  1.0
  O  O31  1  0.28297915  0.67834679  0.19888461  1.0
  O  O32  1  0.80167589  0.07281033  0.60380149  1.0
  O  O33  1  0.19832411  0.92718967  0.39619851  1.0
  O  O34  1  0.89175936  0.59199305  0.03425572  1.0
  O  O35  1  0.10824064  0.40800695  0.96574428  1.0
  O  O36  1  0.67308523  0.54210036  0.68659353  1.0
  O  O37  1  0.32691477  0.45789964  0.31340647  1.0
  Se  Se38  1  0.82429698  0.76248917  0.09387647  1.0
  Se  Se39  1  0.17570302  0.23751083  0.90612353  1.0
  Se  Se40  1  0.71527119  0.31417546  0.11089770  1.0
  Se  Se41  1  0.28472881  0.68582454  0.88910230  1.0
  Se  Se42  1  0.55043088  0.37986117  0.67154495  1.0
  Se  Se43  1  0.44956912  0.62013883  0.32845505  1.0
  Se  Se44  1  0.15835678  0.10851938  0.43094099  1.0
  Se  Se45  1  0.84164322  0.89148062  0.56905901  1.0
