# generated using pymatgen
data_Rb2S2NO6
_symmetry_space_group_name_H-M   'P 1'
_cell_length_a   8.05921046
_cell_length_b   8.05921046
_cell_length_c   7.83106570
_cell_angle_alpha   96.94199940
_cell_angle_beta   83.05800060
_cell_angle_gamma   121.79507920
_symmetry_Int_Tables_number   1
_chemical_formula_structural   Rb2S2NO6
_chemical_formula_sum   'Rb4 S4 N2 O12'
_cell_volume   428.15178951
_cell_formula_units_Z   2
loop_
 _symmetry_equiv_pos_site_id
 _symmetry_equiv_pos_as_xyz
  1  'x, y, z'
loop_
 _atom_site_type_symbol
 _atom_site_label
 _atom_site_symmetry_multiplicity
 _atom_site_fract_x
 _atom_site_fract_y
 _atom_site_fract_z
 _atom_site_occupancy
  O  O0  1  0.67700537  -0.21785333  1.00874256  1.0
  O  O1  1  1.21785333  0.32299463  0.50874256  1.0
  O  O2  1  0.78214667  -0.32299463  0.49125744  1.0
  O  O3  1  1.32299463  0.21785333  -0.00874256  1.0
  O  O4  1  0.53267884  -0.21702696  0.30484662  1.0
  O  O5  1  1.21702696  0.46732116  0.80484662  1.0
  O  O6  1  0.78297304  -0.46732116  0.19515338  1.0
  O  O7  1  1.46732116  0.21702696  0.69515338  1.0
  O  O8  1  1.76388384  0.09292137  0.17542950  1.0
  O  O9  1  0.90707863  -0.76388384  0.67542950  1.0
  O  O10  1  1.09292137  0.76388384  0.32457050  1.0
  O  O11  1  0.23611616  -0.09292137  0.82457050  1.0
  N  N12  1  0.89934656  -0.10065344  0.25000000  1.0
  N  N13  1  1.10065344  0.10065344  0.75000000  1.0
  Rb  Rb14  1  1.43929034  0.15797985  0.31377940  1.0
  Rb  Rb15  1  0.84202015  -0.43929034  0.81377940  1.0
  Rb  Rb16  1  1.15797985  0.43929034  0.18622060  1.0
  Rb  Rb17  1  0.56070966  -0.15797985  0.68622060  1.0
  S  S18  1  0.70208803  -0.11372111  0.18084622  1.0
  S  S19  1  1.11372111  0.29791197  0.68084622  1.0
  S  S20  1  0.88627889  -0.29791197  0.31915378  1.0
  S  S21  1  1.29791197  0.11372111  0.81915378  1.0
