# generated using pymatgen
data_La2Al2I
_symmetry_space_group_name_H-M   'P 1'
_cell_length_a   4.40006417
_cell_length_b   4.40006417
_cell_length_c   17.73372433
_cell_angle_alpha   90.00000000
_cell_angle_beta   90.00000000
_cell_angle_gamma   120.00000000
_symmetry_Int_Tables_number   1
_chemical_formula_structural   La2Al2I
_chemical_formula_sum   'La4 Al4 I2'
_cell_volume   297.33676082
_cell_formula_units_Z   2
loop_
 _symmetry_equiv_pos_site_id
 _symmetry_equiv_pos_as_xyz
  1  'x, y, z'
loop_
 _atom_site_type_symbol
 _atom_site_label
 _atom_site_symmetry_multiplicity
 _atom_site_fract_x
 _atom_site_fract_y
 _atom_site_fract_z
 _atom_site_occupancy
  La  La0  1  -0.00000000  -0.00000000  0.38086095  1.0
  La  La1  1  -0.00000000  0.00000000  0.11913905  1.0
  La  La2  1  -0.00000000  -0.00000000  0.88086095  1.0
  La  La3  1  -0.00000000  -0.00000000  0.61913905  1.0
  Al  Al4  1  0.33333333  0.66666667  0.99373273  1.0
  Al  Al5  1  0.33333333  0.66666667  0.50626727  1.0
  Al  Al6  1  0.66666667  0.33333333  0.49373273  1.0
  Al  Al7  1  0.66666667  0.33333333  0.00626727  1.0
  I  I8  1  0.33333333  0.66666667  0.25000000  1.0
  I  I9  1  0.66666667  0.33333333  0.75000000  1.0
