# generated using pymatgen
data_MoF6
_symmetry_space_group_name_H-M   'P 1'
_cell_length_a   10.26878800
_cell_length_b   9.28251848
_cell_length_c   5.39070358
_cell_angle_alpha   90.00000000
_cell_angle_beta   90.00000000
_cell_angle_gamma   90.00000000
_symmetry_Int_Tables_number   1
_chemical_formula_structural   MoF6
_chemical_formula_sum   'Mo4 F24'
_cell_volume   513.84302054
_cell_formula_units_Z   4
loop_
 _symmetry_equiv_pos_site_id
 _symmetry_equiv_pos_as_xyz
  1  'x, y, z'
loop_
 _atom_site_type_symbol
 _atom_site_label
 _atom_site_symmetry_multiplicity
 _atom_site_fract_x
 _atom_site_fract_y
 _atom_site_fract_z
 _atom_site_occupancy
  Mo  Mo0  1  0.86950894  0.25000000  0.42399251  1.0
  Mo  Mo1  1  0.36950894  0.25000000  0.07600749  1.0
  Mo  Mo2  1  0.13049106  0.75000000  0.57600749  1.0
  Mo  Mo3  1  0.63049106  0.75000000  0.92399251  1.0
  F  F4  1  0.97166009  0.39065604  0.27819063  1.0
  F  F5  1  0.97166009  0.10934396  0.27819063  1.0
  F  F6  1  0.47166009  0.39065604  0.22180937  1.0
  F  F7  1  0.47166009  0.10934396  0.22180937  1.0
  F  F8  1  0.02833991  0.89065604  0.72180937  1.0
  F  F9  1  0.02833991  0.60934396  0.72180937  1.0
  F  F10  1  0.52833991  0.89065604  0.77819063  1.0
  F  F11  1  0.52833991  0.60934396  0.77819063  1.0
  F  F12  1  0.76756549  0.39109853  0.56873645  1.0
  F  F13  1  0.76756549  0.10890147  0.56873645  1.0
  F  F14  1  0.26756549  0.39109853  0.93126355  1.0
  F  F15  1  0.26756549  0.10890147  0.93126355  1.0
  F  F16  1  0.23243451  0.89109853  0.43126355  1.0
  F  F17  1  0.23243451  0.60890147  0.43126355  1.0
  F  F18  1  0.73243451  0.89109853  0.06873645  1.0
  F  F19  1  0.73243451  0.60890147  0.06873645  1.0
  F  F20  1  0.97715949  0.25000000  0.69882879  1.0
  F  F21  1  0.47715949  0.25000000  0.80117121  1.0
  F  F22  1  0.02284051  0.75000000  0.30117121  1.0
  F  F23  1  0.52284051  0.75000000  0.19882879  1.0
  F  F24  1  0.76146286  0.25000000  0.14893565  1.0
  F  F25  1  0.26146286  0.25000000  0.35106435  1.0
  F  F26  1  0.23853714  0.75000000  0.85106435  1.0
  F  F27  1  0.73853714  0.75000000  0.64893565  1.0
