# generated using pymatgen
data_Cs2SO4
_symmetry_space_group_name_H-M   'P 1'
_cell_length_a   8.45821492
_cell_length_b   6.34161372
_cell_length_c   11.17144181
_cell_angle_alpha   90.00000000
_cell_angle_beta   90.00000000
_cell_angle_gamma   90.00000000
_symmetry_Int_Tables_number   1
_chemical_formula_structural   Cs2SO4
_chemical_formula_sum   'Cs8 S4 O16'
_cell_volume   599.22197145
_cell_formula_units_Z   4
loop_
 _symmetry_equiv_pos_site_id
 _symmetry_equiv_pos_as_xyz
  1  'x, y, z'
loop_
 _atom_site_type_symbol
 _atom_site_label
 _atom_site_symmetry_multiplicity
 _atom_site_fract_x
 _atom_site_fract_y
 _atom_site_fract_z
 _atom_site_occupancy
  Cs  Cs0  1  0.67060532  0.75000000  0.41038069  1.0
  Cs  Cs1  1  0.17060532  0.75000000  0.08961931  1.0
  Cs  Cs2  1  0.32939468  0.25000000  0.58961931  1.0
  Cs  Cs3  1  0.82939468  0.25000000  0.91038069  1.0
  Cs  Cs4  1  0.99210415  0.75000000  0.69651165  1.0
  Cs  Cs5  1  0.49210415  0.75000000  0.80348835  1.0
  Cs  Cs6  1  0.00789585  0.25000000  0.30348835  1.0
  Cs  Cs7  1  0.50789585  0.25000000  0.19651165  1.0
  O  O8  1  0.06120205  0.75000000  0.41365171  1.0
  O  O9  1  0.56120205  0.75000000  0.08634829  1.0
  O  O10  1  0.93879795  0.25000000  0.58634829  1.0
  O  O11  1  0.43879795  0.25000000  0.91365171  1.0
  O  O12  1  0.29603639  0.75000000  0.54461403  1.0
  O  O13  1  0.79603639  0.75000000  0.95538597  1.0
  O  O14  1  0.70396361  0.25000000  0.45538597  1.0
  O  O15  1  0.20396361  0.25000000  0.04461403  1.0
  O  O16  1  0.30025974  0.55617187  0.35473032  1.0
  O  O17  1  0.80025974  0.94382813  0.14526968  1.0
  O  O18  1  0.69974026  0.05617187  0.64526968  1.0
  O  O19  1  0.19974026  0.44382813  0.85473032  1.0
  O  O20  1  0.69974026  0.44382813  0.64526968  1.0
  O  O21  1  0.19974026  0.05617187  0.85473032  1.0
  O  O22  1  0.30025974  0.94382813  0.35473032  1.0
  O  O23  1  0.80025974  0.55617187  0.14526968  1.0
  S  S24  1  0.23823886  0.75000000  0.41683513  1.0
  S  S25  1  0.73823886  0.75000000  0.08316487  1.0
  S  S26  1  0.76176114  0.25000000  0.58316487  1.0
  S  S27  1  0.26176114  0.25000000  0.91683513  1.0
