# generated using pymatgen
data_Nb4Ag2O11
_symmetry_space_group_name_H-M   'P 1'
_cell_length_a   6.21859568
_cell_length_b   6.21859568
_cell_length_c   12.90412213
_cell_angle_alpha   76.57882338
_cell_angle_beta   103.42117662
_cell_angle_gamma   117.75670382
_symmetry_Int_Tables_number   1
_chemical_formula_structural   Nb4Ag2O11
_chemical_formula_sum   'Nb8 Ag4 O22'
_cell_volume   425.05340079
_cell_formula_units_Z   2
loop_
 _symmetry_equiv_pos_site_id
 _symmetry_equiv_pos_as_xyz
  1  'x, y, z'
loop_
 _atom_site_type_symbol
 _atom_site_label
 _atom_site_symmetry_multiplicity
 _atom_site_fract_x
 _atom_site_fract_y
 _atom_site_fract_z
 _atom_site_occupancy
  Nb  Nb0  1  0.50000000  0.00000000  -0.00000000  1.0
  Nb  Nb1  1  1.00000000  0.50000000  0.50000000  1.0
  Nb  Nb2  1  0.74622869  0.11341018  0.74820899  1.0
  Nb  Nb3  1  0.88658982  0.25377131  0.24820899  1.0
  Nb  Nb4  1  1.11341018  0.74622869  0.75179101  1.0
  Nb  Nb5  1  0.25377131  -0.11341018  0.25179101  1.0
  Nb  Nb6  1  0.40034948  0.40034948  0.75000000  1.0
  Nb  Nb7  1  0.59965052  0.59965052  0.25000000  1.0
  Ag  Ag8  1  0.67227910  -0.16099323  0.50549493  1.0
  Ag  Ag9  1  1.16099323  0.32772090  0.00549493  1.0
  Ag  Ag10  1  0.83900677  0.67227910  0.99450507  1.0
  Ag  Ag11  1  0.32772090  0.16099323  0.49450507  1.0
  O  O12  1  0.96227985  0.96227985  0.75000000  1.0
  O  O13  1  0.03772015  0.03772015  0.25000000  1.0
  O  O14  1  0.42588850  0.26805996  0.90573683  1.0
  O  O15  1  0.73194004  0.57411150  0.40573683  1.0
  O  O16  1  1.26805996  0.42588850  0.59426317  1.0
  O  O17  1  0.57411150  -0.26805996  0.09426317  1.0
  O  O18  1  0.39773579  0.08808616  0.72202938  1.0
  O  O19  1  0.91191384  0.60226421  0.22202938  1.0
  O  O20  1  1.08808616  0.39773579  0.77797062  1.0
  O  O21  1  0.60226421  -0.08808616  0.27797062  1.0
  O  O22  1  0.75371083  0.23055985  0.59163285  1.0
  O  O23  1  0.76944015  0.24628917  0.09163285  1.0
  O  O24  1  1.23055985  0.75371083  0.90836715  1.0
  O  O25  1  0.24628917  -0.23055985  0.40836715  1.0
  O  O26  1  0.73956508  0.05823612  0.90531494  1.0
  O  O27  1  0.94176388  0.26043492  0.40531494  1.0
  O  O28  1  1.05823612  0.73956508  0.59468506  1.0
  O  O29  1  0.26043492  -0.05823612  0.09468506  1.0
  O  O30  1  0.48981204  -0.25256128  0.74766166  1.0
  O  O31  1  1.25256128  0.51018796  0.24766166  1.0
  O  O32  1  0.74743872  0.48981204  0.75233834  1.0
  O  O33  1  0.51018796  0.25256128  0.25233834  1.0
