# generated using pymatgen
data_RbLa(WO4)2
_symmetry_space_group_name_H-M   'P 1'
_cell_length_a   7.78176886
_cell_length_b   7.78176886
_cell_length_c   7.86086527
_cell_angle_alpha   62.04463626
_cell_angle_beta   117.95536374
_cell_angle_gamma   91.13759525
_symmetry_Int_Tables_number   1
_chemical_formula_structural   RbLa(WO4)2
_chemical_formula_sum   'Rb2 La2 W4 O16'
_cell_volume   359.01516768
_cell_formula_units_Z   2
loop_
 _symmetry_equiv_pos_site_id
 _symmetry_equiv_pos_as_xyz
  1  'x, y, z'
loop_
 _atom_site_type_symbol
 _atom_site_label
 _atom_site_symmetry_multiplicity
 _atom_site_fract_x
 _atom_site_fract_y
 _atom_site_fract_z
 _atom_site_occupancy
  Rb  Rb0  1  0.19800631  0.19800631  0.25000000  1.0
  Rb  Rb1  1  0.80199369  0.80199369  0.75000000  1.0
  La  La2  1  0.77402935  0.77402935  0.25000000  1.0
  La  La3  1  0.22597065  0.22597065  0.75000000  1.0
  W  W4  1  0.68976947  0.30965546  0.23173830  1.0
  W  W5  1  0.69034454  0.31023053  0.73173830  1.0
  W  W6  1  1.30965546  -0.31023053  0.26826170  1.0
  W  W7  1  1.31023053  -0.30965546  0.76826170  1.0
  O  O8  1  0.78344501  0.06030712  0.30298664  1.0
  O  O9  1  0.93969288  0.21655499  0.80298664  1.0
  O  O10  1  1.06030712  -0.21655499  0.19701336  1.0
  O  O11  1  1.21655499  -0.06030712  0.69701336  1.0
  O  O12  1  0.61655297  0.24487892  0.43430061  1.0
  O  O13  1  0.75512108  0.38344703  0.93430061  1.0
  O  O14  1  1.24487892  -0.38344703  0.06569939  1.0
  O  O15  1  1.38344703  -0.24487892  0.56569939  1.0
  O  O16  1  1.38213660  -0.07743614  0.13694462  1.0
  O  O17  1  1.07743614  -0.38213660  0.63694462  1.0
  O  O18  1  0.92256386  0.38213660  0.36305538  1.0
  O  O19  1  0.61786340  0.07743614  0.86305538  1.0
  O  O20  1  1.58166574  -0.37325750  0.02679756  1.0
  O  O21  1  1.37325750  -0.58166574  0.52679756  1.0
  O  O22  1  0.62674250  0.58166574  0.47320244  1.0
  O  O23  1  0.41833426  0.37325750  0.97320244  1.0
