# generated using pymatgen
data_Y2PBr2
_symmetry_space_group_name_H-M   'P 1'
_cell_length_a   10.93290822
_cell_length_b   10.93290822
_cell_length_c   10.93290822
_cell_angle_alpha   21.11968612
_cell_angle_beta   21.11968612
_cell_angle_gamma   21.11968612
_symmetry_Int_Tables_number   1
_chemical_formula_structural   Y2PBr2
_chemical_formula_sum   'Y2 P1 Br2'
_cell_volume   148.59223561
_cell_formula_units_Z   1
loop_
 _symmetry_equiv_pos_site_id
 _symmetry_equiv_pos_as_xyz
  1  'x, y, z'
loop_
 _atom_site_type_symbol
 _atom_site_label
 _atom_site_symmetry_multiplicity
 _atom_site_fract_x
 _atom_site_fract_y
 _atom_site_fract_z
 _atom_site_occupancy
  Y  Y0  1  1.61935663  0.61935663  0.61935663  1.0
  Y  Y1  1  1.38064337  0.38064337  0.38064337  1.0
  P  P2  1  0.00000000  0.00000000  0.00000000  1.0
  Br  Br3  1  0.77082406  0.77082406  0.77082406  1.0
  Br  Br4  1  1.22917594  1.22917594  0.22917594  1.0
