# generated using pymatgen
data_K2PbO3
_symmetry_space_group_name_H-M   'P 1'
_cell_length_a   6.46433144
_cell_length_b   6.46433144
_cell_length_c   6.09936678
_cell_angle_alpha   90.00000000
_cell_angle_beta   90.00000000
_cell_angle_gamma   66.29484772
_symmetry_Int_Tables_number   1
_chemical_formula_structural   K2PbO3
_chemical_formula_sum   'K4 Pb2 O6'
_cell_volume   233.37283819
_cell_formula_units_Z   2
loop_
 _symmetry_equiv_pos_site_id
 _symmetry_equiv_pos_as_xyz
  1  'x, y, z'
loop_
 _atom_site_type_symbol
 _atom_site_label
 _atom_site_symmetry_multiplicity
 _atom_site_fract_x
 _atom_site_fract_y
 _atom_site_fract_z
 _atom_site_occupancy
  Pb  Pb0  1  0.09895641  0.90104359  0.01971563  1.0
  Pb  Pb1  1  -0.09895641  1.09895641  0.51971563  1.0
  K  K2  1  -0.20174517  1.52608751  -0.01552983  1.0
  K  K3  1  0.52608751  0.79825483  0.48447017  1.0
  K  K4  1  -0.52608751  1.20174517  -0.01552983  1.0
  K  K5  1  0.20174517  0.47391249  0.48447017  1.0
  O  O6  1  0.82852605  0.90508276  0.25285578  1.0
  O  O7  1  0.90508276  0.82852605  0.75285578  1.0
  O  O8  1  0.09491724  0.17147395  0.25285578  1.0
  O  O9  1  0.17147395  0.09491724  0.75285578  1.0
  O  O10  1  0.37456649  0.62543351  0.13063248  1.0
  O  O11  1  -0.37456649  1.37456649  0.63063248  1.0
