# generated using pymatgen
data_CrH18(O3F)3
_symmetry_space_group_name_H-M   'P 1'
_cell_length_a   6.82012590
_cell_length_b   6.82012590
_cell_length_c   6.82012590
_cell_angle_alpha   104.77988463
_cell_angle_beta   104.77988463
_cell_angle_gamma   104.77988463
_symmetry_Int_Tables_number   1
_chemical_formula_structural   CrH18(O3F)3
_chemical_formula_sum   'Cr1 H18 O9 F3'
_cell_volume   278.65156341
_cell_formula_units_Z   1
loop_
 _symmetry_equiv_pos_site_id
 _symmetry_equiv_pos_as_xyz
  1  'x, y, z'
loop_
 _atom_site_type_symbol
 _atom_site_label
 _atom_site_symmetry_multiplicity
 _atom_site_fract_x
 _atom_site_fract_y
 _atom_site_fract_z
 _atom_site_occupancy
  Cr  Cr0  1  0.00229792  0.00229792  0.00229792  1.0
  H  H1  1  0.50169120  0.69698636  0.32137267  1.0
  H  H2  1  0.69698636  1.32137267  -0.49830880  1.0
  H  H3  1  1.32137267  0.50169120  -0.30301364  1.0
  H  H4  1  0.57364089  1.30823064  -0.33006285  1.0
  H  H5  1  1.30823064  0.66993715  -0.42635911  1.0
  H  H6  1  0.66993715  0.57364089  0.30823064  1.0
  H  H7  1  1.18930157  -0.14680722  0.29408734  1.0
  H  H8  1  0.85319278  0.29408734  0.18930157  1.0
  H  H9  1  1.29408734  0.18930157  -0.14680722  1.0
  H  H10  1  1.20761146  0.09831886  -0.56956852  1.0
  H  H11  1  1.09831886  -0.56956852  0.20761146  1.0
  H  H12  1  0.43043148  0.20761146  0.09831886  1.0
  H  H13  1  0.80909880  1.14312378  -0.29704341  1.0
  H  H14  1  1.14312378  0.70295659  -0.19090120  1.0
  H  H15  1  0.70295659  0.80909880  0.14312378  1.0
  H  H16  1  0.79278230  0.89631658  0.57585540  1.0
  H  H17  1  0.89631658  1.57585540  -0.20721770  1.0
  H  H18  1  1.57585540  0.79278230  -0.10368342  1.0
  O  O19  1  0.65626225  0.72016054  0.33186803  1.0
  O  O20  1  0.72016054  1.33186803  -0.34373775  1.0
  O  O21  1  1.33186803  0.65626225  -0.27983946  1.0
  O  O22  1  1.14308694  -0.01921370  0.28481134  1.0
  O  O23  1  0.98078630  0.28481134  0.14308694  1.0
  O  O24  1  1.28481134  0.14308694  -0.01921370  1.0
  O  O25  1  0.86162313  1.01984077  -0.28219149  1.0
  O  O26  1  1.01984077  0.71780851  -0.13837687  1.0
  O  O27  1  0.71780851  0.86162313  0.01984077  1.0
  F  F28  1  1.26594301  -0.33482776  0.32950318  1.0
  F  F29  1  0.66517224  0.32950318  0.26594301  1.0
  F  F30  1  1.32950318  0.26594301  -0.33482776  1.0
