# generated using pymatgen
data_NaNbCl6
_symmetry_space_group_name_H-M   'P 1'
_cell_length_a   6.68616923
_cell_length_b   7.04671869
_cell_length_c   20.74365006
_cell_angle_alpha   90.00000000
_cell_angle_beta   90.46227641
_cell_angle_gamma   90.00000000
_symmetry_Int_Tables_number   1
_chemical_formula_structural   NaNbCl6
_chemical_formula_sum   'Na4 Nb4 Cl24'
_cell_volume   977.31674765
_cell_formula_units_Z   4
loop_
 _symmetry_equiv_pos_site_id
 _symmetry_equiv_pos_as_xyz
  1  'x, y, z'
loop_
 _atom_site_type_symbol
 _atom_site_label
 _atom_site_symmetry_multiplicity
 _atom_site_fract_x
 _atom_site_fract_y
 _atom_site_fract_z
 _atom_site_occupancy
  Na  Na0  1  0.79160349  0.70793137  0.74365146  1.0
  Na  Na1  1  0.79160349  0.79206863  0.24365146  1.0
  Na  Na2  1  0.20839651  0.20793137  0.75634854  1.0
  Na  Na3  1  0.20839651  0.29206863  0.25634854  1.0
  Nb  Nb4  1  0.73449766  0.29573811  0.87886257  1.0
  Nb  Nb5  1  0.73449766  0.20426189  0.37886257  1.0
  Nb  Nb6  1  0.26550234  0.79573811  0.62113743  1.0
  Nb  Nb7  1  0.26550234  0.70426189  0.12113743  1.0
  Cl  Cl8  1  0.97853996  0.97817154  0.65827764  1.0
  Cl  Cl9  1  0.97853996  0.52182846  0.15827764  1.0
  Cl  Cl10  1  0.02146004  0.47817154  0.84172236  1.0
  Cl  Cl11  1  0.02146004  0.02182846  0.34172236  1.0
  Cl  Cl12  1  0.90872780  1.01877367  0.83467038  1.0
  Cl  Cl13  1  0.90872780  0.48122633  0.33467038  1.0
  Cl  Cl14  1  0.09127220  0.51877367  0.66532962  1.0
  Cl  Cl15  1  0.09127220  -0.01877367  0.16532962  1.0
  Cl  Cl16  1  0.87993796  0.24233327  0.97767055  1.0
  Cl  Cl17  1  0.87993796  0.25766673  0.47767055  1.0
  Cl  Cl18  1  0.12006204  0.74233327  0.52232945  1.0
  Cl  Cl19  1  0.12006204  0.75766673  0.02232945  1.0
  Cl  Cl20  1  0.58175518  0.57502090  0.90961443  1.0
  Cl  Cl21  1  0.58175518  0.92497910  0.40961443  1.0
  Cl  Cl22  1  0.41824482  0.07502090  0.59038557  1.0
  Cl  Cl23  1  0.41824482  0.42497910  0.09038557  1.0
  Cl  Cl24  1  0.54492664  0.60854428  0.60315653  1.0
  Cl  Cl25  1  0.54492664  0.89145572  0.10315653  1.0
  Cl  Cl26  1  0.45507336  0.10854428  0.89684347  1.0
  Cl  Cl27  1  0.45507336  0.39145572  0.39684347  1.0
  Cl  Cl28  1  0.39442926  0.84762033  0.73302513  1.0
  Cl  Cl29  1  0.39442926  0.65237967  0.23302513  1.0
  Cl  Cl30  1  0.60557074  0.34762033  0.76697487  1.0
  Cl  Cl31  1  0.60557074  0.15237967  0.26697487  1.0
