# generated using pymatgen
data_ScGe2Ru
_symmetry_space_group_name_H-M   'P 1'
_cell_length_a   9.35073767
_cell_length_b   10.41334659
_cell_length_c   8.17507133
_cell_angle_alpha   90.00000000
_cell_angle_beta   90.00000000
_cell_angle_gamma   90.00000000
_symmetry_Int_Tables_number   1
_chemical_formula_structural   ScGe2Ru
_chemical_formula_sum   'Sc12 Ge24 Ru12'
_cell_volume   796.02690581
_cell_formula_units_Z   12
loop_
 _symmetry_equiv_pos_site_id
 _symmetry_equiv_pos_as_xyz
  1  'x, y, z'
loop_
 _atom_site_type_symbol
 _atom_site_label
 _atom_site_symmetry_multiplicity
 _atom_site_fract_x
 _atom_site_fract_y
 _atom_site_fract_z
 _atom_site_occupancy
  Sc  Sc0  1  0.17641526  0.55032330  0.75626514  1.0
  Sc  Sc1  1  0.17641526  0.55032330  0.24373486  1.0
  Sc  Sc2  1  0.67641526  0.94967670  0.75626514  1.0
  Sc  Sc3  1  0.67641526  0.94967670  0.24373486  1.0
  Sc  Sc4  1  0.82358474  0.44967670  0.75626514  1.0
  Sc  Sc5  1  0.82358474  0.44967670  0.24373486  1.0
  Sc  Sc6  1  0.32358474  0.05032330  0.75626514  1.0
  Sc  Sc7  1  0.32358474  0.05032330  0.24373486  1.0
  Sc  Sc8  1  0.16390826  0.82219180  0.00000000  1.0
  Sc  Sc9  1  0.66390826  0.67780820  0.00000000  1.0
  Sc  Sc10  1  0.83609174  0.17780820  0.00000000  1.0
  Sc  Sc11  1  0.33609174  0.32219180  0.00000000  1.0
  Ge  Ge12  1  0.16212146  0.82064236  0.65540569  1.0
  Ge  Ge13  1  0.16212146  0.82064236  0.34459431  1.0
  Ge  Ge14  1  0.66212146  0.67935764  0.65540569  1.0
  Ge  Ge15  1  0.66212146  0.67935764  0.34459431  1.0
  Ge  Ge16  1  0.83787854  0.17935764  0.65540569  1.0
  Ge  Ge17  1  0.83787854  0.17935764  0.34459431  1.0
  Ge  Ge18  1  0.33787854  0.32064236  0.65540569  1.0
  Ge  Ge19  1  0.33787854  0.32064236  0.34459431  1.0
  Ge  Ge20  1  0.46567892  0.88247463  0.50000000  1.0
  Ge  Ge21  1  0.96567892  0.61752537  0.50000000  1.0
  Ge  Ge22  1  0.53432108  0.11752537  0.50000000  1.0
  Ge  Ge23  1  0.03432108  0.38247463  0.50000000  1.0
  Ge  Ge24  1  0.37175945  0.59854052  0.50000000  1.0
  Ge  Ge25  1  0.87175945  0.90145948  0.50000000  1.0
  Ge  Ge26  1  0.62824055  0.40145948  0.50000000  1.0
  Ge  Ge27  1  0.12824055  0.09854052  0.50000000  1.0
  Ge  Ge28  1  0.46397738  0.88375074  0.00000000  1.0
  Ge  Ge29  1  0.96397738  0.61624926  0.00000000  1.0
  Ge  Ge30  1  0.53602262  0.11624926  0.00000000  1.0
  Ge  Ge31  1  0.03602262  0.38375074  0.00000000  1.0
  Ge  Ge32  1  0.36610621  0.60306045  0.00000000  1.0
  Ge  Ge33  1  0.86610621  0.89693955  0.00000000  1.0
  Ge  Ge34  1  0.63389379  0.39693955  0.00000000  1.0
  Ge  Ge35  1  0.13389379  0.10306045  0.00000000  1.0
  Ru  Ru36  1  0.41349925  0.76255117  0.75075047  1.0
  Ru  Ru37  1  0.41349925  0.76255117  0.24924953  1.0
  Ru  Ru38  1  0.91349925  0.73744883  0.75075047  1.0
  Ru  Ru39  1  0.91349925  0.73744883  0.24924953  1.0
  Ru  Ru40  1  0.58650075  0.23744883  0.75075047  1.0
  Ru  Ru41  1  0.58650075  0.23744883  0.24924953  1.0
  Ru  Ru42  1  0.08650075  0.26255117  0.75075047  1.0
  Ru  Ru43  1  0.08650075  0.26255117  0.24924953  1.0
  Ru  Ru44  1  0.50000000  0.50000000  0.75415860  1.0
  Ru  Ru45  1  0.50000000  0.50000000  0.24584140  1.0
  Ru  Ru46  1  0.00000000  0.00000000  0.75415860  1.0
  Ru  Ru47  1  0.00000000  0.00000000  0.24584140  1.0
