# generated using pymatgen
data_LiSbO3
_symmetry_space_group_name_H-M   'P 1'
_cell_length_a   5.27002540
_cell_length_b   4.97987668
_cell_length_c   8.64429592
_cell_angle_alpha   90.00000000
_cell_angle_beta   90.00000000
_cell_angle_gamma   90.00000000
_symmetry_Int_Tables_number   1
_chemical_formula_structural   LiSbO3
_chemical_formula_sum   'Li4 Sb4 O12'
_cell_volume   226.86156456
_cell_formula_units_Z   4
loop_
 _symmetry_equiv_pos_site_id
 _symmetry_equiv_pos_as_xyz
  1  'x, y, z'
loop_
 _atom_site_type_symbol
 _atom_site_label
 _atom_site_symmetry_multiplicity
 _atom_site_fract_x
 _atom_site_fract_y
 _atom_site_fract_z
 _atom_site_occupancy
  Li  Li0  1  0.75000000  0.00000000  0.19034797  1.0
  Li  Li1  1  0.75000000  0.50000000  0.30965203  1.0
  Li  Li2  1  0.25000000  0.00000000  0.80965203  1.0
  Li  Li3  1  0.25000000  0.50000000  0.69034797  1.0
  Sb  Sb4  1  0.75000000  0.00000000  0.59498612  1.0
  Sb  Sb5  1  0.75000000  0.50000000  0.90501388  1.0
  Sb  Sb6  1  0.25000000  0.00000000  0.40501388  1.0
  Sb  Sb7  1  0.25000000  0.50000000  0.09498612  1.0
  O  O8  1  0.92458252  0.70690713  0.08127034  1.0
  O  O9  1  0.92458252  0.79309287  0.41872966  1.0
  O  O10  1  0.42458252  0.70690713  0.91872966  1.0
  O  O11  1  0.42458252  0.79309287  0.58127034  1.0
  O  O12  1  0.07541748  0.20690713  0.58127034  1.0
  O  O13  1  0.07541748  0.29309287  0.91872966  1.0
  O  O14  1  0.57541748  0.20690713  0.41872966  1.0
  O  O15  1  0.57541748  0.29309287  0.08127034  1.0
  O  O16  1  0.41106246  0.75000000  0.25000000  1.0
  O  O17  1  0.91106246  0.75000000  0.75000000  1.0
  O  O18  1  0.58893754  0.25000000  0.75000000  1.0
  O  O19  1  0.08893754  0.25000000  0.25000000  1.0
