# generated using pymatgen
data_Y2Co7B3
_symmetry_space_group_name_H-M   'P 1'
_cell_length_a   5.02955873
_cell_length_b   5.02955873
_cell_length_c   12.69550070
_cell_angle_alpha   90.00000000
_cell_angle_beta   90.00000000
_cell_angle_gamma   120.00000000
_symmetry_Int_Tables_number   1
_chemical_formula_structural   Y2Co7B3
_chemical_formula_sum   'Y4 Co14 B6'
_cell_volume   278.12513084
_cell_formula_units_Z   2
loop_
 _symmetry_equiv_pos_site_id
 _symmetry_equiv_pos_as_xyz
  1  'x, y, z'
loop_
 _atom_site_type_symbol
 _atom_site_label
 _atom_site_symmetry_multiplicity
 _atom_site_fract_x
 _atom_site_fract_y
 _atom_site_fract_z
 _atom_site_occupancy
  Y  Y0  1  0.00000000  0.00000000  0.76123683  1.0
  Y  Y1  1  -0.00000000  -0.00000000  0.23876317  1.0
  Y  Y2  1  -0.00000000  -0.00000000  0.50000000  1.0
  Y  Y3  1  0.00000000  0.00000000  0.00000000  1.0
  Co  Co4  1  0.50000000  0.50000000  0.88446950  1.0
  Co  Co5  1  0.50000000  0.50000000  0.11553050  1.0
  Co  Co6  1  0.50000000  0.00000000  0.88446950  1.0
  Co  Co7  1  0.50000000  0.00000000  0.11553050  1.0
  Co  Co8  1  0.00000000  0.50000000  0.88446950  1.0
  Co  Co9  1  0.00000000  0.50000000  0.11553050  1.0
  Co  Co10  1  0.33333333  0.66666667  0.50000000  1.0
  Co  Co11  1  0.66666667  0.33333333  0.50000000  1.0
  Co  Co12  1  0.50000000  0.50000000  0.65488132  1.0
  Co  Co13  1  0.50000000  0.50000000  0.34511868  1.0
  Co  Co14  1  0.50000000  -0.00000000  0.65488132  1.0
  Co  Co15  1  0.50000000  -0.00000000  0.34511868  1.0
  Co  Co16  1  0.00000000  0.50000000  0.65488132  1.0
  Co  Co17  1  0.00000000  0.50000000  0.34511868  1.0
  B  B18  1  0.33333333  0.66666667  0.76889259  1.0
  B  B19  1  0.33333333  0.66666667  0.23110741  1.0
  B  B20  1  0.66666667  0.33333333  0.76889259  1.0
  B  B21  1  0.66666667  0.33333333  0.23110741  1.0
  B  B22  1  0.33333333  0.66666667  -0.00000000  1.0
  B  B23  1  0.66666667  0.33333333  0.00000000  1.0
