# generated using pymatgen
data_Ca3Zr3AgF20
_symmetry_space_group_name_H-M   'P 1'
_cell_length_a   10.75657303
_cell_length_b   10.75657303
_cell_length_c   8.52532888
_cell_angle_alpha   90.00000000
_cell_angle_beta   90.00000000
_cell_angle_gamma   120.00000000
_symmetry_Int_Tables_number   1
_chemical_formula_structural   Ca3Zr3AgF20
_chemical_formula_sum   'Ca6 Zr6 Ag2 F40'
_cell_volume   854.25913924
_cell_formula_units_Z   2
loop_
 _symmetry_equiv_pos_site_id
 _symmetry_equiv_pos_as_xyz
  1  'x, y, z'
loop_
 _atom_site_type_symbol
 _atom_site_label
 _atom_site_symmetry_multiplicity
 _atom_site_fract_x
 _atom_site_fract_y
 _atom_site_fract_z
 _atom_site_occupancy
  Ca  Ca0  1  0.16419071  0.73038434  0.25000000  1.0
  Ca  Ca1  1  0.73038434  0.56619362  0.75000000  1.0
  Ca  Ca2  1  0.56619362  0.83580929  0.25000000  1.0
  Ca  Ca3  1  0.26961566  0.43380638  0.25000000  1.0
  Ca  Ca4  1  0.83580929  0.26961566  0.75000000  1.0
  Ca  Ca5  1  0.43380638  0.16419071  0.75000000  1.0
  Zr  Zr6  1  0.72291408  0.58426296  0.25000000  1.0
  Zr  Zr7  1  0.58426296  0.86134888  0.75000000  1.0
  Zr  Zr8  1  0.86134888  0.27708592  0.25000000  1.0
  Zr  Zr9  1  0.41573704  0.13865112  0.25000000  1.0
  Zr  Zr10  1  0.27708592  0.41573704  0.75000000  1.0
  Zr  Zr11  1  0.13865112  0.72291408  0.75000000  1.0
  Ag  Ag12  1  0.00000000  0.00000000  0.25000000  1.0
  Ag  Ag13  1  -0.00000000  -0.00000000  0.75000000  1.0
  F  F14  1  0.71946793  0.57399419  0.48564356  1.0
  F  F15  1  0.71946793  0.57399419  0.01435644  1.0
  F  F16  1  0.57399419  0.85452627  0.98564356  1.0
  F  F17  1  0.57399419  0.85452627  0.51435644  1.0
  F  F18  1  0.85452627  0.28053207  0.48564356  1.0
  F  F19  1  0.85452627  0.28053207  0.01435644  1.0
  F  F20  1  0.42600581  0.14547373  0.48564356  1.0
  F  F21  1  0.42600581  0.14547373  0.01435644  1.0
  F  F22  1  0.28053207  0.42600581  0.98564356  1.0
  F  F23  1  0.28053207  0.42600581  0.51435644  1.0
  F  F24  1  0.14547373  0.71946793  0.98564356  1.0
  F  F25  1  0.14547373  0.71946793  0.51435644  1.0
  F  F26  1  0.20029780  0.96736381  0.25000000  1.0
  F  F27  1  0.96736381  0.76706600  0.75000000  1.0
  F  F28  1  0.76706600  0.79970220  0.25000000  1.0
  F  F29  1  0.03263619  0.23293400  0.25000000  1.0
  F  F30  1  0.79970220  0.03263619  0.75000000  1.0
  F  F31  1  0.23293400  0.20029780  0.75000000  1.0
  F  F32  1  0.41190042  0.94144708  0.25000000  1.0
  F  F33  1  0.94144708  0.52954666  0.75000000  1.0
  F  F34  1  0.52954666  0.58809958  0.25000000  1.0
  F  F35  1  0.05855292  0.47045334  0.25000000  1.0
  F  F36  1  0.58809958  0.05855292  0.75000000  1.0
  F  F37  1  0.47045334  0.41190042  0.75000000  1.0
  F  F38  1  0.94204183  0.71533928  0.25000000  1.0
  F  F39  1  0.71533928  0.77329745  0.75000000  1.0
  F  F40  1  0.77329745  0.05795817  0.25000000  1.0
  F  F41  1  0.28466072  0.22670255  0.25000000  1.0
  F  F42  1  0.05795817  0.28466072  0.75000000  1.0
  F  F43  1  0.22670255  0.94204183  0.75000000  1.0
  F  F44  1  0.55146286  0.36703797  0.25000000  1.0
  F  F45  1  0.36703797  0.81557510  0.75000000  1.0
  F  F46  1  0.81557510  0.44853714  0.25000000  1.0
  F  F47  1  0.63296203  0.18442490  0.25000000  1.0
  F  F48  1  0.44853714  0.63296203  0.75000000  1.0
  F  F49  1  0.18442490  0.55146286  0.75000000  1.0
  F  F50  1  0.33333333  0.66666667  0.25000000  1.0
  F  F51  1  0.66666667  0.33333333  0.75000000  1.0
  F  F52  1  0.00000000  0.00000000  0.50000000  1.0
  F  F53  1  0.00000000  0.00000000  -0.00000000  1.0
