# generated using pymatgen
data_NaH4Au(Br2O)2
_symmetry_space_group_name_H-M   'P 1'
_cell_length_a   13.48762064
_cell_length_b   7.50293403
_cell_length_c   9.53642019
_cell_angle_alpha   90.00000000
_cell_angle_beta   90.00000000
_cell_angle_gamma   90.00000000
_symmetry_Int_Tables_number   1
_chemical_formula_structural   NaH4Au(Br2O)2
_chemical_formula_sum   'Na4 H16 Au4 Br16 O8'
_cell_volume   965.05451875
_cell_formula_units_Z   4
loop_
 _symmetry_equiv_pos_site_id
 _symmetry_equiv_pos_as_xyz
  1  'x, y, z'
loop_
 _atom_site_type_symbol
 _atom_site_label
 _atom_site_symmetry_multiplicity
 _atom_site_fract_x
 _atom_site_fract_y
 _atom_site_fract_z
 _atom_site_occupancy
  Na  Na0  1  0.48773799  0.75000000  0.55869032  1.0
  Na  Na1  1  0.98773799  0.75000000  0.94130968  1.0
  Na  Na2  1  0.51226201  0.25000000  0.44130968  1.0
  Na  Na3  1  0.01226201  0.25000000  0.05869032  1.0
  H  H4  1  0.32884360  0.04078392  0.52219382  1.0
  H  H5  1  0.32884360  0.45921608  0.52219382  1.0
  H  H6  1  0.82884360  0.04078392  0.97780618  1.0
  H  H7  1  0.82884360  0.45921608  0.97780618  1.0
  H  H8  1  0.67115640  0.54078392  0.47780618  1.0
  H  H9  1  0.67115640  -0.04078392  0.47780618  1.0
  H  H10  1  0.17115640  0.54078392  0.02219382  1.0
  H  H11  1  0.17115640  -0.04078392  0.02219382  1.0
  H  H12  1  0.14143437  1.03033604  0.87590890  1.0
  H  H13  1  0.14143437  0.46966396  0.87590890  1.0
  H  H14  1  0.64143437  1.03033604  0.62409110  1.0
  H  H15  1  0.64143437  0.46966396  0.62409110  1.0
  H  H16  1  0.85856563  0.53033604  0.12409110  1.0
  H  H17  1  0.85856563  -0.03033604  0.12409110  1.0
  H  H18  1  0.35856563  0.53033604  0.37590890  1.0
  H  H19  1  0.35856563  -0.03033604  0.37590890  1.0
  Au  Au20  1  0.43575081  0.75000000  0.00942772  1.0
  Au  Au21  1  0.93575081  0.75000000  0.49057228  1.0
  Au  Au22  1  0.56424919  0.25000000  0.99057228  1.0
  Au  Au23  1  0.06424919  0.25000000  0.50942772  1.0
  Br  Br24  1  0.32619720  0.75000000  0.80198092  1.0
  Br  Br25  1  0.82619720  0.75000000  0.69801908  1.0
  Br  Br26  1  0.67380280  0.25000000  0.19801908  1.0
  Br  Br27  1  0.17380280  0.25000000  0.30198092  1.0
  Br  Br28  1  0.28821873  0.75000000  0.16638525  1.0
  Br  Br29  1  0.78821873  0.75000000  0.33361475  1.0
  Br  Br30  1  0.71178127  0.25000000  0.83361475  1.0
  Br  Br31  1  0.21178127  0.25000000  0.66638525  1.0
  Br  Br32  1  0.08306982  0.75000000  0.64437046  1.0
  Br  Br33  1  0.58306982  0.75000000  0.85562954  1.0
  Br  Br34  1  0.91693018  0.25000000  0.35562954  1.0
  Br  Br35  1  0.41693018  0.25000000  0.14437046  1.0
  Br  Br36  1  0.04597346  0.75000000  0.28442797  1.0
  Br  Br37  1  0.54597346  0.75000000  0.21557203  1.0
  Br  Br38  1  0.95402654  0.25000000  0.71557203  1.0
  Br  Br39  1  0.45402654  0.25000000  0.78442797  1.0
  O  O40  1  0.11399739  0.00075015  0.96795721  1.0
  O  O41  1  0.11399739  0.49924985  0.96795721  1.0
  O  O42  1  0.61399739  0.00075015  0.53204279  1.0
  O  O43  1  0.61399739  0.49924985  0.53204279  1.0
  O  O44  1  0.88600261  0.50075015  0.03204279  1.0
  O  O45  1  0.88600261  0.99924985  0.03204279  1.0
  O  O46  1  0.38600261  0.50075015  0.46795721  1.0
  O  O47  1  0.38600261  0.99924985  0.46795721  1.0
