# generated using pymatgen
data_SrVTeHO6
_symmetry_space_group_name_H-M   'P 1'
_cell_length_a   7.02817207
_cell_length_b   6.88408024
_cell_length_c   12.42215873
_cell_angle_alpha   90.00000000
_cell_angle_beta   99.10747510
_cell_angle_gamma   90.00000000
_symmetry_Int_Tables_number   1
_chemical_formula_structural   SrVTeHO6
_chemical_formula_sum   'Sr4 V4 Te4 H4 O24'
_cell_volume   593.43820215
_cell_formula_units_Z   4
loop_
 _symmetry_equiv_pos_site_id
 _symmetry_equiv_pos_as_xyz
  1  'x, y, z'
loop_
 _atom_site_type_symbol
 _atom_site_label
 _atom_site_symmetry_multiplicity
 _atom_site_fract_x
 _atom_site_fract_y
 _atom_site_fract_z
 _atom_site_occupancy
  Sr  Sr0  1  0.60214681  0.99181837  0.34097107  1.0
  Sr  Sr1  1  0.39785319  0.49181837  0.15902893  1.0
  Sr  Sr2  1  0.39785319  0.00818163  0.65902893  1.0
  Sr  Sr3  1  0.60214681  0.50818163  0.84097107  1.0
  V  V4  1  0.84383221  0.84274616  0.63763791  1.0
  V  V5  1  0.15616779  0.34274616  0.86236209  1.0
  V  V6  1  0.15616779  0.15725384  0.36236209  1.0
  V  V7  1  0.84383221  0.65725384  0.13763791  1.0
  Te  Te8  1  0.19500980  0.84194991  0.94152523  1.0
  Te  Te9  1  0.80499020  0.34194991  0.55847477  1.0
  Te  Te10  1  0.80499020  0.15805009  0.05847477  1.0
  Te  Te11  1  0.19500980  0.65805009  0.44152523  1.0
  H  H12  1  0.51650715  0.97978259  0.89254020  1.0
  H  H13  1  0.48349285  0.47978259  0.60745980  1.0
  H  H14  1  0.48349285  0.02021741  0.10745980  1.0
  H  H15  1  0.51650715  0.52021741  0.39254020  1.0
  O  O16  1  0.34640960  0.84670095  0.08346731  1.0
  O  O17  1  0.65359040  0.34670095  0.41653269  1.0
  O  O18  1  0.65359040  0.15329905  0.91653269  1.0
  O  O19  1  0.34640960  0.65329905  0.58346731  1.0
  O  O20  1  0.42105080  0.87099338  0.85971943  1.0
  O  O21  1  0.57894920  0.37099338  0.64028057  1.0
  O  O22  1  0.57894920  0.12900662  0.14028057  1.0
  O  O23  1  0.42105080  0.62900662  0.35971943  1.0
  O  O24  1  0.28289683  0.97511210  0.44595577  1.0
  O  O25  1  0.71710317  0.47511210  0.05404423  1.0
  O  O26  1  0.71710317  0.02488790  0.55404423  1.0
  O  O27  1  0.28289683  0.52488790  0.94595577  1.0
  O  O28  1  0.86533104  0.86180766  0.05121642  1.0
  O  O29  1  0.13466896  0.36180766  0.44878358  1.0
  O  O30  1  0.13466896  0.13819234  0.94878358  1.0
  O  O31  1  0.86533104  0.63819234  0.55121642  1.0
  O  O32  1  0.70684394  0.79550690  0.73306314  1.0
  O  O33  1  0.29315606  0.29550690  0.76693686  1.0
  O  O34  1  0.29315606  0.20449310  0.26693686  1.0
  O  O35  1  0.70684394  0.70449310  0.23306314  1.0
  O  O36  1  0.05930896  0.92948415  0.69174055  1.0
  O  O37  1  0.94069104  0.42948415  0.80825945  1.0
  O  O38  1  0.94069104  0.07051585  0.30825945  1.0
  O  O39  1  0.05930896  0.57051585  0.19174055  1.0
