# generated using pymatgen
data_PbSO3
_symmetry_space_group_name_H-M   'P 1'
_cell_length_a   4.56707866
_cell_length_b   5.41960041
_cell_length_c   6.53362842
_cell_angle_alpha   90.00000000
_cell_angle_beta   106.81219516
_cell_angle_gamma   90.00000000
_symmetry_Int_Tables_number   1
_chemical_formula_structural   PbSO3
_chemical_formula_sum   'Pb2 S2 O6'
_cell_volume   154.80649427
_cell_formula_units_Z   2
loop_
 _symmetry_equiv_pos_site_id
 _symmetry_equiv_pos_as_xyz
  1  'x, y, z'
loop_
 _atom_site_type_symbol
 _atom_site_label
 _atom_site_symmetry_multiplicity
 _atom_site_fract_x
 _atom_site_fract_y
 _atom_site_fract_z
 _atom_site_occupancy
  Pb  Pb0  1  0.63926953  0.75000000  0.28118787  1.0
  Pb  Pb1  1  0.36073047  0.25000000  0.71881213  1.0
  S  S2  1  0.91484149  0.75000000  0.82500524  1.0
  S  S3  1  0.08515851  0.25000000  0.17499476  1.0
  O  O4  1  0.80468571  0.97517310  0.67309188  1.0
  O  O5  1  0.80468571  0.52482690  0.67309188  1.0
  O  O6  1  0.19531429  0.47517310  0.32690812  1.0
  O  O7  1  0.19531429  0.02482690  0.32690812  1.0
  O  O8  1  0.26682168  0.75000000  0.87055213  1.0
  O  O9  1  0.73317832  0.25000000  0.12944787  1.0
