# generated using pymatgen
data_H6S(NO2)2
_symmetry_space_group_name_H-M   'P 1'
_cell_length_a   5.60993640
_cell_length_b   8.39591764
_cell_length_c   9.52912653
_cell_angle_alpha   90.00000000
_cell_angle_beta   90.00000000
_cell_angle_gamma   90.00000000
_symmetry_Int_Tables_number   1
_chemical_formula_structural   H6S(NO2)2
_chemical_formula_sum   'H24 S4 N8 O16'
_cell_volume   448.82723405
_cell_formula_units_Z   4
loop_
 _symmetry_equiv_pos_site_id
 _symmetry_equiv_pos_as_xyz
  1  'x, y, z'
loop_
 _atom_site_type_symbol
 _atom_site_label
 _atom_site_symmetry_multiplicity
 _atom_site_fract_x
 _atom_site_fract_y
 _atom_site_fract_z
 _atom_site_occupancy
  H  H0  1  0.49164617  0.65281676  0.72321552  1.0
  H  H1  1  0.99164617  0.84718324  0.27678448  1.0
  H  H2  1  0.50835383  0.15281676  0.77678448  1.0
  H  H3  1  0.00835383  0.34718324  0.22321552  1.0
  H  H4  1  0.42261349  0.64934357  0.54868085  1.0
  H  H5  1  0.92261349  0.85065643  0.45131915  1.0
  H  H6  1  0.57738651  0.14934357  0.95131915  1.0
  H  H7  1  0.07738651  0.35065643  0.04868085  1.0
  H  H8  1  0.36094806  0.40619546  0.63986377  1.0
  H  H9  1  0.86094806  0.09380454  0.36013623  1.0
  H  H10  1  0.63905194  0.90619546  0.86013623  1.0
  H  H11  1  0.13905194  0.59380454  0.13986377  1.0
  H  H12  1  0.22387755  0.73834882  0.66085943  1.0
  H  H13  1  0.72387755  0.76165118  0.33914057  1.0
  H  H14  1  0.77612245  0.23834882  0.83914057  1.0
  H  H15  1  0.27612245  0.26165118  0.16085943  1.0
  H  H16  1  0.10412696  0.49055912  0.57461557  1.0
  H  H17  1  0.60412696  0.00944088  0.42538443  1.0
  H  H18  1  0.89587304  0.99055912  0.92538443  1.0
  H  H19  1  0.39587304  0.50944088  0.07461557  1.0
  H  H20  1  0.85444521  0.97309798  0.74324940  1.0
  H  H21  1  0.35444521  0.52690202  0.25675060  1.0
  H  H22  1  0.14555479  0.47309798  0.75675060  1.0
  H  H23  1  0.64555479  0.02690202  0.24324940  1.0
  S  S24  1  0.27015981  0.95262278  0.07714650  1.0
  S  S25  1  0.77015981  0.54737722  0.92285350  1.0
  S  S26  1  0.72984019  0.45262278  0.42285350  1.0
  S  S27  1  0.22984019  0.04737722  0.57714650  1.0
  N  N28  1  0.34729203  0.64518020  0.65050726  1.0
  N  N29  1  0.84729203  0.85481980  0.34949274  1.0
  N  N30  1  0.65270797  0.14518020  0.84949274  1.0
  N  N31  1  0.15270797  0.35481980  0.15050726  1.0
  N  N32  1  0.23137576  0.49245443  0.65940354  1.0
  N  N33  1  0.73137576  0.00754557  0.34059646  1.0
  N  N34  1  0.76862424  0.99245443  0.84059646  1.0
  N  N35  1  0.26862424  0.50754557  0.15940354  1.0
  O  O36  1  0.46674479  0.96500336  0.56334684  1.0
  O  O37  1  0.96674479  0.53499664  0.43665316  1.0
  O  O38  1  0.53325521  0.46500336  0.93665316  1.0
  O  O39  1  0.03325521  0.03499664  0.06334684  1.0
  O  O40  1  0.33755492  0.87098695  0.94563370  1.0
  O  O41  1  0.83755492  0.62901305  0.05436630  1.0
  O  O42  1  0.66244508  0.37098695  0.55436630  1.0
  O  O43  1  0.16244508  0.12901305  0.44563370  1.0
  O  O44  1  0.26036014  0.84093504  0.19904571  1.0
  O  O45  1  0.76036014  0.65906496  0.80095429  1.0
  O  O46  1  0.73963986  0.34093504  0.30095429  1.0
  O  O47  1  0.23963986  0.15906496  0.69904571  1.0
  O  O48  1  0.04561239  0.91740885  0.60971368  1.0
  O  O49  1  0.54561239  0.58259115  0.39028632  1.0
  O  O50  1  0.95438761  0.41740885  0.89028632  1.0
  O  O51  1  0.45438761  0.08259115  0.10971368  1.0
