# generated using pymatgen
data_Ag2H12S(NO)4
_symmetry_space_group_name_H-M   'P 1'
_cell_length_a   8.64851324
_cell_length_b   8.64851324
_cell_length_c   6.33545407
_cell_angle_alpha   90.00000000
_cell_angle_beta   90.00000000
_cell_angle_gamma   90.00000000
_symmetry_Int_Tables_number   1
_chemical_formula_structural   Ag2H12S(NO)4
_chemical_formula_sum   'Ag4 H24 S2 N8 O8'
_cell_volume   473.87157241
_cell_formula_units_Z   2
loop_
 _symmetry_equiv_pos_site_id
 _symmetry_equiv_pos_as_xyz
  1  'x, y, z'
loop_
 _atom_site_type_symbol
 _atom_site_label
 _atom_site_symmetry_multiplicity
 _atom_site_fract_x
 _atom_site_fract_y
 _atom_site_fract_z
 _atom_site_occupancy
  Ag  Ag0  1  0.00000000  0.50000000  0.50304813  1.0
  Ag  Ag1  1  0.50000000  0.00000000  -0.00304813  1.0
  Ag  Ag2  1  0.50000000  0.00000000  0.49695187  1.0
  Ag  Ag3  1  0.00000000  0.50000000  1.00304813  1.0
  H  H4  1  0.40501350  0.28751523  0.11522458  1.0
  H  H5  1  0.09498650  0.78751523  0.38477542  1.0
  H  H6  1  0.71248477  0.40501350  0.88477542  1.0
  H  H7  1  0.78751523  0.90501350  0.61522458  1.0
  H  H8  1  0.59498650  0.71248477  0.11522458  1.0
  H  H9  1  0.90501350  0.21248477  0.38477542  1.0
  H  H10  1  0.28751523  0.59498650  0.88477542  1.0
  H  H11  1  0.21248477  0.09498650  0.61522458  1.0
  H  H12  1  0.29581020  0.22142949  0.45143538  1.0
  H  H13  1  0.20418980  0.72142949  0.04856462  1.0
  H  H14  1  0.77857051  0.29581020  0.54856462  1.0
  H  H15  1  0.72142949  0.79581020  0.95143538  1.0
  H  H16  1  0.70418980  0.77857051  0.45143538  1.0
  H  H17  1  0.79581020  0.27857051  0.04856462  1.0
  H  H18  1  0.22142949  0.70418980  0.54856462  1.0
  H  H19  1  0.27857051  0.20418980  0.95143538  1.0
  H  H20  1  0.21762748  0.05749265  0.35685273  1.0
  H  H21  1  0.28237252  0.55749265  0.14314727  1.0
  H  H22  1  0.94250735  0.21762748  0.64314727  1.0
  H  H23  1  0.55749265  0.71762748  0.85685273  1.0
  H  H24  1  0.78237252  0.94250735  0.35685273  1.0
  H  H25  1  0.71762748  0.44250735  0.14314727  1.0
  H  H26  1  0.05749265  0.78237252  0.64314727  1.0
  H  H27  1  0.44250735  0.28237252  0.85685273  1.0
  S  S28  1  0.50000000  0.50000000  0.50000000  1.0
  S  S29  1  0.00000000  0.00000000  0.00000000  1.0
  N  N30  1  0.27850228  0.10545303  0.48075360  1.0
  N  N31  1  0.22149772  0.60545303  0.01924640  1.0
  N  N32  1  0.89454697  0.27850228  0.51924640  1.0
  N  N33  1  0.60545303  0.77850228  0.98075360  1.0
  N  N34  1  0.72149772  0.89454697  0.48075360  1.0
  N  N35  1  0.77850228  0.39454697  0.01924640  1.0
  N  N36  1  0.10545303  0.72149772  0.51924640  1.0
  N  N37  1  0.39454697  0.22149772  0.98075360  1.0
  O  O38  1  0.37711104  0.42887362  0.36314146  1.0
  O  O39  1  0.12288896  0.92887362  0.13685854  1.0
  O  O40  1  0.57112638  0.37711104  0.63685854  1.0
  O  O41  1  0.92887362  0.87711104  0.86314146  1.0
  O  O42  1  0.62288896  0.57112638  0.36314146  1.0
  O  O43  1  0.87711104  0.07112638  0.13685854  1.0
  O  O44  1  0.42887362  0.62288896  0.63685854  1.0
  O  O45  1  0.07112638  0.12288896  0.86314146  1.0
