# generated using pymatgen
data_NbZn16
_symmetry_space_group_name_H-M   'P 1'
_cell_length_a   6.91023179
_cell_length_b   6.91023179
_cell_length_c   11.66398792
_cell_angle_alpha   90.00000000
_cell_angle_beta   90.00000000
_cell_angle_gamma   112.32592543
_symmetry_Int_Tables_number   1
_chemical_formula_structural   NbZn16
_chemical_formula_sum   'Nb2 Zn32'
_cell_volume   515.21895278
_cell_formula_units_Z   2
loop_
 _symmetry_equiv_pos_site_id
 _symmetry_equiv_pos_as_xyz
  1  'x, y, z'
loop_
 _atom_site_type_symbol
 _atom_site_label
 _atom_site_symmetry_multiplicity
 _atom_site_fract_x
 _atom_site_fract_y
 _atom_site_fract_z
 _atom_site_occupancy
  Nb  Nb0  1  -0.04826070  1.04826070  0.75000000  1.0
  Nb  Nb1  1  0.04826070  0.95173930  0.25000000  1.0
  Zn  Zn2  1  -0.35475356  1.01833425  0.93086066  1.0
  Zn  Zn3  1  0.01833425  0.64524644  0.06913934  1.0
  Zn  Zn4  1  -0.35475356  1.01833425  0.56913934  1.0
  Zn  Zn5  1  0.01833425  0.64524644  0.43086066  1.0
  Zn  Zn6  1  0.35475356  0.98166575  0.06913934  1.0
  Zn  Zn7  1  -0.01833425  1.35475356  0.93086066  1.0
  Zn  Zn8  1  0.35475356  0.98166575  0.43086066  1.0
  Zn  Zn9  1  -0.01833425  1.35475356  0.56913934  1.0
  Zn  Zn10  1  -0.64969395  1.24454814  0.86597618  1.0
  Zn  Zn11  1  0.24454814  0.35030605  0.13402382  1.0
  Zn  Zn12  1  -0.64969395  1.24454814  0.63402382  1.0
  Zn  Zn13  1  0.24454814  0.35030605  0.36597618  1.0
  Zn  Zn14  1  0.64969395  0.75545186  0.13402382  1.0
  Zn  Zn15  1  -0.24454814  1.64969395  0.86597618  1.0
  Zn  Zn16  1  0.64969395  0.75545186  0.36597618  1.0
  Zn  Zn17  1  -0.24454814  1.64969395  0.63402382  1.0
  Zn  Zn18  1  0.52024265  0.80618802  0.75000000  1.0
  Zn  Zn19  1  -0.19381198  1.52024265  0.25000000  1.0
  Zn  Zn20  1  -0.52024265  1.19381198  0.25000000  1.0
  Zn  Zn21  1  0.19381198  0.47975735  0.75000000  1.0
  Zn  Zn22  1  -0.17525782  1.17525782  0.35925309  1.0
  Zn  Zn23  1  0.17525782  0.82474218  0.64074691  1.0
  Zn  Zn24  1  -0.17525782  1.17525782  0.14074691  1.0
  Zn  Zn25  1  0.17525782  0.82474218  0.85925309  1.0
  Zn  Zn26  1  0.38037696  0.61962304  0.96697292  1.0
  Zn  Zn27  1  -0.38037696  1.38037696  0.03302708  1.0
  Zn  Zn28  1  0.38037696  0.61962304  0.53302708  1.0
  Zn  Zn29  1  -0.38037696  1.38037696  0.46697292  1.0
  Zn  Zn30  1  -0.29009918  1.29009918  0.75000000  1.0
  Zn  Zn31  1  0.29009918  0.70990082  0.25000000  1.0
  Zn  Zn32  1  0.00000000  0.00000000  0.00000000  1.0
  Zn  Zn33  1  0.00000000  0.00000000  0.50000000  1.0
