# generated using pymatgen
data_Cu(HO)2
_symmetry_space_group_name_H-M   'P 1'
_cell_length_a   5.50776580
_cell_length_b   5.50776580
_cell_length_c   5.73165495
_cell_angle_alpha   90.00000000
_cell_angle_beta   90.00000000
_cell_angle_gamma   148.76478255
_symmetry_Int_Tables_number   1
_chemical_formula_structural   Cu(HO)2
_chemical_formula_sum   'Cu2 H4 O4'
_cell_volume   90.16206337
_cell_formula_units_Z   2
loop_
 _symmetry_equiv_pos_site_id
 _symmetry_equiv_pos_as_xyz
  1  'x, y, z'
loop_
 _atom_site_type_symbol
 _atom_site_label
 _atom_site_symmetry_multiplicity
 _atom_site_fract_x
 _atom_site_fract_y
 _atom_site_fract_z
 _atom_site_occupancy
  Cu  Cu0  1  -0.66673020  0.66673020  0.98933135  1.0
  Cu  Cu1  1  -0.33326980  1.33326980  0.48933135  1.0
  H  H2  1  -0.98494552  0.98494552  0.68667047  1.0
  H  H3  1  -0.01505448  1.01505448  0.18667047  1.0
  H  H4  1  -0.64146843  0.64146843  0.45743720  1.0
  H  H5  1  -0.35853157  1.35853157  0.95743720  1.0
  O  O6  1  -0.95834642  0.95834642  0.52229003  1.0
  O  O7  1  -0.04165358  1.04165358  0.02229003  1.0
  O  O8  1  -0.72382676  0.72382676  0.38057094  1.0
  O  O9  1  -0.27617324  1.27617324  0.88057094  1.0
