# generated using pymatgen
data_KZr6BI14
_symmetry_space_group_name_H-M   'P 1'
_cell_length_a   11.14281487
_cell_length_b   11.14281487
_cell_length_c   12.90717780
_cell_angle_alpha   90.00000000
_cell_angle_beta   90.00000000
_cell_angle_gamma   87.28593696
_symmetry_Int_Tables_number   1
_chemical_formula_structural   KZr6BI14
_chemical_formula_sum   'K2 Zr12 B2 I28'
_cell_volume   1600.78753341
_cell_formula_units_Z   2
loop_
 _symmetry_equiv_pos_site_id
 _symmetry_equiv_pos_as_xyz
  1  'x, y, z'
loop_
 _atom_site_type_symbol
 _atom_site_label
 _atom_site_symmetry_multiplicity
 _atom_site_fract_x
 _atom_site_fract_y
 _atom_site_fract_z
 _atom_site_occupancy
  K  K0  1  -0.00000000  1.00000000  0.50000000  1.0
  K  K1  1  -0.50000000  0.50000000  0.00000000  1.0
  Zr  Zr2  1  0.45402497  1.33436739  0.38912273  1.0
  Zr  Zr3  1  -0.04597503  0.83436739  0.11087727  1.0
  Zr  Zr4  1  0.33436739  1.45402497  0.61087727  1.0
  Zr  Zr5  1  -0.16563261  0.95402497  0.88912273  1.0
  Zr  Zr6  1  -0.33436739  0.54597503  0.38912273  1.0
  Zr  Zr7  1  0.16563261  1.04597503  0.11087727  1.0
  Zr  Zr8  1  -0.45402497  0.66563261  0.61087727  1.0
  Zr  Zr9  1  0.04597503  1.16563261  0.88912273  1.0
  Zr  Zr10  1  -0.12760379  1.12760379  0.09646113  1.0
  Zr  Zr11  1  0.37239621  0.62760379  0.40353887  1.0
  Zr  Zr12  1  0.12760379  0.87239621  0.90353887  1.0
  Zr  Zr13  1  -0.37239621  1.37239621  0.59646113  1.0
  B  B14  1  -0.50000000  0.50000000  0.50000000  1.0
  B  B15  1  -0.00000000  1.00000000  0.00000000  1.0
  I  I16  1  -0.21063069  0.96472562  0.25246135  1.0
  I  I17  1  0.28936931  1.46472562  0.24753865  1.0
  I  I18  1  -0.03527438  0.78936931  0.74753865  1.0
  I  I19  1  0.46472562  1.28936931  0.75246135  1.0
  I  I20  1  0.03527438  1.21063069  0.25246135  1.0
  I  I21  1  -0.46472562  0.71063069  0.24753865  1.0
  I  I22  1  0.21063069  1.03527438  0.74753865  1.0
  I  I23  1  -0.28936931  0.53527438  0.75246135  1.0
  I  I24  1  -0.39621456  1.14739424  0.49054621  1.0
  I  I25  1  0.10378544  0.64739424  0.00945379  1.0
  I  I26  1  0.14739424  0.60378544  0.50945379  1.0
  I  I27  1  -0.35260576  1.10378544  0.99054621  1.0
  I  I28  1  -0.14739424  1.39621456  0.49054621  1.0
  I  I29  1  0.35260576  0.89621456  0.00945379  1.0
  I  I30  1  0.39621456  0.85260576  0.50945379  1.0
  I  I31  1  -0.10378544  1.35260576  0.99054621  1.0
  I  I32  1  -0.35437639  1.35437639  0.23302267  1.0
  I  I33  1  0.14562361  0.85437639  0.26697733  1.0
  I  I34  1  0.35437639  0.64562361  0.76697733  1.0
  I  I35  1  -0.14562361  1.14562361  0.73302267  1.0
  I  I36  1  0.39211840  1.10788160  0.25000000  1.0
  I  I37  1  -0.10788160  0.60788160  0.25000000  1.0
  I  I38  1  0.10788160  1.39211840  0.75000000  1.0
  I  I39  1  -0.39211840  0.89211840  0.75000000  1.0
  I  I40  1  0.25033952  1.25033952  0.50000000  1.0
  I  I41  1  -0.24966048  0.75033952  0.00000000  1.0
  I  I42  1  -0.25033952  0.74966048  0.50000000  1.0
  I  I43  1  0.24966048  1.24966048  0.00000000  1.0
