# generated using pymatgen
data_Ca2B2O5
_symmetry_space_group_name_H-M   'P 1'
_cell_length_a   3.58981486
_cell_length_b   6.39219691
_cell_length_c   19.40270335
_cell_angle_alpha   90.00000000
_cell_angle_beta   92.41071119
_cell_angle_gamma   90.00000000
_symmetry_Int_Tables_number   1
_chemical_formula_structural   Ca2B2O5
_chemical_formula_sum   'Ca8 B8 O20'
_cell_volume   444.83598502
_cell_formula_units_Z   4
loop_
 _symmetry_equiv_pos_site_id
 _symmetry_equiv_pos_as_xyz
  1  'x, y, z'
loop_
 _atom_site_type_symbol
 _atom_site_label
 _atom_site_symmetry_multiplicity
 _atom_site_fract_x
 _atom_site_fract_y
 _atom_site_fract_z
 _atom_site_occupancy
  Ca  Ca0  1  0.78512204  0.44910211  0.70974381  1.0
  Ca  Ca1  1  0.78512204  0.05089789  0.20974381  1.0
  Ca  Ca2  1  0.21487796  0.94910211  0.79025619  1.0
  Ca  Ca3  1  0.21487796  0.55089789  0.29025619  1.0
  Ca  Ca4  1  0.75020839  0.19280044  0.93847956  1.0
  Ca  Ca5  1  0.75020839  0.30719956  0.43847956  1.0
  Ca  Ca6  1  0.24979161  0.69280044  0.56152044  1.0
  Ca  Ca7  1  0.24979161  0.80719956  0.06152044  1.0
  B  B8  1  0.67750062  0.75168065  0.91749054  1.0
  B  B9  1  0.67750062  0.74831935  0.41749054  1.0
  B  B10  1  0.32249938  0.25168065  0.58250946  1.0
  B  B11  1  0.32249938  0.24831935  0.08250946  1.0
  B  B12  1  0.66114528  0.96457046  0.65657501  1.0
  B  B13  1  0.66114528  0.53542954  0.15657501  1.0
  B  B14  1  0.33885472  0.46457046  0.84342499  1.0
  B  B15  1  0.33885472  0.03542954  0.34342499  1.0
  O  O16  1  0.78232051  0.76417249  0.64712386  1.0
  O  O17  1  0.78232051  0.73582751  0.14712386  1.0
  O  O18  1  0.21767949  0.26417249  0.85287614  1.0
  O  O19  1  0.21767949  0.23582751  0.35287614  1.0
  O  O20  1  0.74007314  0.80711472  0.98484387  1.0
  O  O21  1  0.74007314  0.69288528  0.48484387  1.0
  O  O22  1  0.25992686  0.30711472  0.51515613  1.0
  O  O23  1  0.25992686  0.19288528  0.01515613  1.0
  O  O24  1  0.73348794  0.89133344  0.86556520  1.0
  O  O25  1  0.73348794  0.60866656  0.36556520  1.0
  O  O26  1  0.26651206  0.39133344  0.63443480  1.0
  O  O27  1  0.26651206  0.10866656  0.13443480  1.0
  O  O28  1  0.53544592  0.54798378  0.90309907  1.0
  O  O29  1  0.53544592  0.95201622  0.40309907  1.0
  O  O30  1  0.46455408  0.04798378  0.59690093  1.0
  O  O31  1  0.46455408  0.45201622  0.09690093  1.0
  O  O32  1  0.29553905  0.57308067  0.78287496  1.0
  O  O33  1  0.29553905  0.92691933  0.28287496  1.0
  O  O34  1  0.70446095  0.07308067  0.71712504  1.0
  O  O35  1  0.70446095  0.42691933  0.21712504  1.0
