# generated using pymatgen
data_LaCl
_symmetry_space_group_name_H-M   'P 1'
_cell_length_a   10.46021222
_cell_length_b   10.46021222
_cell_length_c   10.46021222
_cell_angle_alpha   22.53412070
_cell_angle_beta   22.53412070
_cell_angle_gamma   22.53412070
_symmetry_Int_Tables_number   1
_chemical_formula_structural   LaCl
_chemical_formula_sum   'La2 Cl2'
_cell_volume   147.44803365
_cell_formula_units_Z   2
loop_
 _symmetry_equiv_pos_site_id
 _symmetry_equiv_pos_as_xyz
  1  'x, y, z'
loop_
 _atom_site_type_symbol
 _atom_site_label
 _atom_site_symmetry_multiplicity
 _atom_site_fract_x
 _atom_site_fract_y
 _atom_site_fract_z
 _atom_site_occupancy
  La  La0  1  0.71572052  0.71572052  0.71572052  1.0
  La  La1  1  1.28427948  1.28427948  0.28427948  1.0
  Cl  Cl2  1  0.89411715  0.89411715  0.89411715  1.0
  Cl  Cl3  1  1.10588285  1.10588285  0.10588285  1.0
