# generated using pymatgen
data_Y3Ga8Ag3
_symmetry_space_group_name_H-M   'P 1'
_cell_length_a   8.35766821
_cell_length_b   8.35766821
_cell_length_c   8.35766821
_cell_angle_alpha   149.97669295
_cell_angle_beta   110.02456079
_cell_angle_gamma   77.98048326
_symmetry_Int_Tables_number   1
_chemical_formula_structural   Y3Ga8Ag3
_chemical_formula_sum   'Y3 Ga8 Ag3'
_cell_volume   269.56403070
_cell_formula_units_Z   1
loop_
 _symmetry_equiv_pos_site_id
 _symmetry_equiv_pos_as_xyz
  1  'x, y, z'
loop_
 _atom_site_type_symbol
 _atom_site_label
 _atom_site_symmetry_multiplicity
 _atom_site_fract_x
 _atom_site_fract_y
 _atom_site_fract_z
 _atom_site_occupancy
  Y  Y0  1  0.00000000  0.00000000  0.00000000  1.0
  Y  Y1  1  0.70002670  0.70002670  1.00000000  1.0
  Y  Y2  1  1.29997330  1.29997330  1.00000000  1.0
  Ga  Ga3  1  1.28981227  0.65885037  0.63096191  1.0
  Ga  Ga4  1  0.71018773  0.34114963  0.36903809  1.0
  Ga  Ga5  1  1.02788846  0.65885037  0.36903809  1.0
  Ga  Ga6  1  0.97211154  0.34114963  0.63096191  1.0
  Ga  Ga7  1  1.57554464  0.85720869  0.71833595  1.0
  Ga  Ga8  1  0.42445536  0.14279131  0.28166405  1.0
  Ga  Ga9  1  1.13887273  0.85720869  0.28166405  1.0
  Ga  Ga10  1  0.86112727  0.14279131  0.71833595  1.0
  Ag  Ag11  1  0.30395662  0.50000000  0.80395662  1.0
  Ag  Ag12  1  0.69604338  0.50000000  1.19604338  1.0
  Ag  Ag13  1  0.50000000  0.00000000  0.50000000  1.0
