# generated using pymatgen
data_LuNi2
_symmetry_space_group_name_H-M   'P 1'
_cell_length_a   10.01607349
_cell_length_b   10.01607349
_cell_length_c   10.01607349
_cell_angle_alpha   60.00000000
_cell_angle_beta   60.00000000
_cell_angle_gamma   60.00000000
_symmetry_Int_Tables_number   1
_chemical_formula_structural   LuNi2
_chemical_formula_sum   'Lu16 Ni32'
_cell_volume   710.52196773
_cell_formula_units_Z   16
loop_
 _symmetry_equiv_pos_site_id
 _symmetry_equiv_pos_as_xyz
  1  'x, y, z'
loop_
 _atom_site_type_symbol
 _atom_site_label
 _atom_site_symmetry_multiplicity
 _atom_site_fract_x
 _atom_site_fract_y
 _atom_site_fract_z
 _atom_site_occupancy
  Lu  Lu0  1  0.50002545  0.99997455  -0.00002545  1.0
  Lu  Lu1  1  0.99997455  0.99997455  -0.49997455  1.0
  Lu  Lu2  1  0.99997455  0.50002545  -0.00002545  1.0
  Lu  Lu3  1  0.50002545  0.50002545  -0.00002545  1.0
  Lu  Lu4  1  0.50002545  0.99997455  -0.49997455  1.0
  Lu  Lu5  1  0.99997455  0.50002545  -0.49997455  1.0
  Lu  Lu6  1  0.87501507  0.87501507  -0.12498493  1.0
  Lu  Lu7  1  0.37495478  0.87501507  -0.12498493  1.0
  Lu  Lu8  1  0.87501507  0.87501507  -0.62504522  1.0
  Lu  Lu9  1  0.87501507  0.37495478  -0.12498493  1.0
  Lu  Lu10  1  0.37498794  1.37498794  0.37498794  1.0
  Lu  Lu11  1  -0.12496383  0.37498794  0.37498794  1.0
  Lu  Lu12  1  0.37498794  1.37498794  -0.12496383  1.0
  Lu  Lu13  1  0.37498794  -0.12496383  0.37498794  1.0
  Lu  Lu14  1  -0.50000000  0.50000000  0.50000000  1.0
  Lu  Lu15  1  0.00000000  -0.00000000  -0.00000000  1.0
  Ni  Ni16  1  0.68750406  1.18748777  -0.31249594  1.0
  Ni  Ni17  1  -0.31249594  0.68750406  1.18748777  1.0
  Ni  Ni18  1  -0.56249588  0.68750406  1.18748777  1.0
  Ni  Ni19  1  0.43750412  1.18748777  -0.31249594  1.0
  Ni  Ni20  1  1.18748777  0.68750406  -0.31249594  1.0
  Ni  Ni21  1  -0.56249588  0.68750406  0.68750406  1.0
  Ni  Ni22  1  1.18748777  0.68750406  -0.56249588  1.0
  Ni  Ni23  1  -0.31249594  0.68750406  0.43750412  1.0
  Ni  Ni24  1  -0.31249594  0.43750412  0.68750406  1.0
  Ni  Ni25  1  1.18748777  0.43750412  -0.31249594  1.0
  Ni  Ni26  1  0.68750406  1.18748777  -0.56249588  1.0
  Ni  Ni27  1  -0.31249594  0.43750412  1.18748777  1.0
  Ni  Ni28  1  0.18749816  1.68749770  0.18749816  1.0
  Ni  Ni29  1  0.18749816  1.18749816  0.68749770  1.0
  Ni  Ni30  1  -0.06249403  0.18749816  0.68749770  1.0
  Ni  Ni31  1  -0.06249403  0.68749770  0.18749816  1.0
  Ni  Ni32  1  0.68749770  1.18749816  0.18749816  1.0
  Ni  Ni33  1  -0.06249403  0.18749816  0.18749816  1.0
  Ni  Ni34  1  0.68749770  1.18749816  -0.06249403  1.0
  Ni  Ni35  1  0.18749816  1.18749816  -0.06249403  1.0
  Ni  Ni36  1  0.18749816  -0.06249403  0.18749816  1.0
  Ni  Ni37  1  0.68749770  -0.06249403  0.18749816  1.0
  Ni  Ni38  1  0.18749816  1.68749770  -0.06249403  1.0
  Ni  Ni39  1  0.18749816  -0.06249403  0.68749770  1.0
  Ni  Ni40  1  0.68750414  0.68750414  -0.31249586  1.0
  Ni  Ni41  1  0.93748757  0.68750414  -0.31249586  1.0
  Ni  Ni42  1  0.68750414  0.68750414  -0.06251243  1.0
  Ni  Ni43  1  0.68750414  0.93748757  -0.31249586  1.0
  Ni  Ni44  1  0.18749522  0.18749522  0.18749522  1.0
  Ni  Ni45  1  0.43751433  0.18749522  0.18749522  1.0
  Ni  Ni46  1  0.18749522  0.18749522  0.43751433  1.0
  Ni  Ni47  1  0.18749522  0.43751433  0.18749522  1.0
