# generated using pymatgen
data_NbSe2
_symmetry_space_group_name_H-M   'P 1'
_cell_length_a   7.10340720
_cell_length_b   7.10340720
_cell_length_c   7.10340720
_cell_angle_alpha   28.27514228
_cell_angle_beta   28.27514228
_cell_angle_gamma   28.27514228
_symmetry_Int_Tables_number   1
_chemical_formula_structural   NbSe2
_chemical_formula_sum   'Nb1 Se2'
_cell_volume   71.06644769
_cell_formula_units_Z   1
loop_
 _symmetry_equiv_pos_site_id
 _symmetry_equiv_pos_as_xyz
  1  'x, y, z'
loop_
 _atom_site_type_symbol
 _atom_site_label
 _atom_site_symmetry_multiplicity
 _atom_site_fract_x
 _atom_site_fract_y
 _atom_site_fract_z
 _atom_site_occupancy
  Nb  Nb0  1  0.58097184  0.58097184  -0.41902816  1.0
  Se  Se1  1  -0.00346123  -0.00346123  -0.00346123  1.0
  Se  Se2  1  0.83218940  -0.16781060  -0.16781060  1.0
