# generated using pymatgen
data_Ca2AlH10ClO8
_symmetry_space_group_name_H-M   'P 1'
_cell_length_a   5.79559346
_cell_length_b   5.79559346
_cell_length_c   17.11937166
_cell_angle_alpha   76.15957442
_cell_angle_beta   103.84042558
_cell_angle_gamma   119.88327685
_symmetry_Int_Tables_number   1
_chemical_formula_structural   Ca2AlH10ClO8
_chemical_formula_sum   'Ca4 Al2 H20 Cl2 O16'
_cell_volume   479.14620951
_cell_formula_units_Z   2
loop_
 _symmetry_equiv_pos_site_id
 _symmetry_equiv_pos_as_xyz
  1  'x, y, z'
loop_
 _atom_site_type_symbol
 _atom_site_label
 _atom_site_symmetry_multiplicity
 _atom_site_fract_x
 _atom_site_fract_y
 _atom_site_fract_z
 _atom_site_occupancy
  Ca  Ca0  1  1.64934713  -0.14951318  0.96469570  1.0
  Ca  Ca1  1  1.14951318  0.35065287  0.46469570  1.0
  Ca  Ca2  1  0.85048682  -0.35065287  0.53530430  1.0
  Ca  Ca3  1  0.35065287  0.14951318  0.03530430  1.0
  Al  Al4  1  0.50000000  0.00000000  0.50000000  1.0
  Al  Al5  1  1.00000000  -0.50000000  0.00000000  1.0
  H  H6  1  0.65197945  -0.07633078  0.38486058  1.0
  H  H7  1  1.07633078  -0.65197945  0.88486058  1.0
  H  H8  1  0.92366922  0.65197945  0.11513942  1.0
  H  H9  1  1.34802055  0.07633078  0.61513942  1.0
  H  H10  1  1.84385417  0.10865232  0.11533840  1.0
  H  H11  1  0.89134768  -0.84385417  0.61533840  1.0
  H  H12  1  1.10865232  0.84385417  0.38466160  1.0
  H  H13  1  0.15614583  -0.10865232  0.88466160  1.0
  H  H14  1  0.53305563  -0.01212505  0.21347008  1.0
  H  H15  1  1.01212505  -0.53305563  0.71347008  1.0
  H  H16  1  0.98787495  0.53305563  0.28652992  1.0
  H  H17  1  1.46694437  0.01212505  0.78652992  1.0
  H  H18  1  0.27699499  0.01804756  0.21379734  1.0
  H  H19  1  0.98195244  -0.27699499  0.71379734  1.0
  H  H20  1  1.01804756  0.27699499  0.28620266  1.0
  H  H21  1  1.72300501  -0.01804756  0.78620266  1.0
  H  H22  1  0.56060391  0.38487291  0.38288650  1.0
  H  H23  1  0.61512709  0.43939609  0.88288650  1.0
  H  H24  1  1.38487291  -0.43939609  0.11711350  1.0
  H  H25  1  1.43939609  -0.38487291  0.61711350  1.0
  Cl  Cl26  1  0.87362390  0.87362390  0.25000000  1.0
  Cl  Cl27  1  0.12637610  0.12637610  0.75000000  1.0
  O  O28  1  0.72444940  -0.02603700  0.43890804  1.0
  O  O29  1  1.02603700  -0.72444940  0.93890804  1.0
  O  O30  1  0.97396300  0.72444940  0.06109196  1.0
  O  O31  1  1.27555060  0.02603700  0.56109196  1.0
  O  O32  1  1.77553336  0.16521809  0.06050763  1.0
  O  O33  1  0.83478191  -0.77553336  0.56050763  1.0
  O  O34  1  1.16521809  0.77553336  0.43949237  1.0
  O  O35  1  0.22446664  -0.16521809  0.93949237  1.0
  O  O36  1  0.43632730  0.09130835  0.18663735  1.0
  O  O37  1  0.90869165  -0.43632730  0.68663735  1.0
  O  O38  1  1.09130835  0.43632730  0.31336265  1.0
  O  O39  1  1.56367270  -0.09130835  0.81336265  1.0
  O  O40  1  0.52355425  0.33546822  0.43844679  1.0
  O  O41  1  0.66453178  0.47644575  0.93844679  1.0
  O  O42  1  1.33546822  -0.47644575  0.06155321  1.0
  O  O43  1  1.47644575  -0.33546822  0.56155321  1.0
