# generated using pymatgen
data_Na4Cu(AsO4)2
_symmetry_space_group_name_H-M   'P 1'
_cell_length_a   4.95865660
_cell_length_b   7.08242940
_cell_length_c   6.03443108
_cell_angle_alpha   98.37425699
_cell_angle_beta   105.61699399
_cell_angle_gamma   91.24267851
_symmetry_Int_Tables_number   1
_chemical_formula_structural   Na4Cu(AsO4)2
_chemical_formula_sum   'Na4 Cu1 As2 O8'
_cell_volume   201.51256227
_cell_formula_units_Z   1
loop_
 _symmetry_equiv_pos_site_id
 _symmetry_equiv_pos_as_xyz
  1  'x, y, z'
loop_
 _atom_site_type_symbol
 _atom_site_label
 _atom_site_symmetry_multiplicity
 _atom_site_fract_x
 _atom_site_fract_y
 _atom_site_fract_z
 _atom_site_occupancy
  Na  Na0  1  -0.83512557  -0.42610155  -0.73874550  1.0
  Na  Na1  1  -0.16487443  -0.57389845  -0.26125450  1.0
  Na  Na2  1  -0.71403331  -0.83271566  -0.42921190  1.0
  Na  Na3  1  -0.28596669  -0.16728434  -0.57078810  1.0
  Cu  Cu4  1  0.00000000  0.00000000  0.00000000  1.0
  As  As5  1  -0.39707204  -0.73506086  -0.80074542  1.0
  As  As6  1  -0.60292796  -0.26493914  -0.19925458  1.0
  O  O7  1  -0.76488438  -0.76267158  -0.84995826  1.0
  O  O8  1  -0.23511562  -0.23732842  -0.15004174  1.0
  O  O9  1  -0.68529289  -0.16779005  -0.94176674  1.0
  O  O10  1  -0.31470711  -0.83220995  -0.05823326  1.0
  O  O11  1  -0.31167651  -0.49252632  -0.72438965  1.0
  O  O12  1  -0.68832349  -0.50747368  -0.27561035  1.0
  O  O13  1  -0.23552724  -0.84412259  -0.56452004  1.0
  O  O14  1  -0.76447276  -0.15587741  -0.43547996  1.0
