# generated using pymatgen
data_Sr14(SnAs4)3
_symmetry_space_group_name_H-M   'P 1'
_cell_length_a   9.58708466
_cell_length_b   9.58708466
_cell_length_c   9.58708466
_cell_angle_alpha   86.94238965
_cell_angle_beta   86.94238965
_cell_angle_gamma   86.94238965
_symmetry_Int_Tables_number   1
_chemical_formula_structural   Sr14(SnAs4)3
_chemical_formula_sum   'Sr14 Sn3 As12'
_cell_volume   877.53559553
_cell_formula_units_Z   1
loop_
 _symmetry_equiv_pos_site_id
 _symmetry_equiv_pos_as_xyz
  1  'x, y, z'
loop_
 _atom_site_type_symbol
 _atom_site_label
 _atom_site_symmetry_multiplicity
 _atom_site_fract_x
 _atom_site_fract_y
 _atom_site_fract_z
 _atom_site_occupancy
  Sr  Sr0  1  0.58720939  0.72733195  -0.77450084  1.0
  Sr  Sr1  1  0.72733195  0.22549916  -0.41279061  1.0
  Sr  Sr2  1  0.22549916  0.58720939  -0.27266805  1.0
  Sr  Sr3  1  0.23539765  0.73346693  -0.90968191  1.0
  Sr  Sr4  1  0.73346693  0.09031809  -0.76460235  1.0
  Sr  Sr5  1  0.09031809  0.23539765  -0.26653307  1.0
  Sr  Sr6  1  1.34757449  1.01056786  0.46133182  1.0
  Sr  Sr7  1  1.01056786  1.46133182  0.34757449  1.0
  Sr  Sr8  1  1.46133182  1.34757449  0.01056786  1.0
  Sr  Sr9  1  0.97790230  0.82486224  -0.53696938  1.0
  Sr  Sr10  1  0.82486224  0.46303062  -0.02209770  1.0
  Sr  Sr11  1  0.46303062  0.97790230  -0.17513776  1.0
  Sr  Sr12  1  0.59999773  0.59999773  -0.40000227  1.0
  Sr  Sr13  1  0.81369269  0.81369269  -0.18630731  1.0
  Sn  Sn14  1  0.00079404  0.00079404  0.00079404  1.0
  Sn  Sn15  1  1.16552169  1.16552169  0.16552169  1.0
  Sn  Sn16  1  0.39085031  0.39085031  -0.60914969  1.0
  As  As17  1  0.41164909  0.29750988  -0.32846297  1.0
  As  As18  1  0.29750988  0.67153703  -0.58835091  1.0
  As  As19  1  0.67153703  0.41164909  -0.70249012  1.0
  As  As20  1  1.03190528  1.13975297  0.41492386  1.0
  As  As21  1  1.13975297  1.41492386  0.03190528  1.0
  As  As22  1  1.41492386  1.03190528  0.13975297  1.0
  As  As23  1  0.65736952  0.91588502  -0.47232710  1.0
  As  As24  1  0.91588502  0.52767290  -0.34263048  1.0
  As  As25  1  0.52767290  0.65736952  -0.08411498  1.0
  As  As26  1  1.14470114  -0.09697981  -0.22607583  1.0
  As  As27  1  0.90302019  -0.22607583  0.14470114  1.0
  As  As28  1  0.77392417  0.14470114  -0.09697981  1.0
