# generated using pymatgen
data_PClOF2
_symmetry_space_group_name_H-M   'P 1'
_cell_length_a   14.31891357
_cell_length_b   6.12962569
_cell_length_c   10.77437711
_cell_angle_alpha   90.00000000
_cell_angle_beta   90.00000000
_cell_angle_gamma   90.00000000
_symmetry_Int_Tables_number   1
_chemical_formula_structural   PClOF2
_chemical_formula_sum   'P8 Cl8 O8 F16'
_cell_volume   945.66255844
_cell_formula_units_Z   8
loop_
 _symmetry_equiv_pos_site_id
 _symmetry_equiv_pos_as_xyz
  1  'x, y, z'
loop_
 _atom_site_type_symbol
 _atom_site_label
 _atom_site_symmetry_multiplicity
 _atom_site_fract_x
 _atom_site_fract_y
 _atom_site_fract_z
 _atom_site_occupancy
  P  P0  1  0.43999738  0.75000000  0.72722619  1.0
  P  P1  1  0.93999738  0.75000000  0.77277381  1.0
  P  P2  1  0.56000262  0.25000000  0.27277381  1.0
  P  P3  1  0.06000262  0.25000000  0.22722619  1.0
  P  P4  1  0.24308470  0.75000000  0.35871496  1.0
  P  P5  1  0.74308470  0.75000000  0.14128504  1.0
  P  P6  1  0.75691530  0.25000000  0.64128504  1.0
  P  P7  1  0.25691530  0.25000000  0.85871496  1.0
  Cl  Cl8  1  0.28878247  0.75000000  0.18483846  1.0
  Cl  Cl9  1  0.78878247  0.75000000  0.31516154  1.0
  Cl  Cl10  1  0.71121753  0.25000000  0.81516154  1.0
  Cl  Cl11  1  0.21121753  0.25000000  0.68483846  1.0
  Cl  Cl12  1  0.01447379  0.75000000  0.61743832  1.0
  Cl  Cl13  1  0.51447379  0.75000000  0.88256168  1.0
  Cl  Cl14  1  0.98552621  0.25000000  0.38256168  1.0
  Cl  Cl15  1  0.48552621  0.25000000  0.11743832  1.0
  O  O16  1  0.33797834  0.75000000  0.73774606  1.0
  O  O17  1  0.83797834  0.75000000  0.76225394  1.0
  O  O18  1  0.66202166  0.25000000  0.26225394  1.0
  O  O19  1  0.16202166  0.25000000  0.23774606  1.0
  O  O20  1  0.14185532  0.75000000  0.37880823  1.0
  O  O21  1  0.64185532  0.75000000  0.12119177  1.0
  O  O22  1  0.85814468  0.25000000  0.62119177  1.0
  O  O23  1  0.35814468  0.25000000  0.87880823  1.0
  F  F24  1  0.48223407  0.94549701  0.65172469  1.0
  F  F25  1  0.48223407  0.55450299  0.65172469  1.0
  F  F26  1  0.98223407  0.94549701  0.84827531  1.0
  F  F27  1  0.98223407  0.55450299  0.84827531  1.0
  F  F28  1  0.51776593  0.44549701  0.34827531  1.0
  F  F29  1  0.51776593  0.05450299  0.34827531  1.0
  F  F30  1  0.01776593  0.44549701  0.15172469  1.0
  F  F31  1  0.01776593  0.05450299  0.15172469  1.0
  F  F32  1  0.20282921  0.44524014  0.91935119  1.0
  F  F33  1  0.20282921  0.05475986  0.91935119  1.0
  F  F34  1  0.70282921  0.44524014  0.58064881  1.0
  F  F35  1  0.70282921  0.05475986  0.58064881  1.0
  F  F36  1  0.79717079  0.94524014  0.08064881  1.0
  F  F37  1  0.79717079  0.55475986  0.08064881  1.0
  F  F38  1  0.29717079  0.94524014  0.41935119  1.0
  F  F39  1  0.29717079  0.55475986  0.41935119  1.0
