# generated using pymatgen
data_NbSI
_symmetry_space_group_name_H-M   'P 1'
_cell_length_a   7.63718078
_cell_length_b   7.63718078
_cell_length_c   7.63718078
_cell_angle_alpha   60.00000000
_cell_angle_beta   60.00000000
_cell_angle_gamma   60.00000000
_symmetry_Int_Tables_number   1
_chemical_formula_structural   NbSI
_chemical_formula_sum   'Nb4 S4 I4'
_cell_volume   314.98089640
_cell_formula_units_Z   4
loop_
 _symmetry_equiv_pos_site_id
 _symmetry_equiv_pos_as_xyz
  1  'x, y, z'
loop_
 _atom_site_type_symbol
 _atom_site_label
 _atom_site_symmetry_multiplicity
 _atom_site_fract_x
 _atom_site_fract_y
 _atom_site_fract_z
 _atom_site_occupancy
  Nb  Nb0  1  -0.34703290  0.65296710  0.65296710  1.0
  Nb  Nb1  1  1.04109869  0.65296710  -0.34703290  1.0
  Nb  Nb2  1  -0.34703290  0.65296710  1.04109869  1.0
  Nb  Nb3  1  0.65296710  1.04109869  -0.34703290  1.0
  S  S4  1  0.87415635  0.87415635  -0.12584365  1.0
  S  S5  1  0.37753095  0.87415635  -0.12584365  1.0
  S  S6  1  0.87415635  0.87415635  -0.62246905  1.0
  S  S7  1  0.87415635  0.37753095  -0.12584365  1.0
  I  I8  1  0.37637063  1.37637063  0.37637063  1.0
  I  I9  1  -0.12911190  0.37637063  0.37637063  1.0
  I  I10  1  0.37637063  1.37637063  -0.12911190  1.0
  I  I11  1  0.37637063  -0.12911190  0.37637063  1.0
