# generated using pymatgen
data_KCN
_symmetry_space_group_name_H-M   'P 1'
_cell_length_a   4.33792385
_cell_length_b   4.33792385
_cell_length_c   9.16411796
_cell_angle_alpha   76.41056115
_cell_angle_beta   103.58943885
_cell_angle_gamma   120.08184586
_symmetry_Int_Tables_number   1
_chemical_formula_structural   KCN
_chemical_formula_sum   'K2 C2 N2'
_cell_volume   143.62746518
_cell_formula_units_Z   2
loop_
 _symmetry_equiv_pos_site_id
 _symmetry_equiv_pos_as_xyz
  1  'x, y, z'
loop_
 _atom_site_type_symbol
 _atom_site_label
 _atom_site_symmetry_multiplicity
 _atom_site_fract_x
 _atom_site_fract_y
 _atom_site_fract_z
 _atom_site_occupancy
  K  K0  1  1.48376169  0.03029546  0.69753537  1.0
  K  K1  1  0.96970454  -0.48376169  0.19753537  1.0
  C  C2  1  1.70257147  -0.21926294  0.40211838  1.0
  C  C3  1  1.21926294  -0.70257147  0.90211838  1.0
  N  N4  1  0.76585164  0.75315227  0.53534625  1.0
  N  N5  1  0.24684773  0.23414836  0.03534625  1.0
