# generated using pymatgen
data_Sr2Sn(HO)8
_symmetry_space_group_name_H-M   'P 1'
_cell_length_a   6.06116726
_cell_length_b   11.21322615
_cell_length_c   6.16300132
_cell_angle_alpha   90.00000000
_cell_angle_beta   112.73897512
_cell_angle_gamma   90.00000000
_symmetry_Int_Tables_number   1
_chemical_formula_structural   Sr2Sn(HO)8
_chemical_formula_sum   'Sr4 Sn2 H16 O16'
_cell_volume   386.31335199
_cell_formula_units_Z   2
loop_
 _symmetry_equiv_pos_site_id
 _symmetry_equiv_pos_as_xyz
  1  'x, y, z'
loop_
 _atom_site_type_symbol
 _atom_site_label
 _atom_site_symmetry_multiplicity
 _atom_site_fract_x
 _atom_site_fract_y
 _atom_site_fract_z
 _atom_site_occupancy
  Sr  Sr0  1  0.72835789  0.12814322  0.39695411  1.0
  Sr  Sr1  1  0.72835789  0.37185678  0.89695411  1.0
  Sr  Sr2  1  0.27164211  0.62814322  0.10304589  1.0
  Sr  Sr3  1  0.27164211  0.87185678  0.60304589  1.0
  Sn  Sn4  1  -0.00000000  0.50000000  0.50000000  1.0
  Sn  Sn5  1  0.00000000  0.00000000  0.00000000  1.0
  H  H6  1  0.36851508  0.25529031  0.06071407  1.0
  H  H7  1  0.36851508  0.24470969  0.56071407  1.0
  H  H8  1  0.63148492  0.75529031  0.43928593  1.0
  H  H9  1  0.63148492  0.74470969  0.93928593  1.0
  H  H10  1  0.85622954  0.69986064  0.26623619  1.0
  H  H11  1  0.85622954  0.80013936  0.76623619  1.0
  H  H12  1  0.14377046  0.19986064  0.23376381  1.0
  H  H13  1  0.14377046  0.30013936  0.73376381  1.0
  H  H14  1  0.76092445  0.87594335  0.17912451  1.0
  H  H15  1  0.76092445  0.62405665  0.67912451  1.0
  H  H16  1  0.23907555  0.37594335  0.32087549  1.0
  H  H17  1  0.23907555  0.12405665  0.82087549  1.0
  H  H18  1  0.57884250  0.41353525  0.33230389  1.0
  H  H19  1  0.57884250  0.08646475  0.83230389  1.0
  H  H20  1  0.42115750  0.91353525  0.16769611  1.0
  H  H21  1  0.42115750  0.58646475  0.66769611  1.0
  O  O22  1  0.98246453  0.17219320  0.13112134  1.0
  O  O23  1  0.98246453  0.32780680  0.63112134  1.0
  O  O24  1  0.01753547  0.67219320  0.36887866  1.0
  O  O25  1  0.01753547  0.82780680  0.86887866  1.0
  O  O26  1  0.88372359  0.93988508  0.25797856  1.0
  O  O27  1  0.88372359  0.56011492  0.75797856  1.0
  O  O28  1  0.11627641  0.43988508  0.24202144  1.0
  O  O29  1  0.11627641  0.06011492  0.74202144  1.0
  O  O30  1  0.64675739  0.47298209  0.25874705  1.0
  O  O31  1  0.64675739  0.02701791  0.75874705  1.0
  O  O32  1  0.35324261  0.97298209  0.24125295  1.0
  O  O33  1  0.35324261  0.52701791  0.74125295  1.0
  O  O34  1  0.44092987  0.27379008  0.45443815  1.0
  O  O35  1  0.44092987  0.22620992  0.95443815  1.0
  O  O36  1  0.55907013  0.77379008  0.04556185  1.0
  O  O37  1  0.55907013  0.72620992  0.54556185  1.0
