# generated using pymatgen
data_AgI
_symmetry_space_group_name_H-M   'P 1'
_cell_length_a   4.68853863
_cell_length_b   4.68853863
_cell_length_c   46.02379757
_cell_angle_alpha   90.00000000
_cell_angle_beta   90.00000000
_cell_angle_gamma   120.00000000
_symmetry_Int_Tables_number   1
_chemical_formula_structural   AgI
_chemical_formula_sum   'Ag12 I12'
_cell_volume   876.16939470
_cell_formula_units_Z   12
loop_
 _symmetry_equiv_pos_site_id
 _symmetry_equiv_pos_as_xyz
  1  'x, y, z'
loop_
 _atom_site_type_symbol
 _atom_site_label
 _atom_site_symmetry_multiplicity
 _atom_site_fract_x
 _atom_site_fract_y
 _atom_site_fract_z
 _atom_site_occupancy
  Ag  Ag0  1  0.00000000  0.00000000  0.02081283  1.0
  Ag  Ag1  1  0.00000000  0.00000000  0.18753225  1.0
  Ag  Ag2  1  0.66666667  0.33333333  0.35416859  1.0
  Ag  Ag3  1  0.66666667  0.33333333  0.52084072  1.0
  Ag  Ag4  1  0.66666667  0.33333333  0.68752068  1.0
  Ag  Ag5  1  0.66666667  0.33333333  0.85420492  1.0
  Ag  Ag6  1  0.33333333  0.66666667  0.10419965  1.0
  Ag  Ag7  1  0.33333333  0.66666667  0.27086548  1.0
  Ag  Ag8  1  0.33333333  0.66666667  0.43752366  1.0
  Ag  Ag9  1  0.33333333  0.66666667  0.60419569  1.0
  Ag  Ag10  1  0.33333333  0.66666667  0.77084120  1.0
  Ag  Ag11  1  0.33333333  0.66666667  0.93754422  1.0
  I  I12  1  -0.00000000  -0.00000000  0.08330189  1.0
  I  I13  1  -0.00000000  -0.00000000  0.24999710  1.0
  I  I14  1  0.66666667  0.33333333  0.41664796  1.0
  I  I15  1  0.66666667  0.33333333  0.58330949  1.0
  I  I16  1  0.66666667  0.33333333  0.74997821  1.0
  I  I17  1  0.66666667  0.33333333  0.91667322  1.0
  I  I18  1  0.33333333  0.66666667  -0.00004437  1.0
  I  I19  1  0.33333333  0.66666667  0.16665646  1.0
  I  I20  1  0.33333333  0.66666667  0.33328537  1.0
  I  I21  1  0.33333333  0.66666667  0.49997981  1.0
  I  I22  1  0.33333333  0.66666667  0.66665455  1.0
  I  I23  1  0.33333333  0.66666667  0.83331041  1.0
