# generated using pymatgen
data_SiO2
_symmetry_space_group_name_H-M   'P 1'
_cell_length_a   10.88614767
_cell_length_b   10.88614767
_cell_length_c   10.88614767
_cell_angle_alpha   43.59713366
_cell_angle_beta   43.59713366
_cell_angle_gamma   43.59713366
_symmetry_Int_Tables_number   1
_chemical_formula_structural   SiO2
_chemical_formula_sum   'Si12 O24'
_cell_volume   556.73589662
_cell_formula_units_Z   12
loop_
 _symmetry_equiv_pos_site_id
 _symmetry_equiv_pos_as_xyz
  1  'x, y, z'
loop_
 _atom_site_type_symbol
 _atom_site_label
 _atom_site_symmetry_multiplicity
 _atom_site_fract_x
 _atom_site_fract_y
 _atom_site_fract_z
 _atom_site_occupancy
  Si  Si0  1  0.95078184  -0.64022599  0.04167671  1.0
  Si  Si1  1  0.35977401  0.04167671  -0.04921816  1.0
  Si  Si2  1  1.04167671  -0.04921816  -0.64022599  1.0
  Si  Si3  1  0.45078184  0.54167671  -0.14022599  1.0
  Si  Si4  1  0.54167671  0.85977401  -0.54921816  1.0
  Si  Si5  1  0.85977401  0.45078184  -0.45832329  1.0
  Si  Si6  1  1.04921816  -0.35977401  -0.04167671  1.0
  Si  Si7  1  0.64022599  -0.04167671  0.04921816  1.0
  Si  Si8  1  0.95832329  0.04921816  -0.35977401  1.0
  Si  Si9  1  0.54921816  0.45832329  -0.85977401  1.0
  Si  Si10  1  0.45832329  0.14022599  -0.45078184  1.0
  Si  Si11  1  0.14022599  0.54921816  -0.54167671  1.0
  O  O12  1  1.00000000  -0.50000000  0.00000000  1.0
  O  O13  1  0.50000000  -0.00000000  0.00000000  1.0
  O  O14  1  1.00000000  -0.00000000  -0.50000000  1.0
  O  O15  1  0.50000000  -0.50000000  0.00000000  1.0
  O  O16  1  0.50000000  -0.00000000  -0.50000000  1.0
  O  O17  1  -0.00000000  0.50000000  -0.50000000  1.0
  O  O18  1  1.00735435  -0.25000000  -0.50735435  1.0
  O  O19  1  0.75000000  -0.50735435  0.00735435  1.0
  O  O20  1  0.49264565  0.00735435  -0.25000000  1.0
  O  O21  1  0.50735435  -0.00735435  0.25000000  1.0
  O  O22  1  0.99264565  0.25000000  -0.49264565  1.0
  O  O23  1  0.25000000  0.50735435  -0.00735435  1.0
  O  O24  1  0.17609408  0.25156139  -0.09562226  1.0
  O  O25  1  0.25156139  0.90437774  -0.82390592  1.0
  O  O26  1  0.90437774  0.17609408  -0.74843861  1.0
  O  O27  1  0.67609408  0.40437774  -0.24843861  1.0
  O  O28  1  0.40437774  0.75156139  -0.32390592  1.0
  O  O29  1  0.75156139  0.67609408  -0.59562226  1.0
  O  O30  1  0.82390592  -0.25156139  0.09562226  1.0
  O  O31  1  0.74843861  0.09562226  -0.17609408  1.0
  O  O32  1  1.09562226  -0.17609408  -0.25156139  1.0
  O  O33  1  0.32390592  0.59562226  -0.75156139  1.0
  O  O34  1  0.59562226  0.24843861  -0.67609408  1.0
  O  O35  1  0.24843861  0.32390592  -0.40437774  1.0
