# generated using pymatgen
data_KCu4AsS4
_symmetry_space_group_name_H-M   'P 1'
_cell_length_a   6.57783695
_cell_length_b   6.45775793
_cell_length_c   9.68363997
_cell_angle_alpha   90.00000000
_cell_angle_beta   103.14272964
_cell_angle_gamma   90.00000000
_symmetry_Int_Tables_number   1
_chemical_formula_structural   KCu4AsS4
_chemical_formula_sum   'K2 Cu8 As2 S8'
_cell_volume   400.56799163
_cell_formula_units_Z   2
loop_
 _symmetry_equiv_pos_site_id
 _symmetry_equiv_pos_as_xyz
  1  'x, y, z'
loop_
 _atom_site_type_symbol
 _atom_site_label
 _atom_site_symmetry_multiplicity
 _atom_site_fract_x
 _atom_site_fract_y
 _atom_site_fract_z
 _atom_site_occupancy
  K  K0  1  0.33066205  0.05266747  0.86365241  1.0
  K  K1  1  0.66933795  0.55266747  0.13634759  1.0
  Cu  Cu2  1  0.97891780  0.41402817  0.51262688  1.0
  Cu  Cu3  1  0.02108220  0.91402817  0.48737312  1.0
  Cu  Cu4  1  0.91769440  0.67531970  0.87591162  1.0
  Cu  Cu5  1  0.08230560  0.17531970  0.12408838  1.0
  Cu  Cu6  1  0.70575244  0.70363463  0.54672468  1.0
  Cu  Cu7  1  0.29424756  0.20363463  0.45327532  1.0
  Cu  Cu8  1  0.63501010  0.05263780  0.38944743  1.0
  Cu  Cu9  1  0.36498990  0.55263780  0.61055257  1.0
  As  As10  1  0.80187706  0.20367533  0.74487713  1.0
  As  As11  1  0.19812294  0.70367533  0.25512287  1.0
  S  S12  1  0.93998454  0.18002364  0.34163241  1.0
  S  S13  1  0.06001546  0.68002364  0.65836759  1.0
  S  S14  1  0.84870222  0.00122250  0.94647119  1.0
  S  S15  1  0.15129778  0.50122250  0.05352881  1.0
  S  S16  1  0.61216275  0.46820491  0.80802113  1.0
  S  S17  1  0.38783725  0.96820491  0.19197887  1.0
  S  S18  1  0.53784815  0.00308586  0.60109901  1.0
  S  S19  1  0.46215185  0.50308586  0.39890099  1.0
