# generated using pymatgen
data_TaN
_symmetry_space_group_name_H-M   'P 1'
_cell_length_a   3.15038212
_cell_length_b   3.15038211
_cell_length_c   6.10548080
_cell_angle_alpha   90.00000000
_cell_angle_beta   90.00000000
_cell_angle_gamma   120.00000000
_symmetry_Int_Tables_number   1
_chemical_formula_structural   TaN
_chemical_formula_sum   'Ta2 N2'
_cell_volume   52.47796292
_cell_formula_units_Z   2
loop_
 _symmetry_equiv_pos_site_id
 _symmetry_equiv_pos_as_xyz
  1  'x, y, z'
loop_
 _atom_site_type_symbol
 _atom_site_label
 _atom_site_symmetry_multiplicity
 _atom_site_fract_x
 _atom_site_fract_y
 _atom_site_fract_z
 _atom_site_occupancy
  Ta  Ta0  1  0.33333333  0.66666667  0.35247508  1.0
  Ta  Ta1  1  0.66666667  0.33333333  0.85247508  1.0
  N  N2  1  0.33333333  0.66666667  0.02852492  1.0
  N  N3  1  0.66666667  0.33333333  0.52852492  1.0
