# generated using pymatgen
data_AlV2O4
_symmetry_space_group_name_H-M   'P 1'
_cell_length_a   5.88756037
_cell_length_b   5.88756037
_cell_length_c   5.88756037
_cell_angle_alpha   59.99074723
_cell_angle_beta   59.99074723
_cell_angle_gamma   59.99074723
_symmetry_Int_Tables_number   1
_chemical_formula_structural   AlV2O4
_chemical_formula_sum   'Al2 V4 O8'
_cell_volume   144.27796252
_cell_formula_units_Z   2
loop_
 _symmetry_equiv_pos_site_id
 _symmetry_equiv_pos_as_xyz
  1  'x, y, z'
loop_
 _atom_site_type_symbol
 _atom_site_label
 _atom_site_symmetry_multiplicity
 _atom_site_fract_x
 _atom_site_fract_y
 _atom_site_fract_z
 _atom_site_occupancy
  Al  Al0  1  1.62503251  0.62503251  0.62503251  1.0
  Al  Al1  1  1.37496749  0.37496749  0.37496749  1.0
  V  V2  1  1.00000000  1.00000000  0.50000000  1.0
  V  V3  1  1.00000000  1.50000000  -0.00000000  1.0
  V  V4  1  1.50000000  1.00000000  -0.00000000  1.0
  V  V5  1  0.00000000  0.00000000  0.00000000  1.0
  O  O6  1  1.25009991  1.25009991  -0.25037984  1.0
  O  O7  1  1.25009991  0.74962016  0.25009991  1.0
  O  O8  1  0.74962016  1.25009991  0.25009991  1.0
  O  O9  1  1.74990009  0.74990009  0.25037984  1.0
  O  O10  1  1.74990009  0.25037984  0.74990009  1.0
  O  O11  1  1.25037984  0.74990009  0.74990009  1.0
  O  O12  1  1.25010297  1.25010297  0.25010297  1.0
  O  O13  1  0.74989703  0.74989703  0.74989703  1.0
