# generated using pymatgen
data_K3Na2InO4
_symmetry_space_group_name_H-M   'P 1'
_cell_length_a   7.34727335
_cell_length_b   9.77782296
_cell_length_c   12.54025169
_cell_angle_alpha   90.00000000
_cell_angle_beta   124.93058233
_cell_angle_gamma   90.00000000
_symmetry_Int_Tables_number   1
_chemical_formula_structural   K3Na2InO4
_chemical_formula_sum   'K12 Na8 In4 O16'
_cell_volume   738.59624900
_cell_formula_units_Z   4
loop_
 _symmetry_equiv_pos_site_id
 _symmetry_equiv_pos_as_xyz
  1  'x, y, z'
loop_
 _atom_site_type_symbol
 _atom_site_label
 _atom_site_symmetry_multiplicity
 _atom_site_fract_x
 _atom_site_fract_y
 _atom_site_fract_z
 _atom_site_occupancy
  K  K0  1  0.94102313  0.74553737  0.33777529  1.0
  K  K1  1  0.94102313  0.75446263  0.83777529  1.0
  K  K2  1  0.05897687  0.24553737  0.16222471  1.0
  K  K3  1  0.05897687  0.25446263  0.66222471  1.0
  K  K4  1  0.71719355  0.99228244  0.48062811  1.0
  K  K5  1  0.71719355  0.50771756  0.98062811  1.0
  K  K6  1  0.28280645  0.49228244  0.01937189  1.0
  K  K7  1  0.28280645  0.00771756  0.51937189  1.0
  K  K8  1  0.57123779  0.33873702  0.39912723  1.0
  K  K9  1  0.57123779  0.16126298  0.89912723  1.0
  K  K10  1  0.42876221  0.83873702  0.10087277  1.0
  K  K11  1  0.42876221  0.66126298  0.60087277  1.0
  Na  Na12  1  0.81809636  0.43143259  0.27656848  1.0
  Na  Na13  1  0.81809636  0.06856741  0.77656848  1.0
  Na  Na14  1  0.18190364  0.93143259  0.22343152  1.0
  Na  Na15  1  0.18190364  0.56856741  0.72343152  1.0
  Na  Na16  1  0.24955943  0.33515622  0.49376532  1.0
  Na  Na17  1  0.24955943  0.16484378  0.99376532  1.0
  Na  Na18  1  0.75044057  0.83515622  0.00623468  1.0
  Na  Na19  1  0.75044057  0.66484378  0.50623468  1.0
  In  In20  1  0.70900121  0.13220721  0.23184671  1.0
  In  In21  1  0.70900121  0.36779279  0.73184671  1.0
  In  In22  1  0.29099879  0.63220721  0.26815329  1.0
  In  In23  1  0.29099879  0.86779279  0.76815329  1.0
  O  O24  1  0.92979200  0.21324405  0.41851377  1.0
  O  O25  1  0.92979200  0.28675595  0.91851377  1.0
  O  O26  1  0.07020800  0.71324405  0.08148623  1.0
  O  O27  1  0.07020800  0.78675595  0.58148623  1.0
  O  O28  1  0.83837024  0.97364143  0.18272535  1.0
  O  O29  1  0.83837024  0.52635857  0.68272535  1.0
  O  O30  1  0.16162976  0.47364143  0.31727465  1.0
  O  O31  1  0.16162976  0.02635857  0.81727465  1.0
  O  O32  1  0.60436768  0.29350387  0.09309820  1.0
  O  O33  1  0.60436768  0.20649613  0.59309820  1.0
  O  O34  1  0.39563232  0.79350387  0.40690180  1.0
  O  O35  1  0.39563232  0.70649613  0.90690180  1.0
  O  O36  1  0.40996732  0.08185521  0.21113974  1.0
  O  O37  1  0.40996732  0.41814479  0.71113974  1.0
  O  O38  1  0.59003268  0.58185521  0.28886026  1.0
  O  O39  1  0.59003268  0.91814479  0.78886026  1.0
