# generated using pymatgen
data_Rb2NaMnF6
_symmetry_space_group_name_H-M   'P 1'
_cell_length_a   6.16303921
_cell_length_b   6.16303921
_cell_length_c   6.16303921
_cell_angle_alpha   121.66216138
_cell_angle_beta   121.66216138
_cell_angle_gamma   87.14438187
_symmetry_Int_Tables_number   1
_chemical_formula_structural   Rb2NaMnF6
_chemical_formula_sum   'Rb2 Na1 Mn1 F6'
_cell_volume   161.15109949
_cell_formula_units_Z   1
loop_
 _symmetry_equiv_pos_site_id
 _symmetry_equiv_pos_as_xyz
  1  'x, y, z'
loop_
 _atom_site_type_symbol
 _atom_site_label
 _atom_site_symmetry_multiplicity
 _atom_site_fract_x
 _atom_site_fract_y
 _atom_site_fract_z
 _atom_site_occupancy
  Rb  Rb0  1  0.25000000  0.75000000  0.50000000  1.0
  Rb  Rb1  1  0.75000000  0.25000000  0.50000000  1.0
  Na  Na2  1  0.50000000  0.50000000  1.00000000  1.0
  Mn  Mn3  1  0.00000000  0.00000000  0.00000000  1.0
  F  F4  1  0.77815395  0.77815395  1.55630789  1.0
  F  F5  1  0.22184605  0.77815395  1.00000000  1.0
  F  F6  1  0.77815395  0.22184605  1.00000000  1.0
  F  F7  1  0.22184605  0.22184605  0.44369211  1.0
  F  F8  1  0.75908684  0.75908684  1.00000000  1.0
  F  F9  1  0.24091316  0.24091316  0.00000000  1.0
