# generated using pymatgen
data_Ta2CdO6
_symmetry_space_group_name_H-M   'P 1'
_cell_length_a   14.95409981
_cell_length_b   5.97017109
_cell_length_c   5.18398083
_cell_angle_alpha   90.00000000
_cell_angle_beta   90.00000000
_cell_angle_gamma   90.00000000
_symmetry_Int_Tables_number   1
_chemical_formula_structural   Ta2CdO6
_chemical_formula_sum   'Ta8 Cd4 O24'
_cell_volume   462.81821069
_cell_formula_units_Z   4
loop_
 _symmetry_equiv_pos_site_id
 _symmetry_equiv_pos_as_xyz
  1  'x, y, z'
loop_
 _atom_site_type_symbol
 _atom_site_label
 _atom_site_symmetry_multiplicity
 _atom_site_fract_x
 _atom_site_fract_y
 _atom_site_fract_z
 _atom_site_occupancy
  Ta  Ta0  1  0.66583174  0.67396555  0.73017535  1.0
  Ta  Ta1  1  0.66583174  0.32603445  0.23017535  1.0
  Ta  Ta2  1  0.16583174  0.17396555  0.76982465  1.0
  Ta  Ta3  1  0.16583174  0.82603445  0.26982465  1.0
  Ta  Ta4  1  0.33416826  0.67396555  0.76982465  1.0
  Ta  Ta5  1  0.33416826  0.32603445  0.26982465  1.0
  Ta  Ta6  1  0.83416826  0.17396555  0.73017535  1.0
  Ta  Ta7  1  0.83416826  0.82603445  0.23017535  1.0
  Cd  Cd8  1  0.00000000  0.68612298  0.75000000  1.0
  Cd  Cd9  1  0.00000000  0.31387702  0.25000000  1.0
  Cd  Cd10  1  0.50000000  0.18612298  0.75000000  1.0
  Cd  Cd11  1  0.50000000  0.81387702  0.25000000  1.0
  O  O12  1  0.89496454  0.90944778  0.54856445  1.0
  O  O13  1  0.89496454  0.09055222  0.04856445  1.0
  O  O14  1  0.39496454  0.40944778  0.95143555  1.0
  O  O15  1  0.39496454  0.59055222  0.45143555  1.0
  O  O16  1  0.10503546  0.90944778  0.95143555  1.0
  O  O17  1  0.10503546  0.09055222  0.45143555  1.0
  O  O18  1  0.60503546  0.40944778  0.54856445  1.0
  O  O19  1  0.60503546  0.59055222  0.04856445  1.0
  O  O20  1  0.75533515  0.86567637  0.90621645  1.0
  O  O21  1  0.75533515  0.13432363  0.40621645  1.0
  O  O22  1  0.25533515  0.36567637  0.59378355  1.0
  O  O23  1  0.25533515  0.63432363  0.09378355  1.0
  O  O24  1  0.24466485  0.86567637  0.59378355  1.0
  O  O25  1  0.24466485  0.13432363  0.09378355  1.0
  O  O26  1  0.74466485  0.36567637  0.90621645  1.0
  O  O27  1  0.74466485  0.63432363  0.40621645  1.0
  O  O28  1  0.58621228  0.87784539  0.60516577  1.0
  O  O29  1  0.58621228  0.12215461  0.10516577  1.0
  O  O30  1  0.08621228  0.37784539  0.89483423  1.0
  O  O31  1  0.08621228  0.62215461  0.39483423  1.0
  O  O32  1  0.41378772  0.87784539  0.89483423  1.0
  O  O33  1  0.41378772  0.12215461  0.39483423  1.0
  O  O34  1  0.91378772  0.37784539  0.60516577  1.0
  O  O35  1  0.91378772  0.62215461  0.10516577  1.0
