# generated using pymatgen
data_K3Ta2AsS11
_symmetry_space_group_name_H-M   'P 1'
_cell_length_a   9.77540022
_cell_length_b   9.77540022
_cell_length_c   9.71604712
_cell_angle_alpha   83.33694886
_cell_angle_beta   96.66305114
_cell_angle_gamma   96.72289400
_symmetry_Int_Tables_number   1
_chemical_formula_structural   K3Ta2AsS11
_chemical_formula_sum   'K6 Ta4 As2 S22'
_cell_volume   910.88570056
_cell_formula_units_Z   2
loop_
 _symmetry_equiv_pos_site_id
 _symmetry_equiv_pos_as_xyz
  1  'x, y, z'
loop_
 _atom_site_type_symbol
 _atom_site_label
 _atom_site_symmetry_multiplicity
 _atom_site_fract_x
 _atom_site_fract_y
 _atom_site_fract_z
 _atom_site_occupancy
  K  K0  1  0.90052176  -0.08445797  0.42336711  1.0
  K  K1  1  1.08445797  0.09947824  0.92336711  1.0
  K  K2  1  1.30091650  0.56640144  0.16498992  1.0
  K  K3  1  0.43359856  -0.30091650  0.66498992  1.0
  K  K4  1  1.54555658  0.31995293  0.81502064  1.0
  K  K5  1  0.68004707  -0.54555658  0.31502064  1.0
  Ta  Ta6  1  0.46554894  -0.05184241  0.26562596  1.0
  Ta  Ta7  1  1.05184241  0.53445106  0.76562596  1.0
  Ta  Ta8  1  1.33857835  0.20117826  0.44394386  1.0
  Ta  Ta9  1  0.79882174  -0.33857835  0.94394386  1.0
  As  As10  1  1.67874936  0.01776024  1.00278213  1.0
  As  As11  1  0.98223976  -0.67874936  0.50278213  1.0
  S  S12  1  1.42108802  0.41540547  0.49553267  1.0
  S  S13  1  0.58459453  -0.42108802  -0.00446733  1.0
  S  S14  1  0.83442689  -0.13728151  0.08711202  1.0
  S  S15  1  1.13728151  0.16557311  0.58711202  1.0
  S  S16  1  0.56883207  -0.24055729  0.35290076  1.0
  S  S17  1  1.24055729  0.43116793  0.85290076  1.0
  S  S18  1  1.67241254  0.11892204  0.20521929  1.0
  S  S19  1  0.88107796  -0.67241254  0.70521929  1.0
  S  S20  1  0.45961411  -0.08184791  0.01415782  1.0
  S  S21  1  1.08184791  0.54038589  0.51415782  1.0
  S  S22  1  1.56365018  0.09300222  0.47623972  1.0
  S  S23  1  0.90699778  -0.56365018  0.97623972  1.0
  S  S24  1  0.94997258  -0.44163334  0.14304040  1.0
  S  S25  1  1.44163334  0.05002742  0.64304040  1.0
  S  S26  1  0.27003885  -0.07891628  0.40978296  1.0
  S  S27  1  1.07891628  0.72996115  0.90978296  1.0
  S  S28  1  0.21820454  -0.12441065  0.20467088  1.0
  S  S29  1  1.12441065  0.78179546  0.70467088  1.0
  S  S30  1  1.37505430  0.21649514  0.19371921  1.0
  S  S31  1  0.78350486  -0.37505430  0.69371921  1.0
  S  S32  1  1.17117404  0.23156924  0.23669466  1.0
  S  S33  1  0.76843076  -0.17117404  0.73669466  1.0
