# generated using pymatgen
data_Lu10Cd3Ni
_symmetry_space_group_name_H-M   'P 1'
_cell_length_a   9.40964471
_cell_length_b   9.40964471
_cell_length_c   9.46183116
_cell_angle_alpha   90.00000000
_cell_angle_beta   90.00000000
_cell_angle_gamma   120.00000000
_symmetry_Int_Tables_number   1
_chemical_formula_structural   Lu10Cd3Ni
_chemical_formula_sum   'Lu20 Cd6 Ni2'
_cell_volume   725.52482469
_cell_formula_units_Z   2
loop_
 _symmetry_equiv_pos_site_id
 _symmetry_equiv_pos_as_xyz
  1  'x, y, z'
loop_
 _atom_site_type_symbol
 _atom_site_label
 _atom_site_symmetry_multiplicity
 _atom_site_fract_x
 _atom_site_fract_y
 _atom_site_fract_z
 _atom_site_occupancy
  Lu  Lu0  1  0.21075470  0.78924530  0.43901456  1.0
  Lu  Lu1  1  0.21075470  0.78924530  0.06098544  1.0
  Lu  Lu2  1  0.21075470  0.42150941  0.43901456  1.0
  Lu  Lu3  1  0.21075470  0.42150941  0.06098544  1.0
  Lu  Lu4  1  0.78924530  0.21075470  0.93901456  1.0
  Lu  Lu5  1  0.78924530  0.21075470  0.56098544  1.0
  Lu  Lu6  1  0.78924530  0.57849059  0.93901456  1.0
  Lu  Lu7  1  0.78924530  0.57849059  0.56098544  1.0
  Lu  Lu8  1  0.57849059  0.78924530  0.43901456  1.0
  Lu  Lu9  1  0.57849059  0.78924530  0.06098544  1.0
  Lu  Lu10  1  0.42150941  0.21075470  0.93901456  1.0
  Lu  Lu11  1  0.42150941  0.21075470  0.56098544  1.0
  Lu  Lu12  1  -0.00000000  -0.00000000  0.50000000  1.0
  Lu  Lu13  1  -0.00000000  0.00000000  0.00000000  1.0
  Lu  Lu14  1  0.54318117  0.45681883  0.25000000  1.0
  Lu  Lu15  1  0.54318117  0.08636233  0.25000000  1.0
  Lu  Lu16  1  0.45681883  0.54318117  0.75000000  1.0
  Lu  Lu17  1  0.45681883  0.91363767  0.75000000  1.0
  Lu  Lu18  1  0.91363767  0.45681883  0.25000000  1.0
  Lu  Lu19  1  0.08636233  0.54318117  0.75000000  1.0
  Cd  Cd20  1  0.88499645  0.11500355  0.25000000  1.0
  Cd  Cd21  1  0.88499645  0.76999290  0.25000000  1.0
  Cd  Cd22  1  0.11500355  0.88499645  0.75000000  1.0
  Cd  Cd23  1  0.11500355  0.23000710  0.75000000  1.0
  Cd  Cd24  1  0.23000710  0.11500355  0.25000000  1.0
  Cd  Cd25  1  0.76999290  0.88499645  0.75000000  1.0
  Ni  Ni26  1  0.33333333  0.66666667  0.25000000  1.0
  Ni  Ni27  1  0.66666667  0.33333333  0.75000000  1.0
