# generated using pymatgen
data_Na3Sc2(BO3)3
_symmetry_space_group_name_H-M   'P 1'
_cell_length_a   8.37052501
_cell_length_b   8.37052501
_cell_length_c   8.37052501
_cell_angle_alpha   62.48227097
_cell_angle_beta   62.48227097
_cell_angle_gamma   62.48227097
_symmetry_Int_Tables_number   1
_chemical_formula_structural   Na3Sc2(BO3)3
_chemical_formula_sum   'Na6 Sc4 B6 O18'
_cell_volume   437.65258185
_cell_formula_units_Z   2
loop_
 _symmetry_equiv_pos_site_id
 _symmetry_equiv_pos_as_xyz
  1  'x, y, z'
loop_
 _atom_site_type_symbol
 _atom_site_label
 _atom_site_symmetry_multiplicity
 _atom_site_fract_x
 _atom_site_fract_y
 _atom_site_fract_z
 _atom_site_occupancy
  Na  Na0  1  0.58330639  0.25000000  -0.08330639  1.0
  Na  Na1  1  0.08330639  0.41669361  -0.25000000  1.0
  Na  Na2  1  0.75000000  0.08330639  -0.58330639  1.0
  Na  Na3  1  0.25000000  0.91669361  -0.41669361  1.0
  Na  Na4  1  0.41669361  0.75000000  -0.91669361  1.0
  Na  Na5  1  0.91669361  -0.41669361  0.25000000  1.0
  Sc  Sc6  1  1.32813541  1.32813541  0.32813541  1.0
  Sc  Sc7  1  0.82813541  0.82813541  -0.17186459  1.0
  Sc  Sc8  1  1.17186459  1.17186459  0.17186459  1.0
  Sc  Sc9  1  0.67186459  0.67186459  -0.32813541  1.0
  B  B10  1  0.91055171  0.25000000  -0.41055171  1.0
  B  B11  1  0.41055171  0.08944829  -0.25000000  1.0
  B  B12  1  0.75000000  0.41055171  -0.91055171  1.0
  B  B13  1  0.25000000  0.58944829  -0.08944829  1.0
  B  B14  1  0.08944829  0.75000000  -0.58944829  1.0
  B  B15  1  0.58944829  -0.08944829  0.25000000  1.0
  O  O16  1  0.18647170  0.59377842  -0.65159046  1.0
  O  O17  1  0.68647170  -0.15159046  0.09377842  1.0
  O  O18  1  0.15159046  0.90622158  -0.68647170  1.0
  O  O19  1  0.65159046  0.81352830  -0.59377842  1.0
  O  O20  1  0.40622158  0.65159046  -0.18647170  1.0
  O  O21  1  0.90622158  0.31352830  -0.84840954  1.0
  O  O22  1  0.81352830  0.40622158  -0.34840954  1.0
  O  O23  1  0.31352830  0.15159046  -0.09377842  1.0
  O  O24  1  0.34840954  0.18647170  -0.40622158  1.0
  O  O25  1  0.84840954  0.09377842  -0.31352830  1.0
  O  O26  1  1.09377842  -0.31352830  -0.15159046  1.0
  O  O27  1  0.59377842  0.34840954  -0.81352830  1.0
  O  O28  1  1.07074886  1.25000000  0.42925114  1.0
  O  O29  1  0.57074886  0.92925114  -0.25000000  1.0
  O  O30  1  0.75000000  0.57074886  -0.07074886  1.0
  O  O31  1  1.25000000  1.42925114  0.07074886  1.0
  O  O32  1  0.92925114  0.75000000  -0.42925114  1.0
  O  O33  1  1.42925114  1.07074886  0.25000000  1.0
