# generated using pymatgen
data_InH5(NF)2
_symmetry_space_group_name_H-M   'P 1'
_cell_length_a   7.94193835
_cell_length_b   5.40969276
_cell_length_c   11.36239995
_cell_angle_alpha   90.00000000
_cell_angle_beta   128.74898297
_cell_angle_gamma   90.00000000
_symmetry_Int_Tables_number   1
_chemical_formula_structural   InH5(NF)2
_chemical_formula_sum   'In4 H20 N8 F8'
_cell_volume   380.71996403
_cell_formula_units_Z   4
loop_
 _symmetry_equiv_pos_site_id
 _symmetry_equiv_pos_as_xyz
  1  'x, y, z'
loop_
 _atom_site_type_symbol
 _atom_site_label
 _atom_site_symmetry_multiplicity
 _atom_site_fract_x
 _atom_site_fract_y
 _atom_site_fract_z
 _atom_site_occupancy
  In  In0  1  0.71841023  0.07364820  0.35920307  1.0
  In  In1  1  0.71841023  0.42635180  0.85920307  1.0
  In  In2  1  0.28158977  0.57364820  0.14079693  1.0
  In  In3  1  0.28158977  0.92635180  0.64079693  1.0
  H  H4  1  1.01584560  0.25052465  0.33279930  1.0
  H  H5  1  1.01584560  0.24947535  0.83279930  1.0
  H  H6  1  -0.01584560  0.75052465  0.16720070  1.0
  H  H7  1  -0.01584560  0.74947535  0.66720070  1.0
  H  H8  1  0.89579102  0.49664652  0.33426573  1.0
  H  H9  1  0.89579102  0.00335348  0.83426573  1.0
  H  H10  1  0.10420898  0.99664652  0.16573427  1.0
  H  H11  1  0.10420898  0.50335348  0.66573427  1.0
  H  H12  1  0.78354076  0.35202943  0.17297896  1.0
  H  H13  1  0.78354076  0.14797057  0.67297896  1.0
  H  H14  1  0.21645924  0.85202943  0.32702104  1.0
  H  H15  1  0.21645924  0.64797057  0.82702104  1.0
  H  H16  1  0.61076438  0.50235685  0.42624806  1.0
  H  H17  1  0.61076438  -0.00235685  0.92624806  1.0
  H  H18  1  0.38923562  1.00235685  0.07375194  1.0
  H  H19  1  0.38923562  0.49764315  0.57375194  1.0
  H  H20  1  0.43710649  0.28696208  0.38719720  1.0
  H  H21  1  0.43710649  0.21303792  0.88719720  1.0
  H  H22  1  0.56289351  0.78696208  0.11280280  1.0
  H  H23  1  0.56289351  0.71303792  0.61280280  1.0
  N  N24  1  0.86623770  0.32403164  0.28603426  1.0
  N  N25  1  0.86623770  0.17596836  0.78603426  1.0
  N  N26  1  0.13376230  0.82403164  0.21396574  1.0
  N  N27  1  0.13376230  0.67596836  0.71396574  1.0
  N  N28  1  0.51506487  0.36380660  0.35021595  1.0
  N  N29  1  0.51506487  0.13619340  0.85021595  1.0
  N  N30  1  0.48493513  0.86380660  0.14978405  1.0
  N  N31  1  0.48493513  0.63619340  0.64978405  1.0
  F  F32  1  0.97523463  0.80675775  0.41593753  1.0
  F  F33  1  0.97523463  0.69324225  0.91593753  1.0
  F  F34  1  0.02476537  0.30675775  0.08406247  1.0
  F  F35  1  0.02476537  0.19324225  0.58406247  1.0
  F  F36  1  0.69056429  0.84749596  0.50152437  1.0
  F  F37  1  0.69056429  0.65250404  1.00152437  1.0
  F  F38  1  0.30943571  0.34749596  -0.00152437  1.0
  F  F39  1  0.30943571  0.15250404  0.49847563  1.0
