# generated using pymatgen
data_MgSeO4
_symmetry_space_group_name_H-M   'P 1'
_cell_length_a   9.12123478
_cell_length_b   6.86326070
_cell_length_c   5.00157977
_cell_angle_alpha   90.00000000
_cell_angle_beta   90.00000000
_cell_angle_gamma   90.00000000
_symmetry_Int_Tables_number   1
_chemical_formula_structural   MgSeO4
_chemical_formula_sum   'Mg4 Se4 O16'
_cell_volume   313.10595715
_cell_formula_units_Z   4
loop_
 _symmetry_equiv_pos_site_id
 _symmetry_equiv_pos_as_xyz
  1  'x, y, z'
loop_
 _atom_site_type_symbol
 _atom_site_label
 _atom_site_symmetry_multiplicity
 _atom_site_fract_x
 _atom_site_fract_y
 _atom_site_fract_z
 _atom_site_occupancy
  Mg  Mg0  1  0.00000000  0.50000000  0.00000000  1.0
  Mg  Mg1  1  0.00000000  0.00000000  0.00000000  1.0
  Mg  Mg2  1  0.50000000  0.50000000  0.50000000  1.0
  Mg  Mg3  1  0.50000000  0.00000000  0.50000000  1.0
  Se  Se4  1  0.68001833  0.25000000  0.02724483  1.0
  Se  Se5  1  0.18001833  0.25000000  0.47275517  1.0
  Se  Se6  1  0.31998167  0.75000000  0.97275517  1.0
  Se  Se7  1  0.81998167  0.75000000  0.52724483  1.0
  O  O8  1  0.62018049  0.25000000  0.71021764  1.0
  O  O9  1  0.12018049  0.25000000  0.78978236  1.0
  O  O10  1  0.37981951  0.75000000  0.28978236  1.0
  O  O11  1  0.87981951  0.75000000  0.21021764  1.0
  O  O12  1  0.86504669  0.25000000  0.05357696  1.0
  O  O13  1  0.36504669  0.25000000  0.44642304  1.0
  O  O14  1  0.13495331  0.75000000  0.94642304  1.0
  O  O15  1  0.63495331  0.75000000  0.55357696  1.0
  O  O16  1  0.62480199  0.45171793  0.17541026  1.0
  O  O17  1  0.62480199  0.04828207  0.17541026  1.0
  O  O18  1  0.12480199  0.45171793  0.32458974  1.0
  O  O19  1  0.12480199  0.04828207  0.32458974  1.0
  O  O20  1  0.37519801  0.95171793  0.82458974  1.0
  O  O21  1  0.37519801  0.54828207  0.82458974  1.0
  O  O22  1  0.87519801  0.95171793  0.67541026  1.0
  O  O23  1  0.87519801  0.54828207  0.67541026  1.0
