# generated using pymatgen
data_SrBPd4
_symmetry_space_group_name_H-M   'P 1'
_cell_length_a   6.11950937
_cell_length_b   5.56929186
_cell_length_c   11.98909186
_cell_angle_alpha   90.00000000
_cell_angle_beta   90.00000000
_cell_angle_gamma   90.00000000
_symmetry_Int_Tables_number   1
_chemical_formula_structural   SrBPd4
_chemical_formula_sum   'Sr4 B4 Pd16'
_cell_volume   408.60424117
_cell_formula_units_Z   4
loop_
 _symmetry_equiv_pos_site_id
 _symmetry_equiv_pos_as_xyz
  1  'x, y, z'
loop_
 _atom_site_type_symbol
 _atom_site_label
 _atom_site_symmetry_multiplicity
 _atom_site_fract_x
 _atom_site_fract_y
 _atom_site_fract_z
 _atom_site_occupancy
  Sr  Sr0  1  0.81289777  0.75000000  0.66078341  1.0
  Sr  Sr1  1  0.31289777  0.75000000  0.83921659  1.0
  Sr  Sr2  1  0.18710223  0.25000000  0.33921659  1.0
  Sr  Sr3  1  0.68710223  0.25000000  0.16078341  1.0
  B  B4  1  0.90107913  0.75000000  0.05245873  1.0
  B  B5  1  0.40107913  0.75000000  0.44754127  1.0
  B  B6  1  0.09892087  0.25000000  0.94754127  1.0
  B  B7  1  0.59892087  0.25000000  0.55245873  1.0
  Pd  Pd8  1  0.66359766  0.99726293  0.41494788  1.0
  Pd  Pd9  1  0.66359766  0.50273707  0.41494788  1.0
  Pd  Pd10  1  0.16359766  0.99726293  0.08505212  1.0
  Pd  Pd11  1  0.16359766  0.50273707  0.08505212  1.0
  Pd  Pd12  1  0.33640234  0.49726293  0.58505212  1.0
  Pd  Pd13  1  0.33640234  0.00273707  0.58505212  1.0
  Pd  Pd14  1  0.83640234  0.49726293  0.91494788  1.0
  Pd  Pd15  1  0.83640234  0.00273707  0.91494788  1.0
  Pd  Pd16  1  0.88514929  0.75000000  0.23323794  1.0
  Pd  Pd17  1  0.38514929  0.75000000  0.26676206  1.0
  Pd  Pd18  1  0.11485071  0.25000000  0.76676206  1.0
  Pd  Pd19  1  0.61485071  0.25000000  0.73323794  1.0
  Pd  Pd20  1  0.56190184  0.75000000  0.05875174  1.0
  Pd  Pd21  1  0.06190184  0.75000000  0.44124826  1.0
  Pd  Pd22  1  0.43809816  0.25000000  0.94124826  1.0
  Pd  Pd23  1  0.93809816  0.25000000  0.55875174  1.0
