# generated using pymatgen
data_BaIn2Ir
_symmetry_space_group_name_H-M   'P 1'
_cell_length_a   6.25505806
_cell_length_b   6.25505806
_cell_length_c   8.24156675
_cell_angle_alpha   90.00000000
_cell_angle_beta   90.00000000
_cell_angle_gamma   138.41685445
_symmetry_Int_Tables_number   1
_chemical_formula_structural   BaIn2Ir
_chemical_formula_sum   'Ba2 In4 Ir2'
_cell_volume   214.01703859
_cell_formula_units_Z   2
loop_
 _symmetry_equiv_pos_site_id
 _symmetry_equiv_pos_as_xyz
  1  'x, y, z'
loop_
 _atom_site_type_symbol
 _atom_site_label
 _atom_site_symmetry_multiplicity
 _atom_site_fract_x
 _atom_site_fract_y
 _atom_site_fract_z
 _atom_site_occupancy
  Ba  Ba0  1  0.44577804  0.55422196  0.75000000  1.0
  Ba  Ba1  1  -0.44577804  0.44577804  0.25000000  1.0
  In  In2  1  0.16388445  0.83611555  0.94480013  1.0
  In  In3  1  0.16388445  0.83611555  0.55519987  1.0
  In  In4  1  -0.16388445  0.16388445  0.44480013  1.0
  In  In5  1  -0.16388445  0.16388445  0.05519987  1.0
  Ir  Ir6  1  -0.27980205  0.27980205  0.75000000  1.0
  Ir  Ir7  1  0.27980205  0.72019795  0.25000000  1.0
