# generated using pymatgen
data_SbH2CS(OF3)3
_symmetry_space_group_name_H-M   'P 1'
_cell_length_a   8.19488438
_cell_length_b   7.87008990
_cell_length_c   9.50816905
_cell_angle_alpha   72.31516279
_cell_angle_beta   66.84817578
_cell_angle_gamma   85.60660835
_symmetry_Int_Tables_number   1
_chemical_formula_structural   SbH2CS(OF3)3
_chemical_formula_sum   'Sb2 H4 C2 S2 O6 F18'
_cell_volume   536.55062876
_cell_formula_units_Z   2
loop_
 _symmetry_equiv_pos_site_id
 _symmetry_equiv_pos_as_xyz
  1  'x, y, z'
loop_
 _atom_site_type_symbol
 _atom_site_label
 _atom_site_symmetry_multiplicity
 _atom_site_fract_x
 _atom_site_fract_y
 _atom_site_fract_z
 _atom_site_occupancy
  Sb  Sb0  1  -0.89836410  -0.63030734  -0.25019209  1.0
  Sb  Sb1  1  -0.10163590  -0.36969266  -0.74980791  1.0
  H  H2  1  -0.25785660  -0.71532143  -0.96984416  1.0
  H  H3  1  -0.74214340  -0.28467857  -0.03015584  1.0
  H  H4  1  -0.67190956  -0.59902970  -0.62288348  1.0
  H  H5  1  -0.32809044  -0.40097030  -0.37711652  1.0
  C  C6  1  -0.66900102  -0.95864905  -0.72456890  1.0
  C  C7  1  -0.33099898  -0.04135095  -0.27543110  1.0
  S  S8  1  -0.50987521  -0.77665919  -0.75265133  1.0
  S  S9  1  -0.49012479  -0.22334081  -0.24734867  1.0
  O  O10  1  -0.42204868  -0.83373413  -0.64407008  1.0
  O  O11  1  -0.57795132  -0.16626587  -0.35592992  1.0
  O  O12  1  -0.39943858  -0.73199624  -0.93099243  1.0
  O  O13  1  -0.60056142  -0.26800376  -0.06900757  1.0
  O  O14  1  -0.62897968  -0.61776760  -0.73554737  1.0
  O  O15  1  -0.37102032  -0.38223240  -0.26445263  1.0
  F  F16  1  -0.79472336  -0.99003609  -0.57677863  1.0
  F  F17  1  -0.20527664  -0.00996391  -0.42322137  1.0
  F  F18  1  -0.74005272  -0.90324789  -0.83458944  1.0
  F  F19  1  -0.25994728  -0.09675211  -0.16541056  1.0
  F  F20  1  -0.82748811  -0.87075464  -0.21588055  1.0
  F  F21  1  -0.17251189  -0.12924536  -0.78411945  1.0
  F  F22  1  -0.42315116  -0.89597055  -0.25878461  1.0
  F  F23  1  -0.57684884  -0.10402945  -0.74121539  1.0
  F  F24  1  -0.71718917  -0.56533799  -0.47152591  1.0
  F  F25  1  -0.28281083  -0.43466201  -0.52847409  1.0
  F  F26  1  -0.27009249  -0.42425456  -0.82480874  1.0
  F  F27  1  -0.72990751  -0.57574544  -0.17519126  1.0
  F  F28  1  -0.97124825  -0.39094316  -0.28253963  1.0
  F  F29  1  -0.02875175  -0.60905684  -0.71746037  1.0
  F  F30  1  -0.92839499  -0.31212547  -0.68091052  1.0
  F  F31  1  -0.07160501  -0.68787453  -0.31908948  1.0
  F  F32  1  -0.91990018  -0.30387772  -0.97430239  1.0
  F  F33  1  -0.08009982  -0.69612228  -0.02569761  1.0
