# generated using pymatgen
data_Lu4Ni2C5
_symmetry_space_group_name_H-M   'P 1'
_cell_length_a   3.52213187
_cell_length_b   11.39640608
_cell_length_c   3.64394193
_cell_angle_alpha   90.00000000
_cell_angle_beta   90.00000000
_cell_angle_gamma   90.00000000
_symmetry_Int_Tables_number   1
_chemical_formula_structural   Lu4Ni2C5
_chemical_formula_sum   'Lu4 Ni2 C5'
_cell_volume   146.26653566
_cell_formula_units_Z   1
loop_
 _symmetry_equiv_pos_site_id
 _symmetry_equiv_pos_as_xyz
  1  'x, y, z'
loop_
 _atom_site_type_symbol
 _atom_site_label
 _atom_site_symmetry_multiplicity
 _atom_site_fract_x
 _atom_site_fract_y
 _atom_site_fract_z
 _atom_site_occupancy
  Lu  Lu0  1  0.50000000  0.79833392  0.50097288  1.0
  Lu  Lu1  1  0.50000000  0.20166608  0.50097288  1.0
  Lu  Lu2  1  0.50000000  0.50000000  0.21069129  1.0
  Lu  Lu3  1  0.00000000  0.00000000  -0.00109598  1.0
  Ni  Ni4  1  0.00000000  0.61565819  0.69978274  1.0
  Ni  Ni5  1  0.00000000  0.38434181  0.69978274  1.0
  C  C6  1  0.00000000  0.77320300  -0.00060286  1.0
  C  C7  1  0.00000000  0.22679700  -0.00060286  1.0
  C  C8  1  0.00000000  0.66839956  0.19962595  1.0
  C  C9  1  0.00000000  0.33160044  0.19962595  1.0
  C  C10  1  0.50000000  0.00000000  0.49234727  1.0
