# generated using pymatgen
data_LiSc(GeO3)2
_symmetry_space_group_name_H-M   'P 1'
_cell_length_a   9.82210122
_cell_length_b   9.21068044
_cell_length_c   5.52845934
_cell_angle_alpha   90.00000000
_cell_angle_beta   102.45653037
_cell_angle_gamma   90.00000000
_symmetry_Int_Tables_number   1
_chemical_formula_structural   LiSc(GeO3)2
_chemical_formula_sum   'Li4 Sc4 Ge8 O24'
_cell_volume   488.37640016
_cell_formula_units_Z   4
loop_
 _symmetry_equiv_pos_site_id
 _symmetry_equiv_pos_as_xyz
  1  'x, y, z'
loop_
 _atom_site_type_symbol
 _atom_site_label
 _atom_site_symmetry_multiplicity
 _atom_site_fract_x
 _atom_site_fract_y
 _atom_site_fract_z
 _atom_site_occupancy
  Li  Li0  1  0.74886576  0.99841181  0.47237584  1.0
  Li  Li1  1  0.74886576  0.50158819  0.97237584  1.0
  Li  Li2  1  0.25113424  0.49841181  0.02762416  1.0
  Li  Li3  1  0.25113424  0.00158819  0.52762416  1.0
  Sc  Sc4  1  0.74859885  0.35457094  0.46977897  1.0
  Sc  Sc5  1  0.74859885  0.14542906  0.96977897  1.0
  Sc  Sc6  1  0.25140115  0.85457094  0.03022103  1.0
  Sc  Sc7  1  0.25140115  0.64542906  0.53022103  1.0
  Ge  Ge8  1  0.95040073  0.83810807  0.24642964  1.0
  Ge  Ge9  1  0.95040073  0.66189193  0.74642964  1.0
  Ge  Ge10  1  0.04959927  0.33810807  0.25357036  1.0
  Ge  Ge11  1  0.04959927  0.16189193  0.75357036  1.0
  Ge  Ge12  1  0.44784442  0.16286254  0.19466063  1.0
  Ge  Ge13  1  0.44784442  0.33713746  0.69466063  1.0
  Ge  Ge14  1  0.55215558  0.66286254  0.30533937  1.0
  Ge  Ge15  1  0.55215558  0.83713746  0.80533937  1.0
  O  O16  1  0.88080023  0.78962677  0.50882976  1.0
  O  O17  1  0.88080023  0.71037323  0.00882976  1.0
  O  O18  1  0.11919977  0.28962677  0.99117024  1.0
  O  O19  1  0.11919977  0.21037323  0.49117024  1.0
  O  O20  1  0.87983701  0.01076300  0.18797220  1.0
  O  O21  1  0.87983701  0.48923700  0.68797220  1.0
  O  O22  1  0.12016299  0.51076300  0.31202780  1.0
  O  O23  1  0.12016299  0.98923700  0.81202780  1.0
  O  O24  1  0.86455944  0.32997347  0.18795444  1.0
  O  O25  1  0.86455944  0.17002653  0.68795444  1.0
  O  O26  1  0.13544056  0.82997347  0.31204556  1.0
  O  O27  1  0.13544056  0.67002653  0.81204556  1.0
  O  O28  1  0.63397777  0.16681484  0.25664560  1.0
  O  O29  1  0.63397777  0.33318516  0.75664560  1.0
  O  O30  1  0.36602223  0.66681484  0.24335440  1.0
  O  O31  1  0.36602223  0.83318516  0.74335440  1.0
  O  O32  1  0.63373611  0.50420917  0.24056970  1.0
  O  O33  1  0.63373611  0.99579083  0.74056970  1.0
  O  O34  1  0.36626389  0.00420917  0.25943030  1.0
  O  O35  1  0.36626389  0.49579083  0.75943030  1.0
  O  O36  1  0.39258426  0.30838074  0.36640143  1.0
  O  O37  1  0.39258426  0.19161926  0.86640143  1.0
  O  O38  1  0.60741574  0.80838074  0.13359857  1.0
  O  O39  1  0.60741574  0.69161926  0.63359857  1.0
