# generated using pymatgen
data_Sr2AsI
_symmetry_space_group_name_H-M   'P 1'
_cell_length_a   8.35427074
_cell_length_b   8.35427074
_cell_length_c   8.35427074
_cell_angle_alpha   32.10759910
_cell_angle_beta   32.10759910
_cell_angle_gamma   32.10759910
_symmetry_Int_Tables_number   1
_chemical_formula_structural   Sr2AsI
_chemical_formula_sum   'Sr2 As1 I1'
_cell_volume   146.37878247
_cell_formula_units_Z   1
loop_
 _symmetry_equiv_pos_site_id
 _symmetry_equiv_pos_as_xyz
  1  'x, y, z'
loop_
 _atom_site_type_symbol
 _atom_site_label
 _atom_site_symmetry_multiplicity
 _atom_site_fract_x
 _atom_site_fract_y
 _atom_site_fract_z
 _atom_site_occupancy
  Sr  Sr0  1  0.76726598  0.76726598  0.76726598  1.0
  Sr  Sr1  1  1.23273402  1.23273402  0.23273402  1.0
  As  As2  1  1.50000000  0.50000000  0.50000000  1.0
  I  I3  1  0.00000000  0.00000000  0.00000000  1.0
