# generated using pymatgen
data_Na2CoSe2
_symmetry_space_group_name_H-M   'P 1'
_cell_length_a   7.44612765
_cell_length_b   7.44612765
_cell_length_c   7.44612765
_cell_angle_alpha   127.98275614
_cell_angle_beta   71.89410922
_cell_angle_gamma   134.05510370
_symmetry_Int_Tables_number   1
_chemical_formula_structural   Na2CoSe2
_chemical_formula_sum   'Na4 Co2 Se4'
_cell_volume   228.80313824
_cell_formula_units_Z   2
loop_
 _symmetry_equiv_pos_site_id
 _symmetry_equiv_pos_as_xyz
  1  'x, y, z'
loop_
 _atom_site_type_symbol
 _atom_site_label
 _atom_site_symmetry_multiplicity
 _atom_site_fract_x
 _atom_site_fract_y
 _atom_site_fract_z
 _atom_site_occupancy
  Na  Na0  1  0.14114621  0.33054149  0.47168770  1.0
  Na  Na1  1  0.35885379  0.83054149  1.18939528  1.0
  Na  Na2  1  0.64114621  1.16945851  0.81060472  1.0
  Na  Na3  1  0.85885379  0.66945851  0.52831230  1.0
  Co  Co4  1  0.25000000  0.25000000  -0.00000000  1.0
  Co  Co5  1  0.75000000  0.75000000  -0.00000000  1.0
  Se  Se6  1  0.38684259  0.29099495  0.67783754  1.0
  Se  Se7  1  0.11315741  0.79099495  0.90415236  1.0
  Se  Se8  1  0.88684259  1.20900505  1.09584764  1.0
  Se  Se9  1  0.61315741  0.70900505  0.32216246  1.0
