# generated using pymatgen
data_BaLiCoF6
_symmetry_space_group_name_H-M   'P 1'
_cell_length_a   5.54102854
_cell_length_b   10.74034087
_cell_length_c   8.50917079
_cell_angle_alpha   90.00000000
_cell_angle_beta   91.06651689
_cell_angle_gamma   90.00000000
_symmetry_Int_Tables_number   1
_chemical_formula_structural   BaLiCoF6
_chemical_formula_sum   'Ba4 Li4 Co4 F24'
_cell_volume   506.31459740
_cell_formula_units_Z   4
loop_
 _symmetry_equiv_pos_site_id
 _symmetry_equiv_pos_as_xyz
  1  'x, y, z'
loop_
 _atom_site_type_symbol
 _atom_site_label
 _atom_site_symmetry_multiplicity
 _atom_site_fract_x
 _atom_site_fract_y
 _atom_site_fract_z
 _atom_site_occupancy
  Co  Co0  1  0.72688186  0.41393575  0.26879657  1.0
  Co  Co1  1  0.72688186  0.08606425  0.76879657  1.0
  Co  Co2  1  0.27311814  0.91393575  0.23120343  1.0
  Co  Co3  1  0.27311814  0.58606425  0.73120343  1.0
  Ba  Ba4  1  0.19164207  0.18805708  0.49830823  1.0
  Ba  Ba5  1  0.19164207  0.31194292  0.99830823  1.0
  Ba  Ba6  1  0.80835793  0.68805708  0.00169177  1.0
  Ba  Ba7  1  0.80835793  0.81194292  0.50169177  1.0
  Li  Li8  1  0.74734866  0.08938619  0.19062002  1.0
  Li  Li9  1  0.74734866  0.41061381  0.69062002  1.0
  Li  Li10  1  0.25265134  0.58938619  0.30937998  1.0
  Li  Li11  1  0.25265134  0.91061381  0.80937998  1.0
  F  F12  1  0.40886095  0.08237701  0.21435139  1.0
  F  F13  1  0.40886095  0.41762299  0.71435139  1.0
  F  F14  1  0.59113905  0.58237701  0.28564861  1.0
  F  F15  1  0.59113905  0.91762299  0.78564861  1.0
  F  F16  1  0.97528601  0.99766629  0.31143303  1.0
  F  F17  1  0.97528601  0.50233371  0.81143303  1.0
  F  F18  1  0.02471399  0.49766629  0.18856697  1.0
  F  F19  1  0.02471399  0.00233371  0.68856697  1.0
  F  F20  1  0.89672157  0.24677827  0.24330528  1.0
  F  F21  1  0.89672157  0.25322173  0.74330528  1.0
  F  F22  1  0.10327843  0.74677827  0.25669472  1.0
  F  F23  1  0.10327843  0.75322173  0.75669472  1.0
  F  F24  1  0.40957447  0.34408223  0.30870574  1.0
  F  F25  1  0.40957447  0.15591777  0.80870574  1.0
  F  F26  1  0.59042553  0.84408223  0.19129426  1.0
  F  F27  1  0.59042553  0.65591777  0.69129426  1.0
  F  F28  1  0.83423714  0.40203810  0.47529492  1.0
  F  F29  1  0.83423714  0.09796190  0.97529492  1.0
  F  F30  1  0.16576286  0.90203810  0.02470508  1.0
  F  F31  1  0.16576286  0.59796190  0.52470508  1.0
  F  F32  1  0.65075717  0.39843635  0.05197531  1.0
  F  F33  1  0.65075717  0.10156365  0.55197531  1.0
  F  F34  1  0.34924283  0.89843635  0.44802469  1.0
  F  F35  1  0.34924283  0.60156365  0.94802469  1.0
