# generated using pymatgen
data_Gd2Si2O7
_symmetry_space_group_name_H-M   'P 1'
_cell_length_a   14.02430271
_cell_length_b   5.13135962
_cell_length_c   8.34804335
_cell_angle_alpha   90.00000000
_cell_angle_beta   90.00000000
_cell_angle_gamma   90.00000000
_symmetry_Int_Tables_number   1
_chemical_formula_structural   Gd2Si2O7
_chemical_formula_sum   'Gd8 Si8 O28'
_cell_volume   600.75642648
_cell_formula_units_Z   4
loop_
 _symmetry_equiv_pos_site_id
 _symmetry_equiv_pos_as_xyz
  1  'x, y, z'
loop_
 _atom_site_type_symbol
 _atom_site_label
 _atom_site_symmetry_multiplicity
 _atom_site_fract_x
 _atom_site_fract_y
 _atom_site_fract_z
 _atom_site_occupancy
  Gd  Gd0  1  0.37426937  0.15814606  0.74646181  1.0
  Gd  Gd1  1  0.87426937  0.34185394  0.74646181  1.0
  Gd  Gd2  1  0.62573063  0.84185394  0.24646181  1.0
  Gd  Gd3  1  0.12573063  0.65814606  0.24646181  1.0
  Gd  Gd4  1  0.12573517  0.65809584  0.76230455  1.0
  Gd  Gd5  1  0.62573517  0.84190416  0.76230455  1.0
  Gd  Gd6  1  0.87426483  0.34190416  0.26230455  1.0
  Gd  Gd7  1  0.37426483  0.15809584  0.26230455  1.0
  Si  Si8  1  0.46148289  0.62501774  0.00439330  1.0
  Si  Si9  1  0.96148289  0.87498226  0.00439330  1.0
  Si  Si10  1  0.53851711  0.37498226  0.50439330  1.0
  Si  Si11  1  0.03851711  0.12501774  0.50439330  1.0
  Si  Si12  1  0.31993471  0.62101775  0.50435972  1.0
  Si  Si13  1  0.81993471  0.87898225  0.50435972  1.0
  Si  Si14  1  0.68006529  0.37898225  0.00435972  1.0
  Si  Si15  1  0.18006529  0.12101775  0.00435972  1.0
  O  O16  1  0.45354051  0.79178514  0.83850583  1.0
  O  O17  1  0.95354051  0.70821486  0.83850583  1.0
  O  O18  1  0.54645949  0.20821486  0.33850583  1.0
  O  O19  1  0.04645949  0.29178514  0.33850583  1.0
  O  O20  1  0.45353242  0.79166842  0.17032603  1.0
  O  O21  1  0.95353242  0.70833158  0.17032603  1.0
  O  O22  1  0.54646758  0.20833158  0.67032603  1.0
  O  O23  1  0.04646758  0.29166842  0.67032603  1.0
  O  O24  1  0.34543195  0.92973557  0.50438575  1.0
  O  O25  1  0.84543195  0.57026443  0.50438575  1.0
  O  O26  1  0.65456805  0.07026443  0.00438575  1.0
  O  O27  1  0.15456805  0.42973557  0.00438575  1.0
  O  O28  1  0.26824797  0.51434684  0.66660649  1.0
  O  O29  1  0.76824797  0.98565316  0.66660649  1.0
  O  O30  1  0.73175203  0.48565316  0.16660649  1.0
  O  O31  1  0.23175203  0.01434684  0.16660649  1.0
  O  O32  1  0.23173845  0.01435494  0.84210047  1.0
  O  O33  1  0.73173845  0.48564506  0.84210047  1.0
  O  O34  1  0.76826155  0.98564506  0.34210047  1.0
  O  O35  1  0.26826155  0.51435494  0.34210047  1.0
  O  O36  1  0.09806791  0.85197605  0.50438581  1.0
  O  O37  1  0.59806791  0.64802395  0.50438581  1.0
  O  O38  1  0.90193209  0.14802395  0.00438581  1.0
  O  O39  1  0.40193209  0.35197605  0.00438581  1.0
  O  O40  1  0.08031671  0.93764865  0.00437023  1.0
  O  O41  1  0.58031671  0.56235135  0.00437023  1.0
  O  O42  1  0.91968329  0.06235135  0.50437023  1.0
  O  O43  1  0.41968329  0.43764865  0.50437023  1.0
