# generated using pymatgen
data_Nb3Ga2
_symmetry_space_group_name_H-M   'P 1'
_cell_length_a   6.93930495
_cell_length_b   6.93930495
_cell_length_c   3.51973635
_cell_angle_alpha   90.00000000
_cell_angle_beta   90.00000000
_cell_angle_gamma   90.00000000
_symmetry_Int_Tables_number   1
_chemical_formula_structural   Nb3Ga2
_chemical_formula_sum   'Nb6 Ga4'
_cell_volume   169.48921928
_cell_formula_units_Z   2
loop_
 _symmetry_equiv_pos_site_id
 _symmetry_equiv_pos_as_xyz
  1  'x, y, z'
loop_
 _atom_site_type_symbol
 _atom_site_label
 _atom_site_symmetry_multiplicity
 _atom_site_fract_x
 _atom_site_fract_y
 _atom_site_fract_z
 _atom_site_occupancy
  Nb  Nb0  1  0.32455037  0.17544963  0.50000000  1.0
  Nb  Nb1  1  0.82455037  0.32455037  0.50000000  1.0
  Nb  Nb2  1  0.67544963  0.82455037  0.50000000  1.0
  Nb  Nb3  1  0.17544963  0.67544963  0.50000000  1.0
  Nb  Nb4  1  0.50000000  0.50000000  0.00000000  1.0
  Nb  Nb5  1  0.00000000  0.00000000  0.00000000  1.0
  Ga  Ga6  1  0.87394617  0.62605383  0.00000000  1.0
  Ga  Ga7  1  0.37394617  0.87394617  0.00000000  1.0
  Ga  Ga8  1  0.12605383  0.37394617  0.00000000  1.0
  Ga  Ga9  1  0.62605383  0.12605383  0.00000000  1.0
