# generated using pymatgen
data_Sb2O3
_symmetry_space_group_name_H-M   'P 1'
_cell_length_a   8.05632768
_cell_length_b   8.05632768
_cell_length_c   6.98636110
_cell_angle_alpha   90.00000000
_cell_angle_beta   90.00000000
_cell_angle_gamma   90.00000000
_symmetry_Int_Tables_number   1
_chemical_formula_structural   Sb2O3
_chemical_formula_sum   'Sb8 O12'
_cell_volume   453.44568447
_cell_formula_units_Z   4
loop_
 _symmetry_equiv_pos_site_id
 _symmetry_equiv_pos_as_xyz
  1  'x, y, z'
loop_
 _atom_site_type_symbol
 _atom_site_label
 _atom_site_symmetry_multiplicity
 _atom_site_fract_x
 _atom_site_fract_y
 _atom_site_fract_z
 _atom_site_occupancy
  Sb  Sb0  1  0.27456231  0.49949985  0.18156565  1.0
  Sb  Sb1  1  0.22543769  0.99949985  0.31843435  1.0
  Sb  Sb2  1  0.50050015  0.27456231  0.81843435  1.0
  Sb  Sb3  1  0.99949985  0.77456231  0.68156565  1.0
  Sb  Sb4  1  0.72543769  0.50050015  0.18156565  1.0
  Sb  Sb5  1  0.77456231  0.00050015  0.31843435  1.0
  Sb  Sb6  1  0.49949985  0.72543769  0.81843435  1.0
  Sb  Sb7  1  0.00050015  0.22543769  0.68156565  1.0
  O  O8  1  0.19155238  0.19070317  0.50000987  1.0
  O  O9  1  0.30844762  0.69070317  -0.00000987  1.0
  O  O10  1  0.80929683  0.19155238  0.49999013  1.0
  O  O11  1  0.69070317  0.69155238  1.00000987  1.0
  O  O12  1  0.80844762  0.80929683  0.50000987  1.0
  O  O13  1  0.69155238  0.30929683  -0.00000987  1.0
  O  O14  1  0.19070317  0.80844762  0.49999013  1.0
  O  O15  1  0.30929683  0.30844762  1.00000987  1.0
  O  O16  1  0.50000000  0.50000000  0.28984246  1.0
  O  O17  1  0.00000000  0.00000000  0.21015754  1.0
  O  O18  1  0.50000000  0.50000000  0.71015754  1.0
  O  O19  1  0.00000000  0.00000000  0.78984246  1.0
