# generated using pymatgen
data_CaH2CClO3
_symmetry_space_group_name_H-M   'P 1'
_cell_length_a   6.16135716
_cell_length_b   6.16135716
_cell_length_c   7.10617724
_cell_angle_alpha   58.67960206
_cell_angle_beta   121.32039794
_cell_angle_gamma   106.06123030
_symmetry_Int_Tables_number   1
_chemical_formula_structural   CaH2CClO3
_chemical_formula_sum   'Ca2 H4 C2 Cl2 O6'
_cell_volume   196.86388292
_cell_formula_units_Z   2
loop_
 _symmetry_equiv_pos_site_id
 _symmetry_equiv_pos_as_xyz
  1  'x, y, z'
loop_
 _atom_site_type_symbol
 _atom_site_label
 _atom_site_symmetry_multiplicity
 _atom_site_fract_x
 _atom_site_fract_y
 _atom_site_fract_z
 _atom_site_occupancy
  Ca  Ca0  1  0.63370277  -0.63370277  0.88275525  1.0
  Ca  Ca1  1  1.36629723  -0.36629723  0.11724475  1.0
  H  H2  1  1.68172368  -0.13354435  0.46631625  1.0
  H  H3  1  1.13354435  0.31827632  0.46631625  1.0
  H  H4  1  0.86645565  0.68172368  0.53368375  1.0
  H  H5  1  1.31827632  0.13354435  0.53368375  1.0
  C  C6  1  0.89476333  0.89476333  -0.00000000  1.0
  C  C7  1  0.10523667  0.10523667  0.00000000  1.0
  Cl  Cl8  1  0.73473262  0.26526738  0.36614797  1.0
  Cl  Cl9  1  0.26526738  -0.26526738  0.63385203  1.0
  O  O10  1  1.29317439  0.06998609  0.99300193  1.0
  O  O11  1  0.93001391  -0.29317439  0.99300193  1.0
  O  O12  1  1.06998609  -0.70682561  0.00699807  1.0
  O  O13  1  1.70682561  -0.06998609  0.00699807  1.0
  O  O14  1  0.69054700  0.69054700  0.50000000  1.0
  O  O15  1  1.30945300  0.30945300  0.50000000  1.0
