# generated using pymatgen
data_CoTe6O13
_symmetry_space_group_name_H-M   'P 1'
_cell_length_a   8.78048896
_cell_length_b   8.78048896
_cell_length_c   8.78048896
_cell_angle_alpha   71.87443232
_cell_angle_beta   71.87443232
_cell_angle_gamma   71.87443232
_symmetry_Int_Tables_number   1
_chemical_formula_structural   CoTe6O13
_chemical_formula_sum   'Co2 Te12 O26'
_cell_volume   593.96969190
_cell_formula_units_Z   2
loop_
 _symmetry_equiv_pos_site_id
 _symmetry_equiv_pos_as_xyz
  1  'x, y, z'
loop_
 _atom_site_type_symbol
 _atom_site_label
 _atom_site_symmetry_multiplicity
 _atom_site_fract_x
 _atom_site_fract_y
 _atom_site_fract_z
 _atom_site_occupancy
  Co  Co0  1  0.74426147  0.74426147  -0.25573853  1.0
  Co  Co1  1  1.25573853  1.25573853  0.25573853  1.0
  Te  Te2  1  0.52889984  0.41783040  -0.17162486  1.0
  Te  Te3  1  0.58216960  0.17162486  -0.52889984  1.0
  Te  Te4  1  0.17162486  0.47110016  -0.41783040  1.0
  Te  Te5  1  0.47110016  0.58216960  -0.82837514  1.0
  Te  Te6  1  0.41783040  0.82837514  -0.47110016  1.0
  Te  Te7  1  0.82837514  0.52889984  -0.58216960  1.0
  Te  Te8  1  0.66627777  -0.01236904  0.06575415  1.0
  Te  Te9  1  1.01236904  -0.06575415  -0.66627777  1.0
  Te  Te10  1  0.93424585  -0.66627777  0.01236904  1.0
  Te  Te11  1  0.33372223  0.01236904  -0.06575415  1.0
  Te  Te12  1  0.98763096  0.06575415  -0.33372223  1.0
  Te  Te13  1  1.06575415  -0.33372223  -0.01236904  1.0
  O  O14  1  0.63573131  0.55167445  -0.11372374  1.0
  O  O15  1  1.44832555  1.11372374  0.36426869  1.0
  O  O16  1  1.11372374  1.36426869  0.44832555  1.0
  O  O17  1  1.36426869  1.44832555  0.11372374  1.0
  O  O18  1  0.55167445  0.88627626  -0.36426869  1.0
  O  O19  1  0.88627626  0.63573131  -0.44832555  1.0
  O  O20  1  0.37889156  0.62424128  -0.29443403  1.0
  O  O21  1  0.37575872  0.29443403  -0.37889156  1.0
  O  O22  1  0.29443403  0.62110844  -0.62424128  1.0
  O  O23  1  0.62110844  0.37575872  -0.70556597  1.0
  O  O24  1  0.62424128  0.70556597  -0.62110844  1.0
  O  O25  1  0.70556597  0.37889156  -0.37575872  1.0
  O  O26  1  0.60386840  0.91355535  -0.10008081  1.0
  O  O27  1  1.08644465  1.10008081  0.39613160  1.0
  O  O28  1  1.10008081  1.39613160  0.08644465  1.0
  O  O29  1  1.39613160  1.08644465  0.10008081  1.0
  O  O30  1  0.91355535  0.89991919  -0.39613160  1.0
  O  O31  1  0.89991919  0.60386840  -0.08644465  1.0
  O  O32  1  0.70313298  0.20652305  -0.05074446  1.0
  O  O33  1  0.79347695  0.05074446  -0.70313298  1.0
  O  O34  1  0.05074446  0.29686702  -0.20652305  1.0
  O  O35  1  0.29686702  0.79347695  -0.94925554  1.0
  O  O36  1  1.20652305  -0.05074446  -0.29686702  1.0
  O  O37  1  0.94925554  -0.29686702  0.20652305  1.0
  O  O38  1  0.91576761  0.91576761  -0.08423239  1.0
  O  O39  1  1.08423239  1.08423239  0.08423239  1.0
