# generated using pymatgen
data_Ba3NaSbO6
_symmetry_space_group_name_H-M   'P 1'
_cell_length_a   7.22803754
_cell_length_b   7.22803754
_cell_length_c   7.22803754
_cell_angle_alpha   91.73959593
_cell_angle_beta   91.73959593
_cell_angle_gamma   91.73959593
_symmetry_Int_Tables_number   1
_chemical_formula_structural   Ba3NaSbO6
_chemical_formula_sum   'Ba6 Na2 Sb2 O12'
_cell_volume   377.09245999
_cell_formula_units_Z   2
loop_
 _symmetry_equiv_pos_site_id
 _symmetry_equiv_pos_as_xyz
  1  'x, y, z'
loop_
 _atom_site_type_symbol
 _atom_site_label
 _atom_site_symmetry_multiplicity
 _atom_site_fract_x
 _atom_site_fract_y
 _atom_site_fract_z
 _atom_site_occupancy
  Ba  Ba0  1  0.90023723  1.25000000  -0.40023723  1.0
  Ba  Ba1  1  1.40023723  0.09976277  -0.25000000  1.0
  Ba  Ba2  1  0.75000000  0.40023723  0.09976277  1.0
  Ba  Ba3  1  1.25000000  0.59976277  -0.09976277  1.0
  Ba  Ba4  1  1.09976277  -0.25000000  0.40023723  1.0
  Ba  Ba5  1  0.59976277  0.90023723  0.25000000  1.0
  Na  Na6  1  0.25000000  0.25000000  0.25000000  1.0
  Na  Na7  1  0.75000000  0.75000000  0.75000000  1.0
  Sb  Sb8  1  0.50000000  0.50000000  0.50000000  1.0
  Sb  Sb9  1  0.00000000  0.00000000  0.00000000  1.0
  O  O10  1  1.23158399  0.41997274  -0.44806179  1.0
  O  O11  1  0.73158399  1.05193821  -0.08002726  1.0
  O  O12  1  0.94806179  0.08002726  0.26841601  1.0
  O  O13  1  1.44806179  -0.23158399  0.58002726  1.0
  O  O14  1  1.58002726  0.44806179  -0.23158399  1.0
  O  O15  1  1.08002726  0.26841601  -0.05193821  1.0
  O  O16  1  0.76841601  0.58002726  0.44806179  1.0
  O  O17  1  1.26841601  -0.05193821  0.08002726  1.0
  O  O18  1  0.55193821  1.23158399  -0.58002726  1.0
  O  O19  1  1.05193821  0.91997274  -0.26841601  1.0
  O  O20  1  0.91997274  0.73158399  0.05193821  1.0
  O  O21  1  0.41997274  0.55193821  0.23158399  1.0
