# generated using pymatgen
data_FePH12(CCl)4
_symmetry_space_group_name_H-M   'P 1'
_cell_length_a   7.94009308
_cell_length_b   7.94009308
_cell_length_c   12.98643250
_cell_angle_alpha   90.00000000
_cell_angle_beta   90.00000000
_cell_angle_gamma   120.00000000
_symmetry_Int_Tables_number   1
_chemical_formula_structural   FePH12(CCl)4
_chemical_formula_sum   'Fe2 P2 H24 C8 Cl8'
_cell_volume   709.04154308
_cell_formula_units_Z   2
loop_
 _symmetry_equiv_pos_site_id
 _symmetry_equiv_pos_as_xyz
  1  'x, y, z'
loop_
 _atom_site_type_symbol
 _atom_site_label
 _atom_site_symmetry_multiplicity
 _atom_site_fract_x
 _atom_site_fract_y
 _atom_site_fract_z
 _atom_site_occupancy
  Fe  Fe0  1  0.00000000  0.00000000  0.95994507  1.0
  Fe  Fe1  1  0.00000000  0.00000000  0.45994507  1.0
  P  P2  1  0.33333333  0.66666667  0.70449718  1.0
  P  P3  1  0.66666667  0.33333333  0.20449718  1.0
  H  H4  1  0.25788193  0.51576386  0.53835735  1.0
  H  H5  1  0.48423614  0.74211807  0.53835735  1.0
  H  H6  1  0.25788193  0.74211807  0.53835735  1.0
  H  H7  1  0.74211807  0.48423614  0.03835735  1.0
  H  H8  1  0.51576386  0.25788193  0.03835735  1.0
  H  H9  1  0.74211807  0.25788193  0.03835735  1.0
  H  H10  1  0.45642594  0.54357406  0.83517232  1.0
  H  H11  1  0.45642594  0.91285188  0.83517232  1.0
  H  H12  1  0.08714812  0.54357406  0.83517232  1.0
  H  H13  1  0.54357406  0.45642594  0.33517232  1.0
  H  H14  1  0.54357406  0.08714812  0.33517232  1.0
  H  H15  1  0.91285188  0.45642594  0.33517232  1.0
  H  H16  1  0.60705833  0.61937468  0.72215271  1.0
  H  H17  1  0.38062532  0.98768365  0.72215271  1.0
  H  H18  1  0.01231635  0.39294167  0.72215271  1.0
  H  H19  1  0.38062532  0.39294167  0.72215271  1.0
  H  H20  1  0.01231635  0.61937468  0.72215271  1.0
  H  H21  1  0.60705833  0.98768365  0.72215271  1.0
  H  H22  1  0.39294167  0.38062532  0.22215271  1.0
  H  H23  1  0.61937468  0.01231635  0.22215271  1.0
  H  H24  1  0.98768365  0.60705833  0.22215271  1.0
  H  H25  1  0.61937468  0.60705833  0.22215271  1.0
  H  H26  1  0.98768365  0.38062532  0.22215271  1.0
  H  H27  1  0.39294167  0.01231635  0.22215271  1.0
  C  C28  1  0.33333333  0.66666667  0.56596073  1.0
  C  C29  1  0.66666667  0.33333333  0.06596073  1.0
  C  C30  1  0.45674670  0.54325330  0.75064044  1.0
  C  C31  1  0.45674670  0.91349340  0.75064044  1.0
  C  C32  1  0.08650660  0.54325330  0.75064044  1.0
  C  C33  1  0.54325330  0.45674670  0.25064044  1.0
  C  C34  1  0.54325330  0.08650660  0.25064044  1.0
  C  C35  1  0.91349340  0.45674670  0.25064044  1.0
  Cl  Cl36  1  0.00000000  0.00000000  0.78972595  1.0
  Cl  Cl37  1  0.00000000  0.00000000  0.28972595  1.0
  Cl  Cl38  1  0.69559105  0.84779553  0.01544816  1.0
  Cl  Cl39  1  0.15220447  0.84779553  0.01544816  1.0
  Cl  Cl40  1  0.15220447  0.30440895  0.01544816  1.0
  Cl  Cl41  1  0.30440895  0.15220447  0.51544816  1.0
  Cl  Cl42  1  0.84779553  0.15220447  0.51544816  1.0
  Cl  Cl43  1  0.84779553  0.69559105  0.51544816  1.0
