# generated using pymatgen
data_TiS2
_symmetry_space_group_name_H-M   'P 1'
_cell_length_a   11.35493102
_cell_length_b   3.41363679
_cell_length_c   3.41402063
_cell_angle_alpha   60.00716648
_cell_angle_beta   81.50030093
_cell_angle_gamma   82.73763432
_symmetry_Int_Tables_number   1
_chemical_formula_structural   TiS2
_chemical_formula_sum   'Ti1 S2'
_cell_volume   113.13980899
_cell_formula_units_Z   1
loop_
 _symmetry_equiv_pos_site_id
 _symmetry_equiv_pos_as_xyz
  1  'x, y, z'
loop_
 _atom_site_type_symbol
 _atom_site_label
 _atom_site_symmetry_multiplicity
 _atom_site_fract_x
 _atom_site_fract_y
 _atom_site_fract_z
 _atom_site_occupancy
  Ti  Ti0  1  0.00000000  0.00000000  0.00000000  1.0
  S  S1  1  0.87341360  0.36268914  0.38096065  1.0
  S  S2  1  0.12658640  0.63731086  0.61903935  1.0
