# generated using pymatgen
data_Mo2C
_symmetry_space_group_name_H-M   'P 1'
_cell_length_a   4.74398922
_cell_length_b   6.05932901
_cell_length_c   5.22243890
_cell_angle_alpha   90.00000000
_cell_angle_beta   90.00000000
_cell_angle_gamma   90.00000000
_symmetry_Int_Tables_number   1
_chemical_formula_structural   Mo2C
_chemical_formula_sum   'Mo8 C4'
_cell_volume   150.12105096
_cell_formula_units_Z   4
loop_
 _symmetry_equiv_pos_site_id
 _symmetry_equiv_pos_as_xyz
  1  'x, y, z'
loop_
 _atom_site_type_symbol
 _atom_site_label
 _atom_site_symmetry_multiplicity
 _atom_site_fract_x
 _atom_site_fract_y
 _atom_site_fract_z
 _atom_site_occupancy
  Mo  Mo0  1  0.25372859  0.37751098  0.07963139  1.0
  Mo  Mo1  1  0.25372859  0.62248902  0.57963139  1.0
  Mo  Mo2  1  0.75372859  0.87751098  0.42036861  1.0
  Mo  Mo3  1  0.75372859  0.12248902  0.92036861  1.0
  Mo  Mo4  1  0.74627141  0.37751098  0.42036861  1.0
  Mo  Mo5  1  0.74627141  0.62248902  0.92036861  1.0
  Mo  Mo6  1  0.24627141  0.87751098  0.07963139  1.0
  Mo  Mo7  1  0.24627141  0.12248902  0.57963139  1.0
  C  C8  1  0.50000000  0.12291338  0.25000000  1.0
  C  C9  1  0.50000000  0.87708662  0.75000000  1.0
  C  C10  1  0.00000000  0.62291338  0.25000000  1.0
  C  C11  1  0.00000000  0.37708662  0.75000000  1.0
