# generated using pymatgen
data_P2CS2(OF)2
_symmetry_space_group_name_H-M   'P 1'
_cell_length_a   8.87073152
_cell_length_b   7.14387750
_cell_length_c   15.01876495
_cell_angle_alpha   90.00000000
_cell_angle_beta   115.95767120
_cell_angle_gamma   90.00000000
_symmetry_Int_Tables_number   1
_chemical_formula_structural   P2CS2(OF)2
_chemical_formula_sum   'P8 C4 S8 O8 F8'
_cell_volume   855.74462868
_cell_formula_units_Z   4
loop_
 _symmetry_equiv_pos_site_id
 _symmetry_equiv_pos_as_xyz
  1  'x, y, z'
loop_
 _atom_site_type_symbol
 _atom_site_label
 _atom_site_symmetry_multiplicity
 _atom_site_fract_x
 _atom_site_fract_y
 _atom_site_fract_z
 _atom_site_occupancy
  P  P0  1  0.87886347  0.60489080  0.14321310  1.0
  P  P1  1  0.12113653  0.60489080  0.35678690  1.0
  P  P2  1  0.12113653  0.39510920  0.85678690  1.0
  P  P3  1  0.87886347  0.39510920  0.64321310  1.0
  P  P4  1  0.87539210  0.91907583  0.29167783  1.0
  P  P5  1  0.12460790  0.91907583  0.20832217  1.0
  P  P6  1  0.12460790  0.08092417  0.70832217  1.0
  P  P7  1  0.87539210  0.08092417  0.79167783  1.0
  C  C8  1  0.74596010  0.76199430  0.18267547  1.0
  C  C9  1  0.25403990  0.76199430  0.31732453  1.0
  C  C10  1  0.25403990  0.23800570  0.81732453  1.0
  C  C11  1  0.74596010  0.23800570  0.68267547  1.0
  S  S12  1  0.76970362  0.43985437  0.03574661  1.0
  S  S13  1  0.23029638  0.43985437  0.46425339  1.0
  S  S14  1  0.23029638  0.56014563  0.96425339  1.0
  S  S15  1  0.76970362  0.56014563  0.53574661  1.0
  S  S16  1  0.76283964  0.08410554  0.34049146  1.0
  S  S17  1  0.23716036  0.08410554  0.15950854  1.0
  S  S18  1  0.23716036  0.91589446  0.65950854  1.0
  S  S19  1  0.76283964  0.91589446  0.84049146  1.0
  O  O20  1  -0.00000000  0.50719550  0.25000000  1.0
  O  O21  1  -0.00000000  0.49280450  0.75000000  1.0
  O  O22  1  -0.00000000  0.01665375  0.25000000  1.0
  O  O23  1  -0.00000000  0.98334625  0.75000000  1.0
  O  O24  1  0.99711969  0.76186789  0.37036609  1.0
  O  O25  1  0.00288031  0.76186789  0.12963391  1.0
  O  O26  1  0.00288031  0.23813211  0.62963391  1.0
  O  O27  1  0.99711969  0.23813211  0.87036609  1.0
  F  F28  1  0.64719794  0.87207112  0.10402986  1.0
  F  F29  1  0.35280206  0.87207112  0.39597014  1.0
  F  F30  1  0.35280206  0.12792888  0.89597014  1.0
  F  F31  1  0.64719794  0.12792888  0.60402986  1.0
  F  F32  1  0.64488925  0.65179282  0.20838691  1.0
  F  F33  1  0.35511075  0.65179282  0.29161309  1.0
  F  F34  1  0.35511075  0.34820718  0.79161309  1.0
  F  F35  1  0.64488925  0.34820718  0.70838691  1.0
