# generated using pymatgen
data_KLiSO4
_symmetry_space_group_name_H-M   'P 1'
_cell_length_a   8.57842830
_cell_length_b   9.06955229
_cell_length_c   5.27213027
_cell_angle_alpha   90.00000000
_cell_angle_beta   90.00000000
_cell_angle_gamma   90.00000000
_symmetry_Int_Tables_number   1
_chemical_formula_structural   KLiSO4
_chemical_formula_sum   'K4 Li4 S4 O16'
_cell_volume   410.18493630
_cell_formula_units_Z   4
loop_
 _symmetry_equiv_pos_site_id
 _symmetry_equiv_pos_as_xyz
  1  'x, y, z'
loop_
 _atom_site_type_symbol
 _atom_site_label
 _atom_site_symmetry_multiplicity
 _atom_site_fract_x
 _atom_site_fract_y
 _atom_site_fract_z
 _atom_site_occupancy
  K  K0  1  0.49679065  0.76542164  0.02638333  1.0
  K  K1  1  -0.00320935  0.73457836  0.02638333  1.0
  K  K2  1  0.50320935  0.23457836  0.52638333  1.0
  K  K3  1  1.00320935  0.26542164  0.52638333  1.0
  Li  Li4  1  0.18826466  0.91275926  0.52135263  1.0
  Li  Li5  1  0.68826466  0.58724074  0.52135263  1.0
  Li  Li6  1  0.81173534  0.08724074  0.02135263  1.0
  Li  Li7  1  0.31173534  0.41275926  0.02135263  1.0
  S  S8  1  0.29085132  0.57838722  0.52212015  1.0
  S  S9  1  0.79085132  0.92161278  0.52212015  1.0
  S  S10  1  0.70914868  0.42161278  0.02212015  1.0
  S  S11  1  0.20914868  0.07838722  0.02212015  1.0
  O  O12  1  0.46406584  0.58666887  0.53501931  1.0
  O  O13  1  0.96406584  0.91333113  0.53501931  1.0
  O  O14  1  0.53593416  0.41333113  1.03501931  1.0
  O  O15  1  0.03593416  0.08666887  1.03501931  1.0
  O  O16  1  0.27000034  0.21557816  -0.10046200  1.0
  O  O17  1  0.77000034  0.28442184  -0.10046200  1.0
  O  O18  1  0.72999966  0.78442184  0.39953800  1.0
  O  O19  1  0.22999966  0.71557816  0.39953800  1.0
  O  O20  1  0.25751842  -0.05274229  0.86723257  1.0
  O  O21  1  0.75751842  0.55274229  0.86723257  1.0
  O  O22  1  0.74248158  1.05274229  0.36723257  1.0
  O  O23  1  0.24248158  0.44725771  0.36723257  1.0
  O  O24  1  0.22635948  0.56285637  0.78535400  1.0
  O  O25  1  0.72635948  0.93714363  0.78535400  1.0
  O  O26  1  0.77364052  0.43714363  0.28535400  1.0
  O  O27  1  0.27364052  0.06285637  0.28535400  1.0
