# generated using pymatgen
data_Sc2Si4W3
_symmetry_space_group_name_H-M   'P 1'
_cell_length_a   6.55028088
_cell_length_b   12.64441589
_cell_length_c   6.77788876
_cell_angle_alpha   90.00000000
_cell_angle_beta   90.00000000
_cell_angle_gamma   90.00000000
_symmetry_Int_Tables_number   1
_chemical_formula_structural   Sc2Si4W3
_chemical_formula_sum   'Sc8 Si16 W12'
_cell_volume   561.37508251
_cell_formula_units_Z   4
loop_
 _symmetry_equiv_pos_site_id
 _symmetry_equiv_pos_as_xyz
  1  'x, y, z'
loop_
 _atom_site_type_symbol
 _atom_site_label
 _atom_site_symmetry_multiplicity
 _atom_site_fract_x
 _atom_site_fract_y
 _atom_site_fract_z
 _atom_site_occupancy
  Sc  Sc0  1  0.50467008  0.90860383  0.67000561  1.0
  Sc  Sc1  1  0.50467008  0.59139617  0.67000561  1.0
  Sc  Sc2  1  1.00467008  0.90860383  0.82999439  1.0
  Sc  Sc3  1  1.00467008  0.59139617  0.82999439  1.0
  Sc  Sc4  1  0.49532992  0.40860383  0.32999439  1.0
  Sc  Sc5  1  0.49532992  0.09139617  0.32999439  1.0
  Sc  Sc6  1  -0.00467008  0.40860383  0.17000561  1.0
  Sc  Sc7  1  -0.00467008  0.09139617  0.17000561  1.0
  Si  Si8  1  0.33294058  0.45589839  0.96209300  1.0
  Si  Si9  1  0.33294058  0.04410161  0.96209300  1.0
  Si  Si10  1  0.83294058  0.45589839  0.53790700  1.0
  Si  Si11  1  0.83294058  0.04410161  0.53790700  1.0
  Si  Si12  1  0.66705942  0.95589839  0.03790700  1.0
  Si  Si13  1  0.66705942  0.54410161  0.03790700  1.0
  Si  Si14  1  0.16705942  0.95589839  0.46209300  1.0
  Si  Si15  1  0.16705942  0.54410161  0.46209300  1.0
  Si  Si16  1  0.46769419  0.25000000  0.61876597  1.0
  Si  Si17  1  0.96769419  0.25000000  0.88123403  1.0
  Si  Si18  1  0.53230581  0.75000000  0.38123403  1.0
  Si  Si19  1  0.03230581  0.75000000  0.11876597  1.0
  Si  Si20  1  0.20143570  0.25000000  0.35608861  1.0
  Si  Si21  1  0.70143570  0.25000000  0.14391139  1.0
  Si  Si22  1  0.79856430  0.75000000  0.64391139  1.0
  Si  Si23  1  0.29856430  0.75000000  0.85608861  1.0
  W  W24  1  0.17028921  0.37594330  0.66412849  1.0
  W  W25  1  0.17028921  0.12405670  0.66412849  1.0
  W  W26  1  0.67028921  0.37594330  0.83587151  1.0
  W  W27  1  0.67028921  0.12405670  0.83587151  1.0
  W  W28  1  0.82971079  0.87594330  0.33587151  1.0
  W  W29  1  0.82971079  0.62405670  0.33587151  1.0
  W  W30  1  0.32971079  0.87594330  0.16412849  1.0
  W  W31  1  0.32971079  0.62405670  0.16412849  1.0
  W  W32  1  0.33716299  0.25000000  0.00247780  1.0
  W  W33  1  0.83716299  0.25000000  0.49752220  1.0
  W  W34  1  0.66283701  0.75000000  0.99752220  1.0
  W  W35  1  0.16283701  0.75000000  0.50247780  1.0
