# generated using pymatgen
data_Na2Ti2Si4O13
_symmetry_space_group_name_H-M   'P 1'
_cell_length_a   13.17142348
_cell_length_b   13.17142348
_cell_length_c   5.28396069
_cell_angle_alpha   80.52242476
_cell_angle_beta   99.47757524
_cell_angle_gamma   141.11706992
_symmetry_Int_Tables_number   1
_chemical_formula_structural   Na2Ti2Si4O13
_chemical_formula_sum   'Na4 Ti4 Si8 O26'
_cell_volume   566.59733366
_cell_formula_units_Z   2
loop_
 _symmetry_equiv_pos_site_id
 _symmetry_equiv_pos_as_xyz
  1  'x, y, z'
loop_
 _atom_site_type_symbol
 _atom_site_label
 _atom_site_symmetry_multiplicity
 _atom_site_fract_x
 _atom_site_fract_y
 _atom_site_fract_z
 _atom_site_occupancy
  Na  Na0  1  0.35024547  0.04895959  0.29628301  1.0
  Na  Na1  1  0.95104041  0.64975453  0.79628301  1.0
  Na  Na2  1  1.04895959  0.35024547  0.20371699  1.0
  Na  Na3  1  0.64975453  -0.04895959  0.70371699  1.0
  Ti  Ti4  1  0.44157915  -0.25908412  0.21462639  1.0
  Ti  Ti5  1  1.25908412  0.55842085  0.71462639  1.0
  Ti  Ti6  1  0.74091588  0.44157915  0.28537361  1.0
  Ti  Ti7  1  0.55842085  0.25908412  0.78537361  1.0
  Si  Si8  1  0.83292532  -0.03769384  0.20832682  1.0
  Si  Si9  1  1.03769384  0.16707468  0.70832682  1.0
  Si  Si10  1  0.96230616  0.83292532  0.29167318  1.0
  Si  Si11  1  0.16707468  0.03769384  0.79167318  1.0
  Si  Si12  1  0.67555821  0.14089959  0.22288009  1.0
  Si  Si13  1  0.85910041  0.32444179  0.72288009  1.0
  Si  Si14  1  1.14089959  0.67555821  0.27711991  1.0
  Si  Si15  1  0.32444179  -0.14089959  0.77711991  1.0
  O  O16  1  0.64932935  -0.14353963  0.12604124  1.0
  O  O17  1  1.14353963  0.35067065  0.62604124  1.0
  O  O18  1  0.85646037  0.64932935  0.37395876  1.0
  O  O19  1  0.35067065  0.14353963  0.87395876  1.0
  O  O20  1  0.80068603  0.21532290  0.48669048  1.0
  O  O21  1  0.78467710  0.19931397  0.98669048  1.0
  O  O22  1  1.21532290  0.80068603  0.01330952  1.0
  O  O23  1  0.19931397  -0.21532290  0.51330952  1.0
  O  O24  1  0.53390649  -0.05344983  0.27416803  1.0
  O  O25  1  1.05344983  0.46609351  0.77416803  1.0
  O  O26  1  0.94655017  0.53390649  0.22583197  1.0
  O  O27  1  0.46609351  0.05344983  0.72583198  1.0
  O  O28  1  0.61891884  0.21736800  0.16886417  1.0
  O  O29  1  0.78263200  0.38108116  0.66886417  1.0
  O  O30  1  1.21736800  0.61891884  0.33113583  1.0
  O  O31  1  0.38108116  -0.21736800  0.83113583  1.0
  O  O32  1  0.55073995  0.31563612  0.45463879  1.0
  O  O33  1  0.68436388  0.44926005  0.95463879  1.0
  O  O34  1  1.31563612  0.55073995  0.04536121  1.0
  O  O35  1  0.44926005  -0.31563612  0.54536121  1.0
  O  O36  1  0.10572448  -0.05248682  0.52442403  1.0
  O  O37  1  1.05248682  0.89427552  1.02442403  1.0
  O  O38  1  0.94751318  0.10572448  -0.02442403  1.0
  O  O39  1  0.89427552  0.05248682  0.47557597  1.0
  O  O40  1  0.85559661  0.85559661  0.25000000  1.0
  O  O41  1  0.14440339  0.14440339  0.75000000  1.0
