# generated using pymatgen
data_Cu2BiO2
_symmetry_space_group_name_H-M   'P 1'
_cell_length_a   10.08355808
_cell_length_b   10.08355808
_cell_length_c   7.16900197
_cell_angle_alpha   90.00000000
_cell_angle_beta   90.00000000
_cell_angle_gamma   90.00000000
_symmetry_Int_Tables_number   1
_chemical_formula_structural   Cu2BiO2
_chemical_formula_sum   'Cu16 Bi8 O16'
_cell_volume   728.93081168
_cell_formula_units_Z   8
loop_
 _symmetry_equiv_pos_site_id
 _symmetry_equiv_pos_as_xyz
  1  'x, y, z'
loop_
 _atom_site_type_symbol
 _atom_site_label
 _atom_site_symmetry_multiplicity
 _atom_site_fract_x
 _atom_site_fract_y
 _atom_site_fract_z
 _atom_site_occupancy
  Cu  Cu0  1  -0.00000981  0.19377537  1.00003314  1.0
  Cu  Cu1  1  -0.00000981  0.80622463  0.50003314  1.0
  Cu  Cu2  1  0.49999019  0.69377537  -0.00003314  1.0
  Cu  Cu3  1  0.49999019  0.30622463  0.49996686  1.0
  Cu  Cu4  1  0.19377537  -0.00000981  0.49996686  1.0
  Cu  Cu5  1  0.19377537  1.00000981  -0.00003314  1.0
  Cu  Cu6  1  0.69377537  0.49999019  0.50003314  1.0
  Cu  Cu7  1  0.69377537  0.50000981  1.00003314  1.0
  Cu  Cu8  1  1.00000981  0.19377537  0.50003314  1.0
  Cu  Cu9  1  1.00000981  0.80622463  1.00003314  1.0
  Cu  Cu10  1  0.50000981  0.69377537  0.49996686  1.0
  Cu  Cu11  1  0.50000981  0.30622463  -0.00003314  1.0
  Cu  Cu12  1  0.80622463  -0.00000981  -0.00003314  1.0
  Cu  Cu13  1  0.80622463  1.00000981  0.49996686  1.0
  Cu  Cu14  1  0.30622463  0.49999019  1.00003314  1.0
  Cu  Cu15  1  0.30622463  0.50000981  0.50003314  1.0
  Bi  Bi16  1  0.24710566  0.75289434  0.75000000  1.0
  Bi  Bi17  1  0.24710566  0.24710566  0.25000000  1.0
  Bi  Bi18  1  0.74710566  0.25289434  0.25000000  1.0
  Bi  Bi19  1  0.74710566  0.74710566  0.75000000  1.0
  Bi  Bi20  1  0.75289434  0.24710566  0.75000000  1.0
  Bi  Bi21  1  0.75289434  0.75289434  0.25000000  1.0
  Bi  Bi22  1  0.25289434  0.74710566  0.25000000  1.0
  Bi  Bi23  1  0.25289434  0.25289434  0.75000000  1.0
  O  O24  1  0.47613497  0.26064789  0.74996827  1.0
  O  O25  1  0.47613497  0.73935211  0.24996827  1.0
  O  O26  1  0.97613497  0.76064789  0.25003173  1.0
  O  O27  1  0.97613497  0.23935211  0.75003173  1.0
  O  O28  1  0.26064789  0.47613497  0.75003173  1.0
  O  O29  1  0.26064789  0.52386503  0.25003173  1.0
  O  O30  1  0.76064789  0.97613497  0.24996827  1.0
  O  O31  1  0.76064789  0.02386503  0.74996827  1.0
  O  O32  1  0.52386503  0.26064789  0.24996827  1.0
  O  O33  1  0.52386503  0.73935211  0.74996827  1.0
  O  O34  1  0.02386503  0.76064789  0.75003173  1.0
  O  O35  1  0.02386503  0.23935211  0.25003173  1.0
  O  O36  1  0.73935211  0.47613497  0.25003173  1.0
  O  O37  1  0.73935211  0.52386503  0.75003173  1.0
  O  O38  1  0.23935211  0.97613497  0.74996827  1.0
  O  O39  1  0.23935211  0.02386503  0.24996827  1.0
