# generated using pymatgen
data_LaMn7O12
_symmetry_space_group_name_H-M   'P 1'
_cell_length_a   6.50086592
_cell_length_b   6.50086592
_cell_length_c   7.50562258
_cell_angle_alpha   54.73655941
_cell_angle_beta   125.26344059
_cell_angle_gamma   109.46021751
_symmetry_Int_Tables_number   1
_chemical_formula_structural   LaMn7O12
_chemical_formula_sum   'La1 Mn7 O12'
_cell_volume   211.46964772
_cell_formula_units_Z   1
loop_
 _symmetry_equiv_pos_site_id
 _symmetry_equiv_pos_as_xyz
  1  'x, y, z'
loop_
 _atom_site_type_symbol
 _atom_site_label
 _atom_site_symmetry_multiplicity
 _atom_site_fract_x
 _atom_site_fract_y
 _atom_site_fract_z
 _atom_site_occupancy
  La  La0  1  -0.00000000  0.00000000  0.50000000  1.0
  Mn  Mn1  1  0.50000000  0.00000000  0.00000000  1.0
  Mn  Mn2  1  1.00000000  -0.50000000  -0.00000000  1.0
  Mn  Mn3  1  1.00000000  0.50000000  0.50000000  1.0
  Mn  Mn4  1  0.50000000  0.00000000  0.50000000  1.0
  Mn  Mn5  1  0.50000000  -0.50000000  0.50000000  1.0
  Mn  Mn6  1  0.50000000  0.50000000  -0.00000000  1.0
  Mn  Mn7  1  -0.00000000  0.00000000  -0.00000000  1.0
  O  O8  1  0.48445189  -0.13355412  0.80902810  1.0
  O  O9  1  1.13355412  0.51554811  0.80902810  1.0
  O  O10  1  0.86644588  0.48445189  0.19097190  1.0
  O  O11  1  0.51554811  0.13355412  0.19097190  1.0
  O  O12  1  0.69096293  -0.30906177  0.32450430  1.0
  O  O13  1  0.30906177  0.30903707  0.32450430  1.0
  O  O14  1  0.69093823  -0.30903707  0.67549570  1.0
  O  O15  1  1.30903707  -0.69093823  0.67549570  1.0
  O  O16  1  0.17551228  -0.17551228  0.36646333  1.0
  O  O17  1  0.82448772  0.17551228  0.63353667  1.0
  O  O18  1  0.82447403  0.17552597  0.01535968  1.0
  O  O19  1  0.17552597  -0.17552597  0.98464032  1.0
