# generated using pymatgen
data_Cs2P3
_symmetry_space_group_name_H-M   'P 1'
_cell_length_a   9.18460056
_cell_length_b   9.03044030
_cell_length_c   6.96525196
_cell_angle_alpha   68.69500928
_cell_angle_beta   66.35128507
_cell_angle_gamma   44.95370565
_symmetry_Int_Tables_number   1
_chemical_formula_structural   Cs2P3
_chemical_formula_sum   'Cs4 P6'
_cell_volume   371.06277484
_cell_formula_units_Z   2
loop_
 _symmetry_equiv_pos_site_id
 _symmetry_equiv_pos_as_xyz
  1  'x, y, z'
loop_
 _atom_site_type_symbol
 _atom_site_label
 _atom_site_symmetry_multiplicity
 _atom_site_fract_x
 _atom_site_fract_y
 _atom_site_fract_z
 _atom_site_occupancy
  Cs  Cs0  1  -0.25000000  0.75000000  0.75000000  1.0
  Cs  Cs1  1  0.25000000  0.25000000  1.25000000  1.0
  Cs  Cs2  1  -0.28133109  0.28133109  0.71866891  1.0
  Cs  Cs3  1  0.28133109  -0.28133109  1.28133109  1.0
  P  P4  1  0.12577138  0.73287211  -0.12577138  1.0
  P  P5  1  -0.73287211  0.87422862  0.73287211  1.0
  P  P6  1  -0.26712789  1.12577138  0.26712789  1.0
  P  P7  1  -0.12577138  0.26712789  0.12577138  1.0
  P  P8  1  -0.14251072  0.85748928  0.14251072  1.0
  P  P9  1  0.14251072  0.14251072  -0.14251072  1.0
