# generated using pymatgen
data_ZnS
_symmetry_space_group_name_H-M   'P 1'
_cell_length_a   3.84940453
_cell_length_b   3.84940453
_cell_length_c   75.51506419
_cell_angle_alpha   90.00000000
_cell_angle_beta   90.00000000
_cell_angle_gamma   120.00000000
_symmetry_Int_Tables_number   1
_chemical_formula_structural   ZnS
_chemical_formula_sum   'Zn24 S24'
_cell_volume   969.06148792
_cell_formula_units_Z   24
loop_
 _symmetry_equiv_pos_site_id
 _symmetry_equiv_pos_as_xyz
  1  'x, y, z'
loop_
 _atom_site_type_symbol
 _atom_site_label
 _atom_site_symmetry_multiplicity
 _atom_site_fract_x
 _atom_site_fract_y
 _atom_site_fract_z
 _atom_site_occupancy
  Zn  Zn0  1  -0.00000000  -0.00000000  0.00001247  1.0
  Zn  Zn1  1  0.66666667  0.33333333  0.04170845  1.0
  Zn  Zn2  1  0.33333333  0.66666667  0.08334501  1.0
  Zn  Zn3  1  -0.00000000  -0.00000000  0.12500444  1.0
  Zn  Zn4  1  0.66666667  0.33333333  0.16666301  1.0
  Zn  Zn5  1  0.33333333  0.66666667  0.20830550  1.0
  Zn  Zn6  1  0.00000000  0.00000000  0.25000578  1.0
  Zn  Zn7  1  0.33333333  0.66666667  0.29170780  1.0
  Zn  Zn8  1  0.66666667  0.33333333  0.33334474  1.0
  Zn  Zn9  1  0.00000000  0.00000000  0.37499793  1.0
  Zn  Zn10  1  0.33333333  0.66666667  0.41663783  1.0
  Zn  Zn11  1  0.66666667  0.33333333  0.45833807  1.0
  Zn  Zn12  1  0.33333333  0.66666667  0.50003387  1.0
  Zn  Zn13  1  -0.00000000  -0.00000000  0.54164493  1.0
  Zn  Zn14  1  0.66666667  0.33333333  0.58333996  1.0
  Zn  Zn15  1  0.00000000  0.00000000  0.62504169  1.0
  Zn  Zn16  1  0.33333333  0.66666667  0.66667700  1.0
  Zn  Zn17  1  0.66666667  0.33333333  0.70833128  1.0
  Zn  Zn18  1  0.00000000  0.00000000  0.74997187  1.0
  Zn  Zn19  1  0.33333333  0.66666667  0.79167052  1.0
  Zn  Zn20  1  -0.00000000  -0.00000000  0.83336689  1.0
  Zn  Zn21  1  0.66666667  0.33333333  0.87497749  1.0
  Zn  Zn22  1  0.33333333  0.66666667  0.91666393  1.0
  Zn  Zn23  1  0.66666667  0.33333333  0.95834161  1.0
  S  S24  1  0.00000000  0.00000000  0.03129080  1.0
  S  S25  1  0.66666667  0.33333333  0.07293014  1.0
  S  S26  1  0.33333333  0.66666667  0.11458058  1.0
  S  S27  1  0.00000000  0.00000000  0.15624113  1.0
  S  S28  1  0.66666667  0.33333333  0.19789472  1.0
  S  S29  1  0.33333333  0.66666667  0.23953341  1.0
  S  S30  1  0.00000000  0.00000000  0.28128698  1.0
  S  S31  1  0.33333333  0.66666667  0.32292912  1.0
  S  S32  1  0.66666667  0.33333333  0.36457858  1.0
  S  S33  1  0.00000000  0.00000000  0.40622820  1.0
  S  S34  1  0.33333333  0.66666667  0.44786555  1.0
  S  S35  1  0.66666667  0.33333333  0.48961788  1.0
  S  S36  1  0.33333333  0.66666667  0.53124680  1.0
  S  S37  1  -0.00000000  -0.00000000  0.57286937  1.0
  S  S38  1  0.66666667  0.33333333  0.61462123  1.0
  S  S39  1  0.00000000  0.00000000  0.65626250  1.0
  S  S40  1  0.33333333  0.66666667  0.69791119  1.0
  S  S41  1  0.66666667  0.33333333  0.73956195  1.0
  S  S42  1  -0.00000000  -0.00000000  0.78119880  1.0
  S  S43  1  0.33333333  0.66666667  0.82295048  1.0
  S  S44  1  0.00000000  0.00000000  0.86458017  1.0
  S  S45  1  0.66666667  0.33333333  0.90619927  1.0
  S  S46  1  0.33333333  0.66666667  0.94793725  1.0
  S  S47  1  0.66666667  0.33333333  0.98955184  1.0
