# generated using pymatgen
data_Na2MnFe2(PO4)3
_symmetry_space_group_name_H-M   'P 1'
_cell_length_a   8.72469208
_cell_length_b   8.72469208
_cell_length_c   6.62742544
_cell_angle_alpha   73.71341062
_cell_angle_beta   106.28658938
_cell_angle_gamma   86.84894675
_symmetry_Int_Tables_number   1
_chemical_formula_structural   Na2MnFe2(PO4)3
_chemical_formula_sum   'Na4 Mn2 Fe4 P6 O24'
_cell_volume   459.89126629
_cell_formula_units_Z   2
loop_
 _symmetry_equiv_pos_site_id
 _symmetry_equiv_pos_as_xyz
  1  'x, y, z'
loop_
 _atom_site_type_symbol
 _atom_site_label
 _atom_site_symmetry_multiplicity
 _atom_site_fract_x
 _atom_site_fract_y
 _atom_site_fract_z
 _atom_site_occupancy
  P  P0  1  0.37190479  -0.15813809  0.88225877  1.0
  P  P1  1  1.15813809  0.62809521  0.38225877  1.0
  P  P2  1  0.84186191  -0.62809521  0.61774123  1.0
  P  P3  1  1.62809521  0.15813809  0.11774123  1.0
  P  P4  1  0.78691036  -0.21308964  0.75000000  1.0
  P  P5  1  1.21308964  0.21308964  0.25000000  1.0
  O  O6  1  1.66972601  0.32559105  0.60495081  1.0
  O  O7  1  0.67440895  -0.66972601  0.10495081  1.0
  O  O8  1  1.32559105  0.66972601  0.89504919  1.0
  O  O9  1  0.33027399  -0.32559105  0.39504919  1.0
  O  O10  1  0.22528753  -0.02945599  0.82997973  1.0
  O  O11  1  1.02945599  0.77471247  0.32997973  1.0
  O  O12  1  0.97054401  -0.77471247  0.67002027  1.0
  O  O13  1  1.77471247  0.02945599  0.17002027  1.0
  O  O14  1  0.45247175  -0.10439114  0.69320021  1.0
  O  O15  1  1.10439114  0.54752825  0.19320021  1.0
  O  O16  1  0.89560886  -0.54752825  0.80679979  1.0
  O  O17  1  1.54752825  0.10439114  0.30679979  1.0
  O  O18  1  0.76043557  -0.03564258  0.74971893  1.0
  O  O19  1  1.03564258  0.23956443  0.24971893  1.0
  O  O20  1  0.96435742  -0.23956443  0.75028107  1.0
  O  O21  1  1.23956443  0.03564258  0.25028107  1.0
  O  O22  1  0.67260993  -0.24067724  0.53795889  1.0
  O  O23  1  1.24067724  0.32739007  0.03795889  1.0
  O  O24  1  0.75932276  -0.32739007  0.96204111  1.0
  O  O25  1  1.32739007  0.24067724  0.46204111  1.0
  O  O26  1  1.49896973  0.17353672  0.88994878  1.0
  O  O27  1  0.82646328  -0.49896973  0.38994878  1.0
  O  O28  1  1.17353672  0.49896973  0.61005122  1.0
  O  O29  1  0.50103027  -0.17353672  0.11005122  1.0
  Fe  Fe30  1  1.55865284  0.11582242  0.62537548  1.0
  Fe  Fe31  1  0.88417758  -0.55865284  0.12537548  1.0
  Fe  Fe32  1  1.11582242  0.55865284  0.87462452  1.0
  Fe  Fe33  1  0.44134716  -0.11582242  0.37462452  1.0
  Mn  Mn34  1  1.23064245  0.23064245  0.75000000  1.0
  Mn  Mn35  1  0.76935755  -0.23064245  0.25000000  1.0
  Na  Na36  1  0.51501617  -0.48498383  0.75000000  1.0
  Na  Na37  1  1.48498383  0.48498383  0.25000000  1.0
  Na  Na38  1  0.00000000  0.00000000  0.00000000  1.0
  Na  Na39  1  -0.00000000  0.00000000  0.50000000  1.0
