# generated using pymatgen
data_Fe4(PO5)3
_symmetry_space_group_name_H-M   'P 1'
_cell_length_a   10.61683279
_cell_length_b   10.61683279
_cell_length_c   7.15251638
_cell_angle_alpha   80.21216202
_cell_angle_beta   99.78783798
_cell_angle_gamma   138.83233986
_symmetry_Int_Tables_number   1
_chemical_formula_structural   Fe4(PO5)3
_chemical_formula_sum   'Fe8 P6 O30'
_cell_volume   521.87674200
_cell_formula_units_Z   2
loop_
 _symmetry_equiv_pos_site_id
 _symmetry_equiv_pos_as_xyz
  1  'x, y, z'
loop_
 _atom_site_type_symbol
 _atom_site_label
 _atom_site_symmetry_multiplicity
 _atom_site_fract_x
 _atom_site_fract_y
 _atom_site_fract_z
 _atom_site_occupancy
  Fe  Fe0  1  1.65319524  0.31488365  0.86332254  1.0
  Fe  Fe1  1  0.68511635  -0.65319524  0.36332254  1.0
  Fe  Fe2  1  1.31488365  -0.34680476  0.63667746  1.0
  Fe  Fe3  1  1.34680476  -0.31488365  0.13667746  1.0
  Fe  Fe4  1  1.69232543  -0.15819422  0.83906578  1.0
  Fe  Fe5  1  1.15819422  -0.69232543  0.33906578  1.0
  Fe  Fe6  1  0.84180578  -0.30767457  0.66093422  1.0
  Fe  Fe7  1  1.30767457  0.15819422  0.16093422  1.0
  O  O8  1  1.44149406  -0.43388042  0.75601851  1.0
  O  O9  1  1.43388042  -0.44149406  0.25601851  1.0
  O  O10  1  0.56611958  -0.55850594  0.74398149  1.0
  O  O11  1  1.55850594  0.43388042  0.24398149  1.0
  O  O12  1  1.60284500  -0.11661406  0.58579401  1.0
  O  O13  1  1.11661406  -0.60284500  0.08579401  1.0
  O  O14  1  0.88338594  -0.39715500  0.91420599  1.0
  O  O15  1  1.39715500  0.11661406  0.41420599  1.0
  O  O16  1  0.84252712  0.84252712  0.75000000  1.0
  O  O17  1  0.15747288  0.15747288  0.25000000  1.0
  O  O18  1  1.87497915  0.10270694  0.89761353  1.0
  O  O19  1  0.89729306  -0.87497915  0.39761353  1.0
  O  O20  1  1.10270694  -0.12502085  0.60238647  1.0
  O  O21  1  1.12502085  -0.10270694  0.10238647  1.0
  O  O22  1  1.71499229  0.18762991  0.43640808  1.0
  O  O23  1  0.81237009  -0.71499229  0.93640808  1.0
  O  O24  1  1.18762991  -0.28500771  0.06359192  1.0
  O  O25  1  1.28500771  -0.18762991  0.56359192  1.0
  O  O26  1  1.43156427  0.07406178  0.77041869  1.0
  O  O27  1  0.92593822  -0.43156427  0.27041869  1.0
  O  O28  1  1.07406178  -0.56843573  0.72958131  1.0
  O  O29  1  1.56843573  -0.07406178  0.22958131  1.0
  O  O30  1  1.27378067  0.23724912  0.92197339  1.0
  O  O31  1  0.76275088  -0.27378067  0.42197339  1.0
  O  O32  1  1.23724912  -0.72621933  0.57802661  1.0
  O  O33  1  1.72621933  -0.23724912  0.07802661  1.0
  O  O34  1  1.44127954  -0.24591757  0.90518345  1.0
  O  O35  1  1.24591757  -0.44127954  0.40518345  1.0
  O  O36  1  0.75408243  -0.55872046  0.59481655  1.0
  O  O37  1  1.55872046  0.24591757  0.09481655  1.0
  P  P38  1  1.69925437  0.03574355  0.40895176  1.0
  P  P39  1  0.96425645  -0.69925437  0.90895176  1.0
  P  P40  1  1.03574355  -0.30074563  0.09104824  1.0
  P  P41  1  1.30074563  -0.03574355  0.59104824  1.0
  P  P42  1  0.38059115  0.38059115  0.75000000  1.0
  P  P43  1  0.61940885  0.61940885  0.25000000  1.0
