# generated using pymatgen
data_CdI2
_symmetry_space_group_name_H-M   'P 1'
_cell_length_a   4.32776136
_cell_length_b   4.32776136
_cell_length_c   53.08477557
_cell_angle_alpha   90.00000000
_cell_angle_beta   90.00000000
_cell_angle_gamma   120.00000000
_symmetry_Int_Tables_number   1
_chemical_formula_structural   CdI2
_chemical_formula_sum   'Cd7 I14'
_cell_volume   861.04773257
_cell_formula_units_Z   7
loop_
 _symmetry_equiv_pos_site_id
 _symmetry_equiv_pos_as_xyz
  1  'x, y, z'
loop_
 _atom_site_type_symbol
 _atom_site_label
 _atom_site_symmetry_multiplicity
 _atom_site_fract_x
 _atom_site_fract_y
 _atom_site_fract_z
 _atom_site_occupancy
  Cd  Cd0  1  0.00000000  0.00000000  0.03573657  1.0
  Cd  Cd1  1  0.00000000  0.00000000  0.17855605  1.0
  Cd  Cd2  1  0.00000000  0.00000000  0.46430759  1.0
  Cd  Cd3  1  0.00000000  0.00000000  0.60711780  1.0
  Cd  Cd4  1  0.66666667  0.33333333  0.32142358  1.0
  Cd  Cd5  1  0.66666667  0.33333333  0.75002140  1.0
  Cd  Cd6  1  0.66666667  0.33333333  0.89284148  1.0
  I  I7  1  0.00000000  0.00000000  0.35380497  1.0
  I  I8  1  0.00000000  0.00000000  0.78240126  1.0
  I  I9  1  0.00000000  0.00000000  0.92523873  1.0
  I  I10  1  0.66666667  0.33333333  0.06811896  1.0
  I  I11  1  0.66666667  0.33333333  0.21093657  1.0
  I  I12  1  0.66666667  0.33333333  0.49668875  1.0
  I  I13  1  0.66666667  0.33333333  0.63950505  1.0
  I  I14  1  0.33333333  0.66666667  0.00335553  1.0
  I  I15  1  0.33333333  0.66666667  0.14616825  1.0
  I  I16  1  0.33333333  0.66666667  0.28904072  1.0
  I  I17  1  0.33333333  0.66666667  0.43192618  1.0
  I  I18  1  0.33333333  0.66666667  0.57471964  1.0
  I  I19  1  0.33333333  0.66666667  0.71763801  1.0
  I  I20  1  0.33333333  0.66666667  0.86045293  1.0
