# generated using pymatgen
data_Cd3(BO3)2
_symmetry_space_group_name_H-M   'P 1'
_cell_length_a   6.21297095
_cell_length_b   6.29870111
_cell_length_c   7.54742739
_cell_angle_alpha   75.69817800
_cell_angle_beta   80.28019782
_cell_angle_gamma   81.85523494
_symmetry_Int_Tables_number   1
_chemical_formula_structural   Cd3(BO3)2
_chemical_formula_sum   'Cd6 B4 O12'
_cell_volume   280.54665515
_cell_formula_units_Z   2
loop_
 _symmetry_equiv_pos_site_id
 _symmetry_equiv_pos_as_xyz
  1  'x, y, z'
loop_
 _atom_site_type_symbol
 _atom_site_label
 _atom_site_symmetry_multiplicity
 _atom_site_fract_x
 _atom_site_fract_y
 _atom_site_fract_z
 _atom_site_occupancy
  Cd  Cd0  1  0.27143076  0.93543402  0.44066461  1.0
  Cd  Cd1  1  0.72856924  0.06456598  0.55933539  1.0
  Cd  Cd2  1  0.62264767  0.23858571  1.00083750  1.0
  Cd  Cd3  1  0.37735233  0.76141429  -0.00083750  1.0
  Cd  Cd4  1  0.87026364  0.55620828  0.29373304  1.0
  Cd  Cd5  1  0.12973636  0.44379172  0.70626696  1.0
  B  B6  1  0.62002638  0.56703382  0.63692647  1.0
  B  B7  1  0.37997362  0.43296618  0.36307353  1.0
  B  B8  1  0.08756721  0.16769877  0.12623066  1.0
  B  B9  1  0.91243279  0.83230123  0.87376934  1.0
  O  O10  1  0.60794924  0.75913537  0.49764287  1.0
  O  O11  1  0.39205076  0.24086463  0.50235713  1.0
  O  O12  1  0.46641799  0.52994490  0.79503156  1.0
  O  O13  1  0.53358201  0.47005510  0.20496844  1.0
  O  O14  1  0.30537426  0.07002956  0.11581231  1.0
  O  O15  1  0.69462574  0.92997044  0.88418769  1.0
  O  O16  1  0.79103055  0.40562491  0.60884189  1.0
  O  O17  1  0.20896945  0.59437509  0.39115811  1.0
  O  O18  1  0.98636646  0.25698625  0.97265555  1.0
  O  O19  1  0.01363354  0.74301375  0.02734445  1.0
  O  O20  1  0.98011085  0.17467679  0.30238241  1.0
  O  O21  1  0.01988915  0.82532321  0.69761759  1.0
