# generated using pymatgen
data_Ta2Tl4Se11
_symmetry_space_group_name_H-M   'P 1'
_cell_length_a   8.38480688
_cell_length_b   14.09145163
_cell_length_c   9.39920526
_cell_angle_alpha   107.14635070
_cell_angle_beta   94.11511692
_cell_angle_gamma   90.04304566
_symmetry_Int_Tables_number   1
_chemical_formula_structural   Ta2Tl4Se11
_chemical_formula_sum   'Ta4 Tl8 Se22'
_cell_volume   1058.18032241
_cell_formula_units_Z   2
loop_
 _symmetry_equiv_pos_site_id
 _symmetry_equiv_pos_as_xyz
  1  'x, y, z'
loop_
 _atom_site_type_symbol
 _atom_site_label
 _atom_site_symmetry_multiplicity
 _atom_site_fract_x
 _atom_site_fract_y
 _atom_site_fract_z
 _atom_site_occupancy
  Ta  Ta0  1  0.83386484  0.69051052  -0.60961830  1.0
  Ta  Ta1  1  0.16613516  0.30948948  -0.39038170  1.0
  Ta  Ta2  1  0.62951100  0.80637794  -0.86046616  1.0
  Ta  Ta3  1  0.37048900  0.19362206  -0.13953384  1.0
  Tl  Tl4  1  -0.00166637  0.39923923  -0.76370538  1.0
  Tl  Tl5  1  1.00166637  0.60076077  -0.23629462  1.0
  Tl  Tl6  1  0.72547064  0.08446002  -0.92015791  1.0
  Tl  Tl7  1  0.27452936  0.91553998  -0.07984209  1.0
  Tl  Tl8  1  0.45438066  0.51794442  -0.73887838  1.0
  Tl  Tl9  1  0.54561934  0.48205558  -0.26112162  1.0
  Tl  Tl10  1  0.29009928  0.92216182  -0.52538037  1.0
  Tl  Tl11  1  0.70990072  0.07783818  -0.47461963  1.0
  Se  Se12  1  0.96324724  0.37581189  -0.19382651  1.0
  Se  Se13  1  0.03675276  0.62418811  -0.80617349  1.0
  Se  Se14  1  0.89710898  0.85945396  -0.93219301  1.0
  Se  Se15  1  0.10289102  0.14054604  -0.06780699  1.0
  Se  Se16  1  0.88544406  0.87466909  -0.67104549  1.0
  Se  Se17  1  0.11455594  0.12533091  -0.32895451  1.0
  Se  Se18  1  0.91354196  0.24883513  -0.57926556  1.0
  Se  Se19  1  0.08645804  0.75116487  -0.42073444  1.0
  Se  Se20  1  0.83877367  0.83287127  -0.36296705  1.0
  Se  Se21  1  0.16122633  0.16712873  -0.63703295  1.0
  Se  Se22  1  0.76200609  0.61529695  -0.90069588  1.0
  Se  Se23  1  0.23799391  0.38470305  -0.09930412  1.0
  Se  Se24  1  0.76906190  0.54187787  -0.53743976  1.0
  Se  Se25  1  0.23093810  0.45812213  -0.46256024  1.0
  Se  Se26  1  0.53621484  0.74908758  -0.63127060  1.0
  Se  Se27  1  0.46378516  0.25091242  -0.36872940  1.0
  Se  Se28  1  0.48877161  0.96527121  -0.78401012  1.0
  Se  Se29  1  0.51122839  0.03472879  -0.21598988  1.0
  Se  Se30  1  0.43874386  0.24696959  -0.85232196  1.0
  Se  Se31  1  0.56125614  0.75303041  -0.14767804  1.0
  Se  Se32  1  0.39907370  0.68444016  0.00069078  1.0
  Se  Se33  1  0.60092630  0.31555984  -1.00069078  1.0
