# generated using pymatgen
data_FeAg2C5N6O
_symmetry_space_group_name_H-M   'P 1'
_cell_length_a   7.82989331
_cell_length_b   6.38069096
_cell_length_c   13.11902027
_cell_angle_alpha   90.00000000
_cell_angle_beta   119.61223038
_cell_angle_gamma   90.00000000
_symmetry_Int_Tables_number   1
_chemical_formula_structural   FeAg2C5N6O
_chemical_formula_sum   'Fe2 Ag4 C10 N12 O2'
_cell_volume   569.82216093
_cell_formula_units_Z   2
loop_
 _symmetry_equiv_pos_site_id
 _symmetry_equiv_pos_as_xyz
  1  'x, y, z'
loop_
 _atom_site_type_symbol
 _atom_site_label
 _atom_site_symmetry_multiplicity
 _atom_site_fract_x
 _atom_site_fract_y
 _atom_site_fract_z
 _atom_site_occupancy
  Fe  Fe0  1  0.77880609  0.99697772  0.25862704  1.0
  Fe  Fe1  1  0.77880609  0.00302228  0.75862704  1.0
  Ag  Ag2  1  0.40813353  0.45710840  0.42404986  1.0
  Ag  Ag3  1  0.40813353  0.54289160  0.92404986  1.0
  Ag  Ag4  1  0.22484450  0.46725404  0.09383375  1.0
  Ag  Ag5  1  0.22484450  0.53274596  0.59383375  1.0
  C  C6  1  0.98632045  0.79907316  0.81422189  1.0
  C  C7  1  0.98632045  0.20092684  0.31422189  1.0
  C  C8  1  0.92280235  0.85005017  0.40496290  1.0
  C  C9  1  0.92280235  0.14994983  0.90496290  1.0
  C  C10  1  0.66758790  0.83704652  0.83402045  1.0
  C  C11  1  0.66758790  0.16295348  0.33402045  1.0
  C  C12  1  0.62805868  0.82280829  0.62669034  1.0
  C  C13  1  0.62805868  0.17719171  0.12669034  1.0
  C  C14  1  0.55537345  0.81856220  0.21424678  1.0
  C  C15  1  0.55537345  0.18143780  0.71424678  1.0
  N  N16  1  0.01926932  0.75362675  0.49005153  1.0
  N  N17  1  0.01926932  0.24637325  -0.00994847  1.0
  N  N18  1  0.86987124  0.85431318  0.19074724  1.0
  N  N19  1  0.86987124  0.14568682  0.69074724  1.0
  N  N20  1  0.59502901  0.73693479  0.87679674  1.0
  N  N21  1  0.59502901  0.26306521  0.37679674  1.0
  N  N22  1  0.54240704  0.29034000  0.04741873  1.0
  N  N23  1  0.54240704  0.70966000  0.54741873  1.0
  N  N24  1  0.42291095  0.70382409  0.18416510  1.0
  N  N25  1  0.42291095  0.29617591  0.68416510  1.0
  N  N26  1  0.11665894  0.31878653  0.34459064  1.0
  N  N27  1  0.11665894  0.68121347  0.84459064  1.0
  O  O28  1  0.93192654  0.75706537  0.14357701  1.0
  O  O29  1  0.93192654  0.24293463  0.64357701  1.0
