# generated using pymatgen
data_Re2BiO6
_symmetry_space_group_name_H-M   'P 1'
_cell_length_a   8.50135572
_cell_length_b   8.50135572
_cell_length_c   5.59449992
_cell_angle_alpha   88.22152063
_cell_angle_beta   91.77847937
_cell_angle_gamma   146.06049571
_symmetry_Int_Tables_number   1
_chemical_formula_structural   Re2BiO6
_chemical_formula_sum   'Re4 Bi2 O12'
_cell_volume   225.62641695
_cell_formula_units_Z   2
loop_
 _symmetry_equiv_pos_site_id
 _symmetry_equiv_pos_as_xyz
  1  'x, y, z'
loop_
 _atom_site_type_symbol
 _atom_site_label
 _atom_site_symmetry_multiplicity
 _atom_site_fract_x
 _atom_site_fract_y
 _atom_site_fract_z
 _atom_site_occupancy
  Re  Re0  1  0.91634734  -0.44712491  0.89022458  1.0
  Re  Re1  1  1.44712491  0.08365266  0.39022458  1.0
  Re  Re2  1  1.55287509  -0.08365266  0.60977542  1.0
  Re  Re3  1  1.08365266  -0.55287509  0.10977542  1.0
  Bi  Bi4  1  0.22334406  0.22334406  0.75000000  1.0
  Bi  Bi5  1  0.77665594  0.77665594  0.25000000  1.0
  O  O6  1  1.02645959  -0.83111163  0.08284031  1.0
  O  O7  1  1.83111163  -0.02645959  0.58284031  1.0
  O  O8  1  1.16888837  0.02645959  0.41715969  1.0
  O  O9  1  0.97354041  -0.16888837  0.91715969  1.0
  O  O10  1  0.80141849  -0.76641054  0.83258668  1.0
  O  O11  1  1.76641054  0.19858151  0.33258668  1.0
  O  O12  1  1.23358946  -0.19858151  0.66741332  1.0
  O  O13  1  1.19858151  -0.23358946  0.16741332  1.0
  O  O14  1  0.66233909  -0.61715903  0.61853470  1.0
  O  O15  1  1.61715903  0.33766091  0.11853470  1.0
  O  O16  1  1.38284097  -0.33766091  0.88146530  1.0
  O  O17  1  1.33766091  -0.38284097  0.38146530  1.0
