# generated using pymatgen
data_CaIrO3
_symmetry_space_group_name_H-M   'P 1'
_cell_length_a   5.66479445
_cell_length_b   7.71559567
_cell_length_c   5.34127098
_cell_angle_alpha   90.00000000
_cell_angle_beta   90.00000000
_cell_angle_gamma   90.00000000
_symmetry_Int_Tables_number   1
_chemical_formula_structural   CaIrO3
_chemical_formula_sum   'Ca4 Ir4 O12'
_cell_volume   233.45233836
_cell_formula_units_Z   4
loop_
 _symmetry_equiv_pos_site_id
 _symmetry_equiv_pos_as_xyz
  1  'x, y, z'
loop_
 _atom_site_type_symbol
 _atom_site_label
 _atom_site_symmetry_multiplicity
 _atom_site_fract_x
 _atom_site_fract_y
 _atom_site_fract_z
 _atom_site_occupancy
  Ca  Ca0  1  0.06366022  0.75000000  0.51900524  1.0
  Ca  Ca1  1  0.56366022  0.75000000  0.98099476  1.0
  Ca  Ca2  1  0.93633978  0.25000000  0.48099476  1.0
  Ca  Ca3  1  0.43633978  0.25000000  0.01900524  1.0
  Ir  Ir4  1  0.50000000  0.00000000  0.50000000  1.0
  Ir  Ir5  1  0.50000000  0.50000000  0.50000000  1.0
  Ir  Ir6  1  0.00000000  0.00000000  0.00000000  1.0
  Ir  Ir7  1  0.00000000  0.50000000  0.00000000  1.0
  O  O8  1  0.95597115  0.75000000  0.10888981  1.0
  O  O9  1  0.45597115  0.75000000  0.39111019  1.0
  O  O10  1  0.04402885  0.25000000  0.89111019  1.0
  O  O11  1  0.54402885  0.25000000  0.60888981  1.0
  O  O12  1  0.30342847  0.94601663  0.80962281  1.0
  O  O13  1  0.30342847  0.55398337  0.80962281  1.0
  O  O14  1  0.80342847  0.94601663  0.69037719  1.0
  O  O15  1  0.80342847  0.55398337  0.69037719  1.0
  O  O16  1  0.69657153  0.44601663  0.19037719  1.0
  O  O17  1  0.69657153  0.05398337  0.19037719  1.0
  O  O18  1  0.19657153  0.44601663  0.30962281  1.0
  O  O19  1  0.19657153  0.05398337  0.30962281  1.0
