# generated using pymatgen
data_Sr(BH4)2
_symmetry_space_group_name_H-M   'P 1'
_cell_length_a   5.26510961
_cell_length_b   5.26510961
_cell_length_c   16.32740350
_cell_angle_alpha   90.00000000
_cell_angle_beta   90.00000000
_cell_angle_gamma   90.00000000
_symmetry_Int_Tables_number   1
_chemical_formula_structural   Sr(BH4)2
_chemical_formula_sum   'Sr4 B8 H32'
_cell_volume   452.61814368
_cell_formula_units_Z   4
loop_
 _symmetry_equiv_pos_site_id
 _symmetry_equiv_pos_as_xyz
  1  'x, y, z'
loop_
 _atom_site_type_symbol
 _atom_site_label
 _atom_site_symmetry_multiplicity
 _atom_site_fract_x
 _atom_site_fract_y
 _atom_site_fract_z
 _atom_site_occupancy
  Sr  Sr0  1  0.64940500  0.35059500  0.75000000  1.0
  Sr  Sr1  1  0.35059500  0.64940500  0.25000000  1.0
  Sr  Sr2  1  0.85059500  0.85059500  0.50000000  1.0
  Sr  Sr3  1  0.14940500  0.14940500  0.00000000  1.0
  B  B4  1  0.37504413  -0.02875723  0.42944867  1.0
  B  B5  1  0.62495587  1.02875723  0.92944867  1.0
  B  B6  1  0.47124277  0.12495587  0.17944867  1.0
  B  B7  1  0.52875723  0.87504413  0.67944867  1.0
  B  B8  1  1.02875723  0.62495587  0.07055133  1.0
  B  B9  1  -0.02875723  0.37504413  0.57055133  1.0
  B  B10  1  0.12495587  0.47124277  0.82055133  1.0
  B  B11  1  0.87504413  0.52875723  0.32055133  1.0
  H  H12  1  0.51230725  -0.11296808  0.37497617  1.0
  H  H13  1  0.48769275  1.11296808  0.87497617  1.0
  H  H14  1  0.38703192  0.98769275  0.12497617  1.0
  H  H15  1  0.61296808  0.01230725  0.62497617  1.0
  H  H16  1  1.11296808  0.48769275  0.12502383  1.0
  H  H17  1  -0.11296808  0.51230725  0.62502383  1.0
  H  H18  1  0.98769275  0.38703192  0.87502383  1.0
  H  H19  1  0.01230725  0.61296808  0.37502383  1.0
  H  H20  1  0.34323130  0.80052862  0.48007538  1.0
  H  H21  1  0.65676870  0.19947138  0.98007538  1.0
  H  H22  1  0.30052862  0.15676870  0.23007538  1.0
  H  H23  1  0.69947138  0.84323130  0.73007538  1.0
  H  H24  1  0.19947138  0.65676870  0.01992462  1.0
  H  H25  1  0.80052862  0.34323130  0.51992462  1.0
  H  H26  1  0.15676870  0.30052862  0.76992462  1.0
  H  H27  1  0.84323130  0.69947138  0.26992462  1.0
  H  H28  1  0.48433042  0.14935881  0.46152963  1.0
  H  H29  1  0.51566958  0.85064119  0.96152963  1.0
  H  H30  1  0.64935881  0.01566958  0.21152963  1.0
  H  H31  1  0.35064119  0.98433042  0.71152963  1.0
  H  H32  1  0.85064119  0.51566958  0.03847037  1.0
  H  H33  1  0.14935881  0.48433042  0.53847037  1.0
  H  H34  1  0.01566958  0.64935881  0.78847037  1.0
  H  H35  1  0.98433042  0.35064119  0.28847037  1.0
  H  H36  1  0.17536205  0.04681314  0.40039980  1.0
  H  H37  1  0.82463795  0.95318686  0.90039980  1.0
  H  H38  1  0.54681314  0.32463795  0.15039980  1.0
  H  H39  1  0.45318686  0.67536205  0.65039980  1.0
  H  H40  1  0.95318686  0.82463795  0.09960020  1.0
  H  H41  1  0.04681314  0.17536205  0.59960020  1.0
  H  H42  1  0.32463795  0.54681314  0.84960020  1.0
  H  H43  1  0.67536205  0.45318686  0.34960020  1.0
