# generated using pymatgen
data_GdH6C4NO9
_symmetry_space_group_name_H-M   'P 1'
_cell_length_a   8.19006961
_cell_length_b   6.11760182
_cell_length_c   12.37793336
_cell_angle_alpha   90.00000000
_cell_angle_beta   131.31897008
_cell_angle_gamma   90.00000000
_symmetry_Int_Tables_number   1
_chemical_formula_structural   GdH6C4NO9
_chemical_formula_sum   'Gd2 H12 C8 N2 O18'
_cell_volume   465.78256609
_cell_formula_units_Z   2
loop_
 _symmetry_equiv_pos_site_id
 _symmetry_equiv_pos_as_xyz
  1  'x, y, z'
loop_
 _atom_site_type_symbol
 _atom_site_label
 _atom_site_symmetry_multiplicity
 _atom_site_fract_x
 _atom_site_fract_y
 _atom_site_fract_z
 _atom_site_occupancy
  Gd  Gd0  1  0.00000000  0.88851437  0.25000000  1.0
  Gd  Gd1  1  0.00000000  0.11148563  0.75000000  1.0
  H  H2  1  0.88736993  0.40418955  0.17020042  1.0
  H  H3  1  0.88736993  0.59581045  0.67020042  1.0
  H  H4  1  0.11263007  0.40418955  0.32979958  1.0
  H  H5  1  0.11263007  0.59581045  0.82979958  1.0
  H  H6  1  0.63000407  0.39290896  0.33052709  1.0
  H  H7  1  0.63000407  0.60709104  0.83052709  1.0
  H  H8  1  0.36999593  0.39290896  0.16947291  1.0
  H  H9  1  0.36999593  0.60709104  0.66947291  1.0
  H  H10  1  0.45372610  0.58728623  0.29521684  1.0
  H  H11  1  0.45372610  0.41271377  0.79521684  1.0
  H  H12  1  0.54627390  0.58728623  0.20478316  1.0
  H  H13  1  0.54627390  0.41271377  0.70478316  1.0
  C  C14  1  0.91764987  0.90629779  0.95275349  1.0
  C  C15  1  0.91764987  0.09370221  0.45275349  1.0
  C  C16  1  0.08235013  0.90629779  0.54724651  1.0
  C  C17  1  0.08235013  0.09370221  0.04724651  1.0
  C  C18  1  0.53099340  0.88906855  0.48598772  1.0
  C  C19  1  0.53099340  0.11093145  0.98598772  1.0
  C  C20  1  0.46900660  0.88906855  0.01401228  1.0
  C  C21  1  0.46900660  0.11093145  0.51401228  1.0
  N  N22  1  0.50000000  0.49065874  0.25000000  1.0
  N  N23  1  0.50000000  0.50934126  0.75000000  1.0
  O  O24  1  0.87345891  0.77776917  0.01079526  1.0
  O  O25  1  0.87345891  0.22223083  0.51079526  1.0
  O  O26  1  0.12654109  0.77776917  0.48920474  1.0
  O  O27  1  0.12654109  0.22223083  0.98920474  1.0
  O  O28  1  0.83834119  0.89566825  0.82453963  1.0
  O  O29  1  0.83834119  0.10433175  0.32453963  1.0
  O  O30  1  0.16165881  0.89566825  0.67546037  1.0
  O  O31  1  0.16165881  0.10433175  0.17546037  1.0
  O  O32  1  0.62243012  0.76925301  0.11462129  1.0
  O  O33  1  0.62243012  0.23074699  0.61462129  1.0
  O  O34  1  0.37756988  0.76925301  0.38537871  1.0
  O  O35  1  0.37756988  0.23074699  0.88537871  1.0
  O  O36  1  0.26921666  0.84488079  0.93488544  1.0
  O  O37  1  0.26921666  0.15511921  0.43488544  1.0
  O  O38  1  0.73078334  0.84488079  0.56511456  1.0
  O  O39  1  0.73078334  0.15511921  0.06511456  1.0
  O  O40  1  0.00000000  0.50010984  0.25000000  1.0
  O  O41  1  0.00000000  0.49989016  0.75000000  1.0
