# generated using pymatgen
data_Mn3Al10
_symmetry_space_group_name_H-M   'P 1'
_cell_length_a   7.51337185
_cell_length_b   7.51337185
_cell_length_c   7.79146009
_cell_angle_alpha   90.00000000
_cell_angle_beta   90.00000000
_cell_angle_gamma   120.00000000
_symmetry_Int_Tables_number   1
_chemical_formula_structural   Mn3Al10
_chemical_formula_sum   'Mn6 Al20'
_cell_volume   380.90725895
_cell_formula_units_Z   2
loop_
 _symmetry_equiv_pos_site_id
 _symmetry_equiv_pos_as_xyz
  1  'x, y, z'
loop_
 _atom_site_type_symbol
 _atom_site_label
 _atom_site_symmetry_multiplicity
 _atom_site_fract_x
 _atom_site_fract_y
 _atom_site_fract_z
 _atom_site_occupancy
  Mn  Mn0  1  0.12097189  0.87902811  0.25000000  1.0
  Mn  Mn1  1  0.12097189  0.24194379  0.25000000  1.0
  Mn  Mn2  1  0.87902811  0.12097189  0.75000000  1.0
  Mn  Mn3  1  0.87902811  0.75805621  0.75000000  1.0
  Mn  Mn4  1  0.75805621  0.87902811  0.25000000  1.0
  Mn  Mn5  1  0.24194379  0.12097189  0.75000000  1.0
  Al  Al6  1  0.00000000  0.00000000  0.50000000  1.0
  Al  Al7  1  0.00000000  0.00000000  0.00000000  1.0
  Al  Al8  1  0.45701616  0.54298384  0.25000000  1.0
  Al  Al9  1  0.45701616  0.91403233  0.25000000  1.0
  Al  Al10  1  0.54298384  0.45701616  0.75000000  1.0
  Al  Al11  1  0.54298384  0.08596767  0.75000000  1.0
  Al  Al12  1  0.08596767  0.54298384  0.25000000  1.0
  Al  Al13  1  0.91403233  0.45701616  0.75000000  1.0
  Al  Al14  1  0.20002050  0.79997950  0.93527404  1.0
  Al  Al15  1  0.20002050  0.79997950  0.56472596  1.0
  Al  Al16  1  0.20002050  0.40004100  0.93527404  1.0
  Al  Al17  1  0.20002050  0.40004100  0.56472596  1.0
  Al  Al18  1  0.79997950  0.20002050  0.43527404  1.0
  Al  Al19  1  0.79997950  0.20002050  0.06472596  1.0
  Al  Al20  1  0.79997950  0.59995900  0.43527404  1.0
  Al  Al21  1  0.79997950  0.59995900  0.06472596  1.0
  Al  Al22  1  0.59995900  0.79997950  0.93527404  1.0
  Al  Al23  1  0.59995900  0.79997950  0.56472596  1.0
  Al  Al24  1  0.40004100  0.20002050  0.43527404  1.0
  Al  Al25  1  0.40004100  0.20002050  0.06472596  1.0
