# generated using pymatgen
data_BSBr
_symmetry_space_group_name_H-M   'P 1'
_cell_length_a   14.90569644
_cell_length_b   4.79896929
_cell_length_c   18.69418863
_cell_angle_alpha   90.00000000
_cell_angle_beta   115.20427222
_cell_angle_gamma   90.00000000
_symmetry_Int_Tables_number   1
_chemical_formula_structural   BSBr
_chemical_formula_sum   'B12 S12 Br12'
_cell_volume   1209.92151746
_cell_formula_units_Z   12
loop_
 _symmetry_equiv_pos_site_id
 _symmetry_equiv_pos_as_xyz
  1  'x, y, z'
loop_
 _atom_site_type_symbol
 _atom_site_label
 _atom_site_symmetry_multiplicity
 _atom_site_fract_x
 _atom_site_fract_y
 _atom_site_fract_z
 _atom_site_occupancy
  B  B0  1  0.86858661  0.22581805  0.33424046  1.0
  B  B1  1  0.86858661  0.27418195  0.83424046  1.0
  B  B2  1  0.13141339  0.72581805  0.16575954  1.0
  B  B3  1  0.13141339  0.77418195  0.66575954  1.0
  B  B4  1  0.73486036  0.01814862  0.40053235  1.0
  B  B5  1  0.73486036  0.48185138  0.90053235  1.0
  B  B6  1  0.26513964  0.51814862  0.09946765  1.0
  B  B7  1  0.26513964  0.98185138  0.59946765  1.0
  B  B8  1  0.67341600  0.00227117  0.22914967  1.0
  B  B9  1  0.67341600  0.49772883  0.72914967  1.0
  B  B10  1  0.32658400  0.50227117  0.27085033  1.0
  B  B11  1  0.32658400  0.99772883  0.77085033  1.0
  S  S12  1  0.85483931  0.17182448  0.42463676  1.0
  S  S13  1  0.85483931  0.32817552  0.92463676  1.0
  S  S14  1  0.14516069  0.67182448  0.07536324  1.0
  S  S15  1  0.14516069  0.82817552  0.57536324  1.0
  S  S16  1  0.78575333  0.15497718  0.23233428  1.0
  S  S17  1  0.78575333  0.34502282  0.73233428  1.0
  S  S18  1  0.21424667  0.65497718  0.26766572  1.0
  S  S19  1  0.21424667  0.84502282  0.76766572  1.0
  S  S20  1  0.36387693  0.41980988  0.19322629  1.0
  S  S21  1  0.36387693  0.08019012  0.69322629  1.0
  S  S22  1  0.63612307  0.91980988  0.30677371  1.0
  S  S23  1  0.63612307  0.58019012  0.80677371  1.0
  Br  Br24  1  1.00666002  0.89039806  0.15104228  1.0
  Br  Br25  1  1.00666002  0.60960194  0.65104228  1.0
  Br  Br26  1  -0.00666002  0.39039806  0.34895772  1.0
  Br  Br27  1  -0.00666002  0.10960194  0.84895772  1.0
  Br  Br28  1  0.70721910  0.94540781  0.49069853  1.0
  Br  Br29  1  0.70721910  0.55459219  -0.00930147  1.0
  Br  Br30  1  0.29278090  0.44540781  0.00930147  1.0
  Br  Br31  1  0.29278090  0.05459219  0.50930147  1.0
  Br  Br32  1  0.42440093  0.41055180  0.37580085  1.0
  Br  Br33  1  0.42440093  0.08944820  0.87580085  1.0
  Br  Br34  1  0.57559907  0.91055180  0.12419915  1.0
  Br  Br35  1  0.57559907  0.58944820  0.62419915  1.0
