# generated using pymatgen
data_RbAlAs2O7
_symmetry_space_group_name_H-M   'P 1'
_cell_length_a   8.45826496
_cell_length_b   6.45931975
_cell_length_c   6.37979361
_cell_angle_alpha   102.40342156
_cell_angle_beta   103.89419189
_cell_angle_gamma   96.91553482
_symmetry_Int_Tables_number   1
_chemical_formula_structural   RbAlAs2O7
_chemical_formula_sum   'Rb2 Al2 As4 O14'
_cell_volume   324.97902506
_cell_formula_units_Z   2
loop_
 _symmetry_equiv_pos_site_id
 _symmetry_equiv_pos_as_xyz
  1  'x, y, z'
loop_
 _atom_site_type_symbol
 _atom_site_label
 _atom_site_symmetry_multiplicity
 _atom_site_fract_x
 _atom_site_fract_y
 _atom_site_fract_z
 _atom_site_occupancy
  Rb  Rb0  1  -0.50000000  0.00000000  0.00000000  1.0
  Rb  Rb1  1  0.00000000  0.00000000  0.00000000  1.0
  Al  Al2  1  -0.73037190  -0.68300934  -0.37457968  1.0
  Al  Al3  1  -0.26962810  -0.31699066  -0.62542032  1.0
  As  As4  1  -0.68520230  -0.52635561  -0.82151145  1.0
  As  As5  1  -0.31479770  -0.47364439  -0.17848855  1.0
  As  As6  1  -0.83638268  -0.24041187  -0.49147378  1.0
  As  As7  1  -0.16361732  -0.75958813  -0.50852622  1.0
  O  O8  1  -0.50418642  -0.35360909  -0.77458705  1.0
  O  O9  1  -0.49581358  -0.64639091  -0.22541295  1.0
  O  O10  1  -0.83873219  -0.35517988  -0.77901803  1.0
  O  O11  1  -0.16126781  -0.64482012  -0.22098197  1.0
  O  O12  1  -0.27755134  -0.62122404  -0.67435754  1.0
  O  O13  1  -0.72244866  -0.37877596  -0.32564246  1.0
  O  O14  1  -0.68916431  -0.70982992  -0.66240129  1.0
  O  O15  1  -0.31083569  -0.29017008  -0.33759871  1.0
  O  O16  1  -0.96540808  -0.74792328  -0.53057133  1.0
  O  O17  1  -0.03459192  -0.25207672  -0.46942867  1.0
  O  O18  1  -0.72519870  -0.98436588  -0.41445132  1.0
  O  O19  1  -0.27480130  -0.01563412  -0.58554868  1.0
  O  O20  1  -0.77282695  -0.67750305  -0.09117634  1.0
  O  O21  1  -0.22717305  -0.32249695  -0.90882366  1.0
