# generated using pymatgen
data_SbRh2
_symmetry_space_group_name_H-M   'P 1'
_cell_length_a   5.80790144
_cell_length_b   4.21665129
_cell_length_c   8.03013675
_cell_angle_alpha   90.00000000
_cell_angle_beta   90.00000000
_cell_angle_gamma   90.00000000
_symmetry_Int_Tables_number   1
_chemical_formula_structural   SbRh2
_chemical_formula_sum   'Sb4 Rh8'
_cell_volume   196.65720665
_cell_formula_units_Z   4
loop_
 _symmetry_equiv_pos_site_id
 _symmetry_equiv_pos_as_xyz
  1  'x, y, z'
loop_
 _atom_site_type_symbol
 _atom_site_label
 _atom_site_symmetry_multiplicity
 _atom_site_fract_x
 _atom_site_fract_y
 _atom_site_fract_z
 _atom_site_occupancy
  Sb  Sb0  1  0.78506286  0.75000000  0.39285616  1.0
  Sb  Sb1  1  0.28506286  0.75000000  0.10714384  1.0
  Sb  Sb2  1  0.21493714  0.25000000  0.60714384  1.0
  Sb  Sb3  1  0.71493714  0.25000000  0.89285616  1.0
  Rh  Rh4  1  0.83975588  0.75000000  0.06944762  1.0
  Rh  Rh5  1  0.33975588  0.75000000  0.43055238  1.0
  Rh  Rh6  1  0.16024412  0.25000000  0.93055238  1.0
  Rh  Rh7  1  0.66024412  0.25000000  0.56944762  1.0
  Rh  Rh8  1  0.96117748  0.75000000  0.70119987  1.0
  Rh  Rh9  1  0.46117748  0.75000000  0.79880013  1.0
  Rh  Rh10  1  0.03882252  0.25000000  0.29880013  1.0
  Rh  Rh11  1  0.53882252  0.25000000  0.20119987  1.0
