# generated using pymatgen
data_Na3CaAl3Si3CO15
_symmetry_space_group_name_H-M   'P 1'
_cell_length_a   12.10442379
_cell_length_b   12.10442379
_cell_length_c   5.44893972
_cell_angle_alpha   90.00000000
_cell_angle_beta   90.00000000
_cell_angle_gamma   120.00000000
_symmetry_Int_Tables_number   1
_chemical_formula_structural   Na3CaAl3Si3CO15
_chemical_formula_sum   'Na6 Ca2 Al6 Si6 C2 O30'
_cell_volume   691.40238917
_cell_formula_units_Z   2
loop_
 _symmetry_equiv_pos_site_id
 _symmetry_equiv_pos_as_xyz
  1  'x, y, z'
loop_
 _atom_site_type_symbol
 _atom_site_label
 _atom_site_symmetry_multiplicity
 _atom_site_fract_x
 _atom_site_fract_y
 _atom_site_fract_z
 _atom_site_occupancy
  Al  Al0  1  -0.00834633  0.18140712  0.50003860  1.0
  Al  Al1  1  0.18975344  1.00834633  0.50003860  1.0
  Al  Al2  1  0.81859288  0.81024656  0.50003860  1.0
  Al  Al3  1  1.00834633  0.81859288  0.00003860  1.0
  Al  Al4  1  0.81024656  -0.00834633  0.00003860  1.0
  Al  Al5  1  0.18140712  0.18975344  0.00003860  1.0
  Ca  Ca6  1  0.33333333  0.66666667  0.13424953  1.0
  Ca  Ca7  1  0.66666667  0.33333333  0.63424953  1.0
  Na  Na8  1  0.01959170  0.58289191  0.72998904  1.0
  Na  Na9  1  0.56330021  -0.01959170  0.72998904  1.0
  Na  Na10  1  0.41710809  0.43669979  0.72998904  1.0
  Na  Na11  1  -0.01959170  0.41710809  0.22998904  1.0
  Na  Na12  1  0.43669979  0.01959170  0.22998904  1.0
  Na  Na13  1  0.58289191  0.56330021  0.22998904  1.0
  Si  Si14  1  0.15274250  0.41947790  0.76473837  1.0
  Si  Si15  1  0.26673541  0.84725750  0.76473837  1.0
  Si  Si16  1  0.58052210  0.73326459  0.76473837  1.0
  Si  Si17  1  0.84725750  0.58052210  0.26473837  1.0
  Si  Si18  1  0.73326459  0.15274250  0.26473837  1.0
  Si  Si19  1  0.41947790  0.26673541  0.26473837  1.0
  O  O20  1  0.64388375  0.15499495  0.48122161  1.0
  O  O21  1  0.51111120  0.35611625  0.48122161  1.0
  O  O22  1  0.84500505  0.48888880  0.48122161  1.0
  O  O23  1  0.35611625  0.84500505  -0.01877839  1.0
  O  O24  1  0.48888880  0.64388375  -0.01877839  1.0
  O  O25  1  0.15499495  0.51111120  -0.01877839  1.0
  O  O26  1  0.03718377  0.36453506  0.57733061  1.0
  O  O27  1  0.32735129  0.96281623  0.57733061  1.0
  O  O28  1  0.63546494  0.67264871  0.57733061  1.0
  O  O29  1  0.96281623  0.63546494  1.07733061  1.0
  O  O30  1  0.67264871  0.03718377  1.07733061  1.0
  O  O31  1  0.36453506  0.32735129  1.07733061  1.0
  O  O32  1  0.68231860  0.87917621  0.80016739  1.0
  O  O33  1  0.19685761  0.31768140  0.80016739  1.0
  O  O34  1  0.12082379  0.80314239  0.80016739  1.0
  O  O35  1  0.31768140  0.12082379  0.30016739  1.0
  O  O36  1  0.80314239  0.68231860  0.30016739  1.0
  O  O37  1  0.87917621  0.19685761  0.30016739  1.0
  O  O38  1  0.92150712  0.10036827  0.78029812  1.0
  O  O39  1  0.17886116  0.07849288  0.78029812  1.0
  O  O40  1  0.89963173  0.82113884  0.78029812  1.0
  O  O41  1  0.07849288  0.89963173  0.28029812  1.0
  O  O42  1  0.82113884  0.92150712  0.28029812  1.0
  O  O43  1  0.10036827  0.17886116  0.28029812  1.0
  O  O44  1  0.54652777  0.24831227  1.08846926  1.0
  O  O45  1  0.70178451  0.45347223  1.08846926  1.0
  O  O46  1  0.75168773  0.29821549  1.08846926  1.0
  O  O47  1  0.45347223  0.75168773  0.58846926  1.0
  O  O48  1  0.29821549  0.54652777  0.58846926  1.0
  O  O49  1  0.24831227  0.70178451  0.58846926  1.0
  C  C50  1  0.33333333  0.66666667  0.59899150  1.0
  C  C51  1  0.66666667  0.33333333  0.09899150  1.0
