# generated using pymatgen
data_Mn(BH4)2
_symmetry_space_group_name_H-M   'P 1'
_cell_length_a   8.19290585
_cell_length_b   8.19290585
_cell_length_c   8.19290585
_cell_angle_alpha   124.23328243
_cell_angle_beta   124.23328243
_cell_angle_gamma   82.81188418
_symmetry_Int_Tables_number   1
_chemical_formula_structural   Mn(BH4)2
_chemical_formula_sum   'Mn4 B8 H32'
_cell_volume   360.86481956
_cell_formula_units_Z   4
loop_
 _symmetry_equiv_pos_site_id
 _symmetry_equiv_pos_as_xyz
  1  'x, y, z'
loop_
 _atom_site_type_symbol
 _atom_site_label
 _atom_site_symmetry_multiplicity
 _atom_site_fract_x
 _atom_site_fract_y
 _atom_site_fract_z
 _atom_site_occupancy
  H  H0  1  0.75875200  1.25353979  0.74791233  1.0
  H  H1  1  1.25875200  1.51083967  1.50521221  1.0
  H  H2  1  1.50353979  1.50875200  1.24791233  1.0
  H  H3  1  1.00353979  1.75562745  0.99478779  1.0
  H  H4  1  0.99124800  0.99646021  1.75208767  1.0
  H  H5  1  0.49124800  0.73916033  0.99478779  1.0
  H  H6  1  1.24646021  1.74124800  1.25208767  1.0
  H  H7  1  1.74646021  1.49437255  1.50521221  1.0
  H  H8  1  1.00562745  0.75353979  0.49478779  1.0
  H  H9  1  1.50562745  1.01083967  1.25208767  1.0
  H  H10  1  1.76083967  1.00875200  1.00521221  1.0
  H  H11  1  1.26083967  1.25562745  0.75208767  1.0
  H  H12  1  0.74437255  0.49646021  1.00521221  1.0
  H  H13  1  0.24437255  0.23916033  0.24791233  1.0
  H  H14  1  0.98916033  1.24124800  0.49478779  1.0
  H  H15  1  1.48916033  0.99437255  0.74791233  1.0
  H  H16  1  1.64205682  1.45618092  1.68658504  1.0
  H  H17  1  1.14205682  1.45547178  1.18587590  1.0
  H  H18  1  1.70618092  1.39205682  1.18658504  1.0
  H  H19  1  1.20618092  1.01959588  0.31412410  1.0
  H  H20  1  0.10794318  0.79381908  0.81341496  1.0
  H  H21  1  0.60794318  0.79452822  1.31412410  1.0
  H  H22  1  1.04381908  0.85794318  0.31341496  1.0
  H  H23  1  1.54381908  1.23040412  1.18587590  1.0
  H  H24  1  1.26959588  0.95618092  0.81412410  1.0
  H  H25  1  0.76959588  0.95547178  0.31341496  1.0
  H  H26  1  1.70547178  1.89205682  1.68587590  1.0
  H  H27  1  1.20547178  1.51959588  0.81341496  1.0
  H  H28  1  0.48040412  0.29381908  0.68587590  1.0
  H  H29  1  0.98040412  0.29452822  1.18658504  1.0
  H  H30  1  1.04452822  1.35794318  0.81412410  1.0
  H  H31  1  1.54452822  1.73040412  1.68658504  1.0
  Mn  Mn32  1  0.75000000  0.75000000  0.00000000  1.0
  Mn  Mn33  1  1.25000000  1.25000000  1.00000000  1.0
  Mn  Mn34  1  0.00000000  0.50000000  0.50000000  1.0
  Mn  Mn35  1  0.50000000  0.00000000  0.50000000  1.0
  B  B36  1  0.65634939  1.37500000  0.78134939  1.0
  B  B37  1  1.15634939  1.37500000  1.28134939  1.0
  B  B38  1  1.62500000  1.40634939  1.28134939  1.0
  B  B39  1  1.12500000  1.84365061  1.21865061  1.0
  B  B40  1  1.09365061  0.87500000  0.71865061  1.0
  B  B41  1  1.59365061  0.87500000  1.21865061  1.0
  B  B42  1  1.62500000  0.90634939  0.78134939  1.0
  B  B43  1  1.12500000  1.34365061  0.71865061  1.0
