# generated using pymatgen
data_BaP3Pt2
_symmetry_space_group_name_H-M   'P 1'
_cell_length_a   8.38409060
_cell_length_b   5.83858562
_cell_length_c   11.78491895
_cell_angle_alpha   90.00000000
_cell_angle_beta   106.53691804
_cell_angle_gamma   90.00000000
_symmetry_Int_Tables_number   1
_chemical_formula_structural   BaP3Pt2
_chemical_formula_sum   'Ba4 P12 Pt8'
_cell_volume   553.02427072
_cell_formula_units_Z   4
loop_
 _symmetry_equiv_pos_site_id
 _symmetry_equiv_pos_as_xyz
  1  'x, y, z'
loop_
 _atom_site_type_symbol
 _atom_site_label
 _atom_site_symmetry_multiplicity
 _atom_site_fract_x
 _atom_site_fract_y
 _atom_site_fract_z
 _atom_site_occupancy
  Ba  Ba0  1  0.75956439  0.41487488  0.14783619  1.0
  Ba  Ba1  1  0.75956439  0.08512512  0.64783619  1.0
  Ba  Ba2  1  0.24043561  0.91487488  0.35216381  1.0
  Ba  Ba3  1  0.24043561  0.58512512  0.85216381  1.0
  P  P4  1  0.93124542  0.12132106  0.43016163  1.0
  P  P5  1  0.93124542  0.37867894  0.93016163  1.0
  P  P6  1  0.06875458  0.62132106  0.06983837  1.0
  P  P7  1  0.06875458  0.87867894  0.56983837  1.0
  P  P8  1  0.72457442  0.88333170  0.91644891  1.0
  P  P9  1  0.72457442  0.61666830  0.41644891  1.0
  P  P10  1  0.27542558  0.38333170  0.58355109  1.0
  P  P11  1  0.27542558  0.11666830  0.08355109  1.0
  P  P12  1  0.54443631  0.34833664  0.32513930  1.0
  P  P13  1  0.54443631  0.15166336  0.82513930  1.0
  P  P14  1  0.45556369  0.84833664  0.17486070  1.0
  P  P15  1  0.45556369  0.65166336  0.67486070  1.0
  Pt  Pt16  1  0.66183567  0.98467372  0.33857381  1.0
  Pt  Pt17  1  0.66183567  0.51532628  0.83857381  1.0
  Pt  Pt18  1  0.33816433  0.48467372  0.16142619  1.0
  Pt  Pt19  1  0.33816433  0.01532628  0.66142619  1.0
  Pt  Pt20  1  0.50000000  0.50000000  0.50000000  1.0
  Pt  Pt21  1  0.50000000  0.00000000  0.00000000  1.0
  Pt  Pt22  1  -0.00000000  0.50000000  0.50000000  1.0
  Pt  Pt23  1  0.00000000  0.00000000  0.00000000  1.0
