# generated using pymatgen
data_NaMgCl3
_symmetry_space_group_name_H-M   'P 1'
_cell_length_a   7.35260327
_cell_length_b   7.35260327
_cell_length_c   7.35260327
_cell_angle_alpha   53.24830764
_cell_angle_beta   53.24830764
_cell_angle_gamma   53.24830764
_symmetry_Int_Tables_number   1
_chemical_formula_structural   NaMgCl3
_chemical_formula_sum   'Na2 Mg2 Cl6'
_cell_volume   236.62361018
_cell_formula_units_Z   2
loop_
 _symmetry_equiv_pos_site_id
 _symmetry_equiv_pos_as_xyz
  1  'x, y, z'
loop_
 _atom_site_type_symbol
 _atom_site_label
 _atom_site_symmetry_multiplicity
 _atom_site_fract_x
 _atom_site_fract_y
 _atom_site_fract_z
 _atom_site_occupancy
  Na  Na0  1  0.14502142  0.14502142  0.14502142  1.0
  Na  Na1  1  0.85497858  -0.14502142  -0.14502142  1.0
  Mg  Mg2  1  0.33903456  0.33903456  -0.66096544  1.0
  Mg  Mg3  1  0.66096544  0.66096544  -0.33903456  1.0
  Cl  Cl4  1  0.45068198  0.06633250  -0.28914946  1.0
  Cl  Cl5  1  1.28914946  -0.45068198  -0.06633250  1.0
  Cl  Cl6  1  0.93366750  0.28914946  -0.45068198  1.0
  Cl  Cl7  1  0.54931802  -0.06633250  0.28914946  1.0
  Cl  Cl8  1  0.71085054  -0.54931802  0.06633250  1.0
  Cl  Cl9  1  1.06633250  -0.28914946  -0.54931802  1.0
