# generated using pymatgen
data_TlVSeO5
_symmetry_space_group_name_H-M   'P 1'
_cell_length_a   7.26477402
_cell_length_b   8.82897658
_cell_length_c   8.03092909
_cell_angle_alpha   90.00000000
_cell_angle_beta   90.00000000
_cell_angle_gamma   90.00000000
_symmetry_Int_Tables_number   1
_chemical_formula_structural   TlVSeO5
_chemical_formula_sum   'Tl4 V4 Se4 O20'
_cell_volume   515.10796554
_cell_formula_units_Z   4
loop_
 _symmetry_equiv_pos_site_id
 _symmetry_equiv_pos_as_xyz
  1  'x, y, z'
loop_
 _atom_site_type_symbol
 _atom_site_label
 _atom_site_symmetry_multiplicity
 _atom_site_fract_x
 _atom_site_fract_y
 _atom_site_fract_z
 _atom_site_occupancy
  Tl  Tl0  1  0.53265187  0.10574996  0.31756301  1.0
  Tl  Tl1  1  0.03265187  0.39425004  0.31756301  1.0
  Tl  Tl2  1  0.46734813  0.89425004  0.81756301  1.0
  Tl  Tl3  1  0.96734813  0.60574996  0.81756301  1.0
  V  V4  1  0.71521186  0.73910423  0.20877618  1.0
  V  V5  1  0.21521186  0.76089577  0.20877618  1.0
  V  V6  1  0.28478814  0.26089577  0.70877618  1.0
  V  V7  1  0.78478814  0.23910423  0.70877618  1.0
  Se  Se8  1  0.54907244  0.51448476  0.49766488  1.0
  Se  Se9  1  0.04907244  0.98551524  0.49766488  1.0
  Se  Se10  1  0.45092756  0.48551524  -0.00233512  1.0
  Se  Se11  1  0.95092756  0.01448476  -0.00233512  1.0
  O  O12  1  0.61198974  0.54482269  0.28844913  1.0
  O  O13  1  0.11198974  0.95517731  0.28844913  1.0
  O  O14  1  0.38801026  0.45517731  0.78844913  1.0
  O  O15  1  0.88801026  0.04482269  0.78844913  1.0
  O  O16  1  0.60618663  0.62809577  0.97084316  1.0
  O  O17  1  0.10618663  0.87190423  0.97084316  1.0
  O  O18  1  0.39381337  0.37190423  0.47084316  1.0
  O  O19  1  0.89381337  0.12809577  0.47084316  1.0
  O  O20  1  0.72145338  0.82058955  0.39118155  1.0
  O  O21  1  0.22145338  0.67941045  0.39118155  1.0
  O  O22  1  0.27854662  0.17941045  0.89118155  1.0
  O  O23  1  0.77854662  0.32058955  0.89118155  1.0
  O  O24  1  0.74795371  0.91746740  0.05910339  1.0
  O  O25  1  0.24795371  0.58253260  0.05910339  1.0
  O  O26  1  0.25204629  0.08253260  0.55910339  1.0
  O  O27  1  0.75204629  0.41746740  0.55910339  1.0
  O  O28  1  0.93193376  0.67957667  0.17501870  1.0
  O  O29  1  0.43193376  0.82042333  0.17501870  1.0
  O  O30  1  0.06806624  0.32042333  0.67501870  1.0
  O  O31  1  0.56806624  0.17957667  0.67501870  1.0
