# generated using pymatgen
data_FeBO3
_symmetry_space_group_name_H-M   'P 1'
_cell_length_a   5.60755219
_cell_length_b   5.60755219
_cell_length_c   5.60755219
_cell_angle_alpha   49.47610195
_cell_angle_beta   49.47610195
_cell_angle_gamma   49.47610195
_symmetry_Int_Tables_number   1
_chemical_formula_structural   FeBO3
_chemical_formula_sum   'Fe2 B2 O6'
_cell_volume   93.64808328
_cell_formula_units_Z   2
loop_
 _symmetry_equiv_pos_site_id
 _symmetry_equiv_pos_as_xyz
  1  'x, y, z'
loop_
 _atom_site_type_symbol
 _atom_site_label
 _atom_site_symmetry_multiplicity
 _atom_site_fract_x
 _atom_site_fract_y
 _atom_site_fract_z
 _atom_site_occupancy
  Fe  Fe0  1  1.00000000  0.00000000  0.00000000  1.0
  Fe  Fe1  1  0.50000000  0.50000000  0.50000000  1.0
  B  B2  1  0.75000000  0.75000000  -0.25000000  1.0
  B  B3  1  0.25000000  0.25000000  0.25000000  1.0
  O  O4  1  0.45498586  0.75000000  0.04501414  1.0
  O  O5  1  0.95498586  -0.45498586  0.25000000  1.0
  O  O6  1  0.25000000  0.95498586  -0.45498586  1.0
  O  O7  1  0.75000000  1.04501414  -0.54501414  1.0
  O  O8  1  0.54501414  0.25000000  -0.04501414  1.0
  O  O9  1  1.04501414  0.45498586  -0.25000000  1.0
