# generated using pymatgen
data_CaP2H6O7
_symmetry_space_group_name_H-M   'P 1'
_cell_length_a   8.17328289
_cell_length_b   6.85187182
_cell_length_c   7.12186108
_cell_angle_alpha   84.18304307
_cell_angle_beta   68.29011950
_cell_angle_gamma   84.91078295
_symmetry_Int_Tables_number   1
_chemical_formula_structural   CaP2H6O7
_chemical_formula_sum   'Ca2 P4 H12 O14'
_cell_volume   368.07582347
_cell_formula_units_Z   2
loop_
 _symmetry_equiv_pos_site_id
 _symmetry_equiv_pos_as_xyz
  1  'x, y, z'
loop_
 _atom_site_type_symbol
 _atom_site_label
 _atom_site_symmetry_multiplicity
 _atom_site_fract_x
 _atom_site_fract_y
 _atom_site_fract_z
 _atom_site_occupancy
  Ca  Ca0  1  0.73708525  0.35743498  0.87012208  1.0
  Ca  Ca1  1  0.26291475  0.64256502  0.12987792  1.0
  P  P2  1  0.71611835  0.81197514  0.95933574  1.0
  P  P3  1  0.28388165  0.18802486  0.04066426  1.0
  P  P4  1  0.30926800  0.74611813  0.59418508  1.0
  P  P5  1  0.69073200  0.25388187  0.40581492  1.0
  H  H6  1  0.26398854  0.98189823  0.37864371  1.0
  H  H7  1  0.73601146  0.01810177  0.62135629  1.0
  H  H8  1  0.69856097  0.84761340  0.15746893  1.0
  H  H9  1  0.30143903  0.15238660  0.84253107  1.0
  H  H10  1  0.88869153  0.82283321  0.36033741  1.0
  H  H11  1  0.11130847  0.17716679  0.63966259  1.0
  H  H12  1  0.48975320  0.74004351  0.56501344  1.0
  H  H13  1  0.51024680  0.25995649  0.43498656  1.0
  H  H14  1  1.00953952  0.69708700  0.86426679  1.0
  H  H15  1  -0.00953952  0.30291300  0.13573321  1.0
  H  H16  1  0.87294155  0.59374032  0.38941743  1.0
  H  H17  1  0.12705845  0.40625968  0.61058257  1.0
  O  O18  1  0.26320708  0.96764536  0.52429317  1.0
  O  O19  1  0.73679292  0.03235464  0.47570683  1.0
  O  O20  1  0.20679577  0.71628770  0.82325055  1.0
  O  O21  1  0.79320423  0.28371230  0.17674945  1.0
  O  O22  1  0.95239786  0.69831248  0.31261784  1.0
  O  O23  1  0.04760214  0.30168752  0.68738216  1.0
  O  O24  1  0.56893067  0.68760536  0.96284864  1.0
  O  O25  1  0.43106933  0.31239464  0.03715136  1.0
  O  O26  1  0.88515501  0.66462056  0.87623231  1.0
  O  O27  1  0.11484499  0.33537944  0.12376769  1.0
  O  O28  1  0.72098231  0.39708747  0.53902831  1.0
  O  O29  1  0.27901769  0.60291253  0.46097169  1.0
  O  O30  1  0.73909071  0.01036148  0.83567916  1.0
  O  O31  1  0.26090929  0.98963852  0.16432084  1.0
