# generated using pymatgen
data_Mg2Ga5Cu6
_symmetry_space_group_name_H-M   'P 1'
_cell_length_a   8.31044296
_cell_length_b   8.31044296
_cell_length_c   8.31044296
_cell_angle_alpha   90.00000000
_cell_angle_beta   90.00000000
_cell_angle_gamma   90.00000000
_symmetry_Int_Tables_number   1
_chemical_formula_structural   Mg2Ga5Cu6
_chemical_formula_sum   'Mg6 Ga15 Cu18'
_cell_volume   573.94796397
_cell_formula_units_Z   3
loop_
 _symmetry_equiv_pos_site_id
 _symmetry_equiv_pos_as_xyz
  1  'x, y, z'
loop_
 _atom_site_type_symbol
 _atom_site_label
 _atom_site_symmetry_multiplicity
 _atom_site_fract_x
 _atom_site_fract_y
 _atom_site_fract_z
 _atom_site_occupancy
  Mg  Mg0  1  0.81905316  0.00000000  0.50000000  1.0
  Mg  Mg1  1  0.00000000  0.50000000  0.81905316  1.0
  Mg  Mg2  1  0.00000000  0.50000000  0.18094684  1.0
  Mg  Mg3  1  0.50000000  0.81905316  -0.00000000  1.0
  Mg  Mg4  1  0.50000000  0.18094684  -0.00000000  1.0
  Mg  Mg5  1  0.18094684  0.00000000  0.50000000  1.0
  Ga  Ga6  1  0.71798635  0.71798635  0.71798635  1.0
  Ga  Ga7  1  0.71798635  0.71798635  0.28201365  1.0
  Ga  Ga8  1  0.71798635  0.28201365  0.71798635  1.0
  Ga  Ga9  1  0.71798635  0.28201365  0.28201365  1.0
  Ga  Ga10  1  0.28201365  0.71798635  0.71798635  1.0
  Ga  Ga11  1  0.28201365  0.71798635  0.28201365  1.0
  Ga  Ga12  1  0.28201365  0.28201365  0.71798635  1.0
  Ga  Ga13  1  0.28201365  0.28201365  0.28201365  1.0
  Ga  Ga14  1  0.66295145  0.50000000  -0.00000000  1.0
  Ga  Ga15  1  0.50000000  0.00000000  0.66295145  1.0
  Ga  Ga16  1  0.50000000  0.00000000  0.33704855  1.0
  Ga  Ga17  1  0.00000000  0.66295145  0.50000000  1.0
  Ga  Ga18  1  0.00000000  0.33704855  0.50000000  1.0
  Ga  Ga19  1  0.33704855  0.50000000  -0.00000000  1.0
  Ga  Ga20  1  0.00000000  0.00000000  0.00000000  1.0
  Cu  Cu21  1  0.00000000  0.83657296  0.74177611  1.0
  Cu  Cu22  1  0.00000000  0.83657296  0.25822389  1.0
  Cu  Cu23  1  0.00000000  0.16342704  0.74177611  1.0
  Cu  Cu24  1  0.00000000  0.16342704  0.25822389  1.0
  Cu  Cu25  1  0.83657296  0.74177611  0.00000000  1.0
  Cu  Cu26  1  0.83657296  0.25822389  0.00000000  1.0
  Cu  Cu27  1  0.74177611  0.00000000  0.83657296  1.0
  Cu  Cu28  1  0.74177611  0.00000000  0.16342704  1.0
  Cu  Cu29  1  0.16342704  0.74177611  0.00000000  1.0
  Cu  Cu30  1  0.16342704  0.25822389  0.00000000  1.0
  Cu  Cu31  1  0.25822389  0.00000000  0.83657296  1.0
  Cu  Cu32  1  0.25822389  0.00000000  0.16342704  1.0
  Cu  Cu33  1  0.72478252  0.50000000  0.50000000  1.0
  Cu  Cu34  1  0.50000000  0.50000000  0.72478252  1.0
  Cu  Cu35  1  0.50000000  0.50000000  0.27521748  1.0
  Cu  Cu36  1  0.50000000  0.72478252  0.50000000  1.0
  Cu  Cu37  1  0.50000000  0.27521748  0.50000000  1.0
  Cu  Cu38  1  0.27521748  0.50000000  0.50000000  1.0
