# generated using pymatgen
data_TiV4Si3
_symmetry_space_group_name_H-M   'P 1'
_cell_length_a   7.13865149
_cell_length_b   7.13865149
_cell_length_c   7.13865149
_cell_angle_alpha   96.25556314
_cell_angle_beta   96.25556314
_cell_angle_gamma   141.45079095
_symmetry_Int_Tables_number   1
_chemical_formula_structural   TiV4Si3
_chemical_formula_sum   'Ti2 V8 Si6'
_cell_volume   214.00030471
_cell_formula_units_Z   2
loop_
 _symmetry_equiv_pos_site_id
 _symmetry_equiv_pos_as_xyz
  1  'x, y, z'
loop_
 _atom_site_type_symbol
 _atom_site_label
 _atom_site_symmetry_multiplicity
 _atom_site_fract_x
 _atom_site_fract_y
 _atom_site_fract_z
 _atom_site_occupancy
  Ti  Ti0  1  0.75000000  1.25000000  0.50000000  1.0
  Ti  Ti1  1  0.25000000  0.75000000  0.50000000  1.0
  V  V2  1  0.07224968  0.22064489  0.29289457  1.0
  V  V3  1  0.92775032  0.77935511  1.70710543  1.0
  V  V4  1  0.57224968  1.27935511  0.85160479  1.0
  V  V5  1  1.42775032  0.72064489  1.14839521  1.0
  V  V6  1  0.77935511  1.07224968  0.85160479  1.0
  V  V7  1  1.22064489  0.92775032  1.14839521  1.0
  V  V8  1  0.72064489  0.57224968  1.29289457  1.0
  V  V9  1  0.27935511  0.42775032  0.70710543  1.0
  Si  Si10  1  0.17030476  0.67030476  0.84060951  1.0
  Si  Si11  1  0.82969524  0.32969524  1.15939049  1.0
  Si  Si12  1  0.67030476  0.82969524  0.50000000  1.0
  Si  Si13  1  1.32969524  1.17030476  1.50000000  1.0
  Si  Si14  1  0.75000000  0.75000000  0.00000000  1.0
  Si  Si15  1  0.25000000  0.25000000  -0.00000000  1.0
