# generated using pymatgen
data_SiNi2P
_symmetry_space_group_name_H-M   'P 1'
_cell_length_a   4.99273782
_cell_length_b   13.66940765
_cell_length_c   5.90067111
_cell_angle_alpha   90.00000000
_cell_angle_beta   90.00000000
_cell_angle_gamma   90.00000000
_symmetry_Int_Tables_number   1
_chemical_formula_structural   SiNi2P
_chemical_formula_sum   'Si8 Ni16 P8'
_cell_volume   402.70763619
_cell_formula_units_Z   8
loop_
 _symmetry_equiv_pos_site_id
 _symmetry_equiv_pos_as_xyz
  1  'x, y, z'
loop_
 _atom_site_type_symbol
 _atom_site_label
 _atom_site_symmetry_multiplicity
 _atom_site_fract_x
 _atom_site_fract_y
 _atom_site_fract_z
 _atom_site_occupancy
  Si  Si0  1  0.31818802  0.05986535  0.07734102  1.0
  Si  Si1  1  0.31818802  0.44013465  0.57734102  1.0
  Si  Si2  1  0.81818802  0.05986535  0.42265898  1.0
  Si  Si3  1  0.81818802  0.44013465  0.92265898  1.0
  Si  Si4  1  0.68181198  0.55986535  0.42265898  1.0
  Si  Si5  1  0.68181198  0.94013465  0.92265898  1.0
  Si  Si6  1  0.18181198  0.55986535  0.07734102  1.0
  Si  Si7  1  0.18181198  0.94013465  0.57734102  1.0
  Ni  Ni8  1  0.48680170  0.43478044  0.19793276  1.0
  Ni  Ni9  1  0.48680170  0.06521956  0.69793276  1.0
  Ni  Ni10  1  0.98680170  0.43478044  0.30206724  1.0
  Ni  Ni11  1  0.98680170  0.06521956  0.80206724  1.0
  Ni  Ni12  1  0.51319830  0.93478044  0.30206724  1.0
  Ni  Ni13  1  0.51319830  0.56521956  0.80206724  1.0
  Ni  Ni14  1  0.01319830  0.93478044  0.19793276  1.0
  Ni  Ni15  1  0.01319830  0.56521956  0.69793276  1.0
  Ni  Ni16  1  0.01331548  0.17714177  0.19626407  1.0
  Ni  Ni17  1  0.01331548  0.32285823  0.69626407  1.0
  Ni  Ni18  1  0.51331548  0.17714177  0.30373593  1.0
  Ni  Ni19  1  0.51331548  0.32285823  0.80373593  1.0
  Ni  Ni20  1  0.98668452  0.67714177  0.30373593  1.0
  Ni  Ni21  1  0.98668452  0.82285823  0.80373593  1.0
  Ni  Ni22  1  0.48668452  0.67714177  0.19626407  1.0
  Ni  Ni23  1  0.48668452  0.82285823  0.69626407  1.0
  P  P24  1  0.18177319  0.31897466  0.06012760  1.0
  P  P25  1  0.18177319  0.18102534  0.56012760  1.0
  P  P26  1  0.68177319  0.31897466  0.43987240  1.0
  P  P27  1  0.68177319  0.18102534  0.93987240  1.0
  P  P28  1  0.81822681  0.81897466  0.43987240  1.0
  P  P29  1  0.81822681  0.68102534  0.93987240  1.0
  P  P30  1  0.31822681  0.81897466  0.06012760  1.0
  P  P31  1  0.31822681  0.68102534  0.56012760  1.0
