# generated using pymatgen
data_Lu3C4
_symmetry_space_group_name_H-M   'P 1'
_cell_length_a   7.86489447
_cell_length_b   7.86489447
_cell_length_c   15.65876806
_cell_angle_alpha   90.00000000
_cell_angle_beta   90.00000000
_cell_angle_gamma   90.00000000
_symmetry_Int_Tables_number   1
_chemical_formula_structural   Lu3C4
_chemical_formula_sum   'Lu30 C40'
_cell_volume   968.59760463
_cell_formula_units_Z   10
loop_
 _symmetry_equiv_pos_site_id
 _symmetry_equiv_pos_as_xyz
  1  'x, y, z'
loop_
 _atom_site_type_symbol
 _atom_site_label
 _atom_site_symmetry_multiplicity
 _atom_site_fract_x
 _atom_site_fract_y
 _atom_site_fract_z
 _atom_site_occupancy
  Lu  Lu0  1  0.39959661  0.78815559  0.35470294  1.0
  Lu  Lu1  1  0.39959661  0.78815559  0.64529706  1.0
  Lu  Lu2  1  0.89959661  0.71184441  0.85470294  1.0
  Lu  Lu3  1  0.89959661  0.71184441  0.14529706  1.0
  Lu  Lu4  1  0.21184441  0.39959661  0.35470294  1.0
  Lu  Lu5  1  0.21184441  0.39959661  0.64529706  1.0
  Lu  Lu6  1  0.71184441  0.10040339  0.85470294  1.0
  Lu  Lu7  1  0.71184441  0.10040339  0.14529706  1.0
  Lu  Lu8  1  0.60040339  0.21184441  0.35470294  1.0
  Lu  Lu9  1  0.60040339  0.21184441  0.64529706  1.0
  Lu  Lu10  1  0.10040339  0.28815559  0.85470294  1.0
  Lu  Lu11  1  0.10040339  0.28815559  0.14529706  1.0
  Lu  Lu12  1  0.78815559  0.60040339  0.35470294  1.0
  Lu  Lu13  1  0.78815559  0.60040339  0.64529706  1.0
  Lu  Lu14  1  0.28815559  0.89959661  0.85470294  1.0
  Lu  Lu15  1  0.28815559  0.89959661  0.14529706  1.0
  Lu  Lu16  1  0.50000000  0.50000000  0.18707293  1.0
  Lu  Lu17  1  0.50000000  0.50000000  0.81292707  1.0
  Lu  Lu18  1  0.00000000  0.00000000  0.68707293  1.0
  Lu  Lu19  1  0.00000000  0.00000000  0.31292707  1.0
  Lu  Lu20  1  0.09627379  0.70138231  0.50000000  1.0
  Lu  Lu21  1  0.59627379  0.79861769  0.00000000  1.0
  Lu  Lu22  1  0.29861769  0.09627379  0.50000000  1.0
  Lu  Lu23  1  0.79861769  0.40372621  0.00000000  1.0
  Lu  Lu24  1  0.90372621  0.29861769  0.50000000  1.0
  Lu  Lu25  1  0.40372621  0.20138231  0.00000000  1.0
  Lu  Lu26  1  0.70138231  0.90372621  0.50000000  1.0
  Lu  Lu27  1  0.20138231  0.59627379  0.00000000  1.0
  Lu  Lu28  1  0.50000000  0.50000000  0.50000000  1.0
  Lu  Lu29  1  0.00000000  0.00000000  0.00000000  1.0
  C  C30  1  0.50000000  0.50000000  0.04173371  1.0
  C  C31  1  0.50000000  0.50000000  0.95826629  1.0
  C  C32  1  0.00000000  0.00000000  0.54173371  1.0
  C  C33  1  0.00000000  0.00000000  0.45826629  1.0
  C  C34  1  0.39356250  0.80382390  0.50000000  1.0
  C  C35  1  0.89356250  0.69617610  0.00000000  1.0
  C  C36  1  0.19617610  0.39356250  0.50000000  1.0
  C  C37  1  0.69617610  0.10643750  0.00000000  1.0
  C  C38  1  0.60643750  0.19617610  0.50000000  1.0
  C  C39  1  0.10643750  0.30382390  0.00000000  1.0
  C  C40  1  0.80382390  0.60643750  0.50000000  1.0
  C  C41  1  0.30382390  0.89356250  0.00000000  1.0
  C  C42  1  0.50000000  0.50000000  0.34289564  1.0
  C  C43  1  0.50000000  0.50000000  0.65710436  1.0
  C  C44  1  0.00000000  0.00000000  0.84289564  1.0
  C  C45  1  0.00000000  0.00000000  0.15710436  1.0
  C  C46  1  0.35012787  0.14987213  0.25000000  1.0
  C  C47  1  0.35012787  0.14987213  0.75000000  1.0
  C  C48  1  0.85012787  0.35012787  0.75000000  1.0
  C  C49  1  0.85012787  0.35012787  0.25000000  1.0
  C  C50  1  0.64987213  0.85012787  0.25000000  1.0
  C  C51  1  0.64987213  0.85012787  0.75000000  1.0
  C  C52  1  0.14987213  0.64987213  0.75000000  1.0
  C  C53  1  0.14987213  0.64987213  0.25000000  1.0
  C  C54  1  0.19302158  0.59735917  0.17082274  1.0
  C  C55  1  0.19302158  0.59735917  0.82917726  1.0
  C  C56  1  0.69302158  0.90264083  0.67082274  1.0
  C  C57  1  0.69302158  0.90264083  0.32917726  1.0
  C  C58  1  0.40264083  0.19302158  0.17082274  1.0
  C  C59  1  0.40264083  0.19302158  0.82917726  1.0
  C  C60  1  0.90264083  0.30697842  0.67082274  1.0
  C  C61  1  0.90264083  0.30697842  0.32917726  1.0
  C  C62  1  0.80697842  0.40264083  0.17082274  1.0
  C  C63  1  0.80697842  0.40264083  0.82917726  1.0
  C  C64  1  0.30697842  0.09735917  0.67082274  1.0
  C  C65  1  0.30697842  0.09735917  0.32917726  1.0
  C  C66  1  0.59735917  0.80697842  0.17082274  1.0
  C  C67  1  0.59735917  0.80697842  0.82917726  1.0
  C  C68  1  0.09735917  0.69302158  0.67082274  1.0
  C  C69  1  0.09735917  0.69302158  0.32917726  1.0
