# generated using pymatgen
data_InS
_symmetry_space_group_name_H-M   'P 1'
_cell_length_a   9.37019206
_cell_length_b   3.85903864
_cell_length_c   5.35145656
_cell_angle_alpha   90.00000000
_cell_angle_beta   90.00000000
_cell_angle_gamma   90.00000000
_symmetry_Int_Tables_number   1
_chemical_formula_structural   InS
_chemical_formula_sum   'In4 S4'
_cell_volume   193.50831198
_cell_formula_units_Z   4
loop_
 _symmetry_equiv_pos_site_id
 _symmetry_equiv_pos_as_xyz
  1  'x, y, z'
loop_
 _atom_site_type_symbol
 _atom_site_label
 _atom_site_symmetry_multiplicity
 _atom_site_fract_x
 _atom_site_fract_y
 _atom_site_fract_z
 _atom_site_occupancy
  In  In0  1  0.07244689  0.25000000  0.20073356  1.0
  In  In1  1  0.92755311  0.75000000  0.79926644  1.0
  In  In2  1  0.42755311  0.75000000  0.70073356  1.0
  In  In3  1  0.57244689  0.25000000  0.29926644  1.0
  S  S4  1  0.83777401  0.25000000  0.51356048  1.0
  S  S5  1  0.16222599  0.75000000  0.48643952  1.0
  S  S6  1  0.66222599  0.75000000  0.01356048  1.0
  S  S7  1  0.33777401  0.25000000  0.98643952  1.0
