# generated using pymatgen
data_Li8La7Ge10
_symmetry_space_group_name_H-M   'P 1'
_cell_length_a   17.42889227
_cell_length_b   17.42889227
_cell_length_c   4.53828498
_cell_angle_alpha   90.00000000
_cell_angle_beta   90.00000000
_cell_angle_gamma   156.75027531
_symmetry_Int_Tables_number   1
_chemical_formula_structural   Li8La7Ge10
_chemical_formula_sum   'Li8 La7 Ge10'
_cell_volume   544.17909866
_cell_formula_units_Z   1
loop_
 _symmetry_equiv_pos_site_id
 _symmetry_equiv_pos_as_xyz
  1  'x, y, z'
loop_
 _atom_site_type_symbol
 _atom_site_label
 _atom_site_symmetry_multiplicity
 _atom_site_fract_x
 _atom_site_fract_y
 _atom_site_fract_z
 _atom_site_occupancy
  Li  Li0  1  -0.11468376  0.73595949  0.50000000  1.0
  Li  Li1  1  0.73595949  0.88531624  0.50000000  1.0
  Li  Li2  1  0.26404051  1.11468376  0.50000000  1.0
  Li  Li3  1  0.11468376  0.26404051  0.50000000  1.0
  Li  Li4  1  -0.16938239  0.54315355  0.00000000  1.0
  Li  Li5  1  0.54315355  0.83061761  -0.00000000  1.0
  Li  Li6  1  0.45684645  1.16938239  -0.00000000  1.0
  Li  Li7  1  0.16938239  0.45684645  0.00000000  1.0
  La  La8  1  0.16022423  0.83977577  0.50000000  1.0
  La  La9  1  -0.16022423  0.16022423  0.50000000  1.0
  La  La10  1  0.27891139  0.72108861  0.50000000  1.0
  La  La11  1  -0.27891139  0.27891139  0.50000000  1.0
  La  La12  1  0.44194909  0.55805091  0.00000000  1.0
  La  La13  1  -0.44194909  0.44194909  0.00000000  1.0
  La  La14  1  0.00000000  0.00000000  0.00000000  1.0
  Ge  Ge15  1  0.03485660  0.60334781  0.00000000  1.0
  Ge  Ge16  1  0.60334781  1.03485660  0.00000000  1.0
  Ge  Ge17  1  0.39665219  0.96514340  0.00000000  1.0
  Ge  Ge18  1  -0.03485660  0.39665219  0.00000000  1.0
  Ge  Ge19  1  0.37331800  0.62668200  0.50000000  1.0
  Ge  Ge20  1  -0.37331800  0.37331800  0.50000000  1.0
  Ge  Ge21  1  0.09407696  0.90592304  0.00000000  1.0
  Ge  Ge22  1  -0.09407696  0.09407696  0.00000000  1.0
  Ge  Ge23  1  0.68265465  0.68265465  0.50000000  1.0
  Ge  Ge24  1  0.31734535  0.31734535  0.50000000  1.0
