# generated using pymatgen
data_BaZnSiO4
_symmetry_space_group_name_H-M   'P 1'
_cell_length_a   9.22797113
_cell_length_b   9.22797113
_cell_length_c   8.82858122
_cell_angle_alpha   90.00000000
_cell_angle_beta   90.00000000
_cell_angle_gamma   120.00000000
_symmetry_Int_Tables_number   1
_chemical_formula_structural   BaZnSiO4
_chemical_formula_sum   'Ba6 Zn6 Si6 O24'
_cell_volume   651.07947146
_cell_formula_units_Z   6
loop_
 _symmetry_equiv_pos_site_id
 _symmetry_equiv_pos_as_xyz
  1  'x, y, z'
loop_
 _atom_site_type_symbol
 _atom_site_label
 _atom_site_symmetry_multiplicity
 _atom_site_fract_x
 _atom_site_fract_y
 _atom_site_fract_z
 _atom_site_occupancy
  Ba  Ba0  1  0.33333333  0.66666667  0.03708192  1.0
  Ba  Ba1  1  0.66666667  0.33333333  0.53708192  1.0
  Ba  Ba2  1  0.33333333  0.66666667  0.51940192  1.0
  Ba  Ba3  1  0.66666667  0.33333333  0.01940192  1.0
  Ba  Ba4  1  0.00000000  0.00000000  0.04043473  1.0
  Ba  Ba5  1  0.00000000  0.00000000  0.54043473  1.0
  Zn  Zn6  1  0.33284616  0.99374646  0.22560692  1.0
  Zn  Zn7  1  0.99374646  0.66090029  0.72560692  1.0
  Zn  Zn8  1  0.66090029  0.66715384  0.22560692  1.0
  Zn  Zn9  1  0.00625354  0.33909971  0.22560692  1.0
  Zn  Zn10  1  0.66715384  0.00625354  0.72560692  1.0
  Zn  Zn11  1  0.33909971  0.33284616  0.72560692  1.0
  Si  Si12  1  0.98839723  0.66623817  0.32672042  1.0
  Si  Si13  1  0.66623817  0.67784094  0.82672042  1.0
  Si  Si14  1  0.67784094  0.01160277  0.32672042  1.0
  Si  Si15  1  0.33376183  0.32215906  0.32672042  1.0
  Si  Si16  1  0.01160277  0.33376183  0.82672042  1.0
  Si  Si17  1  0.32215906  0.98839723  0.82672042  1.0
  O  O18  1  0.29367932  0.93275068  0.00626360  1.0
  O  O19  1  0.93275068  0.63907136  0.50626360  1.0
  O  O20  1  0.63907136  0.70632068  0.00626360  1.0
  O  O21  1  0.06724932  0.36092864  0.00626360  1.0
  O  O22  1  0.70632068  0.06724932  0.50626360  1.0
  O  O23  1  0.36092864  0.29367932  0.50626360  1.0
  O  O24  1  0.47559359  0.90090137  0.28612901  1.0
  O  O25  1  0.90090137  0.42530778  0.78612901  1.0
  O  O26  1  0.42530778  0.52440641  0.28612901  1.0
  O  O27  1  0.09909863  0.57469222  0.28612901  1.0
  O  O28  1  0.52440641  0.09909863  0.78612901  1.0
  O  O29  1  0.57469222  0.47559359  0.78612901  1.0
  O  O30  1  0.10060242  0.86967661  0.29717346  1.0
  O  O31  1  0.86967661  0.76907419  0.79717346  1.0
  O  O32  1  0.76907419  0.89939758  0.29717346  1.0
  O  O33  1  0.13032339  0.23092581  0.29717346  1.0
  O  O34  1  0.89939758  0.13032339  0.79717346  1.0
  O  O35  1  0.23092581  0.10060242  0.79717346  1.0
  O  O36  1  0.81400140  0.57827349  0.22646706  1.0
  O  O37  1  0.57827349  0.76427210  0.72646706  1.0
  O  O38  1  0.76427210  0.18599861  0.22646706  1.0
  O  O39  1  0.42172651  0.23572790  0.22646706  1.0
  O  O40  1  0.18599861  0.42172651  0.72646706  1.0
  O  O41  1  0.23572790  0.81400139  0.72646706  1.0
