# generated using pymatgen
data_Gd2Re2Si2C
_symmetry_space_group_name_H-M   'P 1'
_cell_length_a   5.84075133
_cell_length_b   5.84075133
_cell_length_c   7.00895428
_cell_angle_alpha   55.14887106
_cell_angle_beta   124.85112894
_cell_angle_gamma   139.84071765
_symmetry_Int_Tables_number   1
_chemical_formula_structural   Gd2Re2Si2C
_chemical_formula_sum   'Gd2 Re2 Si2 C1'
_cell_volume   122.37686121
_cell_formula_units_Z   1
loop_
 _symmetry_equiv_pos_site_id
 _symmetry_equiv_pos_as_xyz
  1  'x, y, z'
loop_
 _atom_site_type_symbol
 _atom_site_label
 _atom_site_symmetry_multiplicity
 _atom_site_fract_x
 _atom_site_fract_y
 _atom_site_fract_z
 _atom_site_occupancy
  Gd  Gd0  1  1.42734344  -0.42734344  0.69955361  1.0
  Gd  Gd1  1  0.57265656  0.42734344  0.30044639  1.0
  Re  Re2  1  0.79365356  0.20634644  0.91094930  1.0
  Re  Re3  1  1.20634644  -0.20634644  0.08905070  1.0
  Si  Si4  1  0.85717200  -0.85717200  0.31581796  1.0
  Si  Si5  1  0.14282800  -0.14282800  0.68418204  1.0
  C  C6  1  0.00000000  0.00000000  0.00000000  1.0
