# generated using pymatgen
data_MgH6(BrN)2
_symmetry_space_group_name_H-M   'P 1'
_cell_length_a   6.09164816
_cell_length_b   8.05117062
_cell_length_c   12.20199627
_cell_angle_alpha   90.00000000
_cell_angle_beta   90.00000000
_cell_angle_gamma   90.00000000
_symmetry_Int_Tables_number   1
_chemical_formula_structural   MgH6(BrN)2
_chemical_formula_sum   'Mg4 H24 Br8 N8'
_cell_volume   598.44567109
_cell_formula_units_Z   4
loop_
 _symmetry_equiv_pos_site_id
 _symmetry_equiv_pos_as_xyz
  1  'x, y, z'
loop_
 _atom_site_type_symbol
 _atom_site_label
 _atom_site_symmetry_multiplicity
 _atom_site_fract_x
 _atom_site_fract_y
 _atom_site_fract_z
 _atom_site_occupancy
  Mg  Mg0  1  0.50069767  0.75000000  0.49994451  1.0
  Mg  Mg1  1  1.00069767  0.75000000  1.00005549  1.0
  Mg  Mg2  1  0.49930233  0.25000000  0.50005549  1.0
  Mg  Mg3  1  -0.00069767  0.25000000  -0.00005549  1.0
  H  H4  1  0.27341564  0.35093878  0.68040141  1.0
  H  H5  1  0.27341564  0.14906122  0.68040141  1.0
  H  H6  1  0.77341564  0.35093878  0.81959859  1.0
  H  H7  1  0.77341564  0.14906122  0.81959859  1.0
  H  H8  1  0.72658436  0.85093878  0.31959859  1.0
  H  H9  1  0.72658436  0.64906122  0.31959859  1.0
  H  H10  1  0.22658436  0.85093878  0.18040141  1.0
  H  H11  1  0.22658436  0.64906122  0.18040141  1.0
  H  H12  1  0.13549315  0.85086925  0.60890485  1.0
  H  H13  1  0.13549315  0.64913075  0.60890485  1.0
  H  H14  1  0.63549315  0.85086925  0.89109515  1.0
  H  H15  1  0.63549315  0.64913075  0.89109515  1.0
  H  H16  1  0.86450685  0.35086925  0.39109515  1.0
  H  H17  1  0.86450685  0.14913075  0.39109515  1.0
  H  H18  1  0.36450685  0.35086925  0.10890485  1.0
  H  H19  1  0.36450685  0.14913075  0.10890485  1.0
  H  H20  1  0.40136335  0.75000000  0.10308136  1.0
  H  H21  1  0.90136335  0.75000000  0.39691864  1.0
  H  H22  1  0.59863665  0.25000000  0.89691864  1.0
  H  H23  1  0.09863665  0.25000000  0.60308136  1.0
  H  H24  1  0.28675784  0.75000000  0.69793906  1.0
  H  H25  1  0.78675784  0.75000000  0.80206094  1.0
  H  H26  1  0.71324216  0.25000000  0.30206094  1.0
  H  H27  1  0.21324216  0.25000000  0.19793906  1.0
  Br  Br28  1  0.21798875  0.99627232  0.88883134  1.0
  Br  Br29  1  0.21798875  0.50372768  0.88883134  1.0
  Br  Br30  1  0.71798875  0.99627232  0.61116866  1.0
  Br  Br31  1  0.71798875  0.50372768  0.61116866  1.0
  Br  Br32  1  0.78201125  0.49627232  0.11116866  1.0
  Br  Br33  1  0.78201125  0.00372768  0.11116866  1.0
  Br  Br34  1  0.28201125  0.49627232  0.38883134  1.0
  Br  Br35  1  0.28201125  0.00372768  0.38883134  1.0
  N  N36  1  0.24178505  0.75000000  0.12962552  1.0
  N  N37  1  0.74178505  0.75000000  0.37037448  1.0
  N  N38  1  0.75821495  0.25000000  0.87037448  1.0
  N  N39  1  0.25821495  0.25000000  0.62962552  1.0
  N  N40  1  0.23705327  0.75000000  0.61772031  1.0
  N  N41  1  0.73705327  0.75000000  0.88227969  1.0
  N  N42  1  0.76294673  0.25000000  0.38227969  1.0
  N  N43  1  0.26294673  0.25000000  0.11772031  1.0
