# generated using pymatgen
data_BaIn2Pt
_symmetry_space_group_name_H-M   'P 1'
_cell_length_a   6.32327913
_cell_length_b   6.32327913
_cell_length_c   8.17448109
_cell_angle_alpha   90.00000000
_cell_angle_beta   90.00000000
_cell_angle_gamma   137.53273790
_symmetry_Int_Tables_number   1
_chemical_formula_structural   BaIn2Pt
_chemical_formula_sum   'Ba2 In4 Pt2'
_cell_volume   220.67710777
_cell_formula_units_Z   2
loop_
 _symmetry_equiv_pos_site_id
 _symmetry_equiv_pos_as_xyz
  1  'x, y, z'
loop_
 _atom_site_type_symbol
 _atom_site_label
 _atom_site_symmetry_multiplicity
 _atom_site_fract_x
 _atom_site_fract_y
 _atom_site_fract_z
 _atom_site_occupancy
  Ba  Ba0  1  0.44775733  0.55224267  0.75000000  1.0
  Ba  Ba1  1  -0.44775733  0.44775733  0.25000000  1.0
  In  In2  1  0.16361964  0.83638036  0.94351589  1.0
  In  In3  1  0.16361964  0.83638036  0.55648411  1.0
  In  In4  1  -0.16361964  0.16361964  0.44351589  1.0
  In  In5  1  -0.16361964  0.16361964  0.05648411  1.0
  Pt  Pt6  1  -0.27522159  0.27522159  0.75000000  1.0
  Pt  Pt7  1  0.27522159  0.72477841  0.25000000  1.0
