# generated using pymatgen
data_Li2W2O7
_symmetry_space_group_name_H-M   'P 1'
_cell_length_a   7.09869337
_cell_length_b   5.12956687
_cell_length_c   8.48548033
_cell_angle_alpha   77.16713578
_cell_angle_beta   70.03262509
_cell_angle_gamma   84.37009423
_symmetry_Int_Tables_number   1
_chemical_formula_structural   Li2W2O7
_chemical_formula_sum   'Li4 W4 O14'
_cell_volume   283.07247517
_cell_formula_units_Z   2
loop_
 _symmetry_equiv_pos_site_id
 _symmetry_equiv_pos_as_xyz
  1  'x, y, z'
loop_
 _atom_site_type_symbol
 _atom_site_label
 _atom_site_symmetry_multiplicity
 _atom_site_fract_x
 _atom_site_fract_y
 _atom_site_fract_z
 _atom_site_occupancy
  Li  Li0  1  0.00669043  -0.85796157  -0.74025565  1.0
  Li  Li1  1  -1.00669043  -0.14203843  -0.25974435  1.0
  Li  Li2  1  -0.73822937  -0.31354812  -0.90825309  1.0
  Li  Li3  1  -0.26177063  -0.68645188  -0.09174691  1.0
  W  W4  1  -0.54743281  -0.80989171  -0.66399706  1.0
  W  W5  1  -0.45256719  -0.19010829  -0.33600294  1.0
  W  W6  1  -0.75249435  -0.69849995  -0.18135408  1.0
  W  W7  1  -0.24750565  -0.30150005  -0.81864592  1.0
  O  O8  1  -0.39225521  -0.94816053  -0.86445066  1.0
  O  O9  1  -0.60774479  -0.05183947  -0.13554934  1.0
  O  O10  1  -0.78669631  -0.91082536  -0.63660341  1.0
  O  O11  1  -0.21330369  -0.08917464  -0.36339659  1.0
  O  O12  1  -0.97982729  -0.81717874  -0.18189219  1.0
  O  O13  1  -0.02017271  -0.18282126  -0.81810781  1.0
  O  O14  1  -0.58628438  -0.82077034  -0.42596140  1.0
  O  O15  1  -0.41371562  -0.17922966  -0.57403860  1.0
  O  O16  1  -0.24646238  -0.64679767  -0.69812268  1.0
  O  O17  1  -0.75353762  -0.35320233  -0.30187732  1.0
  O  O18  1  -0.81096042  -0.64608328  -0.96919138  1.0
  O  O19  1  -0.18903958  -0.35391672  -0.03080862  1.0
  O  O20  1  -0.56164282  -0.45834963  -0.76585266  1.0
  O  O21  1  -0.43835718  -0.54165037  -0.23414734  1.0
