# generated using pymatgen
data_Rb4CO4
_symmetry_space_group_name_H-M   'P 1'
_cell_length_a   5.79831497
_cell_length_b   5.79831497
_cell_length_c   5.79831497
_cell_angle_alpha   90.00000000
_cell_angle_beta   90.00000000
_cell_angle_gamma   90.00000000
_symmetry_Int_Tables_number   1
_chemical_formula_structural   Rb4CO4
_chemical_formula_sum   'Rb4 C1 O4'
_cell_volume   194.94199646
_cell_formula_units_Z   1
loop_
 _symmetry_equiv_pos_site_id
 _symmetry_equiv_pos_as_xyz
  1  'x, y, z'
loop_
 _atom_site_type_symbol
 _atom_site_label
 _atom_site_symmetry_multiplicity
 _atom_site_fract_x
 _atom_site_fract_y
 _atom_site_fract_z
 _atom_site_occupancy
  Rb  Rb0  1  0.22405119  0.22405119  0.77594881  1.0
  Rb  Rb1  1  0.22405119  0.77594881  0.22405119  1.0
  Rb  Rb2  1  0.77594881  0.22405119  0.22405119  1.0
  Rb  Rb3  1  0.77594881  0.77594881  0.77594881  1.0
  C  C4  1  0.50000000  0.50000000  0.50000000  1.0
  O  O5  1  0.64393443  0.64393443  0.35606557  1.0
  O  O6  1  0.64393443  0.35606557  0.64393443  1.0
  O  O7  1  0.35606557  0.64393443  0.64393443  1.0
  O  O8  1  0.35606557  0.35606557  0.35606557  1.0
