# generated using pymatgen
data_LiSc(WO4)2
_symmetry_space_group_name_H-M   'P 1'
_cell_length_a   7.61729156
_cell_length_b   7.61729156
_cell_length_c   4.97271040
_cell_angle_alpha   89.39926705
_cell_angle_beta   90.60073295
_cell_angle_gamma   78.46849785
_symmetry_Int_Tables_number   1
_chemical_formula_structural   LiSc(WO4)2
_chemical_formula_sum   'Li2 Sc2 W4 O16'
_cell_volume   282.66934110
_cell_formula_units_Z   2
loop_
 _symmetry_equiv_pos_site_id
 _symmetry_equiv_pos_as_xyz
  1  'x, y, z'
loop_
 _atom_site_type_symbol
 _atom_site_label
 _atom_site_symmetry_multiplicity
 _atom_site_fract_x
 _atom_site_fract_y
 _atom_site_fract_z
 _atom_site_occupancy
  Li  Li0  1  1.35896473  0.35896473  0.25000000  1.0
  Li  Li1  1  0.64103527  -0.35896473  0.75000000  1.0
  Sc  Sc2  1  0.83465636  -0.16534364  0.25000000  1.0
  Sc  Sc3  1  1.16534364  0.16534364  0.75000000  1.0
  W  W4  1  0.34632866  -0.16717064  0.25776456  1.0
  W  W5  1  1.16717064  0.65367134  0.75776456  1.0
  W  W6  1  0.83282936  -0.65367134  0.24223544  1.0
  W  W7  1  1.65367134  0.16717064  0.74223544  1.0
  O  O8  1  0.69473384  -0.05117615  0.90452179  1.0
  O  O9  1  1.05117615  0.30526616  0.40452179  1.0
  O  O10  1  0.94882385  -0.30526616  0.59547821  1.0
  O  O11  1  1.30526616  0.05117615  0.09547821  1.0
  O  O12  1  1.79916710  0.08536266  0.43010636  1.0
  O  O13  1  0.91463734  -0.79916710  0.93010636  1.0
  O  O14  1  1.08536266  0.79916710  0.06989364  1.0
  O  O15  1  0.20083290  -0.08536266  0.56989364  1.0
  O  O16  1  0.56921224  -0.18947251  0.39576520  1.0
  O  O17  1  1.18947251  0.43078776  0.89576520  1.0
  O  O18  1  0.81052749  -0.43078776  0.10423480  1.0
  O  O19  1  1.43078776  0.18947251  0.60423480  1.0
  O  O20  1  1.59657138  0.30857193  0.05134101  1.0
  O  O21  1  0.69142807  -0.59657138  0.55134101  1.0
  O  O22  1  1.30857193  0.59657138  0.44865899  1.0
  O  O23  1  0.40342862  -0.30857193  0.94865899  1.0
