# generated using pymatgen
data_In(Mo2O3)2
_symmetry_space_group_name_H-M   'P 1'
_cell_length_a   9.80616943
_cell_length_b   9.80616943
_cell_length_c   2.85527829
_cell_angle_alpha   90.00000000
_cell_angle_beta   90.00000000
_cell_angle_gamma   90.00000000
_symmetry_Int_Tables_number   1
_chemical_formula_structural   In(Mo2O3)2
_chemical_formula_sum   'In2 Mo8 O12'
_cell_volume   274.56629806
_cell_formula_units_Z   2
loop_
 _symmetry_equiv_pos_site_id
 _symmetry_equiv_pos_as_xyz
  1  'x, y, z'
loop_
 _atom_site_type_symbol
 _atom_site_label
 _atom_site_symmetry_multiplicity
 _atom_site_fract_x
 _atom_site_fract_y
 _atom_site_fract_z
 _atom_site_occupancy
  In  In0  1  0.00000000  0.00000000  0.00000000  1.0
  In  In1  1  0.50000000  0.50000000  0.00000000  1.0
  Mo  Mo2  1  0.60091808  0.10091808  0.00000000  1.0
  Mo  Mo3  1  0.39908192  0.89908192  0.00000000  1.0
  Mo  Mo4  1  0.89908192  0.60091808  0.00000000  1.0
  Mo  Mo5  1  0.10091808  0.39908192  0.00000000  1.0
  Mo  Mo6  1  0.35890445  0.14109555  0.50000000  1.0
  Mo  Mo7  1  0.64109555  0.85890445  0.50000000  1.0
  Mo  Mo8  1  0.85890445  0.35890445  0.50000000  1.0
  Mo  Mo9  1  0.14109555  0.64109555  0.50000000  1.0
  O  O10  1  0.45599668  0.25599880  0.00000000  1.0
  O  O11  1  0.54400332  0.74400120  0.00000000  1.0
  O  O12  1  0.74400120  0.45599668  0.00000000  1.0
  O  O13  1  0.25599880  0.54400332  0.00000000  1.0
  O  O14  1  0.04400332  0.75599880  0.00000000  1.0
  O  O15  1  0.95599668  0.24400120  0.00000000  1.0
  O  O16  1  0.75599880  0.95599668  0.00000000  1.0
  O  O17  1  0.24400120  0.04400332  0.00000000  1.0
  O  O18  1  0.70656478  0.20656478  0.50000000  1.0
  O  O19  1  0.29343522  0.79343522  0.50000000  1.0
  O  O20  1  0.79343522  0.70656478  0.50000000  1.0
  O  O21  1  0.20656478  0.29343522  0.50000000  1.0
