# generated using pymatgen
data_SeBr
_symmetry_space_group_name_H-M   'P 1'
_cell_length_a   8.23289113
_cell_length_b   8.23289113
_cell_length_c   12.42402240
_cell_angle_alpha   48.19921264
_cell_angle_beta   131.80078736
_cell_angle_gamma   153.54925526
_symmetry_Int_Tables_number   1
_chemical_formula_structural   SeBr
_chemical_formula_sum   'Se4 Br4'
_cell_volume   273.37990667
_cell_formula_units_Z   4
loop_
 _symmetry_equiv_pos_site_id
 _symmetry_equiv_pos_as_xyz
  1  'x, y, z'
loop_
 _atom_site_type_symbol
 _atom_site_label
 _atom_site_symmetry_multiplicity
 _atom_site_fract_x
 _atom_site_fract_y
 _atom_site_fract_z
 _atom_site_occupancy
  Se  Se0  1  0.80154562  0.19845438  0.67191303  1.0
  Se  Se1  1  1.19845438  -0.19845438  0.32808697  1.0
  Se  Se2  1  1.40475186  -0.40475186  0.65729790  1.0
  Se  Se3  1  0.59524814  0.40475186  0.34270210  1.0
  Br  Br4  1  0.81372449  -0.81372449  0.31256746  1.0
  Br  Br5  1  0.18627551  -0.18627551  0.68743254  1.0
  Br  Br6  1  0.58252987  0.41747013  0.90967145  1.0
  Br  Br7  1  1.41747013  -0.41747013  0.09032855  1.0
