# generated using pymatgen
data_BMo2C
_symmetry_space_group_name_H-M   'P 1'
_cell_length_a   8.88544045
_cell_length_b   8.88544045
_cell_length_c   3.06967629
_cell_angle_alpha   90.00000000
_cell_angle_beta   90.00000000
_cell_angle_gamma   159.89121861
_symmetry_Int_Tables_number   1
_chemical_formula_structural   BMo2C
_chemical_formula_sum   'B2 Mo4 C2'
_cell_volume   83.32224189
_cell_formula_units_Z   2
loop_
 _symmetry_equiv_pos_site_id
 _symmetry_equiv_pos_as_xyz
  1  'x, y, z'
loop_
 _atom_site_type_symbol
 _atom_site_label
 _atom_site_symmetry_multiplicity
 _atom_site_fract_x
 _atom_site_fract_y
 _atom_site_fract_z
 _atom_site_occupancy
  B  B0  1  0.02799540  0.97200460  0.75000000  1.0
  B  B1  1  -0.02799540  0.02799540  0.25000000  1.0
  Mo  Mo2  1  0.42806369  0.57193631  0.75000000  1.0
  Mo  Mo3  1  -0.42806369  0.42806369  0.25000000  1.0
  Mo  Mo4  1  0.18553512  0.81446488  0.75000000  1.0
  Mo  Mo5  1  -0.18553512  0.18553512  0.25000000  1.0
  C  C6  1  0.30879992  0.69120008  0.75000000  1.0
  C  C7  1  -0.30879992  0.30879992  0.25000000  1.0
