# generated using pymatgen
data_BaRuF6
_symmetry_space_group_name_H-M   'P 1'
_cell_length_a   5.03525782
_cell_length_b   5.03525782
_cell_length_c   5.03525782
_cell_angle_alpha   98.55631628
_cell_angle_beta   98.55631628
_cell_angle_gamma   98.55631628
_symmetry_Int_Tables_number   1
_chemical_formula_structural   BaRuF6
_chemical_formula_sum   'Ba1 Ru1 F6'
_cell_volume   122.91539286
_cell_formula_units_Z   1
loop_
 _symmetry_equiv_pos_site_id
 _symmetry_equiv_pos_as_xyz
  1  'x, y, z'
loop_
 _atom_site_type_symbol
 _atom_site_label
 _atom_site_symmetry_multiplicity
 _atom_site_fract_x
 _atom_site_fract_y
 _atom_site_fract_z
 _atom_site_occupancy
  Ba  Ba0  1  0.50000000  0.50000000  0.50000000  1.0
  Ru  Ru1  1  0.00000000  0.00000000  -0.00000000  1.0
  F  F2  1  0.72282058  0.72243540  0.07557628  1.0
  F  F3  1  1.27756460  -0.07557628  0.27717942  1.0
  F  F4  1  0.92442372  0.27717942  0.27756460  1.0
  F  F5  1  1.27717942  0.27756460  -0.07557628  1.0
  F  F6  1  0.72243540  1.07557628  -0.27717942  1.0
  F  F7  1  1.07557628  0.72282058  -0.27756460  1.0
