# generated using pymatgen
data_CsZn2P2HO8
_symmetry_space_group_name_H-M   'P 1'
_cell_length_a   8.73012049
_cell_length_b   8.73012049
_cell_length_c   7.93164322
_cell_angle_alpha   90.00000000
_cell_angle_beta   90.00000000
_cell_angle_gamma   134.90620776
_symmetry_Int_Tables_number   1
_chemical_formula_structural   CsZn2P2HO8
_chemical_formula_sum   'Cs2 Zn4 P4 H2 O16'
_cell_volume   428.15243477
_cell_formula_units_Z   2
loop_
 _symmetry_equiv_pos_site_id
 _symmetry_equiv_pos_as_xyz
  1  'x, y, z'
loop_
 _atom_site_type_symbol
 _atom_site_label
 _atom_site_symmetry_multiplicity
 _atom_site_fract_x
 _atom_site_fract_y
 _atom_site_fract_z
 _atom_site_occupancy
  Cs  Cs0  1  -0.50000000  0.50000000  0.50000000  1.0
  Cs  Cs1  1  0.00000000  1.00000000  -0.00000000  1.0
  Zn  Zn2  1  0.48278839  1.01721161  0.25000000  1.0
  Zn  Zn3  1  -0.01721161  0.51721161  0.25000000  1.0
  Zn  Zn4  1  0.01721161  0.48278839  0.75000000  1.0
  Zn  Zn5  1  0.51721161  0.98278839  0.75000000  1.0
  P  P6  1  -0.14278228  0.14278228  0.46101926  1.0
  P  P7  1  0.35721772  0.64278228  0.03898074  1.0
  P  P8  1  0.14278228  0.85721772  0.53898074  1.0
  P  P9  1  -0.35721772  0.35721772  0.96101926  1.0
  H  H10  1  0.00000000  1.00000000  0.50000000  1.0
  H  H11  1  -0.50000000  0.50000000  0.00000000  1.0
  O  O12  1  0.35192573  1.03579362  0.43782936  1.0
  O  O13  1  -0.14807427  0.53579362  0.06217064  1.0
  O  O14  1  0.03579362  0.35192573  0.56217064  1.0
  O  O15  1  0.53579362  0.85192573  0.93782936  1.0
  O  O16  1  -0.03579362  0.64807427  0.43782936  1.0
  O  O17  1  0.46420638  1.14807427  0.06217064  1.0
  O  O18  1  0.64807427  0.96420638  0.56217064  1.0
  O  O19  1  0.14807427  0.46420638  0.93782936  1.0
  O  O20  1  -0.20362328  0.20362328  0.30183550  1.0
  O  O21  1  0.29637672  0.70362328  0.19816450  1.0
  O  O22  1  0.20362328  0.79637672  0.69816450  1.0
  O  O23  1  -0.29637672  0.29637672  0.80183550  1.0
  O  O24  1  -0.05257219  0.05257219  0.39070167  1.0
  O  O25  1  0.44742781  0.55257219  0.10929833  1.0
  O  O26  1  0.05257219  0.94742781  0.60929833  1.0
  O  O27  1  -0.44742781  0.44742781  0.89070167  1.0
