# generated using pymatgen
data_Na3InSb2
_symmetry_space_group_name_H-M   'P 1'
_cell_length_a   10.45666066
_cell_length_b   8.02344478
_cell_length_c   16.79835369
_cell_angle_alpha   90.00000000
_cell_angle_beta   92.84676403
_cell_angle_gamma   90.00000000
_symmetry_Int_Tables_number   1
_chemical_formula_structural   Na3InSb2
_chemical_formula_sum   'Na24 In8 Sb16'
_cell_volume   1407.61642181
_cell_formula_units_Z   8
loop_
 _symmetry_equiv_pos_site_id
 _symmetry_equiv_pos_as_xyz
  1  'x, y, z'
loop_
 _atom_site_type_symbol
 _atom_site_label
 _atom_site_symmetry_multiplicity
 _atom_site_fract_x
 _atom_site_fract_y
 _atom_site_fract_z
 _atom_site_occupancy
  Na  Na0  1  0.68917680  0.03048139  0.35307847  1.0
  Na  Na1  1  0.68917680  0.46951861  0.85307847  1.0
  Na  Na2  1  0.31082320  0.53048139  0.14692153  1.0
  Na  Na3  1  0.31082320  0.96951861  0.64692153  1.0
  Na  Na4  1  0.82177351  0.98573554  0.13798668  1.0
  Na  Na5  1  0.82177351  0.51426446  0.63798668  1.0
  Na  Na6  1  0.17822649  0.48573554  0.36201332  1.0
  Na  Na7  1  0.17822649  0.01426446  0.86201332  1.0
  Na  Na8  1  0.88399389  0.34856658  0.45263959  1.0
  Na  Na9  1  0.88399389  0.15143342  0.95263959  1.0
  Na  Na10  1  0.11600611  0.84856658  0.04736041  1.0
  Na  Na11  1  0.11600611  0.65143342  0.54736041  1.0
  Na  Na12  1  0.94091204  0.48939302  0.10662966  1.0
  Na  Na13  1  0.94091204  0.01060698  0.60662966  1.0
  Na  Na14  1  0.05908796  0.98939302  0.39337034  1.0
  Na  Na15  1  0.05908796  0.51060698  0.89337034  1.0
  Na  Na16  1  0.43009226  0.03369747  0.10763010  1.0
  Na  Na17  1  0.43009226  0.46630253  0.60763010  1.0
  Na  Na18  1  0.56990774  0.53369747  0.39236990  1.0
  Na  Na19  1  0.56990774  0.96630253  0.89236990  1.0
  Na  Na20  1  0.62973851  0.34713328  0.20174431  1.0
  Na  Na21  1  0.62973851  0.15286672  0.70174431  1.0
  Na  Na22  1  0.37026149  0.84713328  0.29825569  1.0
  Na  Na23  1  0.37026149  0.65286672  0.79825569  1.0
  In  In24  1  0.85919021  0.64805834  0.29232178  1.0
  In  In25  1  0.85919021  0.85194166  0.79232178  1.0
  In  In26  1  0.14080979  0.14805834  0.20767822  1.0
  In  In27  1  0.14080979  0.35194166  0.70767822  1.0
  In  In28  1  0.37543160  0.13766040  0.45690834  1.0
  In  In29  1  0.37543160  0.36233960  0.95690834  1.0
  In  In30  1  0.62456840  0.63766040  0.04309166  1.0
  In  In31  1  0.62456840  0.86233960  0.54309166  1.0
  Sb  Sb32  1  0.84987325  0.73878010  0.46290263  1.0
  Sb  Sb33  1  0.84987325  0.76121990  0.96290263  1.0
  Sb  Sb34  1  0.15012675  0.23878010  0.03709737  1.0
  Sb  Sb35  1  0.15012675  0.26121990  0.53709737  1.0
  Sb  Sb36  1  0.90772491  0.28087917  0.27293380  1.0
  Sb  Sb37  1  0.90772491  0.21912083  0.77293380  1.0
  Sb  Sb38  1  0.09227509  0.78087917  0.22706620  1.0
  Sb  Sb39  1  0.09227509  0.71912083  0.72706620  1.0
  Sb  Sb40  1  0.38073936  0.24237144  0.29016199  1.0
  Sb  Sb41  1  0.38073936  0.25762856  0.79016199  1.0
  Sb  Sb42  1  0.61926064  0.74237144  0.20983801  1.0
  Sb  Sb43  1  0.61926064  0.75762856  0.70983801  1.0
  Sb  Sb44  1  0.62820721  0.27152527  0.02148202  1.0
  Sb  Sb45  1  0.62820721  0.22847473  0.52148202  1.0
  Sb  Sb46  1  0.37179279  0.77152527  0.47851798  1.0
  Sb  Sb47  1  0.37179279  0.72847473  0.97851798  1.0
