# generated using pymatgen
data_Nd2MoC2
_symmetry_space_group_name_H-M   'P 1'
_cell_length_a   5.73627163
_cell_length_b   5.73627163
_cell_length_c   10.38409445
_cell_angle_alpha   90.00000000
_cell_angle_beta   90.00000000
_cell_angle_gamma   90.00000000
_symmetry_Int_Tables_number   1
_chemical_formula_structural   Nd2MoC2
_chemical_formula_sum   'Nd8 Mo4 C8'
_cell_volume   341.68667814
_cell_formula_units_Z   4
loop_
 _symmetry_equiv_pos_site_id
 _symmetry_equiv_pos_as_xyz
  1  'x, y, z'
loop_
 _atom_site_type_symbol
 _atom_site_label
 _atom_site_symmetry_multiplicity
 _atom_site_fract_x
 _atom_site_fract_y
 _atom_site_fract_z
 _atom_site_occupancy
  Nd  Nd0  1  0.30842057  0.69157943  0.15713892  1.0
  Nd  Nd1  1  0.30842057  0.69157943  0.84286108  1.0
  Nd  Nd2  1  0.80842057  0.80842057  0.65713892  1.0
  Nd  Nd3  1  0.80842057  0.80842057  0.34286108  1.0
  Nd  Nd4  1  0.69157943  0.30842057  0.15713892  1.0
  Nd  Nd5  1  0.69157943  0.30842057  0.84286108  1.0
  Nd  Nd6  1  0.19157943  0.19157943  0.65713892  1.0
  Nd  Nd7  1  0.19157943  0.19157943  0.34286108  1.0
  Mo  Mo8  1  0.32373838  0.67626162  0.50000000  1.0
  Mo  Mo9  1  0.82373838  0.82373838  0.00000000  1.0
  Mo  Mo10  1  0.67626162  0.32373838  0.50000000  1.0
  Mo  Mo11  1  0.17626162  0.17626162  0.00000000  1.0
  C  C12  1  0.50000000  0.50000000  0.35689713  1.0
  C  C13  1  0.50000000  0.50000000  0.64310287  1.0
  C  C14  1  0.00000000  0.00000000  0.85689713  1.0
  C  C15  1  0.00000000  0.00000000  0.14310287  1.0
  C  C16  1  0.50000000  0.00000000  0.50000000  1.0
  C  C17  1  0.00000000  0.50000000  0.00000000  1.0
  C  C18  1  0.00000000  0.50000000  0.50000000  1.0
  C  C19  1  0.50000000  0.00000000  0.00000000  1.0
