# generated using pymatgen
data_LiZr2(PO4)3
_symmetry_space_group_name_H-M   'P 1'
_cell_length_a   9.00857765
_cell_length_b   9.00857765
_cell_length_c   9.00857765
_cell_angle_alpha   59.37834139
_cell_angle_beta   59.37834139
_cell_angle_gamma   59.37834139
_symmetry_Int_Tables_number   1
_chemical_formula_structural   LiZr2(PO4)3
_chemical_formula_sum   'Li2 Zr4 P6 O24'
_cell_volume   509.64192758
_cell_formula_units_Z   2
loop_
 _symmetry_equiv_pos_site_id
 _symmetry_equiv_pos_as_xyz
  1  'x, y, z'
loop_
 _atom_site_type_symbol
 _atom_site_label
 _atom_site_symmetry_multiplicity
 _atom_site_fract_x
 _atom_site_fract_y
 _atom_site_fract_z
 _atom_site_occupancy
  Li  Li0  1  1.00000000  0.00000000  0.00000000  1.0
  Li  Li1  1  0.50000000  0.50000000  0.50000000  1.0
  Zr  Zr2  1  0.85724381  -0.14275619  -0.14275619  1.0
  Zr  Zr3  1  0.35724381  0.35724381  0.35724381  1.0
  Zr  Zr4  1  0.64275619  0.64275619  -0.35724381  1.0
  Zr  Zr5  1  1.14275619  0.14275619  0.14275619  1.0
  P  P6  1  0.45672189  0.75000000  0.04327811  1.0
  P  P7  1  0.95672189  -0.45672189  0.25000000  1.0
  P  P8  1  0.25000000  0.95672189  -0.45672189  1.0
  P  P9  1  0.75000000  1.04327811  -0.54327811  1.0
  P  P10  1  0.54327811  0.25000000  -0.04327811  1.0
  P  P11  1  1.04327811  0.45672189  -0.25000000  1.0
  O  O12  1  0.80628031  1.00015813  -0.38556815  1.0
  O  O13  1  1.30628031  0.11443185  -0.49984187  1.0
  O  O14  1  0.88556815  0.49984187  -0.30628031  1.0
  O  O15  1  0.38556815  0.19371969  -0.00015813  1.0
  O  O16  1  0.99984187  0.38556815  -0.80628031  1.0
  O  O17  1  0.49984187  0.69371969  -0.11443185  1.0
  O  O18  1  0.19371969  0.99984187  -0.61443185  1.0
  O  O19  1  0.69371969  0.88556815  -0.50015813  1.0
  O  O20  1  0.61443185  0.80628031  0.00015813  1.0
  O  O21  1  1.11443185  -0.49984187  0.30628031  1.0
  O  O22  1  0.50015813  0.30628031  0.11443185  1.0
  O  O23  1  1.00015813  0.61443185  -0.19371969  1.0
  O  O24  1  0.72841379  0.08858651  -0.05960264  1.0
  O  O25  1  1.22841379  0.44039736  -0.41141349  1.0
  O  O26  1  0.55960264  0.41141349  -0.22841379  1.0
  O  O27  1  1.05960264  0.27158621  -0.08858651  1.0
  O  O28  1  0.91141349  0.05960264  0.27158621  1.0
  O  O29  1  0.41141349  0.77158621  -0.44039736  1.0
  O  O30  1  1.27158621  -0.08858651  0.05960264  1.0
  O  O31  1  0.77158621  0.55960264  -0.58858651  1.0
  O  O32  1  0.94039736  -0.27158621  0.08858651  1.0
  O  O33  1  0.44039736  0.58858651  0.22841379  1.0
  O  O34  1  0.58858651  1.22841379  -0.55960264  1.0
  O  O35  1  1.08858651  -0.05960264  -0.27158621  1.0
