# generated using pymatgen
data_Ba2LuB2ClO6
_symmetry_space_group_name_H-M   'P 1'
_cell_length_a   6.42703026
_cell_length_b   5.31045343
_cell_length_c   11.42227822
_cell_angle_alpha   90.00000000
_cell_angle_beta   95.86224350
_cell_angle_gamma   90.00000000
_symmetry_Int_Tables_number   1
_chemical_formula_structural   Ba2LuB2ClO6
_chemical_formula_sum   'Ba4 Lu2 B4 Cl2 O12'
_cell_volume   387.80866683
_cell_formula_units_Z   2
loop_
 _symmetry_equiv_pos_site_id
 _symmetry_equiv_pos_as_xyz
  1  'x, y, z'
loop_
 _atom_site_type_symbol
 _atom_site_label
 _atom_site_symmetry_multiplicity
 _atom_site_fract_x
 _atom_site_fract_y
 _atom_site_fract_z
 _atom_site_occupancy
  Ba  Ba0  1  0.34380324  0.25000000  0.57840839  1.0
  Ba  Ba1  1  0.65619676  0.75000000  0.42159161  1.0
  Ba  Ba2  1  0.09240557  0.25000000  0.20483369  1.0
  Ba  Ba3  1  0.90759443  0.75000000  0.79516631  1.0
  Lu  Lu4  1  0.34797240  0.25000000  0.91447518  1.0
  Lu  Lu5  1  0.65202760  0.75000000  0.08552482  1.0
  B  B6  1  0.79119727  0.25000000  0.92919659  1.0
  B  B7  1  0.20880273  0.75000000  0.07080341  1.0
  B  B8  1  0.62132945  0.25000000  0.27122014  1.0
  B  B9  1  0.37867055  0.75000000  0.72877986  1.0
  Cl  Cl10  1  0.85176079  0.25000000  0.58525921  1.0
  Cl  Cl11  1  0.14823921  0.75000000  0.41474079  1.0
  O  O12  1  0.70493724  0.47388508  0.23319332  1.0
  O  O13  1  0.70493724  0.02611492  0.23319332  1.0
  O  O14  1  0.29506276  0.97388508  0.76680668  1.0
  O  O15  1  0.29506276  0.52611492  0.76680668  1.0
  O  O16  1  0.67528474  0.47019635  0.93696808  1.0
  O  O17  1  0.67528474  0.02980365  0.93696808  1.0
  O  O18  1  0.32471526  0.97019635  0.06303192  1.0
  O  O19  1  0.32471526  0.52980365  0.06303192  1.0
  O  O20  1  0.99476862  0.25000000  0.90632816  1.0
  O  O21  1  0.00523138  0.75000000  0.09367184  1.0
  O  O22  1  0.47674428  0.25000000  0.35279445  1.0
  O  O23  1  0.52325572  0.75000000  0.64720555  1.0
