# generated using pymatgen
data_B6C
_symmetry_space_group_name_H-M   'P 1'
_cell_length_a   5.19063592
_cell_length_b   5.19063592
_cell_length_c   8.93493848
_cell_angle_alpha   90.00000000
_cell_angle_beta   90.00000000
_cell_angle_gamma   115.35774117
_symmetry_Int_Tables_number   1
_chemical_formula_structural   B6C
_chemical_formula_sum   'B24 C4'
_cell_volume   217.53724940
_cell_formula_units_Z   4
loop_
 _symmetry_equiv_pos_site_id
 _symmetry_equiv_pos_as_xyz
  1  'x, y, z'
loop_
 _atom_site_type_symbol
 _atom_site_label
 _atom_site_symmetry_multiplicity
 _atom_site_fract_x
 _atom_site_fract_y
 _atom_site_fract_z
 _atom_site_occupancy
  B  B0  1  -0.11125708  1.59062283  0.34948663  1.0
  B  B1  1  -0.11125708  1.59062283  0.15051337  1.0
  B  B2  1  0.59062283  0.88874292  0.84948663  1.0
  B  B3  1  0.59062283  0.88874292  0.65051337  1.0
  B  B4  1  -0.59062283  1.11125708  0.34948663  1.0
  B  B5  1  -0.59062283  1.11125708  0.15051337  1.0
  B  B6  1  0.11125708  0.40937717  0.84948663  1.0
  B  B7  1  0.11125708  0.40937717  0.65051337  1.0
  B  B8  1  0.14652536  0.50832108  0.25000000  1.0
  B  B9  1  -0.49167892  1.14652536  0.75000000  1.0
  B  B10  1  0.49167892  0.85347464  0.25000000  1.0
  B  B11  1  -0.14652536  1.49167892  0.75000000  1.0
  B  B12  1  0.14985801  0.18097708  0.25000000  1.0
  B  B13  1  -0.81902292  1.14985801  0.75000000  1.0
  B  B14  1  0.81902292  0.85014199  0.25000000  1.0
  B  B15  1  -0.14985801  1.81902292  0.75000000  1.0
  B  B16  1  0.05078312  0.94921688  0.41895803  1.0
  B  B17  1  0.05078312  0.94921688  0.08104197  1.0
  B  B18  1  -0.05078312  1.05078312  0.91895803  1.0
  B  B19  1  -0.05078312  1.05078312  0.58104197  1.0
  B  B20  1  0.25322168  0.74677832  0.40968455  1.0
  B  B21  1  0.25322168  0.74677832  0.09031545  1.0
  B  B22  1  -0.25322168  1.25322168  0.90968455  1.0
  B  B23  1  -0.25322168  1.25322168  0.59031545  1.0
  C  C24  1  0.32992519  0.67007481  0.93494068  1.0
  C  C25  1  0.32992519  0.67007481  0.56505932  1.0
  C  C26  1  -0.32992519  1.32992519  0.43494068  1.0
  C  C27  1  -0.32992519  1.32992519  0.06505932  1.0
