# generated using pymatgen
data_ZnAg2C4(SN)4
_symmetry_space_group_name_H-M   'P 1'
_cell_length_a   10.61548198
_cell_length_b   10.61548198
_cell_length_c   8.55307803
_cell_angle_alpha   84.72037024
_cell_angle_beta   95.27962976
_cell_angle_gamma   135.18191496
_symmetry_Int_Tables_number   1
_chemical_formula_structural   ZnAg2C4(SN)4
_chemical_formula_sum   'Zn2 Ag4 C8 S8 N8'
_cell_volume   675.99213117
_cell_formula_units_Z   2
loop_
 _symmetry_equiv_pos_site_id
 _symmetry_equiv_pos_as_xyz
  1  'x, y, z'
loop_
 _atom_site_type_symbol
 _atom_site_label
 _atom_site_symmetry_multiplicity
 _atom_site_fract_x
 _atom_site_fract_y
 _atom_site_fract_z
 _atom_site_occupancy
  Zn  Zn0  1  0.58041893  -0.25959486  0.28934481  1.0
  Zn  Zn1  1  1.25959486  0.41958107  0.78934481  1.0
  Ag  Ag2  1  0.63865572  0.19390182  0.78363676  1.0
  Ag  Ag3  1  0.80609818  0.36134428  0.28363676  1.0
  Ag  Ag4  1  0.20125832  -0.03397931  0.29522173  1.0
  Ag  Ag5  1  1.03397931  0.79874168  0.79522173  1.0
  C  C6  1  0.92132547  0.92018340  0.49216729  1.0
  C  C7  1  0.07981660  0.07867453  -0.00783271  1.0
  C  C8  1  0.76036277  0.08146196  0.08661837  1.0
  C  C9  1  0.91853804  0.23963723  0.58661837  1.0
  C  C10  1  1.25477451  0.67581882  0.35926677  1.0
  C  C11  1  0.32418118  -0.25477451  0.85926677  1.0
  C  C12  1  0.51578638  0.41463840  0.21969564  1.0
  C  C13  1  0.58536160  0.48421362  0.71969564  1.0
  S  S14  1  1.09680445  0.66587008  0.38911532  1.0
  S  S15  1  0.33412992  -0.09680445  0.88911532  1.0
  S  S16  1  0.50592364  0.25675213  0.18969530  1.0
  S  S17  1  0.74324787  0.49407636  0.68969530  1.0
  S  S18  1  0.98151730  0.87558478  0.05171367  1.0
  S  S19  1  0.12441522  0.01848270  0.55171367  1.0
  S  S20  1  0.85859923  0.28452625  0.02705747  1.0
  S  S21  1  0.71547375  0.14140077  0.52705747  1.0
  N  N22  1  0.52334958  -0.47122381  0.23487769  1.0
  N  N23  1  1.47122381  0.47665042  0.73487769  1.0
  N  N24  1  0.77621316  -0.14897982  0.44986801  1.0
  N  N25  1  1.14897982  0.22378684  0.94986801  1.0
  N  N26  1  0.69124077  -0.06361378  0.12901569  1.0
  N  N27  1  1.06361378  0.30875923  0.62901569  1.0
  N  N28  1  0.36899699  -0.31651883  0.34420548  1.0
  N  N29  1  1.31651883  0.63100301  0.84420548  1.0
