# generated using pymatgen
data_Ti2NiS4
_symmetry_space_group_name_H-M   'P 1'
_cell_length_a   6.58981881
_cell_length_b   6.58981881
_cell_length_c   5.86986572
_cell_angle_alpha   63.59823451
_cell_angle_beta   116.40176549
_cell_angle_gamma   150.12469327
_symmetry_Int_Tables_number   1
_chemical_formula_structural   Ti2NiS4
_chemical_formula_sum   'Ti2 Ni1 S4'
_cell_volume   112.72565630
_cell_formula_units_Z   1
loop_
 _symmetry_equiv_pos_site_id
 _symmetry_equiv_pos_as_xyz
  1  'x, y, z'
loop_
 _atom_site_type_symbol
 _atom_site_label
 _atom_site_symmetry_multiplicity
 _atom_site_fract_x
 _atom_site_fract_y
 _atom_site_fract_z
 _atom_site_occupancy
  Ti  Ti0  1  0.74413412  -0.74413412  0.73806539  1.0
  Ti  Ti1  1  1.25586588  -0.25586588  0.26193461  1.0
  Ni  Ni2  1  0.00000000  0.00000000  0.00000000  1.0
  S  S3  1  0.88102163  -0.88102163  0.55311463  1.0
  S  S4  1  1.11897837  -0.11897837  0.44688537  1.0
  S  S5  1  0.62303208  -0.62303208  0.95935295  1.0
  S  S6  1  1.37696792  -0.37696792  0.04064705  1.0
