# generated using pymatgen
data_NaSbF4
_symmetry_space_group_name_H-M   'P 1'
_cell_length_a   8.13341805
_cell_length_b   5.81689296
_cell_length_c   8.68042294
_cell_angle_alpha   90.00000000
_cell_angle_beta   87.80143257
_cell_angle_gamma   90.00000000
_symmetry_Int_Tables_number   1
_chemical_formula_structural   NaSbF4
_chemical_formula_sum   'Na4 Sb4 F16'
_cell_volume   410.37910585
_cell_formula_units_Z   4
loop_
 _symmetry_equiv_pos_site_id
 _symmetry_equiv_pos_as_xyz
  1  'x, y, z'
loop_
 _atom_site_type_symbol
 _atom_site_label
 _atom_site_symmetry_multiplicity
 _atom_site_fract_x
 _atom_site_fract_y
 _atom_site_fract_z
 _atom_site_occupancy
  Na  Na0  1  0.34888407  0.30164200  0.32578349  1.0
  Na  Na1  1  0.34888407  0.19835800  0.82578349  1.0
  Na  Na2  1  0.65111593  0.80164200  0.17421651  1.0
  Na  Na3  1  0.65111593  0.69835800  0.67421651  1.0
  Sb  Sb4  1  0.83234734  0.30480514  0.34767583  1.0
  Sb  Sb5  1  0.83234734  0.19519486  0.84767583  1.0
  Sb  Sb6  1  0.16765266  0.80480514  0.15232417  1.0
  Sb  Sb7  1  0.16765266  0.69519486  0.65232417  1.0
  F  F8  1  0.90998005  1.01553047  0.19266101  1.0
  F  F9  1  0.90998005  0.48446953  0.69266101  1.0
  F  F10  1  0.09001995  0.51553047  0.30733899  1.0
  F  F11  1  0.09001995  -0.01553047  0.80733899  1.0
  F  F12  1  0.80172777  0.45444148  0.14266364  1.0
  F  F13  1  0.80172777  0.04555852  0.64266364  1.0
  F  F14  1  0.19827223  0.95444148  0.35733636  1.0
  F  F15  1  0.19827223  0.54555852  0.85733636  1.0
  F  F16  1  0.69095478  0.91098365  0.91604157  1.0
  F  F17  1  0.69095478  0.58901635  0.41604157  1.0
  F  F18  1  0.30904522  0.41098365  0.58395843  1.0
  F  F19  1  0.30904522  0.08901635  0.08395843  1.0
  F  F20  1  0.61088602  0.14811576  0.31601622  1.0
  F  F21  1  0.61088602  0.35188424  0.81601622  1.0
  F  F22  1  0.38911398  0.64811576  0.18398378  1.0
  F  F23  1  0.38911398  0.85188424  0.68398378  1.0
