# generated using pymatgen
data_NaSn2F5
_symmetry_space_group_name_H-M   'P 1'
_cell_length_a   9.28170709
_cell_length_b   9.28170709
_cell_length_c   14.08384957
_cell_angle_alpha   90.00000000
_cell_angle_beta   90.00000000
_cell_angle_gamma   90.00000000
_symmetry_Int_Tables_number   1
_chemical_formula_structural   NaSn2F5
_chemical_formula_sum   'Na8 Sn16 F40'
_cell_volume   1213.32485845
_cell_formula_units_Z   8
loop_
 _symmetry_equiv_pos_site_id
 _symmetry_equiv_pos_as_xyz
  1  'x, y, z'
loop_
 _atom_site_type_symbol
 _atom_site_label
 _atom_site_symmetry_multiplicity
 _atom_site_fract_x
 _atom_site_fract_y
 _atom_site_fract_z
 _atom_site_occupancy
  Na  Na0  1  0.50000000  0.00000000  0.25000000  1.0
  Na  Na1  1  0.00000000  0.50000000  0.25000000  1.0
  Na  Na2  1  0.00000000  0.50000000  0.75000000  1.0
  Na  Na3  1  0.50000000  0.00000000  0.75000000  1.0
  Na  Na4  1  0.50000000  0.00000000  0.00000000  1.0
  Na  Na5  1  0.00000000  0.50000000  0.00000000  1.0
  Na  Na6  1  0.00000000  0.50000000  0.50000000  1.0
  Na  Na7  1  0.50000000  0.00000000  0.50000000  1.0
  Sn  Sn8  1  0.66899542  0.31308429  0.13268828  1.0
  Sn  Sn9  1  0.83100458  0.81308429  0.13268828  1.0
  Sn  Sn10  1  0.16899542  0.18691571  0.13268828  1.0
  Sn  Sn11  1  0.33100458  0.68691571  0.13268828  1.0
  Sn  Sn12  1  0.31308429  0.66899542  0.63268828  1.0
  Sn  Sn13  1  0.18691571  0.16899542  0.63268828  1.0
  Sn  Sn14  1  0.81308429  0.83100458  0.63268828  1.0
  Sn  Sn15  1  0.68691571  0.33100458  0.63268828  1.0
  Sn  Sn16  1  0.83100458  0.18691571  0.36731172  1.0
  Sn  Sn17  1  0.66899542  0.68691571  0.36731172  1.0
  Sn  Sn18  1  0.33100458  0.31308429  0.36731172  1.0
  Sn  Sn19  1  0.16899542  0.81308429  0.36731172  1.0
  Sn  Sn20  1  0.18691571  0.83100458  0.86731172  1.0
  Sn  Sn21  1  0.31308429  0.33100458  0.86731172  1.0
  Sn  Sn22  1  0.68691571  0.66899542  0.86731172  1.0
  Sn  Sn23  1  0.81308429  0.16899542  0.86731172  1.0
  F  F24  1  0.63033292  0.21930430  0.29920231  1.0
  F  F25  1  0.86966708  0.71930430  0.29920231  1.0
  F  F26  1  0.13033292  0.28069570  0.29920231  1.0
  F  F27  1  0.36966708  0.78069570  0.29920231  1.0
  F  F28  1  0.21930430  0.63033292  0.79920231  1.0
  F  F29  1  0.28069570  0.13033292  0.79920231  1.0
  F  F30  1  0.71930430  0.86966708  0.79920231  1.0
  F  F31  1  0.78069570  0.36966708  0.79920231  1.0
  F  F32  1  0.86966708  0.28069570  0.20079769  1.0
  F  F33  1  0.63033292  0.78069570  0.20079769  1.0
  F  F34  1  0.36966708  0.21930430  0.20079769  1.0
  F  F35  1  0.13033292  0.71930430  0.20079769  1.0
  F  F36  1  0.28069570  0.86966708  0.70079769  1.0
  F  F37  1  0.21930430  0.36966708  0.70079769  1.0
  F  F38  1  0.78069570  0.63033292  0.70079769  1.0
  F  F39  1  0.71930430  0.13033292  0.70079769  1.0
  F  F40  1  0.64936412  0.08920180  0.11524881  1.0
  F  F41  1  0.85063588  0.58920180  0.11524881  1.0
  F  F42  1  0.14936412  0.41079820  0.11524881  1.0
  F  F43  1  0.35063588  0.91079820  0.11524881  1.0
  F  F44  1  0.08920180  0.64936412  0.61524881  1.0
  F  F45  1  0.41079820  0.14936412  0.61524881  1.0
  F  F46  1  0.58920180  0.85063588  0.61524881  1.0
  F  F47  1  0.91079820  0.35063588  0.61524881  1.0
  F  F48  1  0.85063588  0.41079820  0.38475119  1.0
  F  F49  1  0.64936412  0.91079820  0.38475119  1.0
  F  F50  1  0.35063588  0.08920180  0.38475119  1.0
  F  F51  1  0.14936412  0.58920180  0.38475119  1.0
  F  F52  1  0.41079820  0.85063588  0.88475119  1.0
  F  F53  1  0.08920180  0.35063588  0.88475119  1.0
  F  F54  1  0.91079820  0.64936412  0.88475119  1.0
  F  F55  1  0.58920180  0.14936412  0.88475119  1.0
  F  F56  1  0.80526971  0.30526971  0.00000000  1.0
  F  F57  1  0.69473029  0.80526971  0.00000000  1.0
  F  F58  1  0.30526971  0.19473029  0.00000000  1.0
  F  F59  1  0.19473029  0.69473029  0.00000000  1.0
  F  F60  1  0.30526971  0.80526971  0.50000000  1.0
  F  F61  1  0.19473029  0.30526971  0.50000000  1.0
  F  F62  1  0.80526971  0.69473029  0.50000000  1.0
  F  F63  1  0.69473029  0.19473029  0.50000000  1.0
