# generated using pymatgen
data_Sr5(GeN3)2
_symmetry_space_group_name_H-M   'P 1'
_cell_length_a   6.18091847
_cell_length_b   6.18091847
_cell_length_c   13.64309461
_cell_angle_alpha   81.59118625
_cell_angle_beta   98.40881375
_cell_angle_gamma   115.64346505
_symmetry_Int_Tables_number   1
_chemical_formula_structural   Sr5(GeN3)2
_chemical_formula_sum   'Sr10 Ge4 N12'
_cell_volume   462.81353688
_cell_formula_units_Z   2
loop_
 _symmetry_equiv_pos_site_id
 _symmetry_equiv_pos_as_xyz
  1  'x, y, z'
loop_
 _atom_site_type_symbol
 _atom_site_label
 _atom_site_symmetry_multiplicity
 _atom_site_fract_x
 _atom_site_fract_y
 _atom_site_fract_z
 _atom_site_occupancy
  Sr  Sr0  1  0.67591103  -0.20480970  0.00341233  1.0
  Sr  Sr1  1  1.20480970  0.32408897  0.50341233  1.0
  Sr  Sr2  1  0.79519030  -0.32408897  0.49658767  1.0
  Sr  Sr3  1  1.32408897  0.20480970  0.99658767  1.0
  Sr  Sr4  1  1.75872746  0.06890013  0.28517945  1.0
  Sr  Sr5  1  0.93109987  -0.75872746  0.78517945  1.0
  Sr  Sr6  1  1.06890013  0.75872746  0.21482055  1.0
  Sr  Sr7  1  0.24127254  -0.06890013  0.71482055  1.0
  Sr  Sr8  1  1.38017519  0.38017519  0.25000000  1.0
  Sr  Sr9  1  0.61982481  -0.38017519  0.75000000  1.0
  Ge  Ge10  1  0.34865846  -0.09676498  0.42335674  1.0
  Ge  Ge11  1  1.09676498  0.65134154  0.92335674  1.0
  Ge  Ge12  1  0.90323502  -0.65134154  0.07664326  1.0
  Ge  Ge13  1  1.65134154  0.09676498  0.57664326  1.0
  N  N14  1  0.39570855  -0.30755611  0.35057405  1.0
  N  N15  1  1.30755611  0.60429145  0.85057405  1.0
  N  N16  1  0.69244389  -0.60429145  0.14942595  1.0
  N  N17  1  1.60429145  0.30755611  0.64942595  1.0
  N  N18  1  1.64660845  0.21089353  0.43667585  1.0
  N  N19  1  0.78910647  -0.64660845  0.93667585  1.0
  N  N20  1  1.21089353  0.64660845  0.06332415  1.0
  N  N21  1  0.35339155  -0.21089353  0.56332415  1.0
  N  N22  1  0.09532138  -0.01603227  0.37264420  1.0
  N  N23  1  1.01603227  0.90467862  0.87264420  1.0
  N  N24  1  0.98396773  -0.90467862  0.12735580  1.0
  N  N25  1  1.90467862  0.01603227  0.62735580  1.0
