# generated using pymatgen
data_Cs4NaSi18
_symmetry_space_group_name_H-M   'P 1'
_cell_length_a   16.26953548
_cell_length_b   16.26953548
_cell_length_c   16.26953548
_cell_angle_alpha   60.00000000
_cell_angle_beta   60.00000000
_cell_angle_gamma   60.00000000
_symmetry_Int_Tables_number   1
_chemical_formula_structural   Cs4NaSi18
_chemical_formula_sum   'Cs8 Na2 Si36'
_cell_volume   3045.16242333
_cell_formula_units_Z   2
loop_
 _symmetry_equiv_pos_site_id
 _symmetry_equiv_pos_as_xyz
  1  'x, y, z'
loop_
 _atom_site_type_symbol
 _atom_site_label
 _atom_site_symmetry_multiplicity
 _atom_site_fract_x
 _atom_site_fract_y
 _atom_site_fract_z
 _atom_site_occupancy
  Cs  Cs0  1  -0.15025630  0.84974370  0.45076891  1.0
  Cs  Cs1  1  0.84974370  -0.54923109  0.84974370  1.0
  Cs  Cs2  1  0.40025630  0.40025630  0.40025630  1.0
  Cs  Cs3  1  -0.20076891  0.40025630  0.40025630  1.0
  Cs  Cs4  1  -0.54923109  0.84974370  0.84974370  1.0
  Cs  Cs5  1  0.84974370  -0.15025630  0.84974370  1.0
  Cs  Cs6  1  0.40025630  -0.20076891  0.40025630  1.0
  Cs  Cs7  1  0.40025630  0.40025630  -0.20076891  1.0
  Si  Si8  1  0.89202168  -0.10797832  1.03424392  1.0
  Si  Si9  1  -0.81828728  0.89202168  1.03424392  1.0
  Si  Si10  1  -0.81828728  1.03424392  0.89202168  1.0
  Si  Si11  1  0.89202168  0.03424392  0.89202168  1.0
  Si  Si12  1  0.35797832  0.35797832  0.06828728  1.0
  Si  Si13  1  0.35797832  0.06828728  0.35797832  1.0
  Si  Si14  1  0.21575608  0.06828728  0.35797832  1.0
  Si  Si15  1  0.21575608  0.35797832  0.06828728  1.0
  Si  Si16  1  0.89202168  -0.81828728  1.03424392  1.0
  Si  Si17  1  -0.10797832  1.03424392  0.18171272  1.0
  Si  Si18  1  0.06828728  0.35797832  0.35797832  1.0
  Si  Si19  1  0.21575608  0.35797832  0.35797832  1.0
  Si  Si20  1  1.03424392  -0.81828728  0.89202168  1.0
  Si  Si21  1  0.03424392  0.89202168  0.18171272  1.0
  Si  Si22  1  -0.10797832  0.89202168  0.18171272  1.0
  Si  Si23  1  0.89202168  -0.81828728  0.89202168  1.0
  Si  Si24  1  0.06828728  0.21575608  0.35797832  1.0
  Si  Si25  1  0.35797832  0.21575608  0.35797832  1.0
  Si  Si26  1  0.35797832  0.35797832  0.21575608  1.0
  Si  Si27  1  0.06828728  0.35797832  0.21575608  1.0
  Si  Si28  1  1.03424392  -0.10797832  0.89202168  1.0
  Si  Si29  1  -0.81828728  0.89202168  0.89202168  1.0
  Si  Si30  1  0.35797832  0.21575608  0.06828728  1.0
  Si  Si31  1  0.35797832  0.06828728  0.21575608  1.0
  Si  Si32  1  0.67949250  -0.32050750  0.96152249  1.0
  Si  Si33  1  0.67949250  -0.03847751  0.67949250  1.0
  Si  Si34  1  0.57050750  -0.42949250  0.57050750  1.0
  Si  Si35  1  1.28847751  -0.42949250  0.57050750  1.0
  Si  Si36  1  0.96152249  -0.32050750  0.67949250  1.0
  Si  Si37  1  0.67949250  -0.32050750  0.67949250  1.0
  Si  Si38  1  0.57050750  0.28847751  0.57050750  1.0
  Si  Si39  1  0.57050750  -0.42949250  1.28847751  1.0
  Si  Si40  1  0.62500000  -0.37500000  1.12500000  1.0
  Si  Si41  1  0.62500000  0.12500000  0.62500000  1.0
  Si  Si42  1  0.62500000  -0.37500000  0.62500000  1.0
  Si  Si43  1  1.12500000  -0.37500000  0.62500000  1.0
  Na  Na44  1  0.50000000  0.50000000  -0.50000000  1.0
  Na  Na45  1  0.75000000  -0.25000000  0.75000000  1.0
