# generated using pymatgen
data_CsNb6I11
_symmetry_space_group_name_H-M   'P 1'
_cell_length_a   11.27777656
_cell_length_b   11.27777656
_cell_length_c   12.05493724
_cell_angle_alpha   90.00000000
_cell_angle_beta   90.00000000
_cell_angle_gamma   120.00000000
_symmetry_Int_Tables_number   1
_chemical_formula_structural   CsNb6I11
_chemical_formula_sum   'Cs2 Nb12 I22'
_cell_volume   1327.83024703
_cell_formula_units_Z   2
loop_
 _symmetry_equiv_pos_site_id
 _symmetry_equiv_pos_as_xyz
  1  'x, y, z'
loop_
 _atom_site_type_symbol
 _atom_site_label
 _atom_site_symmetry_multiplicity
 _atom_site_fract_x
 _atom_site_fract_y
 _atom_site_fract_z
 _atom_site_occupancy
  Cs  Cs0  1  0.00000000  0.00000000  0.25000000  1.0
  Cs  Cs1  1  0.00000000  0.00000000  0.75000000  1.0
  Nb  Nb2  1  0.67784202  0.48205120  0.15272552  1.0
  Nb  Nb3  1  0.67784202  0.19579082  0.34727448  1.0
  Nb  Nb4  1  0.48205120  0.67784202  0.84727448  1.0
  Nb  Nb5  1  0.48205120  0.80420918  0.65272552  1.0
  Nb  Nb6  1  0.80420918  0.48205120  0.34727448  1.0
  Nb  Nb7  1  0.80420918  0.32215798  0.15272552  1.0
  Nb  Nb8  1  0.51794880  0.32215798  0.34727448  1.0
  Nb  Nb9  1  0.51794880  0.19579082  0.15272552  1.0
  Nb  Nb10  1  0.32215798  0.80420918  0.84727448  1.0
  Nb  Nb11  1  0.32215798  0.51794880  0.65272552  1.0
  Nb  Nb12  1  0.19579082  0.67784202  0.65272552  1.0
  Nb  Nb13  1  0.19579082  0.51794880  0.84727448  1.0
  I  I14  1  0.64846002  0.62217456  0.34268980  1.0
  I  I15  1  0.64846002  0.02628546  0.15731020  1.0
  I  I16  1  0.62217456  0.64846002  0.65731020  1.0
  I  I17  1  0.62217456  0.97371454  0.84268980  1.0
  I  I18  1  0.97371454  0.62217456  0.15731020  1.0
  I  I19  1  0.97371454  0.35153998  0.34268980  1.0
  I  I20  1  0.37782544  0.35153998  0.15731020  1.0
  I  I21  1  0.37782544  0.02628546  0.34268980  1.0
  I  I22  1  0.35153998  0.97371454  0.65731020  1.0
  I  I23  1  0.35153998  0.37782544  0.84268980  1.0
  I  I24  1  0.02628546  0.64846002  0.84268980  1.0
  I  I25  1  0.02628546  0.37782544  0.65731020  1.0
  I  I26  1  0.71383069  0.71383069  0.00000000  1.0
  I  I27  1  0.71383069  0.00000000  0.50000000  1.0
  I  I28  1  -0.00000000  0.71383069  0.50000000  1.0
  I  I29  1  0.00000000  0.28616931  0.00000000  1.0
  I  I30  1  0.28616931  0.28616931  0.50000000  1.0
  I  I31  1  0.28616931  0.00000000  0.00000000  1.0
  I  I32  1  0.33333333  0.66666667  0.04491529  1.0
  I  I33  1  0.33333333  0.66666667  0.45508471  1.0
  I  I34  1  0.66666667  0.33333333  0.95508471  1.0
  I  I35  1  0.66666667  0.33333333  0.54491529  1.0
