# generated using pymatgen
data_La2CuSbS5
_symmetry_space_group_name_H-M   'P 1'
_cell_length_a   8.58628753
_cell_length_b   8.58628753
_cell_length_c   8.58628753
_cell_angle_alpha   78.27010097
_cell_angle_beta   127.43064325
_cell_angle_gamma   126.54811556
_symmetry_Int_Tables_number   1
_chemical_formula_structural   La2CuSbS5
_chemical_formula_sum   'La4 Cu2 Sb2 S10'
_cell_volume   391.13970718
_cell_formula_units_Z   2
loop_
 _symmetry_equiv_pos_site_id
 _symmetry_equiv_pos_as_xyz
  1  'x, y, z'
loop_
 _atom_site_type_symbol
 _atom_site_label
 _atom_site_symmetry_multiplicity
 _atom_site_fract_x
 _atom_site_fract_y
 _atom_site_fract_z
 _atom_site_occupancy
  La  La0  1  0.52297962  0.63606383  0.38691580  1.0
  La  La1  1  1.24914803  1.13606383  0.61308420  1.0
  La  La2  1  -0.00079454  -0.00079454  0.00000000  1.0
  La  La3  1  0.99920546  0.49920546  0.50000000  1.0
  Cu  Cu4  1  0.53648847  0.53648847  -0.00000000  1.0
  Cu  Cu5  1  0.53648847  0.03648847  0.50000000  1.0
  Sb  Sb6  1  0.89216683  0.46655551  0.92561132  1.0
  Sb  Sb7  1  1.54094419  0.96655551  1.07438868  1.0
  S  S8  1  1.17429765  0.73075483  1.24170329  1.0
  S  S9  1  1.48905153  1.23075483  1.05645717  1.0
  S  S10  1  1.17429765  0.43259436  0.94354283  1.0
  S  S11  1  1.48905153  0.93259436  0.75829671  1.0
  S  S12  1  0.85418681  1.06762917  0.57591471  1.0
  S  S13  1  0.49171446  0.56762917  0.71344237  1.0
  S  S14  1  0.85418681  0.77827209  0.28655763  1.0
  S  S15  1  0.49171446  0.27827209  0.42408529  1.0
  S  S16  1  1.01104055  0.75003629  0.76100426  1.0
  S  S17  1  1.98903203  1.25003629  1.23899574  1.0
