# generated using pymatgen
data_Sr2LuSbO6
_symmetry_space_group_name_H-M   'P 1'
_cell_length_a   5.82987948
_cell_length_b   5.88197073
_cell_length_c   10.10300645
_cell_angle_alpha   90.00000000
_cell_angle_beta   125.06693538
_cell_angle_gamma   90.00000000
_symmetry_Int_Tables_number   1
_chemical_formula_structural   Sr2LuSbO6
_chemical_formula_sum   'Sr4 Lu2 Sb2 O12'
_cell_volume   283.55798753
_cell_formula_units_Z   2
loop_
 _symmetry_equiv_pos_site_id
 _symmetry_equiv_pos_as_xyz
  1  'x, y, z'
loop_
 _atom_site_type_symbol
 _atom_site_label
 _atom_site_symmetry_multiplicity
 _atom_site_fract_x
 _atom_site_fract_y
 _atom_site_fract_z
 _atom_site_occupancy
  Sr  Sr0  1  0.24204282  0.46750336  0.24968111  1.0
  Sr  Sr1  1  0.24204282  1.03249664  0.74968111  1.0
  Sr  Sr2  1  0.75795718  -0.03249664  0.25031889  1.0
  Sr  Sr3  1  0.75795718  0.53249664  0.75031889  1.0
  Lu  Lu4  1  0.50000000  0.00000000  0.50000000  1.0
  Lu  Lu5  1  0.50000000  0.50000000  0.00000000  1.0
  Sb  Sb6  1  0.00000000  0.00000000  0.00000000  1.0
  Sb  Sb7  1  -0.00000000  0.50000000  0.50000000  1.0
  O  O8  1  0.31367365  0.02002948  0.23820044  1.0
  O  O9  1  0.31367365  0.47997052  0.73820044  1.0
  O  O10  1  0.68632635  0.52002948  0.26179956  1.0
  O  O11  1  0.68632635  0.97997052  0.76179956  1.0
  O  O12  1  0.83963175  0.72523691  0.04097506  1.0
  O  O13  1  0.83963175  0.77476309  0.54097506  1.0
  O  O14  1  0.16036825  0.22523691  0.45902494  1.0
  O  O15  1  0.16036825  0.27476309  0.95902494  1.0
  O  O16  1  0.76522994  0.20397063  0.03903877  1.0
  O  O17  1  0.76522994  0.29602937  0.53903877  1.0
  O  O18  1  0.23477006  0.70397063  0.46096123  1.0
  O  O19  1  0.23477006  0.79602937  0.96096123  1.0
