# generated using pymatgen
data_BaCrO3
_symmetry_space_group_name_H-M   'P 1'
_cell_length_a   5.66349049
_cell_length_b   5.66349049
_cell_length_c   13.76990932
_cell_angle_alpha   90.00000000
_cell_angle_beta   90.00000000
_cell_angle_gamma   120.00000000
_symmetry_Int_Tables_number   1
_chemical_formula_structural   BaCrO3
_chemical_formula_sum   'Ba6 Cr6 O18'
_cell_volume   382.49878812
_cell_formula_units_Z   6
loop_
 _symmetry_equiv_pos_site_id
 _symmetry_equiv_pos_as_xyz
  1  'x, y, z'
loop_
 _atom_site_type_symbol
 _atom_site_label
 _atom_site_symmetry_multiplicity
 _atom_site_fract_x
 _atom_site_fract_y
 _atom_site_fract_z
 _atom_site_occupancy
  Ba  Ba0  1  0.33333333  0.66666667  0.40973091  1.0
  Ba  Ba1  1  0.33333333  0.66666667  0.09026909  1.0
  Ba  Ba2  1  0.66666667  0.33333333  0.90973091  1.0
  Ba  Ba3  1  0.66666667  0.33333333  0.59026909  1.0
  Ba  Ba4  1  0.00000000  0.00000000  0.25000000  1.0
  Ba  Ba5  1  0.00000000  0.00000000  0.75000000  1.0
  Cr  Cr6  1  0.33333333  0.66666667  0.84379743  1.0
  Cr  Cr7  1  0.33333333  0.66666667  0.65620257  1.0
  Cr  Cr8  1  0.66666667  0.33333333  0.34379743  1.0
  Cr  Cr9  1  0.66666667  0.33333333  0.15620257  1.0
  Cr  Cr10  1  0.00000000  0.00000000  0.50000000  1.0
  Cr  Cr11  1  0.00000000  0.00000000  0.00000000  1.0
  O  O12  1  0.16622457  0.83377543  0.91916669  1.0
  O  O13  1  0.16622457  0.83377543  0.58083331  1.0
  O  O14  1  0.16622457  0.33244915  0.91916669  1.0
  O  O15  1  0.16622457  0.33244915  0.58083331  1.0
  O  O16  1  0.83377543  0.16622457  0.41916669  1.0
  O  O17  1  0.83377543  0.16622457  0.08083331  1.0
  O  O18  1  0.83377543  0.66755085  0.41916669  1.0
  O  O19  1  0.83377543  0.66755085  0.08083331  1.0
  O  O20  1  0.66755085  0.83377543  0.91916669  1.0
  O  O21  1  0.66755085  0.83377543  0.58083331  1.0
  O  O22  1  0.33244915  0.16622457  0.41916669  1.0
  O  O23  1  0.33244915  0.16622457  0.08083331  1.0
  O  O24  1  0.52022541  0.47977459  0.25000000  1.0
  O  O25  1  0.52022541  0.04045081  0.25000000  1.0
  O  O26  1  0.47977459  0.52022541  0.75000000  1.0
  O  O27  1  0.47977459  0.95954919  0.75000000  1.0
  O  O28  1  0.95954919  0.47977459  0.25000000  1.0
  O  O29  1  0.04045081  0.52022541  0.75000000  1.0
