# generated using pymatgen
data_Ba3TmRu2O9
_symmetry_space_group_name_H-M   'P 1'
_cell_length_a   5.92920340
_cell_length_b   5.92920340
_cell_length_c   14.48209476
_cell_angle_alpha   90.00000000
_cell_angle_beta   90.00000000
_cell_angle_gamma   120.00000000
_symmetry_Int_Tables_number   1
_chemical_formula_structural   Ba3TmRu2O9
_chemical_formula_sum   'Ba6 Tm2 Ru4 O18'
_cell_volume   440.91483856
_cell_formula_units_Z   2
loop_
 _symmetry_equiv_pos_site_id
 _symmetry_equiv_pos_as_xyz
  1  'x, y, z'
loop_
 _atom_site_type_symbol
 _atom_site_label
 _atom_site_symmetry_multiplicity
 _atom_site_fract_x
 _atom_site_fract_y
 _atom_site_fract_z
 _atom_site_occupancy
  Ru  Ru0  1  0.33333333  0.66666667  0.83576107  1.0
  Ru  Ru1  1  0.33333333  0.66666667  0.66423893  1.0
  Ru  Ru2  1  0.66666667  0.33333333  0.33576107  1.0
  Ru  Ru3  1  0.66666667  0.33333333  0.16423893  1.0
  Ba  Ba4  1  0.33333333  0.66666667  0.40591693  1.0
  Ba  Ba5  1  0.33333333  0.66666667  0.09408307  1.0
  Ba  Ba6  1  0.66666667  0.33333333  0.90591693  1.0
  Ba  Ba7  1  0.66666667  0.33333333  0.59408307  1.0
  Ba  Ba8  1  0.00000000  0.00000000  0.25000000  1.0
  Ba  Ba9  1  0.00000000  0.00000000  0.75000000  1.0
  O  O10  1  0.50932041  0.49067959  0.25000000  1.0
  O  O11  1  0.50932041  0.01864083  0.25000000  1.0
  O  O12  1  0.49067959  0.50932041  0.75000000  1.0
  O  O13  1  0.49067959  0.98135917  0.75000000  1.0
  O  O14  1  0.98135917  0.49067959  0.25000000  1.0
  O  O15  1  0.01864083  0.50932041  0.75000000  1.0
  O  O16  1  0.17645810  0.82354190  0.91202859  1.0
  O  O17  1  0.17645810  0.82354190  0.58797141  1.0
  O  O18  1  0.17645810  0.35291620  0.91202859  1.0
  O  O19  1  0.17645810  0.35291620  0.58797141  1.0
  O  O20  1  0.82354190  0.17645810  0.41202859  1.0
  O  O21  1  0.82354190  0.17645810  0.08797141  1.0
  O  O22  1  0.82354190  0.64708380  0.41202859  1.0
  O  O23  1  0.82354190  0.64708380  0.08797141  1.0
  O  O24  1  0.64708380  0.82354190  0.91202859  1.0
  O  O25  1  0.64708380  0.82354190  0.58797141  1.0
  O  O26  1  0.35291620  0.17645810  0.41202859  1.0
  O  O27  1  0.35291620  0.17645810  0.08797141  1.0
  Tm  Tm28  1  0.00000000  0.00000000  0.50000000  1.0
  Tm  Tm29  1  0.00000000  0.00000000  0.00000000  1.0
