# generated using pymatgen
data_K2HfF6
_symmetry_space_group_name_H-M   'P 1'
_cell_length_a   6.72635331
_cell_length_b   6.72635331
_cell_length_c   6.99952691
_cell_angle_alpha   90.08226977
_cell_angle_beta   89.91773023
_cell_angle_gamma   59.20244875
_symmetry_Int_Tables_number   1
_chemical_formula_structural   K2HfF6
_chemical_formula_sum   'K4 Hf2 F12'
_cell_volume   272.02583728
_cell_formula_units_Z   2
loop_
 _symmetry_equiv_pos_site_id
 _symmetry_equiv_pos_as_xyz
  1  'x, y, z'
loop_
 _atom_site_type_symbol
 _atom_site_label
 _atom_site_symmetry_multiplicity
 _atom_site_fract_x
 _atom_site_fract_y
 _atom_site_fract_z
 _atom_site_occupancy
  K  K0  1  0.82562463  -0.14150155  -0.00320624  1.0
  K  K1  1  1.14150155  -0.82562463  0.49679376  1.0
  K  K2  1  0.85849845  -0.17437537  0.50320624  1.0
  K  K3  1  0.17437537  0.14150155  0.00320624  1.0
  Hf  Hf4  1  0.54732593  -0.45267407  0.75000000  1.0
  Hf  Hf5  1  0.45267407  0.45267407  0.25000000  1.0
  F  F6  1  0.43486726  0.37084022  0.95600810  1.0
  F  F7  1  0.62915978  -0.43486726  0.45600810  1.0
  F  F8  1  1.37084022  -0.56513274  0.54399190  1.0
  F  F9  1  0.56513274  -0.37084022  0.04399190  1.0
  F  F10  1  0.50111195  -0.12070106  0.72678998  1.0
  F  F11  1  1.12070106  -0.50111195  0.22678998  1.0
  F  F12  1  0.87929894  -0.49888805  0.77321002  1.0
  F  F13  1  0.49888805  0.12070106  0.27321002  1.0
  F  F14  1  0.77330577  0.19890685  0.71743351  1.0
  F  F15  1  0.80109315  -0.77330577  0.21743351  1.0
  F  F16  1  1.19890685  -0.22669423  0.78256649  1.0
  F  F17  1  0.22669423  -0.19890685  0.28256649  1.0
