# generated using pymatgen
data_EuPH5CO7
_symmetry_space_group_name_H-M   'P 1'
_cell_length_a   6.68203085
_cell_length_b   7.07920894
_cell_length_c   7.70314751
_cell_angle_alpha   110.17087061
_cell_angle_beta   95.86554513
_cell_angle_gamma   89.25133172
_symmetry_Int_Tables_number   1
_chemical_formula_structural   EuPH5CO7
_chemical_formula_sum   'Eu2 P2 H10 C2 O14'
_cell_volume   340.15074616
_cell_formula_units_Z   2
loop_
 _symmetry_equiv_pos_site_id
 _symmetry_equiv_pos_as_xyz
  1  'x, y, z'
loop_
 _atom_site_type_symbol
 _atom_site_label
 _atom_site_symmetry_multiplicity
 _atom_site_fract_x
 _atom_site_fract_y
 _atom_site_fract_z
 _atom_site_occupancy
  Eu  Eu0  1  0.86812287  0.27891468  0.56341154  1.0
  Eu  Eu1  1  0.13187713  0.72108532  0.43658846  1.0
  P  P2  1  0.67492528  0.76055893  0.52210940  1.0
  P  P3  1  0.32507472  0.23944107  0.47789060  1.0
  H  H4  1  0.82593962  0.98429039  0.17403415  1.0
  H  H5  1  0.17406038  0.01570961  0.82596585  1.0
  H  H6  1  0.62441287  0.79985322  0.70412180  1.0
  H  H7  1  0.37558713  0.20014678  0.29587820  1.0
  H  H8  1  0.56044724  0.66909183  0.94539192  1.0
  H  H9  1  0.43955276  0.33090817  0.05460808  1.0
  H  H10  1  0.53675296  0.25710903  0.86724724  1.0
  H  H11  1  0.46324704  0.74289097  0.13275276  1.0
  H  H12  1  0.28698921  0.82997733  0.86718821  1.0
  H  H13  1  0.71301079  0.17002267  0.13281179  1.0
  C  C14  1  0.93058147  0.58776391  1.00023803  1.0
  C  C15  1  0.06941853  0.41223609  -0.00023803  1.0
  O  O16  1  0.93871157  0.73791783  0.14955218  1.0
  O  O17  1  0.06128843  0.26208217  0.85044782  1.0
  O  O18  1  0.81838028  0.56864512  0.85305939  1.0
  O  O19  1  0.18161972  0.43135488  0.14694061  1.0
  O  O20  1  0.82088638  0.93072126  0.52649360  1.0
  O  O21  1  0.17911362  0.06927874  0.47350640  1.0
  O  O22  1  0.80261954  0.56623645  0.46660079  1.0
  O  O23  1  0.19738046  0.43376355  0.53339921  1.0
  O  O24  1  0.47733326  0.73884354  0.39514405  1.0
  O  O25  1  0.52266674  0.26115646  0.60485595  1.0
  O  O26  1  0.43854062  0.72821120  1.00100811  1.0
  O  O27  1  0.56145938  0.27178880  -0.00100811  1.0
  O  O28  1  0.20401223  0.87163318  0.77201478  1.0
  O  O29  1  0.79598777  0.12836682  0.22798522  1.0
