# generated using pymatgen
data_KSbO3
_symmetry_space_group_name_H-M   'P 1'
_cell_length_a   9.75969593
_cell_length_b   9.75969593
_cell_length_c   9.75969593
_cell_angle_alpha   90.00000000
_cell_angle_beta   90.00000000
_cell_angle_gamma   90.00000000
_symmetry_Int_Tables_number   1
_chemical_formula_structural   KSbO3
_chemical_formula_sum   'K12 Sb12 O36'
_cell_volume   929.62728451
_cell_formula_units_Z   12
loop_
 _symmetry_equiv_pos_site_id
 _symmetry_equiv_pos_as_xyz
  1  'x, y, z'
loop_
 _atom_site_type_symbol
 _atom_site_label
 _atom_site_symmetry_multiplicity
 _atom_site_fract_x
 _atom_site_fract_y
 _atom_site_fract_z
 _atom_site_occupancy
  K  K0  1  0.75000000  0.25000000  0.25000000  1.0
  K  K1  1  0.25000000  0.25000000  0.75000000  1.0
  K  K2  1  0.25000000  0.75000000  0.25000000  1.0
  K  K3  1  0.75000000  0.75000000  0.75000000  1.0
  K  K4  1  0.34679200  0.65320800  0.65320800  1.0
  K  K5  1  0.65320800  0.65320800  0.34679200  1.0
  K  K6  1  0.65320800  0.34679200  0.65320800  1.0
  K  K7  1  0.34679200  0.34679200  0.34679200  1.0
  K  K8  1  0.15320800  0.84679200  0.84679200  1.0
  K  K9  1  0.84679200  0.84679200  0.15320800  1.0
  K  K10  1  0.84679200  0.15320800  0.84679200  1.0
  K  K11  1  0.15320800  0.15320800  0.15320800  1.0
  Sb  Sb12  1  0.50000000  0.84243473  0.00000000  1.0
  Sb  Sb13  1  0.50000000  0.15756527  0.00000000  1.0
  Sb  Sb14  1  0.00000000  0.50000000  0.84243473  1.0
  Sb  Sb15  1  0.00000000  0.50000000  0.15756527  1.0
  Sb  Sb16  1  0.84243473  0.00000000  0.50000000  1.0
  Sb  Sb17  1  0.15756527  0.00000000  0.50000000  1.0
  Sb  Sb18  1  0.00000000  0.65756527  0.50000000  1.0
  Sb  Sb19  1  0.00000000  0.34243473  0.50000000  1.0
  Sb  Sb20  1  0.50000000  0.00000000  0.65756527  1.0
  Sb  Sb21  1  0.50000000  0.00000000  0.34243473  1.0
  Sb  Sb22  1  0.65756527  0.50000000  0.00000000  1.0
  Sb  Sb23  1  0.34243473  0.50000000  0.00000000  1.0
  O  O24  1  0.50000000  0.86169131  0.50000000  1.0
  O  O25  1  0.50000000  0.13830869  0.50000000  1.0
  O  O26  1  0.50000000  0.50000000  0.86169131  1.0
  O  O27  1  0.50000000  0.50000000  0.13830869  1.0
  O  O28  1  0.86169131  0.50000000  0.50000000  1.0
  O  O29  1  0.13830869  0.50000000  0.50000000  1.0
  O  O30  1  0.00000000  0.63830869  0.00000000  1.0
  O  O31  1  0.00000000  0.36169131  0.00000000  1.0
  O  O32  1  0.00000000  0.00000000  0.63830869  1.0
  O  O33  1  0.00000000  0.00000000  0.36169131  1.0
  O  O34  1  0.63830869  0.00000000  0.00000000  1.0
  O  O35  1  0.36169131  0.00000000  0.00000000  1.0
  O  O36  1  0.15708979  0.78919058  0.50322208  1.0
  O  O37  1  0.84291021  0.78919058  0.49677792  1.0
  O  O38  1  0.84291021  0.21080942  0.50322208  1.0
  O  O39  1  0.15708979  0.21080942  0.49677792  1.0
  O  O40  1  0.50322208  0.15708979  0.78919058  1.0
  O  O41  1  0.49677792  0.84291021  0.78919058  1.0
  O  O42  1  0.50322208  0.84291021  0.21080942  1.0
  O  O43  1  0.49677792  0.15708979  0.21080942  1.0
  O  O44  1  0.78919058  0.50322208  0.15708979  1.0
  O  O45  1  0.78919058  0.49677792  0.84291021  1.0
  O  O46  1  0.21080942  0.50322208  0.84291021  1.0
  O  O47  1  0.21080942  0.49677792  0.15708979  1.0
  O  O48  1  0.34291021  0.71080942  -0.00322208  1.0
  O  O49  1  0.65708979  0.71080942  0.00322208  1.0
  O  O50  1  0.65708979  0.28919058  -0.00322208  1.0
  O  O51  1  0.34291021  0.28919058  0.00322208  1.0
  O  O52  1  -0.00322208  0.34291021  0.71080942  1.0
  O  O53  1  0.00322208  0.65708979  0.71080942  1.0
  O  O54  1  -0.00322208  0.65708979  0.28919058  1.0
  O  O55  1  0.00322208  0.34291021  0.28919058  1.0
  O  O56  1  0.71080942  -0.00322208  0.34291021  1.0
  O  O57  1  0.71080942  0.00322208  0.65708979  1.0
  O  O58  1  0.28919058  -0.00322208  0.65708979  1.0
  O  O59  1  0.28919058  0.00322208  0.34291021  1.0
