# generated using pymatgen
data_LaSc3(BO3)4
_symmetry_space_group_name_H-M   'P 1'
_cell_length_a   6.31895546
_cell_length_b   6.31895546
_cell_length_c   12.19223174
_cell_angle_alpha   80.44557993
_cell_angle_beta   99.55442007
_cell_angle_gamma   76.42757153
_symmetry_Int_Tables_number   1
_chemical_formula_structural   LaSc3(BO3)4
_chemical_formula_sum   'La2 Sc6 B8 O24'
_cell_volume   455.87701951
_cell_formula_units_Z   2
loop_
 _symmetry_equiv_pos_site_id
 _symmetry_equiv_pos_as_xyz
  1  'x, y, z'
loop_
 _atom_site_type_symbol
 _atom_site_label
 _atom_site_symmetry_multiplicity
 _atom_site_fract_x
 _atom_site_fract_y
 _atom_site_fract_z
 _atom_site_occupancy
  La  La0  1  1.46973529  0.46268052  0.49951950  1.0
  La  La1  1  0.53731948  -0.46973529  -0.00048050  1.0
  Sc  Sc2  1  0.92857713  -0.07857880  0.49955033  1.0
  Sc  Sc3  1  1.07857880  0.07142287  0.99955033  1.0
  Sc  Sc4  1  1.30127666  0.19809652  0.77447333  1.0
  Sc  Sc5  1  0.80190348  -0.30127666  0.27447333  1.0
  Sc  Sc6  1  1.20549264  0.29400110  0.22464070  1.0
  Sc  Sc7  1  0.70599890  -0.20549264  0.72464070  1.0
  B  B8  1  1.60651449  0.00228076  0.02353865  1.0
  B  B9  1  0.99771924  -0.60651449  0.52353865  1.0
  B  B10  1  0.28185994  -0.23228872  0.24872959  1.0
  B  B11  1  1.23228872  0.71814006  0.74872959  1.0
  B  B12  1  1.72552143  0.22503427  0.25035418  1.0
  B  B13  1  0.77496573  -0.72552143  0.75035418  1.0
  B  B14  1  1.40074173  -0.00953297  0.47554330  1.0
  B  B15  1  1.00953297  -0.40074173  0.97554330  1.0
  O  O16  1  0.67015267  -0.19713205  0.10176651  1.0
  O  O17  1  1.19713205  0.32984733  0.60176651  1.0
  O  O18  1  0.49518519  -0.31303961  0.31564771  1.0
  O  O19  1  1.31303961  0.50481481  0.81564771  1.0
  O  O20  1  1.79898010  0.01198763  0.31810115  1.0
  O  O21  1  0.98801237  -0.79898010  0.81810115  1.0
  O  O22  1  1.74479865  0.13949848  0.00918111  1.0
  O  O23  1  0.86050152  -0.74479865  0.50918111  1.0
  O  O24  1  1.14197037  0.62818769  0.25448572  1.0
  O  O25  1  0.37181231  -0.14197037  0.75448572  1.0
  O  O26  1  1.63551876  0.13450510  0.74464881  1.0
  O  O27  1  0.86549490  -0.63551876  0.24464881  1.0
  O  O28  1  0.26229593  -0.14658697  0.48984393  1.0
  O  O29  1  1.14658697  0.73770407  0.98984393  1.0
  O  O30  1  1.39436467  0.06419566  0.95495423  1.0
  O  O31  1  0.93580434  -0.39436467  0.45495423  1.0
  O  O32  1  0.20833859  -0.01926117  0.18096756  1.0
  O  O33  1  1.01926117  0.79166141  0.68096756  1.0
  O  O34  1  1.51218298  0.30593047  0.18346626  1.0
  O  O35  1  0.69406953  -0.51218298  0.68346626  1.0
  O  O36  1  1.33734937  0.18987524  0.39732848  1.0
  O  O37  1  0.81012476  -0.33734937  0.89732848  1.0
  O  O38  1  1.07172335  0.38712680  0.04415896  1.0
  O  O39  1  0.61287320  -0.07172335  0.54415896  1.0
