# generated using pymatgen
data_La6Cd23Pb
_symmetry_space_group_name_H-M   'P 1'
_cell_length_a   10.25657681
_cell_length_b   10.25657681
_cell_length_c   10.25657681
_cell_angle_alpha   60.00000000
_cell_angle_beta   60.00000000
_cell_angle_gamma   60.00000000
_symmetry_Int_Tables_number   1
_chemical_formula_structural   La6Cd23Pb
_chemical_formula_sum   'La6 Cd23 Pb1'
_cell_volume   762.94338504
_cell_formula_units_Z   1
loop_
 _symmetry_equiv_pos_site_id
 _symmetry_equiv_pos_as_xyz
  1  'x, y, z'
loop_
 _atom_site_type_symbol
 _atom_site_label
 _atom_site_symmetry_multiplicity
 _atom_site_fract_x
 _atom_site_fract_y
 _atom_site_fract_z
 _atom_site_occupancy
  La  La0  1  0.72794417  0.72794417  -0.72794417  1.0
  La  La1  1  0.27205583  -0.27205583  1.27205583  1.0
  La  La2  1  -0.27205583  0.27205583  0.27205583  1.0
  La  La3  1  0.27205583  1.27205583  -0.27205583  1.0
  La  La4  1  -0.27205583  0.27205583  0.72794417  1.0
  La  La5  1  -0.72794417  0.72794417  0.72794417  1.0
  Cd  Cd6  1  0.65619033  0.65619033  1.03142902  1.0
  Cd  Cd7  1  0.65619033  1.03142902  -0.34380967  1.0
  Cd  Cd8  1  1.03142902  0.65619033  0.65619033  1.0
  Cd  Cd9  1  0.65619033  0.65619033  -0.34380967  1.0
  Cd  Cd10  1  0.34380967  1.34380967  -0.03142902  1.0
  Cd  Cd11  1  1.34380967  -0.03142902  0.34380967  1.0
  Cd  Cd12  1  -0.03142902  1.34380967  0.34380967  1.0
  Cd  Cd13  1  1.34380967  0.34380967  0.34380967  1.0
  Cd  Cd14  1  0.00000000  0.00000000  0.50000000  1.0
  Cd  Cd15  1  0.50000000  1.00000000  -0.50000000  1.0
  Cd  Cd16  1  1.00000000  0.50000000  -0.50000000  1.0
  Cd  Cd17  1  0.50000000  -0.50000000  1.00000000  1.0
  Cd  Cd18  1  0.00000000  1.50000000  -0.00000000  1.0
  Cd  Cd19  1  1.50000000  0.00000000  -0.00000000  1.0
  Cd  Cd20  1  -0.00000000  0.00000000  -0.00000000  1.0
  Cd  Cd21  1  0.87170317  0.87170317  -0.61510951  1.0
  Cd  Cd22  1  0.87170317  0.38489049  -0.12829683  1.0
  Cd  Cd23  1  0.38489049  0.87170317  -0.12829683  1.0
  Cd  Cd24  1  0.87170317  0.87170317  -0.12829683  1.0
  Cd  Cd25  1  1.12829683  0.12829683  0.61510951  1.0
  Cd  Cd26  1  1.12829683  0.61510951  0.12829683  1.0
  Cd  Cd27  1  1.61510951  0.12829683  0.12829683  1.0
  Cd  Cd28  1  1.12829683  0.12829683  0.12829683  1.0
  Pb  Pb29  1  -0.50000000  0.50000000  0.50000000  1.0
