# generated using pymatgen
data_Gd2CoTe2(SO7)2
_symmetry_space_group_name_H-M   'P 1'
_cell_length_a   5.32101824
_cell_length_b   8.03543517
_cell_length_c   8.14287475
_cell_angle_alpha   118.43547779
_cell_angle_beta   106.06997614
_cell_angle_gamma   86.00820196
_symmetry_Int_Tables_number   1
_chemical_formula_structural   Gd2CoTe2(SO7)2
_chemical_formula_sum   'Gd2 Co1 Te2 S2 O14'
_cell_volume   293.39666495
_cell_formula_units_Z   1
loop_
 _symmetry_equiv_pos_site_id
 _symmetry_equiv_pos_as_xyz
  1  'x, y, z'
loop_
 _atom_site_type_symbol
 _atom_site_label
 _atom_site_symmetry_multiplicity
 _atom_site_fract_x
 _atom_site_fract_y
 _atom_site_fract_z
 _atom_site_occupancy
  Gd  Gd0  1  -0.93100000  -0.24669404  0.98046479  1.0
  Gd  Gd1  1  -0.06900000  -0.75330596  0.01953521  1.0
  Co  Co2  1  -0.00000000  -0.50000000  0.50000000  1.0
  Te  Te3  1  -0.50017828  -0.75880694  0.36623526  1.0
  Te  Te4  1  -0.49982172  -0.24119306  0.63376474  1.0
  S  S5  1  -0.74639291  -0.75087375  0.74575931  1.0
  S  S6  1  -0.25360709  -0.24912625  0.25424069  1.0
  O  O7  1  -0.84536615  -0.73929042  0.56180182  1.0
  O  O8  1  -0.15463385  -0.26070958  0.43819818  1.0
  O  O9  1  -0.87568265  -0.91402070  0.73873564  1.0
  O  O10  1  -0.12431735  -0.08597930  0.26126436  1.0
  O  O11  1  -0.81474505  -0.57791267  0.91100114  1.0
  O  O12  1  -0.18525495  -0.42208733  0.08899886  1.0
  O  O13  1  -0.74485052  -0.55526932  0.35703308  1.0
  O  O14  1  -0.25514948  -0.44473068  0.64296692  1.0
  O  O15  1  -0.74985699  -0.93175576  0.11696276  1.0
  O  O16  1  -0.25014301  -0.06824424  0.88303724  1.0
  O  O17  1  -0.74034749  -0.32100837  0.73390803  1.0
  O  O18  1  -0.25965251  -0.67899163  0.26609197  1.0
  O  O19  1  -0.45791447  -0.76842058  0.78268762  1.0
  O  O20  1  -0.54208553  -0.23157942  0.21731238  1.0
