# generated using pymatgen
data_Cs3Hf2CuTe10
_symmetry_space_group_name_H-M   'P 1'
_cell_length_a   10.23244001
_cell_length_b   11.41939820
_cell_length_c   11.29303705
_cell_angle_alpha   90.51853225
_cell_angle_beta   102.18403807
_cell_angle_gamma   89.69611715
_symmetry_Int_Tables_number   1
_chemical_formula_structural   Cs3Hf2CuTe10
_chemical_formula_sum   'Cs6 Hf4 Cu2 Te20'
_cell_volume   1289.78794147
_cell_formula_units_Z   2
loop_
 _symmetry_equiv_pos_site_id
 _symmetry_equiv_pos_as_xyz
  1  'x, y, z'
loop_
 _atom_site_type_symbol
 _atom_site_label
 _atom_site_symmetry_multiplicity
 _atom_site_fract_x
 _atom_site_fract_y
 _atom_site_fract_z
 _atom_site_occupancy
  Cs  Cs0  1  -0.88239420  -0.25981363  -0.61043894  1.0
  Cs  Cs1  1  -0.11760580  -0.74018637  -0.38956106  1.0
  Cs  Cs2  1  -0.43925079  -0.38549096  -0.73216945  1.0
  Cs  Cs3  1  -0.56074921  -0.61450904  -0.26783055  1.0
  Cs  Cs4  1  -0.29892419  -0.89315903  -0.87085300  1.0
  Cs  Cs5  1  -0.70107581  -0.10684097  -0.12914700  1.0
  Hf  Hf6  1  -0.89083711  -0.63301373  -0.87548052  1.0
  Hf  Hf7  1  -0.10916289  -0.36698627  -0.12451948  1.0
  Hf  Hf8  1  -0.69057550  -0.85563805  -0.65918988  1.0
  Hf  Hf9  1  -0.30942450  -0.14436195  -0.34081012  1.0
  Cu  Cu10  1  -0.92387340  -0.55886009  -0.12258699  1.0
  Cu  Cu11  1  -0.07612660  -0.44113991  -0.87741301  1.0
  Te  Te12  1  -0.95429432  -0.93072412  -0.62088952  1.0
  Te  Te13  1  -0.04570568  -0.06927588  -0.37911048  1.0
  Te  Te14  1  -0.93215364  -0.40959660  -0.29505491  1.0
  Te  Te15  1  -0.06784636  -0.59040340  -0.70494509  1.0
  Te  Te16  1  -0.91972645  -0.88850217  -0.86228389  1.0
  Te  Te17  1  -0.08027355  -0.11149783  -0.13771611  1.0
  Te  Te18  1  -0.84275252  -0.39684985  -0.94376446  1.0
  Te  Te19  1  -0.15724748  -0.60315015  -0.05623554  1.0
  Te  Te20  1  -0.80591669  -0.75971158  -0.08499589  1.0
  Te  Te21  1  -0.19408331  -0.24028842  -0.91500411  1.0
  Te  Te22  1  -0.78185121  -0.60681761  -0.61623929  1.0
  Te  Te23  1  -0.21814879  -0.39318239  -0.38376071  1.0
  Te  Te24  1  -0.66806491  -0.93396250  -0.41535112  1.0
  Te  Te25  1  -0.33193509  -0.06603750  -0.58464888  1.0
  Te  Te26  1  -0.60818342  -0.70644909  -0.85492318  1.0
  Te  Te27  1  -0.39181658  -0.29355091  -0.14507682  1.0
  Te  Te28  1  -0.47445543  -0.69257441  -0.58876534  1.0
  Te  Te29  1  -0.52554457  -0.30742559  -0.41123466  1.0
  Te  Te30  1  -0.41025190  -0.93353420  -0.25278837  1.0
  Te  Te31  1  -0.58974810  -0.06646580  -0.74721163  1.0
