# generated using pymatgen
data_NaZn3As3(HO6)2
_symmetry_space_group_name_H-M   'P 1'
_cell_length_a   8.78130436
_cell_length_b   8.78130436
_cell_length_c   6.90253775
_cell_angle_alpha   74.23890718
_cell_angle_beta   105.76109282
_cell_angle_gamma   88.61644733
_symmetry_Int_Tables_number   1
_chemical_formula_structural   NaZn3As3(HO6)2
_chemical_formula_sum   'Na2 Zn6 As6 H4 O24'
_cell_volume   490.22956971
_cell_formula_units_Z   2
loop_
 _symmetry_equiv_pos_site_id
 _symmetry_equiv_pos_as_xyz
  1  'x, y, z'
loop_
 _atom_site_type_symbol
 _atom_site_label
 _atom_site_symmetry_multiplicity
 _atom_site_fract_x
 _atom_site_fract_y
 _atom_site_fract_z
 _atom_site_occupancy
  Na  Na0  1  0.96476848  -0.03523152  0.75000000  1.0
  Na  Na1  1  1.03523152  0.03523152  0.25000000  1.0
  Zn  Zn2  1  0.37055024  -0.05311792  0.62411302  1.0
  Zn  Zn3  1  1.05311792  0.62944976  0.12411302  1.0
  Zn  Zn4  1  0.94688208  -0.62944976  0.87588698  1.0
  Zn  Zn5  1  1.62944976  0.05311792  0.37588698  1.0
  Zn  Zn6  1  1.27532992  0.27532992  0.75000000  1.0
  Zn  Zn7  1  0.72467008  -0.27532992  0.25000000  1.0
  As  As8  1  1.66702253  0.10277595  0.88893047  1.0
  As  As9  1  0.89722405  -0.66702253  0.38893047  1.0
  As  As10  1  1.10277595  0.66702253  0.61106953  1.0
  As  As11  1  0.33297747  -0.10277595  0.11106953  1.0
  As  As12  1  0.68666316  -0.31333684  0.75000000  1.0
  As  As13  1  1.31333684  0.31333684  0.25000000  1.0
  H  H14  1  1.60499224  0.37825038  0.80564305  1.0
  H  H15  1  0.62174962  -0.60499224  0.30564305  1.0
  H  H16  1  1.37825038  0.60499224  0.69435695  1.0
  H  H17  1  0.39500776  -0.37825038  0.19435695  1.0
  O  O18  1  0.73197024  -0.19890567  0.52519371  1.0
  O  O19  1  1.19890567  0.26802976  0.02519371  1.0
  O  O20  1  0.80109433  -0.26802976  0.97480629  1.0
  O  O21  1  1.26802976  0.19890567  0.47480629  1.0
  O  O22  1  0.48531891  -0.28196530  0.72907102  1.0
  O  O23  1  1.28196530  0.51468109  0.22907102  1.0
  O  O24  1  0.71803470  -0.51468109  0.77092898  1.0
  O  O25  1  1.51468109  0.28196530  0.27092898  1.0
  O  O26  1  1.85031022  0.14072649  0.40745040  1.0
  O  O27  1  0.85927351  -0.85031022  0.90745040  1.0
  O  O28  1  1.14072649  0.85031022  0.09254960  1.0
  O  O29  1  0.14968978  -0.14072649  0.59254960  1.0
  O  O30  1  1.60140824  0.02220633  0.68311851  1.0
  O  O31  1  0.97779367  -0.60140824  0.18311851  1.0
  O  O32  1  1.02220633  0.60140824  0.81688149  1.0
  O  O33  1  0.39859176  -0.02220633  0.31688149  1.0
  O  O34  1  1.33473027  0.02562860  0.87122216  1.0
  O  O35  1  0.97437140  -0.33473027  0.37122216  1.0
  O  O36  1  1.02562860  0.33473027  0.62877784  1.0
  O  O37  1  0.66526973  -0.02562860  0.12877784  1.0
  O  O38  1  1.53716139  0.27830606  0.83669178  1.0
  O  O39  1  0.72169394  -0.53716139  0.33669178  1.0
  O  O40  1  1.27830606  0.53716139  0.66330822  1.0
  O  O41  1  0.46283861  -0.27830606  0.16330822  1.0
