# generated using pymatgen
data_CaSi2
_symmetry_space_group_name_H-M   'P 1'
_cell_length_a   3.86903384
_cell_length_b   3.86903383
_cell_length_c   10.21470609
_cell_angle_alpha   90.00000000
_cell_angle_beta   90.00000000
_cell_angle_gamma   120.00000000
_symmetry_Int_Tables_number   1
_chemical_formula_structural   CaSi2
_chemical_formula_sum   'Ca2 Si4'
_cell_volume   132.42243280
_cell_formula_units_Z   2
loop_
 _symmetry_equiv_pos_site_id
 _symmetry_equiv_pos_as_xyz
  1  'x, y, z'
loop_
 _atom_site_type_symbol
 _atom_site_label
 _atom_site_symmetry_multiplicity
 _atom_site_fract_x
 _atom_site_fract_y
 _atom_site_fract_z
 _atom_site_occupancy
  Ca  Ca0  1  0.66666667  0.33333333  0.70711178  1.0
  Ca  Ca1  1  0.33333333  0.66666667  0.20711178  1.0
  Si  Si2  1  0.00000000  0.00000000  0.49291882  1.0
  Si  Si3  1  0.00000000  0.00000000  0.99291882  1.0
  Si  Si4  1  0.66666667  0.33333333  0.40296940  1.0
  Si  Si5  1  0.33333333  0.66666667  0.90296940  1.0
