# generated using pymatgen
data_CePd5
_symmetry_space_group_name_H-M   'P 1'
_cell_length_a   5.78395113
_cell_length_b   4.12105981
_cell_length_c   8.57875802
_cell_angle_alpha   90.00000000
_cell_angle_beta   90.00000000
_cell_angle_gamma   90.00000000
_symmetry_Int_Tables_number   1
_chemical_formula_structural   CePd5
_chemical_formula_sum   'Ce2 Pd10'
_cell_volume   204.48334914
_cell_formula_units_Z   2
loop_
 _symmetry_equiv_pos_site_id
 _symmetry_equiv_pos_as_xyz
  1  'x, y, z'
loop_
 _atom_site_type_symbol
 _atom_site_label
 _atom_site_symmetry_multiplicity
 _atom_site_fract_x
 _atom_site_fract_y
 _atom_site_fract_z
 _atom_site_occupancy
  Ce  Ce0  1  0.75000000  0.00000000  0.68231216  1.0
  Ce  Ce1  1  0.25000000  0.00000000  0.31768784  1.0
  Pd  Pd2  1  -0.00761973  0.50000000  0.16479080  1.0
  Pd  Pd3  1  0.49238027  0.50000000  0.83520920  1.0
  Pd  Pd4  1  0.00761973  0.50000000  0.83520920  1.0
  Pd  Pd5  1  0.50761973  0.50000000  0.16479080  1.0
  Pd  Pd6  1  0.75000000  0.00000000  -0.00044908  1.0
  Pd  Pd7  1  0.25000000  0.00000000  0.00044908  1.0
  Pd  Pd8  1  0.75000000  0.00000000  0.33387174  1.0
  Pd  Pd9  1  0.25000000  0.00000000  0.66612826  1.0
  Pd  Pd10  1  0.00000000  0.50000000  0.50000000  1.0
  Pd  Pd11  1  0.50000000  0.50000000  0.50000000  1.0
