# generated using pymatgen
data_Cs3Cr2I9
_symmetry_space_group_name_H-M   'P 1'
_cell_length_a   10.99995377
_cell_length_b   10.99995377
_cell_length_c   10.99995377
_cell_angle_alpha   79.42343122
_cell_angle_beta   79.42343122
_cell_angle_gamma   79.42343122
_symmetry_Int_Tables_number   1
_chemical_formula_structural   Cs3Cr2I9
_chemical_formula_sum   'Cs6 Cr4 I18'
_cell_volume   1270.58127670
_cell_formula_units_Z   2
loop_
 _symmetry_equiv_pos_site_id
 _symmetry_equiv_pos_as_xyz
  1  'x, y, z'
loop_
 _atom_site_type_symbol
 _atom_site_label
 _atom_site_symmetry_multiplicity
 _atom_site_fract_x
 _atom_site_fract_y
 _atom_site_fract_z
 _atom_site_occupancy
  Cs  Cs0  1  0.58880590  0.25000000  -0.08880590  1.0
  Cs  Cs1  1  1.08880590  -0.58880590  -0.25000000  1.0
  Cs  Cs2  1  0.75000000  0.08880590  -0.58880590  1.0
  Cs  Cs3  1  0.25000000  0.91119410  -0.41119410  1.0
  Cs  Cs4  1  0.41119410  -0.25000000  0.08880590  1.0
  Cs  Cs5  1  0.91119410  -0.41119410  0.25000000  1.0
  Cr  Cr6  1  1.33142364  1.33142364  0.33142364  1.0
  Cr  Cr7  1  0.83142364  0.83142364  -0.16857636  1.0
  Cr  Cr8  1  1.16857636  1.16857636  0.16857636  1.0
  Cr  Cr9  1  0.66857636  0.66857636  -0.33142364  1.0
  I  I10  1  1.09733361  1.25000000  0.40266639  1.0
  I  I11  1  0.59733361  0.90266639  -0.25000000  1.0
  I  I12  1  0.75000000  0.59733361  -0.09733361  1.0
  I  I13  1  1.25000000  1.40266639  0.09733361  1.0
  I  I14  1  0.90266639  0.75000000  -0.40266639  1.0
  I  I15  1  1.40266639  1.09733361  0.25000000  1.0
  I  I16  1  0.23288838  0.55896095  -0.60315177  1.0
  I  I17  1  0.73288838  -0.10315177  0.05896095  1.0
  I  I18  1  0.10315177  0.94103905  -0.73288838  1.0
  I  I19  1  0.60315177  0.76711162  -0.55896095  1.0
  I  I20  1  0.44103905  0.60315177  -0.23288838  1.0
  I  I21  1  0.94103905  0.26711162  -0.89684823  1.0
  I  I22  1  0.76711162  0.44103905  -0.39684823  1.0
  I  I23  1  0.26711162  0.10315177  -0.05896095  1.0
  I  I24  1  0.39684823  0.23288838  -0.44103905  1.0
  I  I25  1  0.89684823  0.05896095  -0.26711162  1.0
  I  I26  1  1.05896095  -0.26711162  -0.10315177  1.0
  I  I27  1  0.55896095  0.39684823  -0.76711162  1.0
