# generated using pymatgen
data_Zr4CuSb7
_symmetry_space_group_name_H-M   'P 1'
_cell_length_a   11.26835402
_cell_length_b   11.26835402
_cell_length_c   8.77493234
_cell_angle_alpha   90.00000000
_cell_angle_beta   90.00000000
_cell_angle_gamma   90.00000000
_symmetry_Int_Tables_number   1
_chemical_formula_structural   Zr4CuSb7
_chemical_formula_sum   'Zr16 Cu4 Sb28'
_cell_volume   1114.20407424
_cell_formula_units_Z   4
loop_
 _symmetry_equiv_pos_site_id
 _symmetry_equiv_pos_as_xyz
  1  'x, y, z'
loop_
 _atom_site_type_symbol
 _atom_site_label
 _atom_site_symmetry_multiplicity
 _atom_site_fract_x
 _atom_site_fract_y
 _atom_site_fract_z
 _atom_site_occupancy
  Zr  Zr0  1  0.25066553  0.50456230  0.48128091  1.0
  Zr  Zr1  1  0.75066553  0.99543770  0.48128091  1.0
  Zr  Zr2  1  0.49543770  0.25066553  0.48128091  1.0
  Zr  Zr3  1  0.99543770  0.24933447  0.48128091  1.0
  Zr  Zr4  1  0.74933447  0.49543770  0.48128091  1.0
  Zr  Zr5  1  0.24933447  0.00456230  0.48128091  1.0
  Zr  Zr6  1  0.50456230  0.74933447  0.48128091  1.0
  Zr  Zr7  1  0.00456230  0.75066553  0.48128091  1.0
  Zr  Zr8  1  0.25385451  0.24614549  0.00803367  1.0
  Zr  Zr9  1  0.75385451  0.25385451  0.00803367  1.0
  Zr  Zr10  1  0.74614549  0.75385451  0.00803367  1.0
  Zr  Zr11  1  0.24614549  0.74614549  0.00803367  1.0
  Zr  Zr12  1  0.00000000  0.50000000  0.01747136  1.0
  Zr  Zr13  1  0.50000000  0.00000000  0.01747136  1.0
  Zr  Zr14  1  0.50000000  0.50000000  -0.00020363  1.0
  Zr  Zr15  1  0.00000000  0.00000000  -0.00020363  1.0
  Cu  Cu16  1  0.87434603  0.62565397  0.74303813  1.0
  Cu  Cu17  1  0.37434603  0.87434603  0.74303813  1.0
  Cu  Cu18  1  0.12565397  0.37434603  0.74303813  1.0
  Cu  Cu19  1  0.62565397  0.12565397  0.74303813  1.0
  Sb  Sb20  1  0.49702197  0.74912613  0.12793622  1.0
  Sb  Sb21  1  0.99702197  0.75087387  0.12793622  1.0
  Sb  Sb22  1  0.25087387  0.49702197  0.12793622  1.0
  Sb  Sb23  1  0.75087387  0.00297803  0.12793622  1.0
  Sb  Sb24  1  0.50297803  0.25087387  0.12793622  1.0
  Sb  Sb25  1  0.00297803  0.24912613  0.12793622  1.0
  Sb  Sb26  1  0.74912613  0.50297803  0.12793622  1.0
  Sb  Sb27  1  0.24912613  0.99702197  0.12793622  1.0
  Sb  Sb28  1  0.37505808  0.64253949  0.74355301  1.0
  Sb  Sb29  1  0.87505808  0.85746051  0.74355301  1.0
  Sb  Sb30  1  0.35746051  0.37505808  0.74355301  1.0
  Sb  Sb31  1  0.85746051  0.12494192  0.74355301  1.0
  Sb  Sb32  1  0.62494192  0.35746051  0.74355301  1.0
  Sb  Sb33  1  0.12494192  0.14253949  0.74355301  1.0
  Sb  Sb34  1  0.64253949  0.62494192  0.74355301  1.0
  Sb  Sb35  1  0.14253949  0.87505808  0.74355301  1.0
  Sb  Sb36  1  0.39207843  0.10792157  0.74345302  1.0
  Sb  Sb37  1  0.89207843  0.39207843  0.74345302  1.0
  Sb  Sb38  1  0.60792157  0.89207843  0.74345302  1.0
  Sb  Sb39  1  0.10792157  0.60792157  0.74345302  1.0
  Sb  Sb40  1  0.75300946  0.74699054  0.35938065  1.0
  Sb  Sb41  1  0.25300946  0.75300946  0.35938065  1.0
  Sb  Sb42  1  0.24699054  0.25300946  0.35938065  1.0
  Sb  Sb43  1  0.74699054  0.24699054  0.35938065  1.0
  Sb  Sb44  1  0.00000000  0.50000000  0.36833182  1.0
  Sb  Sb45  1  0.50000000  0.00000000  0.36833182  1.0
  Sb  Sb46  1  0.50000000  0.50000000  0.35410894  1.0
  Sb  Sb47  1  0.00000000  0.00000000  0.35410894  1.0
