# generated using pymatgen
data_LiYO2
_symmetry_space_group_name_H-M   'P 1'
_cell_length_a   6.25188315
_cell_length_b   6.12315313
_cell_length_c   6.35702103
_cell_angle_alpha   90.00000000
_cell_angle_beta   120.02306785
_cell_angle_gamma   90.00000000
_symmetry_Int_Tables_number   1
_chemical_formula_structural   LiYO2
_chemical_formula_sum   'Li4 Y4 O8'
_cell_volume   210.70229001
_cell_formula_units_Z   4
loop_
 _symmetry_equiv_pos_site_id
 _symmetry_equiv_pos_as_xyz
  1  'x, y, z'
loop_
 _atom_site_type_symbol
 _atom_site_label
 _atom_site_symmetry_multiplicity
 _atom_site_fract_x
 _atom_site_fract_y
 _atom_site_fract_z
 _atom_site_occupancy
  Li  Li0  1  0.79703313  0.34041788  0.07431385  1.0
  Li  Li1  1  0.79703313  0.15958212  0.57431385  1.0
  Li  Li2  1  0.20296687  0.84041788  0.42568615  1.0
  Li  Li3  1  0.20296687  0.65958212  -0.07431385  1.0
  Y  Y4  1  0.73011511  0.86804340  0.97440510  1.0
  Y  Y5  1  0.73011511  0.63195660  0.47440510  1.0
  Y  Y6  1  0.26988489  0.36804340  0.52559490  1.0
  Y  Y7  1  0.26988489  0.13195660  0.02559490  1.0
  O  O8  1  0.95024925  0.89329221  0.76355481  1.0
  O  O9  1  0.95024925  0.60670779  0.26355481  1.0
  O  O10  1  0.04975075  0.39329221  0.73644519  1.0
  O  O11  1  0.04975075  0.10670779  0.23644519  1.0
  O  O12  1  0.48508264  0.67675690  0.64544693  1.0
  O  O13  1  0.48508264  0.82324310  0.14544693  1.0
  O  O14  1  0.51491736  0.17675690  0.85455307  1.0
  O  O15  1  0.51491736  0.32324310  0.35455307  1.0
