# generated using pymatgen
data_Gd3Ga8Ag3
_symmetry_space_group_name_H-M   'P 1'
_cell_length_a   8.39971387
_cell_length_b   8.39971387
_cell_length_c   8.39971387
_cell_angle_alpha   149.83367455
_cell_angle_beta   110.65110418
_cell_angle_gamma   77.45262986
_symmetry_Int_Tables_number   1
_chemical_formula_structural   Gd3Ga8Ag3
_chemical_formula_sum   'Gd3 Ga8 Ag3'
_cell_volume   273.78866446
_cell_formula_units_Z   1
loop_
 _symmetry_equiv_pos_site_id
 _symmetry_equiv_pos_as_xyz
  1  'x, y, z'
loop_
 _atom_site_type_symbol
 _atom_site_label
 _atom_site_symmetry_multiplicity
 _atom_site_fract_x
 _atom_site_fract_y
 _atom_site_fract_z
 _atom_site_occupancy
  Gd  Gd0  1  0.50000000  0.50000000  1.00000000  1.0
  Gd  Gd1  1  0.79911078  0.79911078  1.00000000  1.0
  Gd  Gd2  1  1.20088922  1.20088922  1.00000000  1.0
  Ga  Ga3  1  0.36159146  0.64302014  0.71857132  1.0
  Ga  Ga4  1  1.63840854  1.35697986  1.28142868  1.0
  Ga  Ga5  1  0.92444882  0.64302014  1.28142868  1.0
  Ga  Ga6  1  1.07555118  1.35697986  0.71857132  1.0
  Ga  Ga7  1  1.47304189  0.84110965  0.63193224  1.0
  Ga  Ga8  1  0.52695811  0.15889035  0.36806776  1.0
  Ga  Ga9  1  1.20917741  0.84110965  0.36806776  1.0
  Ga  Ga10  1  0.79082259  0.15889035  0.63193224  1.0
  Ag  Ag11  1  0.00000000  0.50000000  0.50000000  1.0
  Ag  Ag12  1  0.80441866  -0.00000000  0.80441866  1.0
  Ag  Ag13  1  0.19558134  -0.00000000  0.19558134  1.0
