# generated using pymatgen
data_Sr3Sn5
_symmetry_space_group_name_H-M   'P 1'
_cell_length_a   6.91297648
_cell_length_b   6.91297648
_cell_length_c   10.99759945
_cell_angle_alpha   90.00000000
_cell_angle_beta   90.00000000
_cell_angle_gamma   77.59273737
_symmetry_Int_Tables_number   1
_chemical_formula_structural   Sr3Sn5
_chemical_formula_sum   'Sr6 Sn10'
_cell_volume   513.29237266
_cell_formula_units_Z   2
loop_
 _symmetry_equiv_pos_site_id
 _symmetry_equiv_pos_as_xyz
  1  'x, y, z'
loop_
 _atom_site_type_symbol
 _atom_site_label
 _atom_site_symmetry_multiplicity
 _atom_site_fract_x
 _atom_site_fract_y
 _atom_site_fract_z
 _atom_site_occupancy
  Sr  Sr0  1  0.79660038  0.79660038  0.50000000  1.0
  Sr  Sr1  1  0.79660038  0.79660038  0.00000000  1.0
  Sr  Sr2  1  0.20339962  0.20339962  0.50000000  1.0
  Sr  Sr3  1  0.20339962  0.20339962  0.00000000  1.0
  Sr  Sr4  1  -0.35519511  1.35519511  0.25000000  1.0
  Sr  Sr5  1  0.35519511  0.64480489  0.75000000  1.0
  Sn  Sn6  1  0.08998246  0.50858415  0.25000000  1.0
  Sn  Sn7  1  -0.49141585  1.08998246  0.75000000  1.0
  Sn  Sn8  1  0.49141585  0.91001754  0.25000000  1.0
  Sn  Sn9  1  -0.08998246  1.49141585  0.75000000  1.0
  Sn  Sn10  1  0.31077360  0.68922640  0.44674521  1.0
  Sn  Sn11  1  0.31077360  0.68922640  0.05325479  1.0
  Sn  Sn12  1  -0.31077360  1.31077360  0.94674521  1.0
  Sn  Sn13  1  -0.31077360  1.31077360  0.55325479  1.0
  Sn  Sn14  1  0.04160252  0.95839748  0.25000000  1.0
  Sn  Sn15  1  -0.04160252  1.04160252  0.75000000  1.0
