# generated using pymatgen
data_PbCClO2
_symmetry_space_group_name_H-M   'P 1'
_cell_length_a   4.27683362
_cell_length_b   4.27683362
_cell_length_c   9.63930856
_cell_angle_alpha   85.84413606
_cell_angle_beta   94.15586394
_cell_angle_gamma   90.59722879
_symmetry_Int_Tables_number   1
_chemical_formula_structural   PbCClO2
_chemical_formula_sum   'Pb2 C2 Cl2 O4'
_cell_volume   175.38718093
_cell_formula_units_Z   2
loop_
 _symmetry_equiv_pos_site_id
 _symmetry_equiv_pos_as_xyz
  1  'x, y, z'
loop_
 _atom_site_type_symbol
 _atom_site_label
 _atom_site_symmetry_multiplicity
 _atom_site_fract_x
 _atom_site_fract_y
 _atom_site_fract_z
 _atom_site_occupancy
  Pb  Pb0  1  0.75834093  0.24165907  0.27671916  1.0
  Pb  Pb1  1  1.24165907  -0.24165907  0.72328084  1.0
  C  C2  1  0.87050914  0.87050914  -0.00000000  1.0
  C  C3  1  0.12949086  0.12949086  0.00000000  1.0
  Cl  Cl4  1  0.77472145  0.22527855  0.61527432  1.0
  Cl  Cl5  1  1.22527855  -0.22527855  0.38472568  1.0
  O  O6  1  0.27963867  0.17422667  0.89180354  1.0
  O  O7  1  0.82577333  0.72036133  0.89180354  1.0
  O  O8  1  1.17422667  -0.72036133  0.10819646  1.0
  O  O9  1  1.72036133  -0.17422667  0.10819646  1.0
