# generated using pymatgen
data_TaSe3
_symmetry_space_group_name_H-M   'P 1'
_cell_length_a   10.31902511
_cell_length_b   3.51620402
_cell_length_c   11.04063295
_cell_angle_alpha   90.00000000
_cell_angle_beta   109.96826776
_cell_angle_gamma   90.00000000
_symmetry_Int_Tables_number   1
_chemical_formula_structural   TaSe3
_chemical_formula_sum   'Ta4 Se12'
_cell_volume   376.51301428
_cell_formula_units_Z   4
loop_
 _symmetry_equiv_pos_site_id
 _symmetry_equiv_pos_as_xyz
  1  'x, y, z'
loop_
 _atom_site_type_symbol
 _atom_site_label
 _atom_site_symmetry_multiplicity
 _atom_site_fract_x
 _atom_site_fract_y
 _atom_site_fract_z
 _atom_site_occupancy
  Ta  Ta0  1  0.45527717  0.25000000  0.66328898  1.0
  Ta  Ta1  1  0.54472283  0.75000000  0.33671102  1.0
  Ta  Ta2  1  0.12836557  0.25000000  0.18923611  1.0
  Ta  Ta3  1  0.87163443  0.75000000  0.81076389  1.0
  Se  Se4  1  0.91456281  0.25000000  0.64916611  1.0
  Se  Se5  1  0.08543719  0.75000000  0.35083389  1.0
  Se  Se6  1  0.75126709  0.25000000  0.40194915  1.0
  Se  Se7  1  0.24873291  0.75000000  0.59805085  1.0
  Se  Se8  1  0.70287344  0.25000000  0.86462594  1.0
  Se  Se9  1  0.29712656  0.75000000  0.13537406  1.0
  Se  Se10  1  0.57038044  0.25000000  0.16977946  1.0
  Se  Se11  1  0.42961956  0.75000000  0.83022054  1.0
  Se  Se12  1  0.38168839  0.25000000  0.39740278  1.0
  Se  Se13  1  0.61831161  0.75000000  0.60259722  1.0
  Se  Se14  1  0.07062832  0.25000000  0.92178497  1.0
  Se  Se15  1  0.92937168  0.75000000  0.07821503  1.0
