# generated using pymatgen
data_HgNO3
_symmetry_space_group_name_H-M   'P 1'
_cell_length_a   6.33258155
_cell_length_b   8.64464827
_cell_length_c   12.59791546
_cell_angle_alpha   90.00000000
_cell_angle_beta   93.39848088
_cell_angle_gamma   90.00000000
_symmetry_Int_Tables_number   1
_chemical_formula_structural   HgNO3
_chemical_formula_sum   'Hg8 N8 O24'
_cell_volume   688.43411919
_cell_formula_units_Z   8
loop_
 _symmetry_equiv_pos_site_id
 _symmetry_equiv_pos_as_xyz
  1  'x, y, z'
loop_
 _atom_site_type_symbol
 _atom_site_label
 _atom_site_symmetry_multiplicity
 _atom_site_fract_x
 _atom_site_fract_y
 _atom_site_fract_z
 _atom_site_occupancy
  Hg  Hg0  1  0.82148951  0.16327735  0.64250722  1.0
  Hg  Hg1  1  0.17851049  0.66327735  0.35749278  1.0
  Hg  Hg2  1  0.81145994  0.54298433  0.32246185  1.0
  Hg  Hg3  1  0.18854006  0.04298433  0.67753815  1.0
  Hg  Hg4  1  0.65876766  0.52785443  0.91771075  1.0
  Hg  Hg5  1  0.34123234  0.02785443  0.08228925  1.0
  Hg  Hg6  1  0.28857556  0.50783572  0.82611203  1.0
  Hg  Hg7  1  0.71142444  0.00783572  0.17388797  1.0
  N  N8  1  0.99665298  0.66441800  0.06103424  1.0
  N  N9  1  0.00334702  0.16441800  0.93896576  1.0
  N  N10  1  0.95378751  0.63018782  0.68312965  1.0
  N  N11  1  0.04621249  0.13018782  0.31687035  1.0
  N  N12  1  0.53218674  0.89908977  0.81773598  1.0
  N  N13  1  0.46781326  0.39908977  0.18226402  1.0
  N  N14  1  0.49084415  0.88081551  0.44871678  1.0
  N  N15  1  0.50915585  0.38081551  0.55128322  1.0
  O  O16  1  0.98705295  0.56408097  0.98187213  1.0
  O  O17  1  0.01294705  0.06408097  0.01812787  1.0
  O  O18  1  0.97220322  0.50308208  0.74460387  1.0
  O  O19  1  0.02779678  0.00308208  0.25539613  1.0
  O  O20  1  0.88730249  0.21504390  0.31936769  1.0
  O  O21  1  0.11269751  0.71504390  0.68063231  1.0
  O  O22  1  0.82666838  0.70935884  0.09596100  1.0
  O  O23  1  0.17333162  0.20935884  0.90403900  1.0
  O  O24  1  0.82622927  0.20597060  0.90387019  1.0
  O  O25  1  0.17377073  0.70597060  0.09612981  1.0
  O  O26  1  0.78373289  0.65238012  0.63472084  1.0
  O  O27  1  0.21626711  0.15238012  0.36527916  1.0
  O  O28  1  0.70932856  0.85129294  0.84791079  1.0
  O  O29  1  0.29067144  0.35129294  0.15208921  1.0
  O  O30  1  0.64693333  0.96390488  0.46321657  1.0
  O  O31  1  0.35306667  0.46390488  0.53678343  1.0
  O  O32  1  0.51499327  0.97188960  0.72529704  1.0
  O  O33  1  0.48500673  0.47188960  0.27470296  1.0
  O  O34  1  0.48721588  0.78415544  0.36620324  1.0
  O  O35  1  0.51278412  0.28415544  0.63379676  1.0
  O  O36  1  0.36950189  0.88131716  0.86757243  1.0
  O  O37  1  0.63049811  0.38131716  0.13242757  1.0
  O  O38  1  0.33399470  0.87916055  0.50411110  1.0
  O  O39  1  0.66600530  0.37916055  0.49588890  1.0
