# generated using pymatgen
data_CO2
_symmetry_space_group_name_H-M   'P 1'
_cell_length_a   4.10172901
_cell_length_b   4.10172901
_cell_length_c   4.10172901
_cell_angle_alpha   122.14526928
_cell_angle_beta   122.14526928
_cell_angle_gamma   86.32278574
_symmetry_Int_Tables_number   1
_chemical_formula_structural   CO2
_chemical_formula_sum   'C2 O4'
_cell_volume   47.10829081
_cell_formula_units_Z   2
loop_
 _symmetry_equiv_pos_site_id
 _symmetry_equiv_pos_as_xyz
  1  'x, y, z'
loop_
 _atom_site_type_symbol
 _atom_site_label
 _atom_site_symmetry_multiplicity
 _atom_site_fract_x
 _atom_site_fract_y
 _atom_site_fract_z
 _atom_site_occupancy
  C  C0  1  0.75000000  0.25000000  0.50000000  1.0
  C  C1  1  1.00000000  1.00000000  1.00000000  1.0
  O  O2  1  1.03926424  1.12500000  1.41426424  1.0
  O  O3  1  1.37500000  0.96073576  1.08573576  1.0
  O  O4  1  0.87500000  1.28926424  0.91426424  1.0
  O  O5  1  0.71073576  0.62500000  0.58573576  1.0
