# generated using pymatgen
data_SrMo2(PO4)3
_symmetry_space_group_name_H-M   'P 1'
_cell_length_a   9.21065849
_cell_length_b   9.21065849
_cell_length_c   9.21065849
_cell_angle_alpha   56.94751508
_cell_angle_beta   56.94751508
_cell_angle_gamma   56.94751508
_symmetry_Int_Tables_number   1
_chemical_formula_structural   SrMo2(PO4)3
_chemical_formula_sum   'Sr2 Mo4 P6 O24'
_cell_volume   513.63243506
_cell_formula_units_Z   2
loop_
 _symmetry_equiv_pos_site_id
 _symmetry_equiv_pos_as_xyz
  1  'x, y, z'
loop_
 _atom_site_type_symbol
 _atom_site_label
 _atom_site_symmetry_multiplicity
 _atom_site_fract_x
 _atom_site_fract_y
 _atom_site_fract_z
 _atom_site_occupancy
  Sr  Sr0  1  1.00000000  -0.00000000  0.00000000  1.0
  Sr  Sr1  1  0.50000000  0.50000000  0.50000000  1.0
  Mo  Mo2  1  0.85304582  -0.14695418  -0.14695418  1.0
  Mo  Mo3  1  0.35304582  0.35304582  0.35304582  1.0
  Mo  Mo4  1  0.64695418  0.64695418  -0.35304582  1.0
  Mo  Mo5  1  1.14695418  0.14695418  0.14695418  1.0
  P  P6  1  0.46199654  0.75000000  0.03800346  1.0
  P  P7  1  0.96199654  -0.46199654  0.25000000  1.0
  P  P8  1  0.25000000  0.96199654  -0.46199654  1.0
  P  P9  1  0.75000000  1.03800346  -0.53800346  1.0
  P  P10  1  0.53800346  0.25000000  -0.03800346  1.0
  P  P11  1  1.03800346  0.46199654  -0.25000000  1.0
  O  O12  1  0.77893979  1.01314683  -0.37480916  1.0
  O  O13  1  1.27893979  0.12519084  -0.48685318  1.0
  O  O14  1  0.87480916  0.48685317  -0.27893979  1.0
  O  O15  1  0.37480916  0.22106021  -0.01314683  1.0
  O  O16  1  0.98685318  0.37480916  -0.77893979  1.0
  O  O17  1  0.48685318  0.72106021  -0.12519084  1.0
  O  O18  1  0.22106021  0.98685318  -0.62519084  1.0
  O  O19  1  0.72106021  0.87480916  -0.51314683  1.0
  O  O20  1  0.62519084  0.77893979  0.01314682  1.0
  O  O21  1  1.12519084  -0.48685317  0.27893979  1.0
  O  O22  1  0.51314683  0.27893979  0.12519084  1.0
  O  O23  1  1.01314683  0.62519084  -0.22106021  1.0
  O  O24  1  0.72053252  0.07958539  -0.06379910  1.0
  O  O25  1  1.22053252  0.43620090  -0.42041461  1.0
  O  O26  1  0.56379910  0.42041461  -0.22053252  1.0
  O  O27  1  1.06379910  0.27946748  -0.07958539  1.0
  O  O28  1  0.92041461  0.06379910  0.27946748  1.0
  O  O29  1  0.42041461  0.77946748  -0.43620090  1.0
  O  O30  1  1.27946748  -0.07958539  0.06379910  1.0
  O  O31  1  0.77946748  0.56379910  -0.57958539  1.0
  O  O32  1  0.93620090  -0.27946748  0.07958539  1.0
  O  O33  1  0.43620090  0.57958539  0.22053252  1.0
  O  O34  1  0.57958539  1.22053252  -0.56379910  1.0
  O  O35  1  1.07958539  -0.06379910  -0.27946748  1.0
