# generated using pymatgen
data_Rb2Na4Co2O5
_symmetry_space_group_name_H-M   'P 1'
_cell_length_a   6.54573808
_cell_length_b   6.54573808
_cell_length_c   10.22557224
_cell_angle_alpha   90.00000000
_cell_angle_beta   90.00000000
_cell_angle_gamma   90.00000000
_symmetry_Int_Tables_number   1
_chemical_formula_structural   Rb2Na4Co2O5
_chemical_formula_sum   'Rb4 Na8 Co4 O10'
_cell_volume   438.13189393
_cell_formula_units_Z   2
loop_
 _symmetry_equiv_pos_site_id
 _symmetry_equiv_pos_as_xyz
  1  'x, y, z'
loop_
 _atom_site_type_symbol
 _atom_site_label
 _atom_site_symmetry_multiplicity
 _atom_site_fract_x
 _atom_site_fract_y
 _atom_site_fract_z
 _atom_site_occupancy
  Rb  Rb0  1  0.19975837  0.19975837  0.50000000  1.0
  Rb  Rb1  1  0.69975837  0.30024163  0.00000000  1.0
  Rb  Rb2  1  0.80024163  0.80024163  0.50000000  1.0
  Rb  Rb3  1  0.30024163  0.69975837  0.00000000  1.0
  Na  Na4  1  0.50000000  0.50000000  0.27730635  1.0
  Na  Na5  1  0.50000000  0.50000000  0.72269365  1.0
  Na  Na6  1  0.00000000  0.00000000  0.77730635  1.0
  Na  Na7  1  0.00000000  0.00000000  0.22269365  1.0
  Na  Na8  1  0.50000000  0.00000000  0.25000000  1.0
  Na  Na9  1  0.50000000  0.00000000  0.75000000  1.0
  Na  Na10  1  0.00000000  0.50000000  0.75000000  1.0
  Na  Na11  1  0.00000000  0.50000000  0.25000000  1.0
  Co  Co12  1  0.28808744  0.71191256  0.50000000  1.0
  Co  Co13  1  0.78808744  0.78808744  0.00000000  1.0
  Co  Co14  1  0.71191256  0.28808744  0.50000000  1.0
  Co  Co15  1  0.21191256  0.21191256  0.00000000  1.0
  O  O16  1  0.22263376  0.77736624  0.33411246  1.0
  O  O17  1  0.22263376  0.77736624  0.66588754  1.0
  O  O18  1  0.72263376  0.72263376  0.83411246  1.0
  O  O19  1  0.72263376  0.72263376  0.16588754  1.0
  O  O20  1  0.77736624  0.22263376  0.33411246  1.0
  O  O21  1  0.77736624  0.22263376  0.66588754  1.0
  O  O22  1  0.27736624  0.27736624  0.83411246  1.0
  O  O23  1  0.27736624  0.27736624  0.16588754  1.0
  O  O24  1  0.50000000  0.50000000  0.50000000  1.0
  O  O25  1  0.00000000  0.00000000  0.00000000  1.0
