# generated using pymatgen
data_MoPO7
_symmetry_space_group_name_H-M   'P 1'
_cell_length_a   5.80821265
_cell_length_b   6.37652078
_cell_length_c   8.25309212
_cell_angle_alpha   90.00000000
_cell_angle_beta   106.86220968
_cell_angle_gamma   90.00000000
_symmetry_Int_Tables_number   1
_chemical_formula_structural   MoPO7
_chemical_formula_sum   'Mo2 P2 O14'
_cell_volume   292.52112735
_cell_formula_units_Z   2
loop_
 _symmetry_equiv_pos_site_id
 _symmetry_equiv_pos_as_xyz
  1  'x, y, z'
loop_
 _atom_site_type_symbol
 _atom_site_label
 _atom_site_symmetry_multiplicity
 _atom_site_fract_x
 _atom_site_fract_y
 _atom_site_fract_z
 _atom_site_occupancy
  Mo  Mo0  1  0.71604958  0.25000000  0.78118911  1.0
  Mo  Mo1  1  0.28395042  0.75000000  0.21881089  1.0
  O  O2  1  0.66510321  0.94331048  0.74916493  1.0
  O  O3  1  0.66510321  0.55668952  0.74916493  1.0
  O  O4  1  0.33489679  0.44331048  0.25083507  1.0
  O  O5  1  0.33489679  0.05668952  0.25083507  1.0
  O  O6  1  1.02731382  0.25000000  0.83464267  1.0
  O  O7  1  -0.02731382  0.75000000  0.16535733  1.0
  O  O8  1  0.26058140  0.25000000  0.67695137  1.0
  O  O9  1  0.73941860  0.75000000  0.32304863  1.0
  O  O10  1  0.10752775  0.25000000  0.42752762  1.0
  O  O11  1  0.89247225  0.75000000  0.57247238  1.0
  O  O12  1  0.65735727  0.25000000  -0.02990570  1.0
  O  O13  1  0.34264273  0.75000000  1.02990570  1.0
  O  O14  1  0.57265397  0.25000000  0.51583609  1.0
  O  O15  1  0.42734603  0.75000000  0.48416391  1.0
  P  P16  1  0.33956583  0.25000000  0.36642996  1.0
  P  P17  1  0.66043417  0.75000000  0.63357004  1.0
