# generated using pymatgen
data_GeSe2
_symmetry_space_group_name_H-M   'P 1'
_cell_length_a   12.87234601
_cell_length_b   7.26959481
_cell_length_c   13.42976802
_cell_angle_alpha   69.77305523
_cell_angle_beta   31.99988794
_cell_angle_gamma   78.22705683
_symmetry_Int_Tables_number   1
_chemical_formula_structural   GeSe2
_chemical_formula_sum   'Ge6 Se12'
_cell_volume   614.75555985
_cell_formula_units_Z   6
loop_
 _symmetry_equiv_pos_site_id
 _symmetry_equiv_pos_as_xyz
  1  'x, y, z'
loop_
 _atom_site_type_symbol
 _atom_site_label
 _atom_site_symmetry_multiplicity
 _atom_site_fract_x
 _atom_site_fract_y
 _atom_site_fract_z
 _atom_site_occupancy
  Ge  Ge0  1  -0.00217276  0.00196409  0.72645858  1.0
  Ge  Ge1  1  0.52354142  -0.02375010  0.25217276  1.0
  Ge  Ge2  1  0.00196409  -0.00217276  0.27375010  1.0
  Ge  Ge3  1  -0.02375010  0.52354142  0.24803591  1.0
  Ge  Ge4  1  0.98157137  -0.01842863  0.01842863  1.0
  Ge  Ge5  1  0.23157137  0.23157137  0.26842863  1.0
  Se  Se6  1  0.12906237  0.19431545  0.72570289  1.0
  Se  Se7  1  0.52429711  0.29908071  0.12093763  1.0
  Se  Se8  1  0.19431545  0.12906237  -0.04908071  1.0
  Se  Se9  1  0.29908071  0.52429711  0.05568455  1.0
  Se  Se10  1  -0.06142444  0.23293353  0.60544315  1.0
  Se  Se11  1  0.64455685  0.02695223  0.31142444  1.0
  Se  Se12  1  0.23293353  -0.06142444  0.22304777  1.0
  Se  Se13  1  0.02695223  0.64455685  0.01706647  1.0
  Se  Se14  1  0.69537795  0.77277245  0.04881470  1.0
  Se  Se15  1  1.20118530  0.76696511  -0.44537795  1.0
  Se  Se16  1  0.77277245  0.69537795  -0.51696511  1.0
  Se  Se17  1  0.76696511  1.20118530  -0.52277245  1.0
