# generated using pymatgen
data_NiAgO2
_symmetry_space_group_name_H-M   'P 1'
_cell_length_a   5.11673317
_cell_length_b   5.11673317
_cell_length_c   12.37388377
_cell_angle_alpha   90.00000000
_cell_angle_beta   90.00000000
_cell_angle_gamma   120.00000000
_symmetry_Int_Tables_number   1
_chemical_formula_structural   NiAgO2
_chemical_formula_sum   'Ni6 Ag6 O12'
_cell_volume   280.55770701
_cell_formula_units_Z   6
loop_
 _symmetry_equiv_pos_site_id
 _symmetry_equiv_pos_as_xyz
  1  'x, y, z'
loop_
 _atom_site_type_symbol
 _atom_site_label
 _atom_site_symmetry_multiplicity
 _atom_site_fract_x
 _atom_site_fract_y
 _atom_site_fract_z
 _atom_site_occupancy
  O  O0  1  0.32312775  0.98953690  0.17144706  1.0
  O  O1  1  0.32312775  0.33359085  0.32855294  1.0
  O  O2  1  0.98953690  0.32312775  0.82855294  1.0
  O  O3  1  0.98953690  0.66640915  0.67144706  1.0
  O  O4  1  0.66640915  0.98953690  0.32855294  1.0
  O  O5  1  0.66640915  0.67687225  0.17144706  1.0
  O  O6  1  0.01046310  0.67687225  0.32855294  1.0
  O  O7  1  0.01046310  0.33359085  0.17144706  1.0
  O  O8  1  0.67687225  0.66640915  0.82855294  1.0
  O  O9  1  0.67687225  0.01046310  0.67144706  1.0
  O  O10  1  0.33359085  0.32312775  0.67144706  1.0
  O  O11  1  0.33359085  0.01046310  0.82855294  1.0
  Ni  Ni12  1  0.33333333  0.66666667  0.25000000  1.0
  Ni  Ni13  1  0.66666667  0.33333333  0.75000000  1.0
  Ni  Ni14  1  0.00000000  0.00000000  0.25000000  1.0
  Ni  Ni15  1  0.00000000  0.00000000  0.75000000  1.0
  Ni  Ni16  1  0.33333333  0.66666667  0.75000000  1.0
  Ni  Ni17  1  0.66666667  0.33333333  0.25000000  1.0
  Ag  Ag18  1  0.66726382  0.66726382  0.00000000  1.0
  Ag  Ag19  1  0.66726382  0.00000000  0.50000000  1.0
  Ag  Ag20  1  -0.00000000  0.66726382  0.50000000  1.0
  Ag  Ag21  1  0.00000000  0.33273618  0.00000000  1.0
  Ag  Ag22  1  0.33273618  0.33273618  0.50000000  1.0
  Ag  Ag23  1  0.33273618  0.00000000  0.00000000  1.0
