# generated using pymatgen
data_Mo3NO9
_symmetry_space_group_name_H-M   'P 1'
_cell_length_a   9.42148369
_cell_length_b   9.42148369
_cell_length_c   6.62911832
_cell_angle_alpha   84.76752728
_cell_angle_beta   95.23247272
_cell_angle_gamma   133.76258495
_symmetry_Int_Tables_number   1
_chemical_formula_structural   Mo3NO9
_chemical_formula_sum   'Mo6 N2 O18'
_cell_volume   422.87633730
_cell_formula_units_Z   2
loop_
 _symmetry_equiv_pos_site_id
 _symmetry_equiv_pos_as_xyz
  1  'x, y, z'
loop_
 _atom_site_type_symbol
 _atom_site_label
 _atom_site_symmetry_multiplicity
 _atom_site_fract_x
 _atom_site_fract_y
 _atom_site_fract_z
 _atom_site_occupancy
  Mo  Mo0  1  0.31353142  0.19997139  0.76045071  1.0
  Mo  Mo1  1  0.80002861  0.68646858  0.76045071  1.0
  Mo  Mo2  1  1.19997139  0.31353142  0.23954929  1.0
  Mo  Mo3  1  0.68646858  -0.19997139  0.23954929  1.0
  Mo  Mo4  1  0.86454345  0.13545655  0.84947496  1.0
  Mo  Mo5  1  0.13545655  -0.13545655  0.15052504  1.0
  N  N6  1  0.68756805  0.31243195  0.32878941  1.0
  N  N7  1  0.31243195  -0.31243195  0.67121059  1.0
  O  O8  1  0.71474467  -0.13016380  0.94186009  1.0
  O  O9  1  1.13016380  0.28525533  0.94186009  1.0
  O  O10  1  0.86983620  0.71474467  0.05813991  1.0
  O  O11  1  0.28525533  0.13016380  0.05813991  1.0
  O  O12  1  0.42435299  0.12790903  0.70490790  1.0
  O  O13  1  0.87209097  0.57564701  0.70490790  1.0
  O  O14  1  1.12790903  0.42435299  0.29509210  1.0
  O  O15  1  0.57564701  -0.12790903  0.29509210  1.0
  O  O16  1  0.96223991  0.03776009  0.26109437  1.0
  O  O17  1  0.03776009  -0.03776009  0.73890563  1.0
  O  O18  1  0.84538252  0.15461748  0.59292936  1.0
  O  O19  1  0.15461748  -0.15461748  0.40707064  1.0
  O  O20  1  0.77878009  0.22121991  0.95280241  1.0
  O  O21  1  0.22121991  -0.22121991  0.04719759  1.0
  O  O22  1  0.53166464  0.46833536  0.81983515  1.0
  O  O23  1  0.46833536  -0.46833536  0.18016485  1.0
  O  O24  1  0.71987717  0.71987717  0.50000000  1.0
  O  O25  1  0.28012283  0.28012283  0.50000000  1.0
