# generated using pymatgen
data_CaGaAu3
_symmetry_space_group_name_H-M   'P 1'
_cell_length_a   9.25601024
_cell_length_b   9.25601024
_cell_length_c   9.25601024
_cell_angle_alpha   90.00000000
_cell_angle_beta   90.00000000
_cell_angle_gamma   90.00000000
_symmetry_Int_Tables_number   1
_chemical_formula_structural   CaGaAu3
_chemical_formula_sum   'Ca8 Ga8 Au24'
_cell_volume   792.99688110
_cell_formula_units_Z   8
loop_
 _symmetry_equiv_pos_site_id
 _symmetry_equiv_pos_as_xyz
  1  'x, y, z'
loop_
 _atom_site_type_symbol
 _atom_site_label
 _atom_site_symmetry_multiplicity
 _atom_site_fract_x
 _atom_site_fract_y
 _atom_site_fract_z
 _atom_site_occupancy
  Ca  Ca0  1  0.39099523  0.89099523  0.60900477  1.0
  Ca  Ca1  1  0.39099523  0.60900477  0.10900477  1.0
  Ca  Ca2  1  0.89099523  0.89099523  0.89099523  1.0
  Ca  Ca3  1  0.89099523  0.60900477  0.39099523  1.0
  Ca  Ca4  1  0.60900477  0.39099523  0.89099523  1.0
  Ca  Ca5  1  0.60900477  0.10900477  0.39099523  1.0
  Ca  Ca6  1  0.10900477  0.39099523  0.60900477  1.0
  Ca  Ca7  1  0.10900477  0.10900477  0.10900477  1.0
  Ga  Ga8  1  0.11015738  0.61015738  0.88984262  1.0
  Ga  Ga9  1  0.11015738  0.88984262  0.38984262  1.0
  Ga  Ga10  1  0.61015738  0.61015738  0.61015738  1.0
  Ga  Ga11  1  0.61015738  0.88984262  0.11015738  1.0
  Ga  Ga12  1  0.88984262  0.11015738  0.61015738  1.0
  Ga  Ga13  1  0.88984262  0.38984262  0.11015738  1.0
  Ga  Ga14  1  0.38984262  0.11015738  0.88984262  1.0
  Ga  Ga15  1  0.38984262  0.38984262  0.38984262  1.0
  Au  Au16  1  0.36242177  0.57417392  0.73763768  1.0
  Au  Au17  1  0.36242177  0.92582608  0.23763768  1.0
  Au  Au18  1  0.86242177  0.57417392  0.76236232  1.0
  Au  Au19  1  0.86242177  0.92582608  0.26236232  1.0
  Au  Au20  1  0.07417392  0.76236232  0.63757823  1.0
  Au  Au21  1  0.07417392  0.73763768  0.13757823  1.0
  Au  Au22  1  0.57417392  0.76236232  0.86242177  1.0
  Au  Au23  1  0.57417392  0.73763768  0.36242177  1.0
  Au  Au24  1  0.26236232  0.86242177  0.92582608  1.0
  Au  Au25  1  0.26236232  0.63757823  0.42582608  1.0
  Au  Au26  1  0.76236232  0.86242177  0.57417392  1.0
  Au  Au27  1  0.76236232  0.63757823  0.07417392  1.0
  Au  Au28  1  0.63757823  0.07417392  0.76236232  1.0
  Au  Au29  1  0.63757823  0.42582608  0.26236232  1.0
  Au  Au30  1  0.13757823  0.07417392  0.73763768  1.0
  Au  Au31  1  0.13757823  0.42582608  0.23763768  1.0
  Au  Au32  1  0.92582608  0.26236232  0.86242177  1.0
  Au  Au33  1  0.92582608  0.23763768  0.36242177  1.0
  Au  Au34  1  0.42582608  0.26236232  0.63757823  1.0
  Au  Au35  1  0.42582608  0.23763768  0.13757823  1.0
  Au  Au36  1  0.73763768  0.36242177  0.57417392  1.0
  Au  Au37  1  0.73763768  0.13757823  0.07417392  1.0
  Au  Au38  1  0.23763768  0.36242177  0.92582608  1.0
  Au  Au39  1  0.23763768  0.13757823  0.42582608  1.0
