# generated using pymatgen
data_CuHgSBr
_symmetry_space_group_name_H-M   'P 1'
_cell_length_a   10.13561801
_cell_length_b   4.10421999
_cell_length_c   9.58848733
_cell_angle_alpha   90.00000000
_cell_angle_beta   90.00000000
_cell_angle_gamma   90.00000000
_symmetry_Int_Tables_number   1
_chemical_formula_structural   CuHgSBr
_chemical_formula_sum   'Cu4 Hg4 S4 Br4'
_cell_volume   398.86962452
_cell_formula_units_Z   4
loop_
 _symmetry_equiv_pos_site_id
 _symmetry_equiv_pos_as_xyz
  1  'x, y, z'
loop_
 _atom_site_type_symbol
 _atom_site_label
 _atom_site_symmetry_multiplicity
 _atom_site_fract_x
 _atom_site_fract_y
 _atom_site_fract_z
 _atom_site_occupancy
  Cu  Cu0  1  0.42161915  0.50000000  0.28793039  1.0
  Cu  Cu1  1  0.92161915  0.50000000  0.71206961  1.0
  Cu  Cu2  1  0.57838085  0.50000000  0.71206961  1.0
  Cu  Cu3  1  0.07838085  0.50000000  0.28793039  1.0
  Hg  Hg4  1  0.25000000  0.00000000  0.71886430  1.0
  Hg  Hg5  1  0.75000000  0.00000000  0.28113570  1.0
  Hg  Hg6  1  0.50000000  0.00000000  0.00000000  1.0
  Hg  Hg7  1  0.00000000  0.00000000  0.00000000  1.0
  S  S8  1  0.98889256  0.00000000  0.25280799  1.0
  S  S9  1  0.48889256  0.00000000  0.74719201  1.0
  S  S10  1  0.01110744  0.00000000  0.74719201  1.0
  S  S11  1  0.51110744  0.00000000  0.25280799  1.0
  Br  Br12  1  0.25000000  0.50000000  0.06273008  1.0
  Br  Br13  1  0.75000000  0.50000000  0.93726992  1.0
  Br  Br14  1  0.25000000  0.50000000  0.47154189  1.0
  Br  Br15  1  0.75000000  0.50000000  0.52845811  1.0
