# generated using pymatgen
data_Sc2Te5O13
_symmetry_space_group_name_H-M   'P 1'
_cell_length_a   10.60098004
_cell_length_b   8.68200585
_cell_length_c   6.66989356
_cell_angle_alpha   74.83879155
_cell_angle_beta   87.09723835
_cell_angle_gamma   87.38066266
_symmetry_Int_Tables_number   1
_chemical_formula_structural   Sc2Te5O13
_chemical_formula_sum   'Sc4 Te10 O26'
_cell_volume   591.41946682
_cell_formula_units_Z   2
loop_
 _symmetry_equiv_pos_site_id
 _symmetry_equiv_pos_as_xyz
  1  'x, y, z'
loop_
 _atom_site_type_symbol
 _atom_site_label
 _atom_site_symmetry_multiplicity
 _atom_site_fract_x
 _atom_site_fract_y
 _atom_site_fract_z
 _atom_site_occupancy
  Sc  Sc0  1  -0.74805300  -0.75914424  -0.01948759  1.0
  Sc  Sc1  1  -0.25194700  -0.24085576  -0.98051241  1.0
  Sc  Sc2  1  -0.69391164  -0.55049451  -0.55926950  1.0
  Sc  Sc3  1  -0.30608836  -0.44950549  -0.44073050  1.0
  Te  Te4  1  -0.40850765  -0.63756119  -0.84451140  1.0
  Te  Te5  1  -0.59149235  -0.36243881  -0.15548860  1.0
  Te  Te6  1  -0.85929390  -0.20970818  -0.83371410  1.0
  Te  Te7  1  -0.14070610  -0.79029182  -0.16628590  1.0
  Te  Te8  1  -0.80369491  -0.91307409  -0.47891633  1.0
  Te  Te9  1  -0.19630509  -0.08692591  -0.52108367  1.0
  Te  Te10  1  -0.47594041  -0.88389692  -0.29390214  1.0
  Te  Te11  1  -0.52405959  -0.11610308  -0.70609786  1.0
  Te  Te12  1  -0.97305627  -0.40126869  -0.25658840  1.0
  Te  Te13  1  -0.02694373  -0.59873131  -0.74341160  1.0
  O  O14  1  -0.93363214  -0.64045990  -0.99141892  1.0
  O  O15  1  -0.06636786  -0.35954010  -0.00858108  1.0
  O  O16  1  -0.44380909  -0.17114406  -0.95183547  1.0
  O  O17  1  -0.55619091  -0.82885594  -0.04816453  1.0
  O  O18  1  -0.80536629  -0.98560399  -0.90053107  1.0
  O  O19  1  -0.19463371  -0.01439601  -0.09946893  1.0
  O  O20  1  -0.21117259  -0.72858666  -0.91660729  1.0
  O  O21  1  -0.78882741  -0.27141334  -0.08339271  1.0
  O  O22  1  -0.58574349  -0.50179553  -0.85626133  1.0
  O  O23  1  -0.41425651  -0.49820447  -0.14373867  1.0
  O  O24  1  -0.31454825  -0.47830152  -0.75753775  1.0
  O  O25  1  -0.68545175  -0.52169848  -0.24246225  1.0
  O  O26  1  -0.71606843  -0.28737674  -0.65329608  1.0
  O  O27  1  -0.28393157  -0.71262326  -0.34670392  1.0
  O  O28  1  -0.72542536  -0.75425863  -0.71026865  1.0
  O  O29  1  -0.27457464  -0.24574137  -0.28973135  1.0
  O  O30  1  -0.88501566  -0.48810434  -0.66098501  1.0
  O  O31  1  -0.11498434  -0.51189566  -0.33901499  1.0
  O  O32  1  -0.98639185  -0.81805242  -0.56059723  1.0
  O  O33  1  -0.01360815  -0.18194758  -0.43940277  1.0
  O  O34  1  -0.51635600  -0.67911594  -0.49810315  1.0
  O  O35  1  -0.48364400  -0.32088406  -0.50189685  1.0
  O  O36  1  -0.61908267  -1.00222046  -0.36996412  1.0
  O  O37  1  -0.38091733  0.00222046  -0.63003588  1.0
  O  O38  1  -0.79136106  -0.75110733  -0.32362499  1.0
  O  O39  1  -0.20863894  -0.24889267  -0.67637501  1.0
