# generated using pymatgen
data_YGaPd
_symmetry_space_group_name_H-M   'P 1'
_cell_length_a   6.97912525
_cell_length_b   4.47976814
_cell_length_c   7.64082988
_cell_angle_alpha   90.00000000
_cell_angle_beta   90.00000000
_cell_angle_gamma   90.00000000
_symmetry_Int_Tables_number   1
_chemical_formula_structural   YGaPd
_chemical_formula_sum   'Y4 Ga4 Pd4'
_cell_volume   238.88949902
_cell_formula_units_Z   4
loop_
 _symmetry_equiv_pos_site_id
 _symmetry_equiv_pos_as_xyz
  1  'x, y, z'
loop_
 _atom_site_type_symbol
 _atom_site_label
 _atom_site_symmetry_multiplicity
 _atom_site_fract_x
 _atom_site_fract_y
 _atom_site_fract_z
 _atom_site_occupancy
  Y  Y0  1  1.01505628  0.75000000  0.70052421  1.0
  Y  Y1  1  0.51505628  0.75000000  0.79947579  1.0
  Y  Y2  1  -0.01505628  0.25000000  0.29947579  1.0
  Y  Y3  1  0.48494372  0.25000000  0.20052421  1.0
  Ga  Ga4  1  0.68041154  0.75000000  0.42185978  1.0
  Ga  Ga5  1  0.18041154  0.75000000  0.07814022  1.0
  Ga  Ga6  1  0.31958846  0.25000000  0.57814022  1.0
  Ga  Ga7  1  0.81958846  0.25000000  0.92185978  1.0
  Pd  Pd8  1  0.78437984  0.75000000  0.09351180  1.0
  Pd  Pd9  1  0.28437984  0.75000000  0.40648820  1.0
  Pd  Pd10  1  0.21562016  0.25000000  0.90648820  1.0
  Pd  Pd11  1  0.71562016  0.25000000  0.59351180  1.0
