# generated using pymatgen
data_Na2MgSi5O12
_symmetry_space_group_name_H-M   'P 1'
_cell_length_a   5.33848092
_cell_length_b   8.74923354
_cell_length_c   9.35713764
_cell_angle_alpha   90.00000000
_cell_angle_beta   104.50171244
_cell_angle_gamma   90.00000000
_symmetry_Int_Tables_number   1
_chemical_formula_structural   Na2MgSi5O12
_chemical_formula_sum   'Na4 Mg2 Si10 O24'
_cell_volume   423.12526317
_cell_formula_units_Z   2
loop_
 _symmetry_equiv_pos_site_id
 _symmetry_equiv_pos_as_xyz
  1  'x, y, z'
loop_
 _atom_site_type_symbol
 _atom_site_label
 _atom_site_symmetry_multiplicity
 _atom_site_fract_x
 _atom_site_fract_y
 _atom_site_fract_z
 _atom_site_occupancy
  Na  Na0  1  0.50000000  0.55136760  0.75000000  1.0
  Na  Na1  1  0.50000000  0.44863240  0.25000000  1.0
  Na  Na2  1  -0.00000000  0.95685371  0.75000000  1.0
  Na  Na3  1  -0.00000000  0.04314629  0.25000000  1.0
  Mg  Mg4  1  0.50000000  0.15276478  0.75000000  1.0
  Mg  Mg5  1  0.50000000  0.84723522  0.25000000  1.0
  Si  Si6  1  -0.00000000  0.34788240  0.75000000  1.0
  Si  Si7  1  -0.00000000  0.65211760  0.25000000  1.0
  Si  Si8  1  0.82023158  0.65105723  0.54398879  1.0
  Si  Si9  1  0.82023158  0.34894277  0.04398879  1.0
  Si  Si10  1  0.17976842  0.65105723  0.95601121  1.0
  Si  Si11  1  0.17976842  0.34894277  0.45601121  1.0
  Si  Si12  1  0.69713922  0.83391510  0.96379926  1.0
  Si  Si13  1  0.69713922  0.16608490  0.46379926  1.0
  Si  Si14  1  0.30286078  0.83391510  0.53620074  1.0
  Si  Si15  1  0.30286078  0.16608490  0.03620074  1.0
  O  O16  1  0.89899172  0.73375215  0.88836288  1.0
  O  O17  1  0.89899172  0.26624785  0.38836288  1.0
  O  O18  1  0.10100828  0.73375215  0.61163712  1.0
  O  O19  1  0.10100828  0.26624785  0.11163712  1.0
  O  O20  1  0.81867461  0.48553339  0.62416680  1.0
  O  O21  1  0.81867461  0.51446661  0.12416680  1.0
  O  O22  1  0.18132539  0.48553339  0.87583320  1.0
  O  O23  1  0.18132539  0.51446661  0.37583320  1.0
  O  O24  1  0.79896338  0.80634218  0.14460258  1.0
  O  O25  1  0.79896338  0.19365782  0.64460258  1.0
  O  O26  1  0.20103662  0.80634218  0.35539742  1.0
  O  O27  1  0.20103662  0.19365782  0.85539742  1.0
  O  O28  1  0.76126541  0.34370423  0.86162557  1.0
  O  O29  1  0.76126541  0.65629577  0.36162557  1.0
  O  O30  1  0.23873459  0.34370423  0.63837443  1.0
  O  O31  1  0.23873459  0.65629577  0.13837443  1.0
  O  O32  1  0.68954984  0.99665960  0.40149188  1.0
  O  O33  1  0.68954984  0.00334040  0.90149188  1.0
  O  O34  1  0.31045016  0.99665960  0.09850812  1.0
  O  O35  1  0.31045016  0.00334040  0.59850812  1.0
  O  O36  1  0.58599645  0.74540954  0.59078537  1.0
  O  O37  1  0.58599645  0.25459046  0.09078537  1.0
  O  O38  1  0.41400355  0.74540954  0.90921463  1.0
  O  O39  1  0.41400355  0.25459046  0.40921463  1.0
