# generated using pymatgen
data_LaZnCo2
_symmetry_space_group_name_H-M   'P 1'
_cell_length_a   5.19430428
_cell_length_b   5.19430428
_cell_length_c   16.97104722
_cell_angle_alpha   90.00000000
_cell_angle_beta   90.00000000
_cell_angle_gamma   120.00000000
_symmetry_Int_Tables_number   1
_chemical_formula_structural   LaZnCo2
_chemical_formula_sum   'La6 Zn6 Co12'
_cell_volume   396.54643257
_cell_formula_units_Z   6
loop_
 _symmetry_equiv_pos_site_id
 _symmetry_equiv_pos_as_xyz
  1  'x, y, z'
loop_
 _atom_site_type_symbol
 _atom_site_label
 _atom_site_symmetry_multiplicity
 _atom_site_fract_x
 _atom_site_fract_y
 _atom_site_fract_z
 _atom_site_occupancy
  La  La0  1  0.33333333  0.66666667  0.95197530  1.0
  La  La1  1  0.33333333  0.66666667  0.54802470  1.0
  La  La2  1  0.66666667  0.33333333  0.45197530  1.0
  La  La3  1  0.66666667  0.33333333  0.04802470  1.0
  La  La4  1  0.33333333  0.66666667  0.75000000  1.0
  La  La5  1  0.66666667  0.33333333  0.25000000  1.0
  Zn  Zn6  1  0.33333333  0.66666667  0.25000000  1.0
  Zn  Zn7  1  0.66666667  0.33333333  0.75000000  1.0
  Zn  Zn8  1  0.00000000  0.00000000  0.50000000  1.0
  Zn  Zn9  1  -0.00000000  -0.00000000  -0.00000000  1.0
  Zn  Zn10  1  -0.00000000  -0.00000000  0.25000000  1.0
  Zn  Zn11  1  0.00000000  0.00000000  0.75000000  1.0
  Co  Co12  1  0.16727954  0.83272046  0.37115979  1.0
  Co  Co13  1  0.16727954  0.83272046  0.12884021  1.0
  Co  Co14  1  0.16727954  0.33455907  0.37115979  1.0
  Co  Co15  1  0.16727954  0.33455907  0.12884021  1.0
  Co  Co16  1  0.83272046  0.16727954  0.87115979  1.0
  Co  Co17  1  0.83272046  0.16727954  0.62884021  1.0
  Co  Co18  1  0.83272046  0.66544093  0.87115979  1.0
  Co  Co19  1  0.83272046  0.66544093  0.62884021  1.0
  Co  Co20  1  0.66544093  0.83272046  0.37115979  1.0
  Co  Co21  1  0.66544093  0.83272046  0.12884021  1.0
  Co  Co22  1  0.33455907  0.16727954  0.87115979  1.0
  Co  Co23  1  0.33455907  0.16727954  0.62884021  1.0
