# generated using pymatgen
data_Cs2SiS3
_symmetry_space_group_name_H-M   'P 1'
_cell_length_a   7.88859326
_cell_length_b   7.88859326
_cell_length_c   10.20641921
_cell_angle_alpha   58.53033174
_cell_angle_beta   121.46966826
_cell_angle_gamma   125.17854267
_symmetry_Int_Tables_number   1
_chemical_formula_structural   Cs2SiS3
_chemical_formula_sum   'Cs4 Si2 S6'
_cell_volume   419.88729395
_cell_formula_units_Z   2
loop_
 _symmetry_equiv_pos_site_id
 _symmetry_equiv_pos_as_xyz
  1  'x, y, z'
loop_
 _atom_site_type_symbol
 _atom_site_label
 _atom_site_symmetry_multiplicity
 _atom_site_fract_x
 _atom_site_fract_y
 _atom_site_fract_z
 _atom_site_occupancy
  Cs  Cs0  1  1.41841925  -0.41841925  0.63769866  1.0
  Cs  Cs1  1  0.58158075  0.41841925  0.36230134  1.0
  Cs  Cs2  1  0.19665484  -0.19665484  0.81639670  1.0
  Cs  Cs3  1  0.80334516  -0.80334516  0.18360330  1.0
  Si  Si4  1  0.88816212  0.11183788  0.82835954  1.0
  Si  Si5  1  1.11183788  -0.11183788  0.17164046  1.0
  S  S6  1  0.89058396  -0.89058396  0.62551841  1.0
  S  S7  1  0.10941604  -0.10941604  0.37448159  1.0
  S  S8  1  0.72063442  0.27936558  0.78085733  1.0
  S  S9  1  1.27936558  -0.27936558  0.21914267  1.0
  S  S10  1  0.77611466  0.77611466  -0.00000000  1.0
  S  S11  1  0.22388534  0.22388534  -0.00000000  1.0
