# generated using pymatgen
data_Ba3P6(N4O3)2
_symmetry_space_group_name_H-M   'P 1'
_cell_length_a   7.48385393
_cell_length_b   7.48385393
_cell_length_c   6.40995649
_cell_angle_alpha   90.00000000
_cell_angle_beta   90.00000000
_cell_angle_gamma   120.00000000
_symmetry_Int_Tables_number   1
_chemical_formula_structural   Ba3P6(N4O3)2
_chemical_formula_sum   'Ba3 P6 N8 O6'
_cell_volume   310.91116528
_cell_formula_units_Z   1
loop_
 _symmetry_equiv_pos_site_id
 _symmetry_equiv_pos_as_xyz
  1  'x, y, z'
loop_
 _atom_site_type_symbol
 _atom_site_label
 _atom_site_symmetry_multiplicity
 _atom_site_fract_x
 _atom_site_fract_y
 _atom_site_fract_z
 _atom_site_occupancy
  Ba  Ba0  1  0.33333333  0.66666667  0.11620743  1.0
  Ba  Ba1  1  0.66666667  0.33333333  0.88379257  1.0
  Ba  Ba2  1  0.00000000  0.00000000  0.00000000  1.0
  P  P3  1  0.77669302  0.59972436  0.39737192  1.0
  P  P4  1  0.59972436  0.82303134  0.60262808  1.0
  P  P5  1  0.82303134  0.22330698  0.39737192  1.0
  P  P6  1  0.40027564  0.17696866  0.39737192  1.0
  P  P7  1  0.22330698  0.40027564  0.60262808  1.0
  P  P8  1  0.17696866  0.77669302  0.60262808  1.0
  N  N9  1  0.02350819  0.69437262  0.40259177  1.0
  N  N10  1  0.69437262  0.67086444  0.59740823  1.0
  N  N11  1  0.67086444  0.97649181  0.40259177  1.0
  N  N12  1  0.30562738  0.32913556  0.40259177  1.0
  N  N13  1  0.97649181  0.30562738  0.59740823  1.0
  N  N14  1  0.32913556  0.02350819  0.59740823  1.0
  N  N15  1  0.33333333  0.66666667  0.57115700  1.0
  N  N16  1  0.66666667  0.33333333  0.42884300  1.0
  O  O17  1  0.71155607  0.63214589  0.17794042  1.0
  O  O18  1  0.63214589  0.92058982  0.82205958  1.0
  O  O19  1  0.92058982  0.28844393  0.17794042  1.0
  O  O20  1  0.36785411  0.07941018  0.17794042  1.0
  O  O21  1  0.28844393  0.36785411  0.82205958  1.0
  O  O22  1  0.07941018  0.71155607  0.82205958  1.0
