# generated using pymatgen
data_NaAg3S2
_symmetry_space_group_name_H-M   'P 1'
_cell_length_a   8.88265492
_cell_length_b   8.88265492
_cell_length_c   8.88265492
_cell_angle_alpha   60.00000000
_cell_angle_beta   60.00000000
_cell_angle_gamma   60.00000000
_symmetry_Int_Tables_number   1
_chemical_formula_structural   NaAg3S2
_chemical_formula_sum   'Na4 Ag12 S8'
_cell_volume   495.57954734
_cell_formula_units_Z   4
loop_
 _symmetry_equiv_pos_site_id
 _symmetry_equiv_pos_as_xyz
  1  'x, y, z'
loop_
 _atom_site_type_symbol
 _atom_site_label
 _atom_site_symmetry_multiplicity
 _atom_site_fract_x
 _atom_site_fract_y
 _atom_site_fract_z
 _atom_site_occupancy
  Na  Na0  1  1.12500000  0.62500000  0.62500000  1.0
  Na  Na1  1  0.62500000  1.12500000  -0.37500000  1.0
  Na  Na2  1  -0.37500000  0.62500000  1.12500000  1.0
  Na  Na3  1  -0.37500000  0.62500000  0.62500000  1.0
  Ag  Ag4  1  -0.17098772  0.17098772  0.17098772  1.0
  Ag  Ag5  1  -0.82901228  0.82901228  0.82901228  1.0
  Ag  Ag6  1  0.17098772  1.17098772  -0.17098772  1.0
  Ag  Ag7  1  0.82901228  0.82901228  -0.82901228  1.0
  Ag  Ag8  1  0.17098772  -0.17098772  0.17098772  1.0
  Ag  Ag9  1  0.82901228  -0.82901228  0.82901228  1.0
  Ag  Ag10  1  0.42098772  1.07901228  0.07901228  1.0
  Ag  Ag11  1  0.07901228  1.42098772  0.42098772  1.0
  Ag  Ag12  1  0.07901228  0.07901228  0.42098772  1.0
  Ag  Ag13  1  0.42098772  1.42098772  0.07901228  1.0
  Ag  Ag14  1  0.07901228  1.42098772  0.07901228  1.0
  Ag  Ag15  1  0.42098772  1.07901228  0.42098772  1.0
  S  S16  1  -0.16308225  0.38769408  0.38769408  1.0
  S  S17  1  0.38769408  -0.16308225  0.38769408  1.0
  S  S18  1  0.38769408  1.38769408  -0.16308225  1.0
  S  S19  1  0.38769408  1.38769408  0.38769408  1.0
  S  S20  1  0.41308225  0.86230592  -0.13769408  1.0
  S  S21  1  0.86230592  0.41308225  0.86230592  1.0
  S  S22  1  0.86230592  0.86230592  -0.58691775  1.0
  S  S23  1  0.86230592  0.86230592  0.86230592  1.0
