# generated using pymatgen
data_Na4Br2O
_symmetry_space_group_name_H-M   'P 1'
_cell_length_a   8.20485123
_cell_length_b   8.20485123
_cell_length_c   8.20485123
_cell_angle_alpha   147.67820900
_cell_angle_beta   147.67820900
_cell_angle_gamma   46.36062177
_symmetry_Int_Tables_number   1
_chemical_formula_structural   Na4Br2O
_chemical_formula_sum   'Na4 Br2 O1'
_cell_volume   157.34507617
_cell_formula_units_Z   1
loop_
 _symmetry_equiv_pos_site_id
 _symmetry_equiv_pos_as_xyz
  1  'x, y, z'
loop_
 _atom_site_type_symbol
 _atom_site_label
 _atom_site_symmetry_multiplicity
 _atom_site_fract_x
 _atom_site_fract_y
 _atom_site_fract_z
 _atom_site_occupancy
  Na  Na0  1  0.84793047  0.84793047  1.00000000  1.0
  Na  Na1  1  0.15206953  0.15206953  -0.00000000  1.0
  Na  Na2  1  0.50000000  0.00000000  0.50000000  1.0
  Na  Na3  1  0.00000000  0.50000000  0.50000000  1.0
  Br  Br4  1  0.65136156  0.65136156  1.00000000  1.0
  Br  Br5  1  0.34863844  0.34863844  -0.00000000  1.0
  O  O6  1  0.00000000  0.00000000  0.00000000  1.0
