# generated using pymatgen
data_Ba6Ge5N2
_symmetry_space_group_name_H-M   'P 1'
_cell_length_a   4.22381983
_cell_length_b   19.01576692
_cell_length_c   9.70679312
_cell_angle_alpha   90.00000000
_cell_angle_beta   90.00000000
_cell_angle_gamma   90.00000000
_symmetry_Int_Tables_number   1
_chemical_formula_structural   Ba6Ge5N2
_chemical_formula_sum   'Ba12 Ge10 N4'
_cell_volume   779.64159951
_cell_formula_units_Z   2
loop_
 _symmetry_equiv_pos_site_id
 _symmetry_equiv_pos_as_xyz
  1  'x, y, z'
loop_
 _atom_site_type_symbol
 _atom_site_label
 _atom_site_symmetry_multiplicity
 _atom_site_fract_x
 _atom_site_fract_y
 _atom_site_fract_z
 _atom_site_occupancy
  Ba  Ba0  1  0.50000000  0.68327454  0.11273050  1.0
  Ba  Ba1  1  0.50000000  0.31672546  0.11273050  1.0
  Ba  Ba2  1  0.00000000  0.18327454  0.88726950  1.0
  Ba  Ba3  1  0.00000000  0.81672546  0.88726950  1.0
  Ba  Ba4  1  0.50000000  0.13956434  0.53455997  1.0
  Ba  Ba5  1  0.50000000  0.86043566  0.53455997  1.0
  Ba  Ba6  1  0.00000000  0.63956434  0.46544003  1.0
  Ba  Ba7  1  0.00000000  0.36043566  0.46544003  1.0
  Ba  Ba8  1  0.50000000  0.00000000  0.84358521  1.0
  Ba  Ba9  1  0.00000000  0.50000000  0.15641479  1.0
  Ba  Ba10  1  0.50000000  0.50000000  0.75536820  1.0
  Ba  Ba11  1  0.00000000  0.00000000  0.24463180  1.0
  Ge  Ge12  1  0.50000000  0.69274290  0.73973742  1.0
  Ge  Ge13  1  0.50000000  0.30725710  0.73973742  1.0
  Ge  Ge14  1  0.00000000  0.19274290  0.26026258  1.0
  Ge  Ge15  1  0.00000000  0.80725710  0.26026258  1.0
  Ge  Ge16  1  0.50000000  0.13196356  0.15296247  1.0
  Ge  Ge17  1  0.50000000  0.86803644  0.15296247  1.0
  Ge  Ge18  1  0.00000000  0.63196356  0.84703753  1.0
  Ge  Ge19  1  0.00000000  0.36803644  0.84703753  1.0
  Ge  Ge20  1  0.50000000  0.50000000  0.41093369  1.0
  Ge  Ge21  1  0.00000000  0.00000000  0.58906631  1.0
  N  N22  1  0.50000000  0.58047281  0.29280584  1.0
  N  N23  1  0.50000000  0.41952719  0.29280584  1.0
  N  N24  1  0.00000000  0.08047281  0.70719416  1.0
  N  N25  1  0.00000000  0.91952719  0.70719416  1.0
