# generated using pymatgen
data_P2Pb3O8
_symmetry_space_group_name_H-M   'P 1'
_cell_length_a   7.52209864
_cell_length_b   7.52209864
_cell_length_c   10.03295015
_cell_angle_alpha   88.27803810
_cell_angle_beta   91.72196190
_cell_angle_gamma   132.75365821
_symmetry_Int_Tables_number   1
_chemical_formula_structural   P2Pb3O8
_chemical_formula_sum   'P4 Pb6 O16'
_cell_volume   416.61432622
_cell_formula_units_Z   2
loop_
 _symmetry_equiv_pos_site_id
 _symmetry_equiv_pos_as_xyz
  1  'x, y, z'
loop_
 _atom_site_type_symbol
 _atom_site_label
 _atom_site_symmetry_multiplicity
 _atom_site_fract_x
 _atom_site_fract_y
 _atom_site_fract_z
 _atom_site_occupancy
  P  P0  1  0.35607038  0.16637076  0.91721882  1.0
  P  P1  1  0.83362924  0.64392962  0.41721882  1.0
  P  P2  1  1.16637076  0.35607038  0.58278118  1.0
  P  P3  1  0.64392962  -0.16637076  0.08278118  1.0
  Pb  Pb4  1  0.53630679  0.18129677  0.63246938  1.0
  Pb  Pb5  1  0.81870323  0.46369321  0.13246938  1.0
  Pb  Pb6  1  1.18129677  0.53630679  0.86753062  1.0
  Pb  Pb7  1  0.46369321  -0.18129677  0.36753062  1.0
  Pb  Pb8  1  0.85053744  0.85053744  0.75000000  1.0
  Pb  Pb9  1  0.14946256  0.14946256  0.25000000  1.0
  O  O10  1  0.59064127  -0.16215915  0.93122745  1.0
  O  O11  1  1.16215915  0.40935873  0.43122745  1.0
  O  O12  1  0.83784085  0.59064127  0.56877255  1.0
  O  O13  1  0.40935873  0.16215915  0.06877255  1.0
  O  O14  1  0.21545524  -0.08423056  0.84954726  1.0
  O  O15  1  1.08423056  0.78454476  0.34954726  1.0
  O  O16  1  0.91576944  0.21545524  0.65045274  1.0
  O  O17  1  0.78454476  0.08423056  0.15045274  1.0
  O  O18  1  0.60590421  0.35939140  0.84394637  1.0
  O  O19  1  0.64060860  0.39409579  0.34394637  1.0
  O  O20  1  1.35939140  0.60590421  0.65605363  1.0
  O  O21  1  0.39409579  -0.35939140  0.15605363  1.0
  O  O22  1  1.19292181  0.22421637  0.90190411  1.0
  O  O23  1  0.77578363  -0.19292181  0.40190411  1.0
  O  O24  1  0.22421637  0.19292181  0.59809589  1.0
  O  O25  1  0.80707819  0.77578363  0.09809589  1.0
