# generated using pymatgen
data_LuSeF
_symmetry_space_group_name_H-M   'P 1'
_cell_length_a   10.11204113
_cell_length_b   10.11204113
_cell_length_c   10.11204113
_cell_angle_alpha   23.38109098
_cell_angle_beta   23.38109098
_cell_angle_gamma   23.38109098
_symmetry_Int_Tables_number   1
_chemical_formula_structural   LuSeF
_chemical_formula_sum   'Lu2 Se2 F2'
_cell_volume   142.97864361
_cell_formula_units_Z   2
loop_
 _symmetry_equiv_pos_site_id
 _symmetry_equiv_pos_as_xyz
  1  'x, y, z'
loop_
 _atom_site_type_symbol
 _atom_site_label
 _atom_site_symmetry_multiplicity
 _atom_site_fract_x
 _atom_site_fract_y
 _atom_site_fract_z
 _atom_site_occupancy
  Lu  Lu0  1  0.72229326  0.72229326  0.72229326  1.0
  Lu  Lu1  1  1.27770674  1.27770674  0.27770674  1.0
  Se  Se2  1  0.89928600  0.89928600  0.89928600  1.0
  Se  Se3  1  1.10071400  1.10071400  0.10071400  1.0
  F  F4  1  1.64682120  0.64682120  0.64682120  1.0
  F  F5  1  1.35317880  0.35317880  0.35317880  1.0
