# generated using pymatgen
data_Zr3Co
_symmetry_space_group_name_H-M   'P 1'
_cell_length_a   6.05920076
_cell_length_b   6.05920076
_cell_length_c   4.86098781
_cell_angle_alpha   90.00000000
_cell_angle_beta   90.00000000
_cell_angle_gamma   120.00000000
_symmetry_Int_Tables_number   1
_chemical_formula_structural   Zr3Co
_chemical_formula_sum   'Zr6 Co2'
_cell_volume   154.55599284
_cell_formula_units_Z   2
loop_
 _symmetry_equiv_pos_site_id
 _symmetry_equiv_pos_as_xyz
  1  'x, y, z'
loop_
 _atom_site_type_symbol
 _atom_site_label
 _atom_site_symmetry_multiplicity
 _atom_site_fract_x
 _atom_site_fract_y
 _atom_site_fract_z
 _atom_site_occupancy
  Zr  Zr0  1  0.17583722  0.82416278  0.25000000  1.0
  Zr  Zr1  1  0.17583722  0.35167444  0.25000000  1.0
  Zr  Zr2  1  0.82416278  0.17583722  0.75000000  1.0
  Zr  Zr3  1  0.82416278  0.64832556  0.75000000  1.0
  Zr  Zr4  1  0.64832556  0.82416278  0.25000000  1.0
  Zr  Zr5  1  0.35167444  0.17583722  0.75000000  1.0
  Co  Co6  1  0.33333333  0.66666667  0.75000000  1.0
  Co  Co7  1  0.66666667  0.33333333  0.25000000  1.0
