# generated using pymatgen
data_BaLa(CoO3)2
_symmetry_space_group_name_H-M   'P 1'
_cell_length_a   3.91454529
_cell_length_b   3.91454529
_cell_length_c   7.67010552
_cell_angle_alpha   90.00000000
_cell_angle_beta   90.00000000
_cell_angle_gamma   90.00000000
_symmetry_Int_Tables_number   1
_chemical_formula_structural   BaLa(CoO3)2
_chemical_formula_sum   'Ba1 La1 Co2 O6'
_cell_volume   117.53412633
_cell_formula_units_Z   1
loop_
 _symmetry_equiv_pos_site_id
 _symmetry_equiv_pos_as_xyz
  1  'x, y, z'
loop_
 _atom_site_type_symbol
 _atom_site_label
 _atom_site_symmetry_multiplicity
 _atom_site_fract_x
 _atom_site_fract_y
 _atom_site_fract_z
 _atom_site_occupancy
  La  La0  1  0.50000000  0.50000000  0.00000000  1.0
  Co  Co1  1  0.00000000  0.00000000  0.74911275  1.0
  Co  Co2  1  0.00000000  0.00000000  0.25088725  1.0
  O  O3  1  0.00000000  0.50000000  0.76975092  1.0
  O  O4  1  0.00000000  0.50000000  0.23024908  1.0
  O  O5  1  0.50000000  0.00000000  0.76975092  1.0
  O  O6  1  0.50000000  0.00000000  0.23024908  1.0
  O  O7  1  0.00000000  0.00000000  0.00000000  1.0
  O  O8  1  0.00000000  0.00000000  0.50000000  1.0
  Ba  Ba9  1  0.50000000  0.50000000  0.50000000  1.0
