# generated using pymatgen
data_RbBePO4
_symmetry_space_group_name_H-M   'P 1'
_cell_length_a   8.76026083
_cell_length_b   8.73018222
_cell_length_c   5.05889886
_cell_angle_alpha   90.00000000
_cell_angle_beta   90.00000000
_cell_angle_gamma   90.00000000
_symmetry_Int_Tables_number   1
_chemical_formula_structural   RbBePO4
_chemical_formula_sum   'Rb4 Be4 P4 O16'
_cell_volume   386.89787307
_cell_formula_units_Z   4
loop_
 _symmetry_equiv_pos_site_id
 _symmetry_equiv_pos_as_xyz
  1  'x, y, z'
loop_
 _atom_site_type_symbol
 _atom_site_label
 _atom_site_symmetry_multiplicity
 _atom_site_fract_x
 _atom_site_fract_y
 _atom_site_fract_z
 _atom_site_occupancy
  Rb  Rb0  1  0.50388535  0.80060852  1.00760672  1.0
  Rb  Rb1  1  1.00388535  0.69939148  1.00760672  1.0
  Rb  Rb2  1  0.49611465  0.19939148  0.50760672  1.0
  Rb  Rb3  1  -0.00388535  0.30060852  0.50760672  1.0
  Be  Be4  1  0.17544474  0.90931351  0.50087080  1.0
  Be  Be5  1  0.67544474  0.59068649  0.50087080  1.0
  Be  Be6  1  0.82455526  0.09068649  0.00087080  1.0
  Be  Be7  1  0.32455526  0.40931351  0.00087080  1.0
  P  P8  1  0.31591133  0.58402944  0.49946841  1.0
  P  P9  1  0.81591133  0.91597056  0.49946841  1.0
  P  P10  1  0.68408867  0.41597056  -0.00053159  1.0
  P  P11  1  0.18408867  0.08402944  -0.00053159  1.0
  O  O12  1  0.26113578  0.53342993  0.77937491  1.0
  O  O13  1  0.76113578  0.96657007  0.77937491  1.0
  O  O14  1  0.73886422  0.46657007  0.27937491  1.0
  O  O15  1  0.23886422  0.03342993  0.27937491  1.0
  O  O16  1  0.49064629  0.60405195  0.49436589  1.0
  O  O17  1  0.99064629  0.89594805  0.49436589  1.0
  O  O18  1  0.50935371  0.39594805  -0.00563411  1.0
  O  O19  1  0.00935371  0.10405195  -0.00563411  1.0
  O  O20  1  0.25936946  0.23860726  0.92496067  1.0
  O  O21  1  0.75936946  0.26139274  0.92496067  1.0
  O  O22  1  0.74063054  0.76139274  0.42496067  1.0
  O  O23  1  0.24063054  0.73860726  0.42496067  1.0
  O  O24  1  0.23604349  0.96055833  0.79485261  1.0
  O  O25  1  0.73604349  0.53944167  0.79485261  1.0
  O  O26  1  0.76395651  0.03944167  0.29485261  1.0
  O  O27  1  0.26395651  0.46055833  0.29485261  1.0
