# generated using pymatgen
data_CdMoPO6
_symmetry_space_group_name_H-M   'P 1'
_cell_length_a   5.00017556
_cell_length_b   8.69076604
_cell_length_c   11.54487724
_cell_angle_alpha   90.00000000
_cell_angle_beta   109.57100585
_cell_angle_gamma   90.00000000
_symmetry_Int_Tables_number   1
_chemical_formula_structural   CdMoPO6
_chemical_formula_sum   'Cd4 Mo4 P4 O24'
_cell_volume   472.70284405
_cell_formula_units_Z   4
loop_
 _symmetry_equiv_pos_site_id
 _symmetry_equiv_pos_as_xyz
  1  'x, y, z'
loop_
 _atom_site_type_symbol
 _atom_site_label
 _atom_site_symmetry_multiplicity
 _atom_site_fract_x
 _atom_site_fract_y
 _atom_site_fract_z
 _atom_site_occupancy
  Cd  Cd0  1  0.83900238  0.16223617  0.41750087  1.0
  Cd  Cd1  1  0.83900238  0.33776383  0.91750087  1.0
  Cd  Cd2  1  0.16099762  0.66223617  0.08249913  1.0
  Cd  Cd3  1  0.16099762  0.83776383  0.58249913  1.0
  Mo  Mo4  1  0.51955295  0.07378946  0.10077098  1.0
  Mo  Mo5  1  0.51955295  0.42621054  0.60077098  1.0
  Mo  Mo6  1  0.48044705  0.57378946  0.39922902  1.0
  Mo  Mo7  1  0.48044705  0.92621054  0.89922902  1.0
  P  P8  1  0.80757562  0.43506686  0.20910287  1.0
  P  P9  1  0.80757562  0.06493314  0.70910287  1.0
  P  P10  1  0.19242438  0.93506686  0.29089713  1.0
  P  P11  1  0.19242438  0.56493314  0.79089713  1.0
  O  O12  1  0.91126179  0.97064451  0.18672431  1.0
  O  O13  1  0.91126179  0.52935549  0.68672431  1.0
  O  O14  1  0.08873821  0.47064451  0.31327569  1.0
  O  O15  1  0.08873821  0.02935549  0.81327569  1.0
  O  O16  1  0.82870164  0.48220388  0.08277110  1.0
  O  O17  1  0.82870164  0.01779612  0.58277110  1.0
  O  O18  1  0.17129836  0.98220388  0.41722890  1.0
  O  O19  1  0.17129836  0.51779612  0.91722890  1.0
  O  O20  1  0.76892944  0.69279644  0.44620577  1.0
  O  O21  1  0.76892944  0.80720356  0.94620577  1.0
  O  O22  1  0.23107056  0.19279644  0.05379423  1.0
  O  O23  1  0.23107056  0.30720356  0.55379423  1.0
  O  O24  1  0.75870035  0.25793048  0.21617524  1.0
  O  O25  1  0.75870035  0.24206952  0.71617524  1.0
  O  O26  1  0.24129965  0.75793048  0.28382476  1.0
  O  O27  1  0.24129965  0.74206952  0.78382476  1.0
  O  O28  1  0.65251061  0.37565950  0.46247558  1.0
  O  O29  1  0.65251061  0.12434050  0.96247558  1.0
  O  O30  1  0.34748939  0.87565950  0.03752442  1.0
  O  O31  1  0.34748939  0.62434050  0.53752442  1.0
  O  O32  1  0.44698231  0.02538266  0.27138566  1.0
  O  O33  1  0.44698231  0.47461734  0.77138566  1.0
  O  O34  1  0.55301769  0.52538266  0.22861434  1.0
  O  O35  1  0.55301769  0.97461734  0.72861434  1.0
