# generated using pymatgen
data_Te3WICl6
_symmetry_space_group_name_H-M   'P 1'
_cell_length_a   12.01665009
_cell_length_b   10.84184633
_cell_length_c   11.96087166
_cell_angle_alpha   90.00000000
_cell_angle_beta   107.07793108
_cell_angle_gamma   90.00000000
_symmetry_Int_Tables_number   1
_chemical_formula_structural   Te3WICl6
_chemical_formula_sum   'Te12 W4 I4 Cl24'
_cell_volume   1489.58322293
_cell_formula_units_Z   4
loop_
 _symmetry_equiv_pos_site_id
 _symmetry_equiv_pos_as_xyz
  1  'x, y, z'
loop_
 _atom_site_type_symbol
 _atom_site_label
 _atom_site_symmetry_multiplicity
 _atom_site_fract_x
 _atom_site_fract_y
 _atom_site_fract_z
 _atom_site_occupancy
  Te  Te0  1  0.98751201  0.48326085  0.21770882  1.0
  Te  Te1  1  0.98751201  0.01673915  0.71770882  1.0
  Te  Te2  1  0.01248799  0.98326085  0.28229118  1.0
  Te  Te3  1  0.01248799  0.51673915  0.78229118  1.0
  Te  Te4  1  0.94099480  0.28586143  0.04575816  1.0
  Te  Te5  1  0.94099480  0.21413857  0.54575816  1.0
  Te  Te6  1  0.05900520  0.78586143  0.45424184  1.0
  Te  Te7  1  0.05900520  0.71413857  0.95424184  1.0
  Te  Te8  1  0.88963471  0.68817996  0.05592707  1.0
  Te  Te9  1  0.88963471  0.81182004  0.55592707  1.0
  Te  Te10  1  0.11036529  0.18817996  0.44407293  1.0
  Te  Te11  1  0.11036529  0.31182004  0.94407293  1.0
  W  W12  1  0.64641258  0.50210621  0.29700292  1.0
  W  W13  1  0.64641258  -0.00210621  0.79700292  1.0
  W  W14  1  0.35358742  1.00210621  0.20299708  1.0
  W  W15  1  0.35358742  0.49789379  0.70299708  1.0
  I  I16  1  0.78400894  0.02593782  0.26567497  1.0
  I  I17  1  0.78400894  0.47406218  0.76567497  1.0
  I  I18  1  0.21599106  0.52593782  0.23432503  1.0
  I  I19  1  0.21599106  0.97406218  0.73432503  1.0
  Cl  Cl20  1  0.83352707  0.98403868  0.93830433  1.0
  Cl  Cl21  1  0.83352707  0.51596132  0.43830433  1.0
  Cl  Cl22  1  0.16647293  0.48403868  0.56169567  1.0
  Cl  Cl23  1  0.16647293  0.01596132  0.06169567  1.0
  Cl  Cl24  1  0.73971951  0.39402616  0.17050482  1.0
  Cl  Cl25  1  0.73971951  0.10597384  0.67050482  1.0
  Cl  Cl26  1  0.26028049  0.89402616  0.32949518  1.0
  Cl  Cl27  1  0.26028049  0.60597384  0.82949518  1.0
  Cl  Cl28  1  0.62189560  0.31629415  0.37855425  1.0
  Cl  Cl29  1  0.62189560  0.18370585  0.87855425  1.0
  Cl  Cl30  1  0.37810440  0.81629415  0.12144575  1.0
  Cl  Cl31  1  0.37810440  0.68370585  0.62144575  1.0
  Cl  Cl32  1  0.47179848  0.48396016  0.15169092  1.0
  Cl  Cl33  1  0.47179848  0.01603984  0.65169092  1.0
  Cl  Cl34  1  0.52820152  0.98396016  0.34830908  1.0
  Cl  Cl35  1  0.52820152  0.51603984  0.84830908  1.0
  Cl  Cl36  1  0.43822107  0.11312615  0.08625744  1.0
  Cl  Cl37  1  0.43822107  0.38687385  0.58625744  1.0
  Cl  Cl38  1  0.56177893  0.61312615  0.41374256  1.0
  Cl  Cl39  1  0.56177893  0.88687385  0.91374256  1.0
  Cl  Cl40  1  0.30760807  0.18344394  0.28634624  1.0
  Cl  Cl41  1  0.30760807  0.31655606  0.78634624  1.0
  Cl  Cl42  1  0.69239193  0.68344394  0.21365376  1.0
  Cl  Cl43  1  0.69239193  0.81655606  0.71365376  1.0
