# generated using pymatgen
data_ZrIn3
_symmetry_space_group_name_H-M   'P 1'
_cell_length_a   10.08277953
_cell_length_b   10.08277953
_cell_length_c   10.08277953
_cell_angle_alpha   155.03693477
_cell_angle_beta   155.03693477
_cell_angle_gamma   35.59416256
_symmetry_Int_Tables_number   1
_chemical_formula_structural   ZrIn3
_chemical_formula_sum   'Zr2 In6'
_cell_volume   182.35328680
_cell_formula_units_Z   2
loop_
 _symmetry_equiv_pos_site_id
 _symmetry_equiv_pos_as_xyz
  1  'x, y, z'
loop_
 _atom_site_type_symbol
 _atom_site_label
 _atom_site_symmetry_multiplicity
 _atom_site_fract_x
 _atom_site_fract_y
 _atom_site_fract_z
 _atom_site_occupancy
  Zr  Zr0  1  0.88133726  0.88133726  1.00000000  1.0
  Zr  Zr1  1  0.11866274  0.11866274  0.00000000  1.0
  In  In2  1  0.62398896  0.62398896  1.00000000  1.0
  In  In3  1  0.37601104  0.37601104  0.00000000  1.0
  In  In4  1  0.25000000  0.75000000  0.50000000  1.0
  In  In5  1  0.75000000  0.25000000  0.50000000  1.0
  In  In6  1  0.50000000  0.00000000  0.50000000  1.0
  In  In7  1  0.00000000  0.50000000  0.50000000  1.0
