# generated using pymatgen
data_Li2Ga3Te6(HO2)12
_symmetry_space_group_name_H-M   'P 1'
_cell_length_a   10.07770771
_cell_length_b   10.07770771
_cell_length_c   10.07770771
_cell_angle_alpha   55.75906088
_cell_angle_beta   55.75906088
_cell_angle_gamma   55.75906088
_symmetry_Int_Tables_number   1
_chemical_formula_structural   Li2Ga3Te6(HO2)12
_chemical_formula_sum   'Li2 Ga3 Te6 H12 O24'
_cell_volume   652.53744560
_cell_formula_units_Z   1
loop_
 _symmetry_equiv_pos_site_id
 _symmetry_equiv_pos_as_xyz
  1  'x, y, z'
loop_
 _atom_site_type_symbol
 _atom_site_label
 _atom_site_symmetry_multiplicity
 _atom_site_fract_x
 _atom_site_fract_y
 _atom_site_fract_z
 _atom_site_occupancy
  Li  Li0  1  0.31642123  0.31642123  0.31642123  1.0
  Li  Li1  1  0.68357877  -0.31642123  -0.31642123  1.0
  Ga  Ga2  1  0.19928290  0.19928290  0.19928290  1.0
  Ga  Ga3  1  0.80071710  -0.19928290  -0.19928290  1.0
  Ga  Ga4  1  0.00000000  0.00000000  0.00000000  1.0
  Te  Te5  1  0.39150516  -0.07203263  -0.02435263  1.0
  Te  Te6  1  1.02435263  -0.39150516  0.07203263  1.0
  Te  Te7  1  1.07203263  0.02435263  -0.39150516  1.0
  Te  Te8  1  0.60849484  0.07203263  0.02435263  1.0
  Te  Te9  1  0.97564737  -0.60849484  -0.07203263  1.0
  Te  Te10  1  0.92796737  -0.02435263  -0.60849484  1.0
  H  H11  1  0.47407202  0.09597029  -0.47265816  1.0
  H  H12  1  0.47265816  0.52592798  -0.09597029  1.0
  H  H13  1  0.90402971  0.47265816  -0.47407202  1.0
  H  H14  1  0.52592798  0.90402971  -0.52734184  1.0
  H  H15  1  0.52734184  0.47407202  -0.90402971  1.0
  H  H16  1  0.09597029  0.52734184  -0.52592798  1.0
  H  H17  1  0.12690075  0.66168929  -0.70901363  1.0
  H  H18  1  0.70901363  0.87309925  -0.66168929  1.0
  H  H19  1  0.33831071  0.70901363  -0.12690075  1.0
  H  H20  1  0.87309925  0.33831071  -0.29098637  1.0
  H  H21  1  0.29098637  0.12690075  -0.33831071  1.0
  H  H22  1  0.66168929  0.29098637  -0.87309925  1.0
  O  O23  1  0.35471678  0.15201234  -0.46494142  1.0
  O  O24  1  0.46494142  0.64528322  -0.15201234  1.0
  O  O25  1  0.84798766  0.46494142  -0.35471678  1.0
  O  O26  1  0.64528322  0.84798766  -0.53505858  1.0
  O  O27  1  0.53505858  0.35471678  -0.84798766  1.0
  O  O28  1  0.15201234  0.53505858  -0.64528322  1.0
  O  O29  1  0.41833105  0.07351247  0.24305947  1.0
  O  O30  1  0.75694053  -0.41833105  -0.07351247  1.0
  O  O31  1  0.92648753  -0.24305947  -0.41833105  1.0
  O  O32  1  0.58166895  -0.07351247  -0.24305947  1.0
  O  O33  1  1.24305947  -0.58166895  0.07351247  1.0
  O  O34  1  1.07351247  0.24305947  -0.58166895  1.0
  O  O35  1  0.21539728  0.05108791  -0.12701206  1.0
  O  O36  1  1.12701206  -0.21539728  -0.05108791  1.0
  O  O37  1  0.94891209  0.12701206  -0.21539728  1.0
  O  O38  1  0.78460272  -0.05108791  0.12701206  1.0
  O  O39  1  0.87298794  -0.78460272  0.05108791  1.0
  O  O40  1  1.05108791  -0.12701206  -0.78460272  1.0
  O  O41  1  0.34819472  0.14326009  -0.01867431  1.0
  O  O42  1  1.01867431  -0.34819472  -0.14326009  1.0
  O  O43  1  0.85673991  0.01867431  -0.34819472  1.0
  O  O44  1  0.65180528  -0.14326009  0.01867431  1.0
  O  O45  1  0.98132569  -0.65180528  0.14326009  1.0
  O  O46  1  1.14326009  -0.01867431  -0.65180528  1.0
