# generated using pymatgen
data_LiYSiO4
_symmetry_space_group_name_H-M   'P 1'
_cell_length_a   5.45216514
_cell_length_b   6.20547314
_cell_length_c   10.93304901
_cell_angle_alpha   90.00000000
_cell_angle_beta   113.42246884
_cell_angle_gamma   90.00000000
_symmetry_Int_Tables_number   1
_chemical_formula_structural   LiYSiO4
_chemical_formula_sum   'Li4 Y4 Si4 O16'
_cell_volume   339.42047695
_cell_formula_units_Z   4
loop_
 _symmetry_equiv_pos_site_id
 _symmetry_equiv_pos_as_xyz
  1  'x, y, z'
loop_
 _atom_site_type_symbol
 _atom_site_label
 _atom_site_symmetry_multiplicity
 _atom_site_fract_x
 _atom_site_fract_y
 _atom_site_fract_z
 _atom_site_occupancy
  Li  Li0  1  0.42101846  0.13465179  0.06958548  1.0
  Li  Li1  1  0.42101846  0.36534821  0.56958548  1.0
  Li  Li2  1  0.57898154  0.63465179  0.43041452  1.0
  Li  Li3  1  0.57898154  0.86534821  0.93041452  1.0
  Y  Y4  1  0.94710760  0.38333119  0.15177137  1.0
  Y  Y5  1  0.94710760  0.11666881  0.65177137  1.0
  Y  Y6  1  0.05289240  0.88333119  0.34822863  1.0
  Y  Y7  1  0.05289240  0.61666881  0.84822863  1.0
  Si  Si8  1  0.59586745  0.15171035  0.35961357  1.0
  Si  Si9  1  0.59586745  0.34828965  0.85961357  1.0
  Si  Si10  1  0.40413255  0.65171035  0.14038643  1.0
  Si  Si11  1  0.40413255  0.84828965  0.64038643  1.0
  O  O12  1  0.74066091  0.16277978  0.25219859  1.0
  O  O13  1  0.74066091  0.33722022  0.75219859  1.0
  O  O14  1  0.25933909  0.66277978  0.24780141  1.0
  O  O15  1  0.25933909  0.83722022  0.74780141  1.0
  O  O16  1  0.72741865  0.92789305  0.44481172  1.0
  O  O17  1  0.72741865  0.57210695  0.94481172  1.0
  O  O18  1  0.27258135  0.42789305  0.05518828  1.0
  O  O19  1  0.27258135  0.07210695  0.55518828  1.0
  O  O20  1  0.68689582  0.33749352  0.47619533  1.0
  O  O21  1  0.68689582  0.16250648  0.97619533  1.0
  O  O22  1  0.31310418  0.83749352  0.02380467  1.0
  O  O23  1  0.31310418  0.66250648  0.52380467  1.0
  O  O24  1  0.26926846  0.14213946  0.27810253  1.0
  O  O25  1  0.26926846  0.35786054  0.77810253  1.0
  O  O26  1  0.73073154  0.64213946  0.22189747  1.0
  O  O27  1  0.73073154  0.85786054  0.72189747  1.0
