# generated using pymatgen
data_Gd3GaCoS7
_symmetry_space_group_name_H-M   'P 1'
_cell_length_a   9.63880461
_cell_length_b   9.63880461
_cell_length_c   6.18640325
_cell_angle_alpha   90.00000000
_cell_angle_beta   90.00000000
_cell_angle_gamma   120.00000000
_symmetry_Int_Tables_number   1
_chemical_formula_structural   Gd3GaCoS7
_chemical_formula_sum   'Gd6 Ga2 Co2 S14'
_cell_volume   497.75451746
_cell_formula_units_Z   2
loop_
 _symmetry_equiv_pos_site_id
 _symmetry_equiv_pos_as_xyz
  1  'x, y, z'
loop_
 _atom_site_type_symbol
 _atom_site_label
 _atom_site_symmetry_multiplicity
 _atom_site_fract_x
 _atom_site_fract_y
 _atom_site_fract_z
 _atom_site_occupancy
  Gd  Gd0  1  0.78204441  0.62598865  0.20548809  1.0
  Gd  Gd1  1  0.62598865  0.84394423  0.70548809  1.0
  Gd  Gd2  1  0.84394423  0.21795559  0.20548809  1.0
  Gd  Gd3  1  0.37401135  0.15605577  0.20548809  1.0
  Gd  Gd4  1  0.21795559  0.37401135  0.70548809  1.0
  Gd  Gd5  1  0.15605577  0.78204441  0.70548809  1.0
  Ga  Ga6  1  0.33333333  0.66666667  0.13068513  1.0
  Ga  Ga7  1  0.66666667  0.33333333  0.63068513  1.0
  Co  Co8  1  0.00000000  0.00000000  0.04957190  1.0
  Co  Co9  1  -0.00000000  -0.00000000  0.54957190  1.0
  S  S10  1  0.43414257  0.91400105  -0.02285876  1.0
  S  S11  1  0.91400105  0.47985848  0.47714124  1.0
  S  S12  1  0.47985848  0.56585743  -0.02285876  1.0
  S  S13  1  0.08599895  0.52014152  -0.02285876  1.0
  S  S14  1  0.56585743  0.08599895  0.47714124  1.0
  S  S15  1  0.52014152  0.43414257  0.47714124  1.0
  S  S16  1  0.33333333  0.66666667  0.49607178  1.0
  S  S17  1  0.66666667  0.33333333  -0.00392822  1.0
  S  S18  1  0.09476354  0.87482802  0.30226107  1.0
  S  S19  1  0.87482802  0.78006448  0.80226107  1.0
  S  S20  1  0.78006448  0.90523646  0.30226107  1.0
  S  S21  1  0.12517198  0.21993552  0.30226107  1.0
  S  S22  1  0.90523646  0.12517198  0.80226107  1.0
  S  S23  1  0.21993552  0.09476354  0.80226107  1.0
