# generated using pymatgen
data_Ni5(Mo3C)4
_symmetry_space_group_name_H-M   'P 1'
_cell_length_a   10.17183221
_cell_length_b   10.17183221
_cell_length_c   10.17183221
_cell_angle_alpha   60.00000000
_cell_angle_beta   60.00000000
_cell_angle_gamma   60.00000000
_symmetry_Int_Tables_number   1
_chemical_formula_structural   Ni5(Mo3C)4
_chemical_formula_sum   'Ni10 Mo24 C8'
_cell_volume   744.18783175
_cell_formula_units_Z   2
loop_
 _symmetry_equiv_pos_site_id
 _symmetry_equiv_pos_as_xyz
  1  'x, y, z'
loop_
 _atom_site_type_symbol
 _atom_site_label
 _atom_site_symmetry_multiplicity
 _atom_site_fract_x
 _atom_site_fract_y
 _atom_site_fract_z
 _atom_site_occupancy
  Ni  Ni0  1  0.66663512  -0.33336488  1.00009465  1.0
  Ni  Ni1  1  0.66663512  0.00009465  0.66663512  1.0
  Ni  Ni2  1  0.58336488  -0.41663512  0.58336488  1.0
  Ni  Ni3  1  1.24990535  -0.41663512  0.58336488  1.0
  Ni  Ni4  1  1.00009465  -0.33336488  0.66663512  1.0
  Ni  Ni5  1  0.66663512  -0.33336488  0.66663512  1.0
  Ni  Ni6  1  0.58336488  0.24990535  0.58336488  1.0
  Ni  Ni7  1  0.58336488  -0.41663512  1.24990535  1.0
  Ni  Ni8  1  0.50000000  0.50000000  -0.50000000  1.0
  Ni  Ni9  1  0.75000000  -0.25000000  0.75000000  1.0
  Mo  Mo10  1  0.96950991  -0.59039411  0.65137429  1.0
  Mo  Mo11  1  -0.03049009  0.65137429  0.40960589  1.0
  Mo  Mo12  1  -0.15960589  0.28049009  0.28049009  1.0
  Mo  Mo13  1  0.59862571  0.28049009  0.28049009  1.0
  Mo  Mo14  1  -0.59039411  0.96950991  0.65137429  1.0
  Mo  Mo15  1  0.96950991  -0.03049009  0.65137429  1.0
  Mo  Mo16  1  0.96950991  -0.34862571  0.96950991  1.0
  Mo  Mo17  1  -0.59039411  0.65137429  0.96950991  1.0
  Mo  Mo18  1  0.28049009  -0.15960589  0.28049009  1.0
  Mo  Mo19  1  0.28049009  0.28049009  -0.15960589  1.0
  Mo  Mo20  1  0.59862571  0.28049009  -0.15960589  1.0
  Mo  Mo21  1  0.59862571  -0.15960589  0.28049009  1.0
  Mo  Mo22  1  0.65137429  -0.03049009  0.96950991  1.0
  Mo  Mo23  1  -0.59039411  0.96950991  0.96950991  1.0
  Mo  Mo24  1  0.28049009  0.59862571  -0.15960589  1.0
  Mo  Mo25  1  0.28049009  -0.15960589  0.59862571  1.0
  Mo  Mo26  1  -0.34862571  0.96950991  0.40960589  1.0
  Mo  Mo27  1  0.65137429  -0.59039411  0.96950991  1.0
  Mo  Mo28  1  0.96950991  -0.59039411  0.96950991  1.0
  Mo  Mo29  1  -0.03049009  0.96950991  0.40960589  1.0
  Mo  Mo30  1  0.28049009  0.59862571  0.28049009  1.0
  Mo  Mo31  1  -0.15960589  0.59862571  0.28049009  1.0
  Mo  Mo32  1  -0.15960589  0.28049009  0.59862571  1.0
  Mo  Mo33  1  0.28049009  0.28049009  0.59862571  1.0
  C  C34  1  -0.16824469  0.83175531  0.50473407  1.0
  C  C35  1  0.83175531  -0.49526593  0.83175531  1.0
  C  C36  1  0.41824469  0.41824469  0.41824469  1.0
  C  C37  1  -0.25473407  0.41824469  0.41824469  1.0
  C  C38  1  -0.49526593  0.83175531  0.83175531  1.0
  C  C39  1  0.83175531  -0.16824469  0.83175531  1.0
  C  C40  1  0.41824469  -0.25473407  0.41824469  1.0
  C  C41  1  0.41824469  0.41824469  -0.25473407  1.0
