# generated using pymatgen
data_Na2Lu2B2TeO10
_symmetry_space_group_name_H-M   'P 1'
_cell_length_a   6.33074750
_cell_length_b   10.00641681
_cell_length_c   6.75072908
_cell_angle_alpha   90.00000000
_cell_angle_beta   103.22000529
_cell_angle_gamma   90.00000000
_symmetry_Int_Tables_number   1
_chemical_formula_structural   Na2Lu2B2TeO10
_chemical_formula_sum   'Na4 Lu4 B4 Te2 O20'
_cell_volume   416.31285452
_cell_formula_units_Z   2
loop_
 _symmetry_equiv_pos_site_id
 _symmetry_equiv_pos_as_xyz
  1  'x, y, z'
loop_
 _atom_site_type_symbol
 _atom_site_label
 _atom_site_symmetry_multiplicity
 _atom_site_fract_x
 _atom_site_fract_y
 _atom_site_fract_z
 _atom_site_occupancy
  Na  Na0  1  0.58265406  0.11410930  0.17098341  1.0
  Na  Na1  1  0.58265406  0.38589070  0.67098341  1.0
  Na  Na2  1  0.41734594  0.61410930  0.32901659  1.0
  Na  Na3  1  0.41734594  0.88589070  0.82901659  1.0
  Lu  Lu4  1  0.87240315  0.83492534  0.47732833  1.0
  Lu  Lu5  1  0.87240315  0.66507466  0.97732833  1.0
  Lu  Lu6  1  0.12759685  0.33492534  0.02267167  1.0
  Lu  Lu7  1  0.12759685  0.16507466  0.52267167  1.0
  B  B8  1  0.66185463  0.40118572  0.12737097  1.0
  B  B9  1  0.66185463  0.09881428  0.62737097  1.0
  B  B10  1  0.33814537  0.90118572  0.37262903  1.0
  B  B11  1  0.33814537  0.59881428  0.87262903  1.0
  Te  Te12  1  -0.00000000  0.50000000  0.50000000  1.0
  Te  Te13  1  0.00000000  0.00000000  0.00000000  1.0
  O  O14  1  0.99544490  0.15620840  0.18125654  1.0
  O  O15  1  0.99544490  0.34379160  0.68125654  1.0
  O  O16  1  0.00455510  0.65620840  0.31874346  1.0
  O  O17  1  0.00455510  0.84379160  0.81874346  1.0
  O  O18  1  0.83005879  0.87987362  0.13755437  1.0
  O  O19  1  0.83005879  0.62012638  0.63755437  1.0
  O  O20  1  0.16994121  0.37987362  0.36244563  1.0
  O  O21  1  0.16994121  0.12012638  0.86244563  1.0
  O  O22  1  0.80615287  0.43909982  0.01302683  1.0
  O  O23  1  0.80615287  0.06090018  0.51302683  1.0
  O  O24  1  0.19384713  0.93909982  0.48697317  1.0
  O  O25  1  0.19384713  0.56090018  0.98697317  1.0
  O  O26  1  0.70141008  0.43564978  0.33679545  1.0
  O  O27  1  0.70141008  0.06435022  0.83679545  1.0
  O  O28  1  0.29858992  0.93564978  0.16320455  1.0
  O  O29  1  0.29858992  0.56435022  0.66320455  1.0
  O  O30  1  0.47772767  0.33157837  0.05019106  1.0
  O  O31  1  0.47772767  0.16842163  0.55019106  1.0
  O  O32  1  0.52227233  0.83157837  0.44980894  1.0
  O  O33  1  0.52227233  0.66842163  0.94980894  1.0
