# generated using pymatgen
data_Ce2Ta2O9
_symmetry_space_group_name_H-M   'P 1'
_cell_length_a   6.50456575
_cell_length_b   3.85854297
_cell_length_c   15.86783464
_cell_angle_alpha   90.00000000
_cell_angle_beta   115.43493934
_cell_angle_gamma   90.00000000
_symmetry_Int_Tables_number   1
_chemical_formula_structural   Ce2Ta2O9
_chemical_formula_sum   'Ce4 Ta4 O18'
_cell_volume   359.65196824
_cell_formula_units_Z   2
loop_
 _symmetry_equiv_pos_site_id
 _symmetry_equiv_pos_as_xyz
  1  'x, y, z'
loop_
 _atom_site_type_symbol
 _atom_site_label
 _atom_site_symmetry_multiplicity
 _atom_site_fract_x
 _atom_site_fract_y
 _atom_site_fract_z
 _atom_site_occupancy
  Ce  Ce0  1  0.73106193  0.49979149  0.21703820  1.0
  Ce  Ce1  1  0.73106193  0.00020851  0.71703820  1.0
  Ce  Ce2  1  0.26893807  0.99979149  0.28296180  1.0
  Ce  Ce3  1  0.26893807  0.50020851  0.78296180  1.0
  Ta  Ta4  1  0.67899048  0.49970858  0.45891892  1.0
  Ta  Ta5  1  0.67899048  0.00029142  0.95891892  1.0
  Ta  Ta6  1  0.32100952  0.99970858  0.04108108  1.0
  Ta  Ta7  1  0.32100952  0.50029142  0.54108108  1.0
  O  O8  1  0.91375428  0.99967625  0.28264920  1.0
  O  O9  1  0.91375428  0.50032375  0.78264920  1.0
  O  O10  1  0.08624572  0.49967625  0.21735080  1.0
  O  O11  1  0.08624572  0.00032375  0.71735080  1.0
  O  O12  1  0.63300946  -0.00018165  0.44006042  1.0
  O  O13  1  0.63300946  0.50018165  0.94006042  1.0
  O  O14  1  0.36699054  0.49981835  0.05993958  1.0
  O  O15  1  0.36699054  1.00018165  0.55993958  1.0
  O  O16  1  0.56590690  0.49988413  0.31877146  1.0
  O  O17  1  0.56590690  0.00011587  0.81877146  1.0
  O  O18  1  0.43409310  0.99988413  0.18122854  1.0
  O  O19  1  0.43409310  0.50011587  0.68122854  1.0
  O  O20  1  0.32140414  0.49981125  0.41790754  1.0
  O  O21  1  0.32140414  0.00018875  0.91790754  1.0
  O  O22  1  0.67859586  0.99981125  0.08209246  1.0
  O  O23  1  0.67859586  0.50018875  0.58209246  1.0
  O  O24  1  -0.00000000  0.50000000  0.50000000  1.0
  O  O25  1  0.00000000  0.00000000  0.00000000  1.0
