# generated using pymatgen
data_La3Ge5
_symmetry_space_group_name_H-M   'P 1'
_cell_length_a   11.64993982
_cell_length_b   7.83352840
_cell_length_c   9.64593751
_cell_angle_alpha   82.89690598
_cell_angle_beta   41.85507772
_cell_angle_gamma   55.24801629
_symmetry_Int_Tables_number   1
_chemical_formula_structural   La3Ge5
_chemical_formula_sum   'La6 Ge10'
_cell_volume   403.40246107
_cell_formula_units_Z   2
loop_
 _symmetry_equiv_pos_site_id
 _symmetry_equiv_pos_as_xyz
  1  'x, y, z'
loop_
 _atom_site_type_symbol
 _atom_site_label
 _atom_site_symmetry_multiplicity
 _atom_site_fract_x
 _atom_site_fract_y
 _atom_site_fract_z
 _atom_site_occupancy
  La  La0  1  1.36273018  0.02270788  0.47445202  1.0
  La  La1  1  1.77554798  0.10989008  -0.11273018  1.0
  La  La2  1  1.02270788  0.36273018  0.14010992  1.0
  La  La3  1  1.10989008  0.77554798  0.22729212  1.0
  La  La4  1  1.44862848  0.44862848  -0.44862848  1.0
  La  La5  1  0.69862848  0.69862848  0.80137152  1.0
  Ge  Ge6  1  1.21793002  0.50594323  0.45769131  1.0
  Ge  Ge7  1  0.79230869  0.43156456  1.03206998  1.0
  Ge  Ge8  1  1.50594323  0.21793002  -0.18156456  1.0
  Ge  Ge9  1  0.43156456  0.79230869  0.74405677  1.0
  Ge  Ge10  1  0.73987619  0.33359328  0.61168354  1.0
  Ge  Ge11  1  0.63831646  0.93515302  0.51012381  1.0
  Ge  Ge12  1  1.33359328  -0.26012381  0.31484698  1.0
  Ge  Ge13  1  0.93515302  0.63831646  0.91640672  1.0
  Ge  Ge14  1  1.01009073  0.01009073  -0.01009073  1.0
  Ge  Ge15  1  1.26009073  0.26009073  0.23990927  1.0
