# generated using pymatgen
data_CaVO3
_symmetry_space_group_name_H-M   'P 1'
_cell_length_a   5.37080285
_cell_length_b   7.55911855
_cell_length_c   5.32537198
_cell_angle_alpha   90.00000000
_cell_angle_beta   90.00000000
_cell_angle_gamma   90.00000000
_symmetry_Int_Tables_number   1
_chemical_formula_structural   CaVO3
_chemical_formula_sum   'Ca4 V4 O12'
_cell_volume   216.20230299
_cell_formula_units_Z   4
loop_
 _symmetry_equiv_pos_site_id
 _symmetry_equiv_pos_as_xyz
  1  'x, y, z'
loop_
 _atom_site_type_symbol
 _atom_site_label
 _atom_site_symmetry_multiplicity
 _atom_site_fract_x
 _atom_site_fract_y
 _atom_site_fract_z
 _atom_site_occupancy
  Ca  Ca0  1  0.03325039  0.25000000  0.50502247  1.0
  Ca  Ca1  1  0.53325039  0.25000000  0.99497753  1.0
  Ca  Ca2  1  0.96674961  0.75000000  0.49497753  1.0
  Ca  Ca3  1  0.46674961  0.75000000  0.00502247  1.0
  V  V4  1  0.50000000  0.50000000  0.50000000  1.0
  V  V5  1  0.50000000  0.00000000  0.50000000  1.0
  V  V6  1  0.00000000  0.50000000  0.00000000  1.0
  V  V7  1  0.00000000  0.00000000  0.00000000  1.0
  O  O8  1  0.28454425  0.47008679  0.78517882  1.0
  O  O9  1  0.28454425  0.02991321  0.78517882  1.0
  O  O10  1  0.78454425  0.47008679  0.71482118  1.0
  O  O11  1  0.78454425  0.02991321  0.71482118  1.0
  O  O12  1  0.71545575  0.97008679  0.21482118  1.0
  O  O13  1  0.71545575  0.52991321  0.21482118  1.0
  O  O14  1  0.21545575  0.97008679  0.28517882  1.0
  O  O15  1  0.21545575  0.52991321  0.28517882  1.0
  O  O16  1  -0.01007311  0.25000000  0.05766555  1.0
  O  O17  1  0.48992689  0.25000000  0.44233445  1.0
  O  O18  1  1.01007311  0.75000000  0.94233445  1.0
  O  O19  1  0.51007311  0.75000000  0.55766555  1.0
