# generated using pymatgen
data_Ba3GaSe4Cl
_symmetry_space_group_name_H-M   'P 1'
_cell_length_a   12.95941241
_cell_length_b   9.95433720
_cell_length_c   8.84996200
_cell_angle_alpha   90.00000000
_cell_angle_beta   90.00000000
_cell_angle_gamma   90.00000000
_symmetry_Int_Tables_number   1
_chemical_formula_structural   Ba3GaSe4Cl
_chemical_formula_sum   'Ba12 Ga4 Se16 Cl4'
_cell_volume   1141.66599186
_cell_formula_units_Z   4
loop_
 _symmetry_equiv_pos_site_id
 _symmetry_equiv_pos_as_xyz
  1  'x, y, z'
loop_
 _atom_site_type_symbol
 _atom_site_label
 _atom_site_symmetry_multiplicity
 _atom_site_fract_x
 _atom_site_fract_y
 _atom_site_fract_z
 _atom_site_occupancy
  Ba  Ba0  1  0.67059208  0.47871964  0.07492519  1.0
  Ba  Ba1  1  0.67059208  0.02128036  0.07492519  1.0
  Ba  Ba2  1  0.17059208  0.47871964  0.42507481  1.0
  Ba  Ba3  1  0.17059208  0.02128036  0.42507481  1.0
  Ba  Ba4  1  0.32940792  0.97871964  0.92507481  1.0
  Ba  Ba5  1  0.32940792  0.52128036  0.92507481  1.0
  Ba  Ba6  1  0.82940792  0.97871964  0.57492519  1.0
  Ba  Ba7  1  0.82940792  0.52128036  0.57492519  1.0
  Ba  Ba8  1  0.50650852  0.25000000  0.57790370  1.0
  Ba  Ba9  1  0.00650852  0.25000000  0.92209630  1.0
  Ba  Ba10  1  0.49349148  0.75000000  0.42209630  1.0
  Ba  Ba11  1  0.99349148  0.75000000  0.07790370  1.0
  Ga  Ga12  1  0.88865774  0.25000000  0.31404355  1.0
  Ga  Ga13  1  0.38865774  0.25000000  0.18595645  1.0
  Ga  Ga14  1  0.11134226  0.75000000  0.68595645  1.0
  Ga  Ga15  1  0.61134226  0.75000000  0.81404355  1.0
  Se  Se16  1  0.92188548  0.45836596  0.18872786  1.0
  Se  Se17  1  0.92188548  0.04163404  0.18872786  1.0
  Se  Se18  1  0.42188548  0.45836596  0.31127214  1.0
  Se  Se19  1  0.42188548  0.04163404  0.31127214  1.0
  Se  Se20  1  0.07811452  0.95836596  0.81127214  1.0
  Se  Se21  1  0.07811452  0.54163404  0.81127214  1.0
  Se  Se22  1  0.57811452  0.95836596  0.68872786  1.0
  Se  Se23  1  0.57811452  0.54163404  0.68872786  1.0
  Se  Se24  1  0.99146314  0.25000000  0.54241721  1.0
  Se  Se25  1  0.49146314  0.25000000  0.95758279  1.0
  Se  Se26  1  0.00853686  0.75000000  0.45758279  1.0
  Se  Se27  1  0.50853686  0.75000000  0.04241721  1.0
  Se  Se28  1  0.70475118  0.25000000  0.36135748  1.0
  Se  Se29  1  0.20475118  0.25000000  0.13864252  1.0
  Se  Se30  1  0.29524882  0.75000000  0.63864252  1.0
  Se  Se31  1  0.79524882  0.75000000  0.86135748  1.0
  Cl  Cl32  1  0.77121773  0.25000000  0.84679233  1.0
  Cl  Cl33  1  0.27121773  0.25000000  0.65320767  1.0
  Cl  Cl34  1  0.22878227  0.75000000  0.15320767  1.0
  Cl  Cl35  1  0.72878227  0.75000000  0.34679233  1.0
