# generated using pymatgen
data_ZnS
_symmetry_space_group_name_H-M   'P 1'
_cell_length_a   3.84985252
_cell_length_b   3.84985252
_cell_length_c   62.92074845
_cell_angle_alpha   90.00000000
_cell_angle_beta   90.00000000
_cell_angle_gamma   120.00000000
_symmetry_Int_Tables_number   1
_chemical_formula_structural   ZnS
_chemical_formula_sum   'Zn20 S20'
_cell_volume   807.63047159
_cell_formula_units_Z   20
loop_
 _symmetry_equiv_pos_site_id
 _symmetry_equiv_pos_as_xyz
  1  'x, y, z'
loop_
 _atom_site_type_symbol
 _atom_site_label
 _atom_site_symmetry_multiplicity
 _atom_site_fract_x
 _atom_site_fract_y
 _atom_site_fract_z
 _atom_site_occupancy
  Zn  Zn0  1  0.00000000  0.00000000  0.01249708  1.0
  Zn  Zn1  1  -0.00000000  -0.00000000  0.21250826  1.0
  Zn  Zn2  1  -0.00000000  -0.00000000  0.36249718  1.0
  Zn  Zn3  1  0.00000000  0.00000000  0.56250877  1.0
  Zn  Zn4  1  -0.00000000  -0.00000000  0.71250413  1.0
  Zn  Zn5  1  0.00000000  0.00000000  0.86250357  1.0
  Zn  Zn6  1  0.66666667  0.33333333  0.11250965  1.0
  Zn  Zn7  1  0.66666667  0.33333333  0.26250461  1.0
  Zn  Zn8  1  0.66666667  0.33333333  0.41246914  1.0
  Zn  Zn9  1  0.66666667  0.33333333  0.51254331  1.0
  Zn  Zn10  1  0.66666667  0.33333333  0.66250432  1.0
  Zn  Zn11  1  0.66666667  0.33333333  0.81246931  1.0
  Zn  Zn12  1  0.66666667  0.33333333  0.91253634  1.0
  Zn  Zn13  1  0.33333333  0.66666667  0.06250847  1.0
  Zn  Zn14  1  0.33333333  0.66666667  0.16254237  1.0
  Zn  Zn15  1  0.33333333  0.66666667  0.31250378  1.0
  Zn  Zn16  1  0.33333333  0.66666667  0.46250435  1.0
  Zn  Zn17  1  0.33333333  0.66666667  0.61250369  1.0
  Zn  Zn18  1  0.33333333  0.66666667  0.76249745  1.0
  Zn  Zn19  1  0.33333333  0.66666667  0.96247359  1.0
  S  S20  1  0.00000000  0.00000000  0.05002950  1.0
  S  S21  1  -0.00000000  -0.00000000  0.24999704  1.0
  S  S22  1  -0.00000000  -0.00000000  0.39997994  1.0
  S  S23  1  0.00000000  0.00000000  0.59999733  1.0
  S  S24  1  -0.00000000  -0.00000000  0.74999394  1.0
  S  S25  1  0.00000000  0.00000000  0.90004317  1.0
  S  S26  1  0.66666667  0.33333333  0.15004755  1.0
  S  S27  1  0.66666667  0.33333333  0.29999600  1.0
  S  S28  1  0.66666667  0.33333333  0.44994349  1.0
  S  S29  1  0.66666667  0.33333333  0.55001315  1.0
  S  S30  1  0.66666667  0.33333333  0.69999615  1.0
  S  S31  1  0.66666667  0.33333333  0.84994365  1.0
  S  S32  1  0.66666667  0.33333333  0.94999785  1.0
  S  S33  1  0.33333333  0.66666667  -0.00005677  1.0
  S  S34  1  0.33333333  0.66666667  0.09996168  1.0
  S  S35  1  0.33333333  0.66666667  0.20001227  1.0
  S  S36  1  0.33333333  0.66666667  0.34999379  1.0
  S  S37  1  0.33333333  0.66666667  0.50004534  1.0
  S  S38  1  0.33333333  0.66666667  0.64999544  1.0
  S  S39  1  0.33333333  0.66666667  0.79998013  1.0
