# generated using pymatgen
data_CaGe3
_symmetry_space_group_name_H-M   'P 1'
_cell_length_a   7.87233918
_cell_length_b   7.87233918
_cell_length_c   7.87233918
_cell_angle_alpha   121.10748709
_cell_angle_beta   121.10748709
_cell_angle_gamma   88.09224620
_symmetry_Int_Tables_number   1
_chemical_formula_structural   CaGe3
_chemical_formula_sum   'Ca4 Ge12'
_cell_volume   339.00305695
_cell_formula_units_Z   4
loop_
 _symmetry_equiv_pos_site_id
 _symmetry_equiv_pos_as_xyz
  1  'x, y, z'
loop_
 _atom_site_type_symbol
 _atom_site_label
 _atom_site_symmetry_multiplicity
 _atom_site_fract_x
 _atom_site_fract_y
 _atom_site_fract_z
 _atom_site_occupancy
  Ca  Ca0  1  0.83420990  0.83420990  1.00000000  1.0
  Ca  Ca1  1  0.16579010  0.16579010  -0.00000000  1.0
  Ca  Ca2  1  0.25000000  0.75000000  0.50000000  1.0
  Ca  Ca3  1  0.75000000  0.25000000  0.50000000  1.0
  Ge  Ge4  1  0.56600694  0.56600694  0.36616140  1.0
  Ge  Ge5  1  0.80015446  0.80015446  1.36616140  1.0
  Ge  Ge6  1  1.19984554  0.56600694  1.00000000  1.0
  Ge  Ge7  1  0.43399306  0.80015446  1.00000000  1.0
  Ge  Ge8  1  0.56600694  1.19984554  1.00000000  1.0
  Ge  Ge9  1  0.80015446  0.43399306  1.00000000  1.0
  Ge  Ge10  1  1.19984554  1.19984554  1.63383860  1.0
  Ge  Ge11  1  0.43399306  0.43399306  0.63383860  1.0
  Ge  Ge12  1  0.00000000  0.66820225  0.66820225  1.0
  Ge  Ge13  1  0.66820225  -0.00000000  0.66820225  1.0
  Ge  Ge14  1  0.33179775  -0.00000000  0.33179775  1.0
  Ge  Ge15  1  0.00000000  0.33179775  0.33179775  1.0
