# generated using pymatgen
data_Ba2In13Ir4
_symmetry_space_group_name_H-M   'P 1'
_cell_length_a   14.88961483
_cell_length_b   14.88961483
_cell_length_c   13.89244474
_cell_angle_alpha   90.00000000
_cell_angle_beta   90.00000000
_cell_angle_gamma   162.42418159
_symmetry_Int_Tables_number   1
_chemical_formula_structural   Ba2In13Ir4
_chemical_formula_sum   'Ba4 In26 Ir8'
_cell_volume   930.04917219
_cell_formula_units_Z   2
loop_
 _symmetry_equiv_pos_site_id
 _symmetry_equiv_pos_as_xyz
  1  'x, y, z'
loop_
 _atom_site_type_symbol
 _atom_site_label
 _atom_site_symmetry_multiplicity
 _atom_site_fract_x
 _atom_site_fract_y
 _atom_site_fract_z
 _atom_site_occupancy
  Ba  Ba0  1  -0.96022137  0.96022137  0.17703431  1.0
  Ba  Ba1  1  -0.03977863  1.03977863  0.67703431  1.0
  Ba  Ba2  1  -0.75221399  0.75221399  0.50111296  1.0
  Ba  Ba3  1  -0.24778601  1.24778601  1.00111296  1.0
  In  In4  1  -0.99701847  0.99701847  0.43043671  1.0
  In  In5  1  -0.00298153  1.00298153  0.93043671  1.0
  In  In6  1  -0.88510217  0.88510217  0.67708892  1.0
  In  In7  1  -0.11489783  1.11489783  0.17708892  1.0
  In  In8  1  -0.85333770  0.85333770  0.34136358  1.0
  In  In9  1  -0.14666230  1.14666230  0.84136358  1.0
  In  In10  1  -0.84378120  0.84378120  0.99802701  1.0
  In  In11  1  -0.15621880  1.15621880  0.49802701  1.0
  In  In12  1  -0.71558978  0.71558978  0.19516962  1.0
  In  In13  1  -0.28441022  1.28441022  0.69516962  1.0
  In  In14  1  -0.65125820  0.65125820  0.01314806  1.0
  In  In15  1  -0.34874180  1.34874180  0.51314806  1.0
  In  In16  1  -0.64011481  0.64011481  0.34379138  1.0
  In  In17  1  -0.35988519  1.35988519  0.84379138  1.0
  In  In18  1  -0.56790092  0.56790092  0.49995103  1.0
  In  In19  1  -0.43209908  1.43209908  -0.00004897  1.0
  In  In20  1  -0.54540775  0.54540775  0.07387033  1.0
  In  In21  1  -0.45459225  1.45459225  0.57387033  1.0
  In  In22  1  -0.53722726  0.53722726  0.28446454  1.0
  In  In23  1  -0.46277274  1.46277274  0.78446454  1.0
  In  In24  1  -0.42842863  1.42842863  0.35577757  1.0
  In  In25  1  -0.57157137  0.57157137  0.85577757  1.0
  In  In26  1  -0.36254100  1.36254100  0.16236591  1.0
  In  In27  1  -0.63745900  0.63745900  0.66236591  1.0
  In  In28  1  -0.27531061  1.27531061  0.28395114  1.0
  In  In29  1  -0.72468939  0.72468939  0.78395114  1.0
  Ir  Ir30  1  -0.91834489  0.91834489  0.86957084  1.0
  Ir  Ir31  1  -0.08165511  1.08165511  0.36957084  1.0
  Ir  Ir32  1  -0.91134029  0.91134029  0.48969958  1.0
  Ir  Ir33  1  -0.08865971  1.08865971  0.98969958  1.0
  Ir  Ir34  1  -0.81480359  0.81480359  0.80615192  1.0
  Ir  Ir35  1  -0.18519641  1.18519641  0.30615192  1.0
  Ir  Ir36  1  -0.80912534  0.80912534  0.17712456  1.0
  Ir  Ir37  1  -0.19087466  1.19087466  0.67712456  1.0
