# generated using pymatgen
data_Ta2AgF12
_symmetry_space_group_name_H-M   'P 1'
_cell_length_a   5.53713017
_cell_length_b   9.54697118
_cell_length_c   5.72275123
_cell_angle_alpha   103.80264497
_cell_angle_beta   117.25520684
_cell_angle_gamma   88.91804039
_symmetry_Int_Tables_number   1
_chemical_formula_structural   Ta2AgF12
_chemical_formula_sum   'Ta2 Ag1 F12'
_cell_volume   259.73263270
_cell_formula_units_Z   1
loop_
 _symmetry_equiv_pos_site_id
 _symmetry_equiv_pos_as_xyz
  1  'x, y, z'
loop_
 _atom_site_type_symbol
 _atom_site_label
 _atom_site_symmetry_multiplicity
 _atom_site_fract_x
 _atom_site_fract_y
 _atom_site_fract_z
 _atom_site_occupancy
  Ta  Ta0  1  0.77678549  0.26291334  -0.49481183  1.0
  Ta  Ta1  1  0.22321451  0.73708666  -0.50518817  1.0
  Ag  Ag2  1  0.00000000  0.00000000  0.00000000  1.0
  F  F3  1  0.71746709  0.42237282  -0.27379582  1.0
  F  F4  1  0.28253291  0.57762718  -0.72620418  1.0
  F  F5  1  0.79211050  0.36512352  -0.72907941  1.0
  F  F6  1  0.20788950  0.63487648  -0.27092059  1.0
  F  F7  1  0.39216343  0.19590936  -0.71281355  1.0
  F  F8  1  0.60783657  0.80409064  -0.28718645  1.0
  F  F9  1  0.76326131  0.12850989  -0.27476010  1.0
  F  F10  1  0.23673869  0.87149011  -0.72523990  1.0
  F  F11  1  0.81874563  0.08149832  -0.74095834  1.0
  F  F12  1  0.18125437  0.91850168  -0.25904166  1.0
  F  F13  1  0.15775052  0.27645198  -0.27858436  1.0
  F  F14  1  0.84224948  0.72354802  -0.72141564  1.0
