# generated using pymatgen
data_TiAg2(IO3)6
_symmetry_space_group_name_H-M   'P 1'
_cell_length_a   7.47518222
_cell_length_b   7.47518222
_cell_length_c   7.47518222
_cell_angle_alpha   95.23846621
_cell_angle_beta   95.23846621
_cell_angle_gamma   95.23846621
_symmetry_Int_Tables_number   1
_chemical_formula_structural   TiAg2(IO3)6
_chemical_formula_sum   'Ti1 Ag2 I6 O18'
_cell_volume   412.12282558
_cell_formula_units_Z   1
loop_
 _symmetry_equiv_pos_site_id
 _symmetry_equiv_pos_as_xyz
  1  'x, y, z'
loop_
 _atom_site_type_symbol
 _atom_site_label
 _atom_site_symmetry_multiplicity
 _atom_site_fract_x
 _atom_site_fract_y
 _atom_site_fract_z
 _atom_site_occupancy
  Ti  Ti0  1  0.00000000  0.00000000  0.00000000  1.0
  Ag  Ag1  1  0.70437901  0.70437901  0.70437901  1.0
  Ag  Ag2  1  0.29562099  0.29562099  0.29562099  1.0
  I  I3  1  0.83190698  0.62673419  0.22398866  1.0
  I  I4  1  1.37326581  -0.22398866  0.16809302  1.0
  I  I5  1  0.77601134  0.16809302  0.37326581  1.0
  I  I6  1  1.16809302  0.37326581  -0.22398866  1.0
  I  I7  1  0.62673419  1.22398866  -0.16809302  1.0
  I  I8  1  1.22398866  0.83190698  -0.37326581  1.0
  O  O9  1  0.81263485  0.82154086  0.06528533  1.0
  O  O10  1  1.17845914  -0.06528533  0.18736515  1.0
  O  O11  1  0.93471467  0.18736515  0.17845914  1.0
  O  O12  1  1.18736515  0.17845914  -0.06528533  1.0
  O  O13  1  0.82154086  1.06528533  -0.18736515  1.0
  O  O14  1  1.06528533  0.81263485  -0.17845914  1.0
  O  O15  1  0.57690869  0.56491975  0.19011490  1.0
  O  O16  1  1.43508025  -0.19011490  0.42309131  1.0
  O  O17  1  0.80988510  0.42309131  0.43508025  1.0
  O  O18  1  1.42309131  0.43508025  -0.19011490  1.0
  O  O19  1  0.56491975  1.19011490  -0.42309131  1.0
  O  O20  1  1.19011490  0.57690869  -0.43508025  1.0
  O  O21  1  1.43694474  0.86784037  -0.21220081  1.0
  O  O22  1  1.13215963  0.21220081  -0.43694474  1.0
  O  O23  1  1.21220081  -0.43694474  0.13215963  1.0
  O  O24  1  0.56305526  0.13215963  0.21220081  1.0
  O  O25  1  0.86784037  0.78779919  0.43694474  1.0
  O  O26  1  0.78779919  1.43694474  -0.13215963  1.0
