# generated using pymatgen
data_Ti6Ga16Co7
_symmetry_space_group_name_H-M   'P 1'
_cell_length_a   8.34690933
_cell_length_b   8.34690933
_cell_length_c   8.34690933
_cell_angle_alpha   60.00000000
_cell_angle_beta   60.00000000
_cell_angle_gamma   60.00000000
_symmetry_Int_Tables_number   1
_chemical_formula_structural   Ti6Ga16Co7
_chemical_formula_sum   'Ti6 Ga16 Co7'
_cell_volume   411.20850646
_cell_formula_units_Z   1
loop_
 _symmetry_equiv_pos_site_id
 _symmetry_equiv_pos_as_xyz
  1  'x, y, z'
loop_
 _atom_site_type_symbol
 _atom_site_label
 _atom_site_symmetry_multiplicity
 _atom_site_fract_x
 _atom_site_fract_y
 _atom_site_fract_z
 _atom_site_occupancy
  Ti  Ti0  1  0.69519833  0.69519833  -0.69519833  1.0
  Ti  Ti1  1  0.30480167  -0.30480167  1.30480167  1.0
  Ti  Ti2  1  -0.30480167  0.30480167  0.30480167  1.0
  Ti  Ti3  1  0.30480167  1.30480167  -0.30480167  1.0
  Ti  Ti4  1  -0.30480167  0.30480167  0.69519833  1.0
  Ti  Ti5  1  -0.69519833  0.69519833  0.69519833  1.0
  Ga  Ga6  1  0.87862836  0.87862836  -0.63588509  1.0
  Ga  Ga7  1  0.87862836  0.36411491  -0.12137164  1.0
  Ga  Ga8  1  0.36411491  0.87862836  -0.12137164  1.0
  Ga  Ga9  1  0.87862836  0.87862836  -0.12137164  1.0
  Ga  Ga10  1  1.12137164  0.12137164  0.63588509  1.0
  Ga  Ga11  1  1.12137164  0.63588509  0.12137164  1.0
  Ga  Ga12  1  1.63588509  0.12137164  0.12137164  1.0
  Ga  Ga13  1  1.12137164  0.12137164  0.12137164  1.0
  Ga  Ga14  1  0.65373756  0.65373756  0.03878733  1.0
  Ga  Ga15  1  0.65373756  1.03878733  -0.34626244  1.0
  Ga  Ga16  1  1.03878733  0.65373756  -0.34626244  1.0
  Ga  Ga17  1  0.65373756  0.65373756  -0.34626244  1.0
  Ga  Ga18  1  1.34626244  0.34626244  -0.03878733  1.0
  Ga  Ga19  1  1.34626244  -0.03878733  0.34626244  1.0
  Ga  Ga20  1  0.96121267  0.34626244  0.34626244  1.0
  Ga  Ga21  1  1.34626244  0.34626244  0.34626244  1.0
  Co  Co22  1  -0.00000000  0.00000000  0.50000000  1.0
  Co  Co23  1  0.50000000  1.00000000  -0.50000000  1.0
  Co  Co24  1  1.00000000  0.50000000  -0.50000000  1.0
  Co  Co25  1  0.50000000  -0.50000000  1.00000000  1.0
  Co  Co26  1  -0.00000000  1.50000000  0.00000000  1.0
  Co  Co27  1  1.50000000  -0.00000000  0.00000000  1.0
  Co  Co28  1  0.00000000  0.00000000  0.00000000  1.0
