# generated using pymatgen
data_Sr4As3
_symmetry_space_group_name_H-M   'P 1'
_cell_length_a   12.25580698
_cell_length_b   12.92816769
_cell_length_c   11.03174193
_cell_angle_alpha   90.00000000
_cell_angle_beta   90.00000000
_cell_angle_gamma   90.00000000
_symmetry_Int_Tables_number   1
_chemical_formula_structural   Sr4As3
_chemical_formula_sum   'Sr32 As24'
_cell_volume   1747.92575915
_cell_formula_units_Z   8
loop_
 _symmetry_equiv_pos_site_id
 _symmetry_equiv_pos_as_xyz
  1  'x, y, z'
loop_
 _atom_site_type_symbol
 _atom_site_label
 _atom_site_symmetry_multiplicity
 _atom_site_fract_x
 _atom_site_fract_y
 _atom_site_fract_z
 _atom_site_occupancy
  Sr  Sr0  1  0.27352169  0.57656402  0.00000000  1.0
  Sr  Sr1  1  0.77352169  0.92343598  -0.00000000  1.0
  Sr  Sr2  1  0.72647831  0.42343598  0.00000000  1.0
  Sr  Sr3  1  0.22647831  0.07656402  -0.00000000  1.0
  Sr  Sr4  1  0.10215027  0.79387438  0.00000000  1.0
  Sr  Sr5  1  0.60215027  0.70612562  -0.00000000  1.0
  Sr  Sr6  1  0.89784973  0.20612562  0.00000000  1.0
  Sr  Sr7  1  0.39784973  0.29387438  -0.00000000  1.0
  Sr  Sr8  1  0.50000000  0.00000000  0.81621486  1.0
  Sr  Sr9  1  0.50000000  0.00000000  0.18378514  1.0
  Sr  Sr10  1  0.00000000  0.50000000  0.81621486  1.0
  Sr  Sr11  1  0.00000000  0.50000000  0.18378514  1.0
  Sr  Sr12  1  0.12342979  0.63157203  0.50000000  1.0
  Sr  Sr13  1  0.62342979  0.86842797  0.50000000  1.0
  Sr  Sr14  1  0.87657021  0.36842797  0.50000000  1.0
  Sr  Sr15  1  0.37657021  0.13157203  0.50000000  1.0
  Sr  Sr16  1  0.40323739  0.73569045  0.72392399  1.0
  Sr  Sr17  1  0.40323739  0.73569045  0.27607601  1.0
  Sr  Sr18  1  0.90323739  0.76430955  0.72392399  1.0
  Sr  Sr19  1  0.90323739  0.76430955  0.27607601  1.0
  Sr  Sr20  1  0.59676261  0.26430955  0.72392399  1.0
  Sr  Sr21  1  0.59676261  0.26430955  0.27607601  1.0
  Sr  Sr22  1  0.09676261  0.23569045  0.72392399  1.0
  Sr  Sr23  1  0.09676261  0.23569045  0.27607601  1.0
  Sr  Sr24  1  0.17290964  0.93216934  0.67684940  1.0
  Sr  Sr25  1  0.17290964  0.93216934  0.32315060  1.0
  Sr  Sr26  1  0.67290964  0.56783066  0.67684940  1.0
  Sr  Sr27  1  0.67290964  0.56783066  0.32315060  1.0
  Sr  Sr28  1  0.82709036  0.06783066  0.67684940  1.0
  Sr  Sr29  1  0.82709036  0.06783066  0.32315060  1.0
  Sr  Sr30  1  0.32709036  0.43216934  0.67684940  1.0
  Sr  Sr31  1  0.32709036  0.43216934  0.32315060  1.0
  As  As32  1  0.36372777  0.88580571  0.50000000  1.0
  As  As33  1  0.86372777  0.61419429  0.50000000  1.0
  As  As34  1  0.63627223  0.11419429  0.50000000  1.0
  As  As35  1  0.13627223  0.38580571  0.50000000  1.0
  As  As36  1  0.50000000  0.50000000  0.88321141  1.0
  As  As37  1  0.50000000  0.50000000  0.11678859  1.0
  As  As38  1  0.00000000  0.00000000  0.88321141  1.0
  As  As39  1  0.00000000  0.00000000  0.11678859  1.0
  As  As40  1  0.36083697  0.85811679  0.00000000  1.0
  As  As41  1  0.86083697  0.64188321  -0.00000000  1.0
  As  As42  1  0.63916303  0.14188321  0.00000000  1.0
  As  As43  1  0.13916303  0.35811679  -0.00000000  1.0
  As  As44  1  0.16124519  0.67767207  0.76619001  1.0
  As  As45  1  0.16124519  0.67767207  0.23380999  1.0
  As  As46  1  0.66124519  0.82232793  0.76619001  1.0
  As  As47  1  0.66124519  0.82232793  0.23380999  1.0
  As  As48  1  0.83875481  0.32232793  0.76619001  1.0
  As  As49  1  0.83875481  0.32232793  0.23380999  1.0
  As  As50  1  0.33875481  0.17767207  0.76619001  1.0
  As  As51  1  0.33875481  0.17767207  0.23380999  1.0
  As  As52  1  0.46149073  0.59212567  0.50000000  1.0
  As  As53  1  0.96149073  0.90787433  0.50000000  1.0
  As  As54  1  0.53850927  0.40787433  0.50000000  1.0
  As  As55  1  0.03850927  0.09212567  0.50000000  1.0
