# generated using pymatgen
data_Li4Be3As3BrO12
_symmetry_space_group_name_H-M   'P 1'
_cell_length_a   8.41837481
_cell_length_b   8.41837481
_cell_length_c   8.41837481
_cell_angle_alpha   90.00000000
_cell_angle_beta   90.00000000
_cell_angle_gamma   90.00000000
_symmetry_Int_Tables_number   1
_chemical_formula_structural   Li4Be3As3BrO12
_chemical_formula_sum   'Li8 Be6 As6 Br2 O24'
_cell_volume   596.60209499
_cell_formula_units_Z   2
loop_
 _symmetry_equiv_pos_site_id
 _symmetry_equiv_pos_as_xyz
  1  'x, y, z'
loop_
 _atom_site_type_symbol
 _atom_site_label
 _atom_site_symmetry_multiplicity
 _atom_site_fract_x
 _atom_site_fract_y
 _atom_site_fract_z
 _atom_site_occupancy
  Li  Li0  1  0.32162966  0.32162966  0.67837034  1.0
  Li  Li1  1  0.32162966  0.67837034  0.32162966  1.0
  Li  Li2  1  0.82162966  0.82162966  0.17837034  1.0
  Li  Li3  1  0.82162966  0.17837034  0.82162966  1.0
  Li  Li4  1  0.67837034  0.32162966  0.32162966  1.0
  Li  Li5  1  0.67837034  0.67837034  0.67837034  1.0
  Li  Li6  1  0.17837034  0.82162966  0.82162966  1.0
  Li  Li7  1  0.17837034  0.17837034  0.17837034  1.0
  Be  Be8  1  0.25000000  0.00000000  0.50000000  1.0
  Be  Be9  1  0.75000000  0.00000000  0.50000000  1.0
  Be  Be10  1  0.50000000  0.25000000  0.00000000  1.0
  Be  Be11  1  0.50000000  0.75000000  0.00000000  1.0
  Be  Be12  1  0.00000000  0.50000000  0.25000000  1.0
  Be  Be13  1  0.00000000  0.50000000  0.75000000  1.0
  As  As14  1  0.25000000  0.50000000  0.00000000  1.0
  As  As15  1  0.75000000  0.50000000  0.00000000  1.0
  As  As16  1  0.00000000  0.25000000  0.50000000  1.0
  As  As17  1  0.00000000  0.75000000  0.50000000  1.0
  As  As18  1  0.50000000  0.00000000  0.25000000  1.0
  As  As19  1  0.50000000  0.00000000  0.75000000  1.0
  Br  Br20  1  0.50000000  0.50000000  0.50000000  1.0
  Br  Br21  1  0.00000000  0.00000000  0.00000000  1.0
  O  O22  1  0.35574138  0.09270906  0.63579415  1.0
  O  O23  1  0.35574138  0.90729094  0.36420585  1.0
  O  O24  1  0.85574138  0.86420585  0.40729094  1.0
  O  O25  1  0.85574138  0.13579415  0.59270906  1.0
  O  O26  1  0.36420585  0.35574138  0.90729094  1.0
  O  O27  1  0.36420585  0.64425862  0.09270906  1.0
  O  O28  1  0.86420585  0.59270906  0.14425862  1.0
  O  O29  1  0.86420585  0.40729094  0.85574138  1.0
  O  O30  1  0.09270906  0.36420585  0.64425862  1.0
  O  O31  1  0.09270906  0.63579415  0.35574138  1.0
  O  O32  1  0.59270906  0.85574138  0.13579415  1.0
  O  O33  1  0.59270906  0.14425862  0.86420585  1.0
  O  O34  1  0.64425862  0.09270906  0.36420585  1.0
  O  O35  1  0.64425862  0.90729094  0.63579415  1.0
  O  O36  1  0.14425862  0.86420585  0.59270906  1.0
  O  O37  1  0.14425862  0.13579415  0.40729094  1.0
  O  O38  1  0.63579415  0.35574138  0.09270906  1.0
  O  O39  1  0.63579415  0.64425862  0.90729094  1.0
  O  O40  1  0.13579415  0.59270906  0.85574138  1.0
  O  O41  1  0.13579415  0.40729094  0.14425862  1.0
  O  O42  1  0.90729094  0.36420585  0.35574138  1.0
  O  O43  1  0.90729094  0.63579415  0.64425862  1.0
  O  O44  1  0.40729094  0.85574138  0.86420585  1.0
  O  O45  1  0.40729094  0.14425862  0.13579415  1.0
