# generated using pymatgen
data_TiNCl
_symmetry_space_group_name_H-M   'P 1'
_cell_length_a   3.27379325
_cell_length_b   3.95390981
_cell_length_c   8.74089037
_cell_angle_alpha   90.00000000
_cell_angle_beta   90.00000000
_cell_angle_gamma   90.00000000
_symmetry_Int_Tables_number   1
_chemical_formula_structural   TiNCl
_chemical_formula_sum   'Ti2 N2 Cl2'
_cell_volume   113.14456071
_cell_formula_units_Z   2
loop_
 _symmetry_equiv_pos_site_id
 _symmetry_equiv_pos_as_xyz
  1  'x, y, z'
loop_
 _atom_site_type_symbol
 _atom_site_label
 _atom_site_symmetry_multiplicity
 _atom_site_fract_x
 _atom_site_fract_y
 _atom_site_fract_z
 _atom_site_occupancy
  Ti  Ti0  1  0.00000000  0.50000000  0.08810648  1.0
  Ti  Ti1  1  0.50000000  0.00000000  0.91189352  1.0
  N  N2  1  0.00000000  0.00000000  0.04287332  1.0
  N  N3  1  0.50000000  0.50000000  0.95712668  1.0
  Cl  Cl4  1  0.00000000  0.00000000  0.70093299  1.0
  Cl  Cl5  1  0.50000000  0.50000000  0.29906701  1.0
