# generated using pymatgen
data_Mn4Si4SnB2(HO9)2
_symmetry_space_group_name_H-M   'P 1'
_cell_length_a   7.43808002
_cell_length_b   7.73353623
_cell_length_c   7.04744214
_cell_angle_alpha   62.94345981
_cell_angle_beta   76.98540314
_cell_angle_gamma   78.29168981
_symmetry_Int_Tables_number   1
_chemical_formula_structural   Mn4Si4SnB2(HO9)2
_chemical_formula_sum   'Mn4 Si4 Sn1 B2 H2 O18'
_cell_volume   349.38048385
_cell_formula_units_Z   1
loop_
 _symmetry_equiv_pos_site_id
 _symmetry_equiv_pos_as_xyz
  1  'x, y, z'
loop_
 _atom_site_type_symbol
 _atom_site_label
 _atom_site_symmetry_multiplicity
 _atom_site_fract_x
 _atom_site_fract_y
 _atom_site_fract_z
 _atom_site_occupancy
  Mn  Mn0  1  0.70849049  0.73731105  0.95881364  1.0
  Mn  Mn1  1  0.29150951  0.26268895  0.04118636  1.0
  Mn  Mn2  1  0.72030125  0.73577741  0.45706196  1.0
  Mn  Mn3  1  0.27969875  0.26422259  0.54293804  1.0
  Si  Si4  1  0.32511504  0.77795146  0.75323350  1.0
  Si  Si5  1  0.67488496  0.22204854  0.24676650  1.0
  Si  Si6  1  0.67234150  0.24234504  0.68384073  1.0
  Si  Si7  1  0.32765850  0.75765496  0.31615927  1.0
  Sn  Sn8  1  0.00000000  0.00000000  0.00000000  1.0
  B  B9  1  0.87500343  0.43121803  0.82181018  1.0
  B  B10  1  0.12499657  0.56878197  0.17818982  1.0
  H  H11  1  0.95466311  0.33948614  0.32890691  1.0
  H  H12  1  0.04533689  0.66051386  0.67109309  1.0
  O  O13  1  0.25249050  0.58974354  0.97510584  1.0
  O  O14  1  0.74750950  0.41025646  0.02489416  1.0
  O  O15  1  0.77705811  0.03442124  0.84399582  1.0
  O  O16  1  0.22294189  0.96557876  0.15600418  1.0
  O  O17  1  0.19662990  0.98084176  0.74609321  1.0
  O  O18  1  0.80337010  0.01915824  0.25390679  1.0
  O  O19  1  0.54505478  0.79208757  0.71779391  1.0
  O  O20  1  0.45494522  0.20791243  0.28220609  1.0
  O  O21  1  0.91311637  0.63938640  0.71949166  1.0
  O  O22  1  0.08688363  0.36061360  0.28050834  1.0
  O  O23  1  0.76895753  0.42377107  0.66873229  1.0
  O  O24  1  0.23104247  0.57622893  0.33126771  1.0
  O  O25  1  0.27226091  0.73625905  0.56442603  1.0
  O  O26  1  0.72773909  0.26374095  0.43557397  1.0
  O  O27  1  0.55157536  0.73402819  0.25035190  1.0
  O  O28  1  0.44842464  0.26597181  0.74964810  1.0
  O  O29  1  0.95821309  0.70799134  0.14601488  1.0
  O  O30  1  0.04178691  0.29200866  0.85398512  1.0
