# generated using pymatgen
data_Ta4Ni2C
_symmetry_space_group_name_H-M   'P 1'
_cell_length_a   8.24961679
_cell_length_b   8.24961679
_cell_length_c   8.24961679
_cell_angle_alpha   60.00000000
_cell_angle_beta   60.00000000
_cell_angle_gamma   60.00000000
_symmetry_Int_Tables_number   1
_chemical_formula_structural   Ta4Ni2C
_chemical_formula_sum   'Ta16 Ni8 C4'
_cell_volume   396.99618040
_cell_formula_units_Z   4
loop_
 _symmetry_equiv_pos_site_id
 _symmetry_equiv_pos_as_xyz
  1  'x, y, z'
loop_
 _atom_site_type_symbol
 _atom_site_label
 _atom_site_symmetry_multiplicity
 _atom_site_fract_x
 _atom_site_fract_y
 _atom_site_fract_z
 _atom_site_occupancy
  Ta  Ta0  1  1.12500000  0.62500000  0.62500000  1.0
  Ta  Ta1  1  0.62500000  1.12500000  -0.37500000  1.0
  Ta  Ta2  1  -0.37500000  0.62500000  1.12500000  1.0
  Ta  Ta3  1  -0.37500000  0.62500000  0.62500000  1.0
  Ta  Ta4  1  0.81675164  0.81675164  -0.81675164  1.0
  Ta  Ta5  1  0.18324836  1.18324836  -0.18324836  1.0
  Ta  Ta6  1  0.81675164  -0.81675164  0.81675164  1.0
  Ta  Ta7  1  0.18324836  -0.18324836  0.18324836  1.0
  Ta  Ta8  1  -0.81675164  0.81675164  0.81675164  1.0
  Ta  Ta9  1  -0.18324836  0.18324836  0.18324836  1.0
  Ta  Ta10  1  0.43324836  1.43324836  0.06675164  1.0
  Ta  Ta11  1  0.06675164  0.06675164  0.43324836  1.0
  Ta  Ta12  1  0.43324836  1.06675164  0.43324836  1.0
  Ta  Ta13  1  0.06675164  1.43324836  0.06675164  1.0
  Ta  Ta14  1  0.06675164  1.43324836  0.43324836  1.0
  Ta  Ta15  1  0.43324836  1.06675164  0.06675164  1.0
  Ni  Ni16  1  -0.25800392  0.41933464  0.41933464  1.0
  Ni  Ni17  1  0.41933464  -0.25800392  0.41933464  1.0
  Ni  Ni18  1  0.41933464  1.41933464  -0.25800392  1.0
  Ni  Ni19  1  0.41933464  1.41933464  0.41933464  1.0
  Ni  Ni20  1  0.50800392  0.83066536  -0.16933464  1.0
  Ni  Ni21  1  0.83066536  0.50800392  0.83066536  1.0
  Ni  Ni22  1  0.83066536  0.83066536  -0.49199608  1.0
  Ni  Ni23  1  0.83066536  0.83066536  0.83066536  1.0
  C  C24  1  0.62500000  1.12500000  0.12500000  1.0
  C  C25  1  0.12500000  1.62500000  0.12500000  1.0
  C  C26  1  0.12500000  0.12500000  1.62500000  1.0
  C  C27  1  0.12500000  0.12500000  0.12500000  1.0
