# generated using pymatgen
data_Na2Ca(AsO3)4
_symmetry_space_group_name_H-M   'P 1'
_cell_length_a   10.18545460
_cell_length_b   10.18545460
_cell_length_c   5.25274412
_cell_angle_alpha   90.00000000
_cell_angle_beta   90.00000000
_cell_angle_gamma   90.00000000
_symmetry_Int_Tables_number   1
_chemical_formula_structural   Na2Ca(AsO3)4
_chemical_formula_sum   'Na4 Ca2 As8 O24'
_cell_volume   544.93798400
_cell_formula_units_Z   2
loop_
 _symmetry_equiv_pos_site_id
 _symmetry_equiv_pos_as_xyz
  1  'x, y, z'
loop_
 _atom_site_type_symbol
 _atom_site_label
 _atom_site_symmetry_multiplicity
 _atom_site_fract_x
 _atom_site_fract_y
 _atom_site_fract_z
 _atom_site_occupancy
  Na  Na0  1  0.25000000  0.25000000  -0.00000000  1.0
  Na  Na1  1  0.75000000  0.25000000  -0.00000000  1.0
  Na  Na2  1  0.25000000  0.75000000  0.00000000  1.0
  Na  Na3  1  0.75000000  0.75000000  -0.00000000  1.0
  Ca  Ca4  1  0.50000000  0.50000000  0.00000000  1.0
  Ca  Ca5  1  0.00000000  0.00000000  0.00000000  1.0
  As  As6  1  0.00000000  0.27274767  0.50000000  1.0
  As  As7  1  0.50000000  0.22725233  0.50000000  1.0
  As  As8  1  0.50000000  0.77274767  0.50000000  1.0
  As  As9  1  0.00000000  0.72725233  0.50000000  1.0
  As  As10  1  0.27274767  0.00000000  0.50000000  1.0
  As  As11  1  0.22725233  0.50000000  0.50000000  1.0
  As  As12  1  0.77274767  0.50000000  0.50000000  1.0
  As  As13  1  0.72725233  0.00000000  0.50000000  1.0
  O  O14  1  0.07165167  0.19383252  0.25417690  1.0
  O  O15  1  0.57165167  0.30616748  0.25417690  1.0
  O  O16  1  0.42834833  0.69383252  0.25417690  1.0
  O  O17  1  0.92834833  0.80616748  0.25417690  1.0
  O  O18  1  0.42834833  0.30616748  0.74582310  1.0
  O  O19  1  0.92834833  0.19383252  0.74582310  1.0
  O  O20  1  0.07165167  0.80616748  0.74582310  1.0
  O  O21  1  0.57165167  0.69383252  0.74582310  1.0
  O  O22  1  0.19383252  0.07165167  0.74582310  1.0
  O  O23  1  0.30616748  0.57165167  0.74582310  1.0
  O  O24  1  0.69383252  0.42834833  0.74582310  1.0
  O  O25  1  0.80616748  0.92834833  0.74582310  1.0
  O  O26  1  0.30616748  0.42834833  0.25417690  1.0
  O  O27  1  0.19383252  0.92834833  0.25417690  1.0
  O  O28  1  0.80616748  0.07165167  0.25417690  1.0
  O  O29  1  0.69383252  0.57165167  0.25417690  1.0
  O  O30  1  0.38421007  0.11578993  0.34522556  1.0
  O  O31  1  0.88421007  0.38421007  0.34522556  1.0
  O  O32  1  0.11578993  0.61578993  0.34522556  1.0
  O  O33  1  0.61578993  0.88421007  0.34522556  1.0
  O  O34  1  0.11578993  0.38421007  0.65477444  1.0
  O  O35  1  0.61578993  0.11578993  0.65477444  1.0
  O  O36  1  0.38421007  0.88421007  0.65477444  1.0
  O  O37  1  0.88421007  0.61578993  0.65477444  1.0
