# generated using pymatgen
data_CuP(HO)5
_symmetry_space_group_name_H-M   'P 1'
_cell_length_a   7.15375360
_cell_length_b   7.76536590
_cell_length_c   8.80922007
_cell_angle_alpha   90.00000000
_cell_angle_beta   110.85390553
_cell_angle_gamma   90.00000000
_symmetry_Int_Tables_number   1
_chemical_formula_structural   CuP(HO)5
_chemical_formula_sum   'Cu4 P4 H20 O20'
_cell_volume   457.30775132
_cell_formula_units_Z   4
loop_
 _symmetry_equiv_pos_site_id
 _symmetry_equiv_pos_as_xyz
  1  'x, y, z'
loop_
 _atom_site_type_symbol
 _atom_site_label
 _atom_site_symmetry_multiplicity
 _atom_site_fract_x
 _atom_site_fract_y
 _atom_site_fract_z
 _atom_site_occupancy
  Cu  Cu0  1  0.76712935  0.47762790  0.90203965  1.0
  Cu  Cu1  1  0.76712935  0.02237210  0.40203965  1.0
  Cu  Cu2  1  0.23287065  0.97762790  0.59796035  1.0
  Cu  Cu3  1  0.23287065  0.52237210  0.09796035  1.0
  P  P4  1  0.91032819  0.73460281  0.67261750  1.0
  P  P5  1  0.91032819  0.76539719  0.17261750  1.0
  P  P6  1  0.08967181  0.23460281  0.82738250  1.0
  P  P7  1  0.08967181  0.26539719  0.32738250  1.0
  H  H8  1  0.88331048  0.59368161  0.56630414  1.0
  H  H9  1  0.88331048  0.90631839  0.06630414  1.0
  H  H10  1  0.11668952  0.09368161  0.93369586  1.0
  H  H11  1  0.11668952  0.40631839  0.43369586  1.0
  H  H12  1  0.64170003  0.96174220  0.74304426  1.0
  H  H13  1  0.64170003  0.53825780  0.24304426  1.0
  H  H14  1  0.35829997  0.46174220  0.75695574  1.0
  H  H15  1  0.35829997  0.03825780  0.25695574  1.0
  H  H16  1  0.49530171  0.81007982  0.51837757  1.0
  H  H17  1  0.49530171  0.68992018  0.01837757  1.0
  H  H18  1  0.50469829  0.31007982  0.98162243  1.0
  H  H19  1  0.50469829  0.18992018  0.48162243  1.0
  H  H20  1  0.41329681  0.59748869  0.64572234  1.0
  H  H21  1  0.41329681  0.90251131  0.14572234  1.0
  H  H22  1  0.58670319  0.09748869  0.85427766  1.0
  H  H23  1  0.58670319  0.40251131  0.35427766  1.0
  H  H24  1  0.27511631  0.75168246  0.89709591  1.0
  H  H25  1  0.27511631  0.74831754  0.39709591  1.0
  H  H26  1  0.72488369  0.25168246  0.60290409  1.0
  H  H27  1  0.72488369  0.24831754  0.10290409  1.0
  O  O28  1  0.88522728  0.67334024  0.83060343  1.0
  O  O29  1  0.88522728  0.82665976  0.33060343  1.0
  O  O30  1  0.11477272  0.17334024  0.66939657  1.0
  O  O31  1  0.11477272  0.32665976  0.16939657  1.0
  O  O32  1  0.87300582  0.30335133  0.78526256  1.0
  O  O33  1  0.87300582  0.19664867  0.28526256  1.0
  O  O34  1  0.12699418  0.80335133  0.71473744  1.0
  O  O35  1  0.12699418  0.69664867  0.21473744  1.0
  O  O36  1  0.74719424  0.87193390  0.58538535  1.0
  O  O37  1  0.74719424  0.62806610  0.08538535  1.0
  O  O38  1  0.25280576  0.37193390  0.91461465  1.0
  O  O39  1  0.25280576  0.12806610  0.41461465  1.0
  O  O40  1  0.64278431  0.28071238  0.98702048  1.0
  O  O41  1  0.64278431  0.21928762  0.48702048  1.0
  O  O42  1  0.35721569  0.78071238  0.51297952  1.0
  O  O43  1  0.35721569  0.71928762  0.01297952  1.0
  O  O44  1  0.53999785  0.99152595  0.78969507  1.0
  O  O45  1  0.53999785  0.50847405  0.28969507  1.0
  O  O46  1  0.46000215  0.49152595  0.71030493  1.0
  O  O47  1  0.46000215  0.00847405  0.21030493  1.0
