# generated using pymatgen
data_Rb2MoO4
_symmetry_space_group_name_H-M   'P 1'
_cell_length_a   7.24880181
_cell_length_b   7.24880181
_cell_length_c   7.99600626
_cell_angle_alpha   66.94582008
_cell_angle_beta   113.05417992
_cell_angle_gamma   127.63526639
_symmetry_Int_Tables_number   1
_chemical_formula_structural   Rb2MoO4
_chemical_formula_sum   'Rb4 Mo2 O8'
_cell_volume   299.37280474
_cell_formula_units_Z   2
loop_
 _symmetry_equiv_pos_site_id
 _symmetry_equiv_pos_as_xyz
  1  'x, y, z'
loop_
 _atom_site_type_symbol
 _atom_site_label
 _atom_site_symmetry_multiplicity
 _atom_site_fract_x
 _atom_site_fract_y
 _atom_site_fract_z
 _atom_site_occupancy
  Rb  Rb0  1  0.15653388  -0.15653388  0.74856773  1.0
  Rb  Rb1  1  0.84346612  0.15653388  0.25143227  1.0
  Rb  Rb2  1  0.48653339  -0.48653339  0.76166064  1.0
  Rb  Rb3  1  0.51346661  0.48653339  0.23833936  1.0
  Mo  Mo4  1  0.82357778  0.17642222  0.77389998  1.0
  Mo  Mo5  1  0.17642222  -0.17642222  0.22610002  1.0
  O  O6  1  0.90507289  0.09492711  0.64296229  1.0
  O  O7  1  0.09492711  -0.09492711  0.35703771  1.0
  O  O8  1  0.67337306  0.32662694  0.62700410  1.0
  O  O9  1  0.32662694  -0.32662694  0.37299590  1.0
  O  O10  1  1.08450817  0.37161540  0.91616164  1.0
  O  O11  1  0.62838460  -0.08450817  0.91616164  1.0
  O  O12  1  0.91549183  0.62838460  0.08383836  1.0
  O  O13  1  0.37161540  0.08450817  0.08383836  1.0
