# generated using pymatgen
data_Sr2EuNb(CuO4)2
_symmetry_space_group_name_H-M   'P 1'
_cell_length_a   3.93746228
_cell_length_b   3.93746228
_cell_length_c   11.72857304
_cell_angle_alpha   90.00000000
_cell_angle_beta   90.00000000
_cell_angle_gamma   90.00000000
_symmetry_Int_Tables_number   1
_chemical_formula_structural   Sr2EuNb(CuO4)2
_chemical_formula_sum   'Sr2 Eu1 Nb1 Cu2 O8'
_cell_volume   181.83521279
_cell_formula_units_Z   1
loop_
 _symmetry_equiv_pos_site_id
 _symmetry_equiv_pos_as_xyz
  1  'x, y, z'
loop_
 _atom_site_type_symbol
 _atom_site_label
 _atom_site_symmetry_multiplicity
 _atom_site_fract_x
 _atom_site_fract_y
 _atom_site_fract_z
 _atom_site_occupancy
  Sr  Sr0  1  0.50000000  0.50000000  0.80054156  1.0
  Sr  Sr1  1  0.50000000  0.50000000  0.19945844  1.0
  Eu  Eu2  1  0.50000000  0.50000000  0.50000000  1.0
  Nb  Nb3  1  0.00000000  0.00000000  0.00000000  1.0
  Cu  Cu4  1  0.00000000  0.00000000  0.64193316  1.0
  Cu  Cu5  1  0.00000000  0.00000000  0.35806684  1.0
  O  O6  1  0.00000000  0.50000000  0.63085983  1.0
  O  O7  1  0.00000000  0.50000000  0.36914017  1.0
  O  O8  1  0.50000000  0.00000000  0.63085983  1.0
  O  O9  1  0.50000000  0.00000000  0.36914017  1.0
  O  O10  1  0.00000000  0.00000000  0.83173961  1.0
  O  O11  1  0.00000000  0.00000000  0.16826039  1.0
  O  O12  1  0.00000000  0.50000000  0.00000000  1.0
  O  O13  1  0.50000000  0.00000000  0.00000000  1.0
