# generated using pymatgen
data_V3ZnO8
_symmetry_space_group_name_H-M   'P 1'
_cell_length_a   9.72614186
_cell_length_b   9.72614186
_cell_length_c   9.72614186
_cell_angle_alpha   118.64167023
_cell_angle_beta   84.34905831
_cell_angle_gamma   128.25317345
_symmetry_Int_Tables_number   1
_chemical_formula_structural   V3ZnO8
_chemical_formula_sum   'V12 Zn4 O32'
_cell_volume   607.28946609
_cell_formula_units_Z   4
loop_
 _symmetry_equiv_pos_site_id
 _symmetry_equiv_pos_as_xyz
  1  'x, y, z'
loop_
 _atom_site_type_symbol
 _atom_site_label
 _atom_site_symmetry_multiplicity
 _atom_site_fract_x
 _atom_site_fract_y
 _atom_site_fract_z
 _atom_site_occupancy
  O  O0  1  1.07601893  1.00063503  1.37703425  1.0
  O  O1  1  1.12360078  1.50063503  0.92461609  1.0
  O  O2  1  1.57601893  1.19898468  1.07538391  1.0
  O  O3  1  0.62360078  0.69898468  0.62296575  1.0
  O  O4  1  0.88089151  1.25867681  0.59893687  1.0
  O  O5  1  1.15973994  0.75867681  1.37778530  1.0
  O  O6  1  0.38089151  0.78195464  0.62221470  1.0
  O  O7  1  1.65973994  1.28195464  1.40106313  1.0
  O  O8  1  0.94586337  1.00864886  0.90267710  1.0
  O  O9  1  0.60597176  0.50864886  1.06278549  1.0
  O  O10  1  0.44586337  0.54318627  0.93721451  1.0
  O  O11  1  1.10597176  1.04318627  1.09732290  1.0
  O  O12  1  0.93496422  1.02981941  0.61561424  1.0
  O  O13  1  0.91420516  0.52981941  1.09485519  1.0
  O  O14  1  0.43496422  0.81934998  0.90514481  1.0
  O  O15  1  1.41420516  1.31934998  1.38438576  1.0
  O  O16  1  1.28262553  1.14545204  1.70395775  1.0
  O  O17  1  0.94149429  1.64545204  0.86282650  1.0
  O  O18  1  1.78262553  1.07866778  1.13717350  1.0
  O  O19  1  0.44149429  0.57866778  0.29604225  1.0
  O  O20  1  0.92286567  0.72945727  1.64306596  1.0
  O  O21  1  0.58639130  1.22945727  0.80659160  1.0
  O  O22  1  1.42286567  0.77979970  1.19340840  1.0
  O  O23  1  0.08639130  0.27979970  0.35693404  1.0
  O  O24  1  0.75452842  0.90870635  0.30801026  1.0
  O  O25  1  1.10069610  0.40870635  1.15417793  1.0
  O  O26  1  0.25452842  0.94651817  0.84582207  1.0
  O  O27  1  1.60069610  1.44651817  1.69198974  1.0
  O  O28  1  0.76570985  0.58502627  1.35371793  1.0
  O  O29  1  0.73130835  1.08502627  0.81931643  1.0
  O  O30  1  1.26570985  0.91199192  1.18068357  1.0
  O  O31  1  0.23130835  0.41199192  0.64628207  1.0
  V  V32  1  0.80995963  0.95623216  0.74162367  1.0
  V  V33  1  0.71460849  0.45623216  1.14627253  1.0
  V  V34  1  0.30995963  0.56833596  0.85372747  1.0
  V  V35  1  1.21460849  1.06833596  1.25837633  1.0
  V  V36  1  1.49637712  1.35156668  1.81032380  1.0
  V  V37  1  0.04124288  0.85156668  0.85518956  1.0
  V  V38  1  0.99637712  0.18605332  1.14481044  1.0
  V  V39  1  0.54124288  0.68605332  0.18967620  1.0
  V  V40  1  0.97175344  1.16142417  0.48992350  1.0
  V  V41  1  1.17150067  0.66142417  1.18967073  1.0
  V  V42  1  0.47175344  0.98182994  0.81032927  1.0
  V  V43  1  1.67150067  1.48182994  1.51007650  1.0
  Zn  Zn44  1  1.05055056  0.87979940  1.51686736  1.0
  Zn  Zn45  1  0.86293204  1.37979940  0.82924884  1.0
  Zn  Zn46  1  1.55055056  1.03368320  1.17075116  1.0
  Zn  Zn47  1  0.36293204  0.53368320  0.48313264  1.0
