# generated using pymatgen
data_InTeCl
_symmetry_space_group_name_H-M   'P 1'
_cell_length_a   7.84024133
_cell_length_b   14.41400043
_cell_length_c   7.40474823
_cell_angle_alpha   90.00000000
_cell_angle_beta   92.14507037
_cell_angle_gamma   90.00000000
_symmetry_Int_Tables_number   1
_chemical_formula_structural   InTeCl
_chemical_formula_sum   'In8 Te8 Cl8'
_cell_volume   836.21860073
_cell_formula_units_Z   8
loop_
 _symmetry_equiv_pos_site_id
 _symmetry_equiv_pos_as_xyz
  1  'x, y, z'
loop_
 _atom_site_type_symbol
 _atom_site_label
 _atom_site_symmetry_multiplicity
 _atom_site_fract_x
 _atom_site_fract_y
 _atom_site_fract_z
 _atom_site_occupancy
  In  In0  1  0.69988093  0.97736993  0.86832380  1.0
  In  In1  1  0.69988093  0.52263007  0.36832380  1.0
  In  In2  1  0.30011907  0.47736993  0.63167620  1.0
  In  In3  1  0.30011907  0.02263007  0.13167620  1.0
  In  In4  1  0.67293188  0.68983918  0.87456113  1.0
  In  In5  1  0.67293188  0.81016082  0.37456113  1.0
  In  In6  1  0.32706812  0.18983918  0.62543887  1.0
  In  In7  1  0.32706812  0.31016082  0.12543887  1.0
  Te  Te8  1  0.87531458  0.82699343  0.71332332  1.0
  Te  Te9  1  0.87531458  0.67300657  0.21332332  1.0
  Te  Te10  1  0.12468542  0.32699343  0.78667668  1.0
  Te  Te11  1  0.12468542  0.17300657  0.28667668  1.0
  Te  Te12  1  0.65060211  0.50398896  0.75082637  1.0
  Te  Te13  1  0.65060211  -0.00398896  0.25082637  1.0
  Te  Te14  1  0.34939789  1.00398896  0.74917363  1.0
  Te  Te15  1  0.34939789  0.49601104  0.24917363  1.0
  Cl  Cl16  1  0.89829112  0.09879835  0.78932152  1.0
  Cl  Cl17  1  0.89829112  0.40120165  0.28932152  1.0
  Cl  Cl18  1  0.10170888  0.59879835  0.71067848  1.0
  Cl  Cl19  1  0.10170888  0.90120165  0.21067848  1.0
  Cl  Cl20  1  0.42581150  0.73558686  0.49760091  1.0
  Cl  Cl21  1  0.42581150  0.76441314  -0.00239909  1.0
  Cl  Cl22  1  0.57418850  0.23558686  1.00239909  1.0
  Cl  Cl23  1  0.57418850  0.26441314  0.50239909  1.0
