# generated using pymatgen
data_CsHgCl3
_symmetry_space_group_name_H-M   'P 1'
_cell_length_a   9.62017220
_cell_length_b   15.79518845
_cell_length_c   10.94735678
_cell_angle_alpha   90.00000000
_cell_angle_beta   125.68807697
_cell_angle_gamma   90.00000000
_symmetry_Int_Tables_number   1
_chemical_formula_structural   CsHgCl3
_chemical_formula_sum   'Cs8 Hg8 Cl24'
_cell_volume   1351.08464246
_cell_formula_units_Z   8
loop_
 _symmetry_equiv_pos_site_id
 _symmetry_equiv_pos_as_xyz
  1  'x, y, z'
loop_
 _atom_site_type_symbol
 _atom_site_label
 _atom_site_symmetry_multiplicity
 _atom_site_fract_x
 _atom_site_fract_y
 _atom_site_fract_z
 _atom_site_occupancy
  Cs  Cs0  1  0.97788854  0.24822787  0.21485840  1.0
  Cs  Cs1  1  0.97788854  0.25177213  0.71485840  1.0
  Cs  Cs2  1  0.02211146  0.74822787  0.28514160  1.0
  Cs  Cs3  1  0.02211146  0.75177213  0.78514160  1.0
  Cs  Cs4  1  0.50000000  0.50000000  0.00000000  1.0
  Cs  Cs5  1  0.50000000  0.00000000  0.50000000  1.0
  Cs  Cs6  1  0.50000000  0.50000000  0.50000000  1.0
  Cs  Cs7  1  0.50000000  0.00000000  0.00000000  1.0
  Hg  Hg8  1  0.50108066  0.24414015  0.23492287  1.0
  Hg  Hg9  1  0.50108066  0.25585985  0.73492287  1.0
  Hg  Hg10  1  0.49891934  0.74414015  0.26507713  1.0
  Hg  Hg11  1  0.49891934  0.75585985  0.76507713  1.0
  Hg  Hg12  1  0.00000000  0.50000000  0.00000000  1.0
  Hg  Hg13  1  -0.00000000  0.00000000  0.50000000  1.0
  Hg  Hg14  1  -0.00000000  0.50000000  0.50000000  1.0
  Hg  Hg15  1  0.00000000  0.00000000  0.00000000  1.0
  Cl  Cl16  1  0.96554170  0.51149676  0.26921187  1.0
  Cl  Cl17  1  0.96554170  -0.01149676  0.76921187  1.0
  Cl  Cl18  1  0.03445830  1.01149676  0.23078813  1.0
  Cl  Cl19  1  0.03445830  0.48850324  0.73078813  1.0
  Cl  Cl20  1  0.69264772  0.37442335  0.35460732  1.0
  Cl  Cl21  1  0.69264772  0.12557665  0.85460732  1.0
  Cl  Cl22  1  0.30735228  0.87442335  0.14539268  1.0
  Cl  Cl23  1  0.30735228  0.62557665  0.64539268  1.0
  Cl  Cl24  1  0.78355960  0.89586675  0.37374693  1.0
  Cl  Cl25  1  0.78355960  0.60413325  0.87374693  1.0
  Cl  Cl26  1  0.21644040  0.39586675  0.12625307  1.0
  Cl  Cl27  1  0.21644040  0.10413325  0.62625307  1.0
  Cl  Cl28  1  0.74918374  0.13054506  0.34383972  1.0
  Cl  Cl29  1  0.74918374  0.36945494  0.84383972  1.0
  Cl  Cl30  1  0.25081626  0.63054506  0.15616028  1.0
  Cl  Cl31  1  0.25081626  0.86945494  0.65616028  1.0
  Cl  Cl32  1  0.47993817  0.22717637  0.47539268  1.0
  Cl  Cl33  1  0.47993817  0.27282363  0.97539268  1.0
  Cl  Cl34  1  0.52006183  0.72717637  0.02460732  1.0
  Cl  Cl35  1  0.52006183  0.77282363  0.52460732  1.0
  Cl  Cl36  1  0.23635929  0.15124067  0.08147390  1.0
  Cl  Cl37  1  0.23635929  0.34875933  0.58147390  1.0
  Cl  Cl38  1  0.76364071  0.65124067  0.41852610  1.0
  Cl  Cl39  1  0.76364071  0.84875933  0.91852610  1.0
