# generated using pymatgen
data_Ca2Mn2Si4O17
_symmetry_space_group_name_H-M   'P 1'
_cell_length_a   5.39515759
_cell_length_b   5.39515759
_cell_length_c   12.14423142
_cell_angle_alpha   86.80949899
_cell_angle_beta   93.19050101
_cell_angle_gamma   114.34270655
_symmetry_Int_Tables_number   1
_chemical_formula_structural   Ca2Mn2Si4O17
_chemical_formula_sum   'Ca2 Mn2 Si4 O17'
_cell_volume   321.35708693
_cell_formula_units_Z   1
loop_
 _symmetry_equiv_pos_site_id
 _symmetry_equiv_pos_as_xyz
  1  'x, y, z'
loop_
 _atom_site_type_symbol
 _atom_site_label
 _atom_site_symmetry_multiplicity
 _atom_site_fract_x
 _atom_site_fract_y
 _atom_site_fract_z
 _atom_site_occupancy
  Mn  Mn0  1  1.50000000  -0.00000000  -0.00000000  1.0
  Mn  Mn1  1  1.00000000  -0.50000000  -0.00000000  1.0
  O  O2  1  0.13465248  -0.13465248  0.92092939  1.0
  O  O3  1  0.86534752  -0.86534752  0.07907061  1.0
  O  O4  1  0.00000000  -0.00000000  0.50000000  1.0
  O  O5  1  0.64359379  -0.10932547  0.87958782  1.0
  O  O6  1  1.10932547  0.35640621  0.87958782  1.0
  O  O7  1  0.89067453  -0.35640621  0.12041218  1.0
  O  O8  1  1.35640621  0.10932547  0.12041218  1.0
  O  O9  1  0.98380376  -0.98380376  0.27715694  1.0
  O  O10  1  0.01619624  -0.01619624  0.72284306  1.0
  O  O11  1  0.68489005  -0.68489005  0.70742338  1.0
  O  O12  1  0.31510995  -0.31510995  0.29257662  1.0
  O  O13  1  0.56882562  -0.04114558  0.61065227  1.0
  O  O14  1  1.04114558  0.43117438  0.61065227  1.0
  O  O15  1  0.95885442  -0.43117438  0.38934773  1.0
  O  O16  1  1.43117438  0.04114558  0.38934773  1.0
  O  O17  1  0.65053300  -0.65053300  0.94621883  1.0
  O  O18  1  0.34946700  -0.34946700  0.05378117  1.0
  Ca  Ca19  1  0.28209494  -0.28209494  0.73928951  1.0
  Ca  Ca20  1  0.71790506  -0.71790506  0.26071049  1.0
  Si  Si21  1  0.96485921  -0.96485921  0.85089967  1.0
  Si  Si22  1  0.03514079  -0.03514079  0.14910033  1.0
  Si  Si23  1  0.89813618  -0.89813618  0.60486353  1.0
  Si  Si24  1  0.10186382  -0.10186382  0.39513647  1.0
