# generated using pymatgen
data_TlH(CO2)2
_symmetry_space_group_name_H-M   'P 1'
_cell_length_a   10.39406057
_cell_length_b   6.75473179
_cell_length_c   6.51630130
_cell_angle_alpha   90.00000000
_cell_angle_beta   95.02593673
_cell_angle_gamma   90.00000000
_symmetry_Int_Tables_number   1
_chemical_formula_structural   TlH(CO2)2
_chemical_formula_sum   'Tl4 H4 C8 O16'
_cell_volume   455.74455677
_cell_formula_units_Z   4
loop_
 _symmetry_equiv_pos_site_id
 _symmetry_equiv_pos_as_xyz
  1  'x, y, z'
loop_
 _atom_site_type_symbol
 _atom_site_label
 _atom_site_symmetry_multiplicity
 _atom_site_fract_x
 _atom_site_fract_y
 _atom_site_fract_z
 _atom_site_occupancy
  Tl  Tl0  1  0.70835015  0.96167122  0.43527655  1.0
  Tl  Tl1  1  0.70835015  0.53832878  0.93527655  1.0
  Tl  Tl2  1  0.29164985  0.46167122  0.06472345  1.0
  Tl  Tl3  1  0.29164985  0.03832878  0.56472345  1.0
  H  H4  1  0.20613555  0.53987236  0.56147209  1.0
  H  H5  1  0.20613555  0.96012764  0.06147209  1.0
  H  H6  1  0.79386445  0.03987236  0.93852791  1.0
  H  H7  1  0.79386445  0.46012764  0.43852791  1.0
  C  C8  1  0.98528061  0.41827753  0.41728188  1.0
  C  C9  1  0.98528061  0.08172247  0.91728188  1.0
  C  C10  1  0.01471939  0.91827753  0.08271812  1.0
  C  C11  1  0.01471939  0.58172247  0.58271812  1.0
  C  C12  1  0.55799455  0.48183823  0.43268850  1.0
  C  C13  1  0.55799455  0.01816177  0.93268850  1.0
  C  C14  1  0.44200545  0.98183823  0.06731150  1.0
  C  C15  1  0.44200545  0.51816177  0.56731150  1.0
  O  O16  1  0.92783703  0.83283492  0.16217760  1.0
  O  O17  1  0.92783703  0.66716508  0.66217760  1.0
  O  O18  1  0.07216297  0.33283492  0.33782240  1.0
  O  O19  1  0.07216297  0.16716508  0.83782240  1.0
  O  O20  1  0.86247763  0.37741645  0.36856017  1.0
  O  O21  1  0.86247763  0.12258355  0.86856017  1.0
  O  O22  1  0.13752237  0.87741645  0.13143983  1.0
  O  O23  1  0.13752237  0.62258355  0.63143983  1.0
  O  O24  1  0.53676091  0.40058758  0.26021732  1.0
  O  O25  1  0.53676091  0.09941242  0.76021732  1.0
  O  O26  1  0.46323909  0.90058758  0.23978268  1.0
  O  O27  1  0.46323909  0.59941242  0.73978268  1.0
  O  O28  1  0.33157032  0.45919699  0.48694384  1.0
  O  O29  1  0.33157032  0.04080301  0.98694384  1.0
  O  O30  1  0.66842968  0.95919699  0.01305616  1.0
  O  O31  1  0.66842968  0.54080301  0.51305616  1.0
