# generated using pymatgen
data_H5CN5O
_symmetry_space_group_name_H-M   'P 1'
_cell_length_a   14.09517632
_cell_length_b   7.94007359
_cell_length_c   15.88114189
_cell_angle_alpha   62.46649098
_cell_angle_beta   29.96807674
_cell_angle_gamma   87.56543228
_symmetry_Int_Tables_number   1
_chemical_formula_structural   H5CN5O
_chemical_formula_sum   'H20 C4 N20 O4'
_cell_volume   463.63128742
_cell_formula_units_Z   4
loop_
 _symmetry_equiv_pos_site_id
 _symmetry_equiv_pos_as_xyz
  1  'x, y, z'
loop_
 _atom_site_type_symbol
 _atom_site_label
 _atom_site_symmetry_multiplicity
 _atom_site_fract_x
 _atom_site_fract_y
 _atom_site_fract_z
 _atom_site_occupancy
  H  H0  1  0.70778139  0.56618503  0.25276526  1.0
  H  H1  1  0.99723474  0.77673167  -0.45778139  1.0
  H  H2  1  0.56618503  0.70778139  -0.52673167  1.0
  H  H3  1  0.77673167  0.99723474  -0.31618503  1.0
  H  H4  1  0.49510200  0.64281879  0.03786575  1.0
  H  H5  1  1.21213425  0.42578655  -0.24510200  1.0
  H  H6  1  0.64281879  0.49510200  -0.17578655  1.0
  H  H7  1  0.42578655  1.21213425  -0.39281879  1.0
  H  H8  1  0.56325821  0.52276044  0.17944961  1.0
  H  H9  1  1.07055039  0.51546825  -0.31325821  1.0
  H  H10  1  0.52276044  0.56325821  -0.26546825  1.0
  H  H11  1  0.51546825  1.07055039  -0.27276044  1.0
  H  H12  1  0.51841837  0.22711838  0.43015756  1.0
  H  H13  1  0.81984244  0.42569431  -0.26841837  1.0
  H  H14  1  0.22711838  0.51841837  -0.17569431  1.0
  H  H15  1  0.42569431  0.81984244  0.02288162  1.0
  H  H16  1  0.39701572  -0.21661981  0.55315289  1.0
  H  H17  1  0.69684711  0.98354881  -0.14701572  1.0
  H  H18  1  -0.21661981  0.39701572  0.26645119  1.0
  H  H19  1  0.98354881  0.69684711  -0.53338019  1.0
  C  C20  1  -0.15947570  0.11830922  0.87355568  1.0
  C  C21  1  0.37644432  0.08238920  0.40947570  1.0
  C  C22  1  0.11830922  -0.15947570  0.16761080  1.0
  C  C23  1  0.08238920  0.37644432  0.13169078  1.0
  N  N24  1  0.60762087  0.35144748  0.39041196  1.0
  N  N25  1  0.85958804  0.59948031  -0.35762087  1.0
  N  N26  1  0.35144748  0.60762087  -0.34948031  1.0
  N  N27  1  0.59948031  0.85958804  -0.10144748  1.0
  N  N28  1  0.45125311  0.32663492  0.27451364  1.0
  N  N29  1  0.97548636  0.30240167  -0.20125311  1.0
  N  N30  1  0.32663492  0.45125311  -0.05240167  1.0
  N  N31  1  0.30240167  0.97548636  -0.07663492  1.0
  N  N32  1  0.35810752  0.28574587  0.27574392  1.0
  N  N33  1  0.97425608  0.16959732  -0.10810752  1.0
  N  N34  1  0.28574587  0.35810752  0.08040268  1.0
  N  N35  1  0.16959732  0.97425608  -0.03574587  1.0
  N  N36  1  0.23045830  0.02602131  0.40605734  1.0
  N  N37  1  0.84394266  0.91253696  0.01954170  1.0
  N  N38  1  0.02602131  0.23045830  0.33746304  1.0
  N  N39  1  0.91253696  0.84394266  -0.77602131  1.0
  N  N40  1  0.23511020  -0.10788812  0.49229033  1.0
  N  N41  1  0.75770967  0.86951241  0.01488980  1.0
  N  N42  1  -0.10788812  0.23511020  0.38048759  1.0
  N  N43  1  0.86951241  0.75770967  -0.64211188  1.0
  O  O44  1  -0.19604780  0.17386429  0.81901750  1.0
  O  O45  1  0.43098250  0.04683399  0.44604780  1.0
  O  O46  1  0.17386429  -0.19604780  0.20316601  1.0
  O  O47  1  0.04683399  0.43098250  0.07613571  1.0
