# generated using pymatgen
data_Na5Ca4P4O16F
_symmetry_space_group_name_H-M   'P 1'
_cell_length_a   8.75029570
_cell_length_b   8.75029570
_cell_length_c   8.75029570
_cell_angle_alpha   95.63251944
_cell_angle_beta   95.63251944
_cell_angle_gamma   143.48532721
_symmetry_Int_Tables_number   1
_chemical_formula_structural   Na5Ca4P4O16F
_chemical_formula_sum   'Na5 Ca4 P4 O16 F1'
_cell_volume   378.59401610
_cell_formula_units_Z   1
loop_
 _symmetry_equiv_pos_site_id
 _symmetry_equiv_pos_as_xyz
  1  'x, y, z'
loop_
 _atom_site_type_symbol
 _atom_site_label
 _atom_site_symmetry_multiplicity
 _atom_site_fract_x
 _atom_site_fract_y
 _atom_site_fract_z
 _atom_site_occupancy
  Na  Na0  1  0.87483267  0.57986362  0.48232693  1.0
  Na  Na1  1  0.60749426  0.12516733  0.70503095  1.0
  Na  Na2  1  1.09753669  1.39250574  1.51767307  1.0
  Na  Na3  1  0.42013638  0.90246331  1.29496905  1.0
  Na  Na4  1  0.00000000  0.00000000  0.00000000  1.0
  Ca  Ca5  1  0.40977494  0.34309055  0.71031313  1.0
  Ca  Ca6  1  1.30053819  0.59022506  0.93331561  1.0
  Ca  Ca7  1  0.63277742  0.69946181  1.28968687  1.0
  Ca  Ca8  1  0.65690945  1.36722258  1.06668439  1.0
  P  P9  1  1.73579180  1.88135549  1.64570755  1.0
  P  P10  1  0.90991575  1.26420820  1.14556369  1.0
  P  P11  1  1.23564794  1.09008425  0.35429245  1.0
  P  P12  1  1.11864451  0.76435206  0.85443631  1.0
  O  O13  1  0.86948978  1.35368393  1.27993373  1.0
  O  O14  1  0.41044395  0.13051022  0.48419415  1.0
  O  O15  1  1.07375020  0.58955605  0.72006627  1.0
  O  O16  1  0.64631607  0.92624980  1.51580585  1.0
  O  O17  1  0.73526061  0.71598774  0.56122083  1.0
  O  O18  1  0.82596021  0.26473939  0.98072713  1.0
  O  O19  1  1.15476691  1.17403979  1.43877917  1.0
  O  O20  1  0.28401226  0.84523309  1.01927287  1.0
  O  O21  1  1.52627491  1.70962091  1.74175460  1.0
  O  O22  1  1.21547969  1.47372509  1.18334600  1.0
  O  O23  1  0.96786631  0.78452031  0.25824540  1.0
  O  O24  1  1.29037909  1.03213369  0.81665400  1.0
  O  O25  1  0.39627426  0.25824390  0.23769173  1.0
  O  O26  1  0.84141747  0.60372574  0.86196964  1.0
  O  O27  1  1.02055217  1.15858253  1.76230827  1.0
  O  O28  1  0.74175610  0.97944783  1.13803036  1.0
  F  F29  1  0.50000000  0.50000000  0.00000000  1.0
