# generated using pymatgen
data_K2Sr(SO4)2
_symmetry_space_group_name_H-M   'P 1'
_cell_length_a   7.77814523
_cell_length_b   7.77814523
_cell_length_c   7.77814523
_cell_angle_alpha   41.76790048
_cell_angle_beta   41.76790048
_cell_angle_gamma   41.76790048
_symmetry_Int_Tables_number   1
_chemical_formula_structural   K2Sr(SO4)2
_chemical_formula_sum   'K2 Sr1 S2 O8'
_cell_volume   188.78487790
_cell_formula_units_Z   1
loop_
 _symmetry_equiv_pos_site_id
 _symmetry_equiv_pos_as_xyz
  1  'x, y, z'
loop_
 _atom_site_type_symbol
 _atom_site_label
 _atom_site_symmetry_multiplicity
 _atom_site_fract_x
 _atom_site_fract_y
 _atom_site_fract_z
 _atom_site_occupancy
  K  K0  1  0.79729056  0.79729056  0.79729056  1.0
  K  K1  1  1.20270944  1.20270944  0.20270944  1.0
  Sr  Sr2  1  0.00000000  0.00000000  -0.00000000  1.0
  S  S3  1  1.59932528  0.59932528  0.59932528  1.0
  S  S4  1  1.40067472  0.40067472  0.40067472  1.0
  O  O5  1  0.66940942  0.66940942  0.66940942  1.0
  O  O6  1  1.33059058  1.33059058  0.33059058  1.0
  O  O7  1  1.27677689  0.27677689  0.71938176  1.0
  O  O8  1  1.27677689  0.71938176  0.27677689  1.0
  O  O9  1  1.28061824  0.72322311  0.72322311  1.0
  O  O10  1  1.72322311  0.28061824  0.72322311  1.0
  O  O11  1  1.72322311  0.72322311  0.28061824  1.0
  O  O12  1  1.71938176  0.27677689  0.27677689  1.0
