# generated using pymatgen
data_Li2FeSiO4
_symmetry_space_group_name_H-M   'P 1'
_cell_length_a   8.25525439
_cell_length_b   5.12227531
_cell_length_c   10.68922964
_cell_angle_alpha   90.00000000
_cell_angle_beta   130.38627465
_cell_angle_gamma   90.00000000
_symmetry_Int_Tables_number   1
_chemical_formula_structural   Li2FeSiO4
_chemical_formula_sum   'Li8 Fe4 Si4 O16'
_cell_volume   344.28655215
_cell_formula_units_Z   4
loop_
 _symmetry_equiv_pos_site_id
 _symmetry_equiv_pos_as_xyz
  1  'x, y, z'
loop_
 _atom_site_type_symbol
 _atom_site_label
 _atom_site_symmetry_multiplicity
 _atom_site_fract_x
 _atom_site_fract_y
 _atom_site_fract_z
 _atom_site_occupancy
  Fe  Fe0  1  0.24863605  0.19343757  0.45700109  1.0
  Fe  Fe1  1  0.24863605  0.30656243  0.95700109  1.0
  Fe  Fe2  1  0.75136395  0.69343757  0.04299891  1.0
  Fe  Fe3  1  0.75136395  0.80656243  0.54299891  1.0
  O  O4  1  0.75403530  0.29119938  0.05986877  1.0
  O  O5  1  0.75403530  0.20880062  0.55986877  1.0
  O  O6  1  0.24596470  0.79119938  0.44013123  1.0
  O  O7  1  0.24596470  0.70880062  0.94013123  1.0
  O  O8  1  0.74528216  0.87227745  0.20921270  1.0
  O  O9  1  0.74528216  0.62772255  0.70921270  1.0
  O  O10  1  0.25471784  0.37227745  0.29078730  1.0
  O  O11  1  0.25471784  0.12772255  0.79078730  1.0
  O  O12  1  0.54095758  0.31309034  0.17561673  1.0
  O  O13  1  0.54095758  0.18690966  0.67561673  1.0
  O  O14  1  0.45904242  0.81309034  0.32438327  1.0
  O  O15  1  0.45904242  0.68690966  0.82438327  1.0
  O  O16  1  0.96955362  0.29754097  0.38706187  1.0
  O  O17  1  0.96955362  0.20245903  0.88706187  1.0
  O  O18  1  0.03044638  0.79754097  0.11293813  1.0
  O  O19  1  0.03044638  0.70245903  0.61293813  1.0
  Li  Li20  1  1.00428763  0.19216609  0.08708519  1.0
  Li  Li21  1  1.00428763  0.30783391  0.58708519  1.0
  Li  Li22  1  -0.00428763  0.69216609  0.41291481  1.0
  Li  Li23  1  -0.00428763  0.80783391  0.91291481  1.0
  Li  Li24  1  0.49356641  0.20901395  0.32652333  1.0
  Li  Li25  1  0.49356641  0.29098605  0.82652333  1.0
  Li  Li26  1  0.50643359  0.70901395  0.17347667  1.0
  Li  Li27  1  0.50643359  0.79098605  0.67347667  1.0
  Si  Si28  1  0.75069064  0.19510696  0.20594686  1.0
  Si  Si29  1  0.75069064  0.30489304  0.70594686  1.0
  Si  Si30  1  0.24930936  0.69510696  0.29405314  1.0
  Si  Si31  1  0.24930936  0.80489304  0.79405314  1.0
