# generated using pymatgen
data_Na3CoPCO7
_symmetry_space_group_name_H-M   'P 1'
_cell_length_a   5.20284301
_cell_length_b   6.68970885
_cell_length_c   9.00375094
_cell_angle_alpha   90.00000000
_cell_angle_beta   91.37057723
_cell_angle_gamma   90.00000000
_symmetry_Int_Tables_number   1
_chemical_formula_structural   Na3CoPCO7
_chemical_formula_sum   'Na6 Co2 P2 C2 O14'
_cell_volume   313.29044109
_cell_formula_units_Z   2
loop_
 _symmetry_equiv_pos_site_id
 _symmetry_equiv_pos_as_xyz
  1  'x, y, z'
loop_
 _atom_site_type_symbol
 _atom_site_label
 _atom_site_symmetry_multiplicity
 _atom_site_fract_x
 _atom_site_fract_y
 _atom_site_fract_z
 _atom_site_occupancy
  Na  Na0  1  0.25068976  0.00291021  0.26801919  1.0
  Na  Na1  1  0.25068976  0.49708979  0.26801919  1.0
  Na  Na2  1  0.74931024  0.50291021  0.73198081  1.0
  Na  Na3  1  0.74931024  0.99708979  0.73198081  1.0
  Na  Na4  1  0.72485409  0.25000000  0.08139339  1.0
  Na  Na5  1  0.27514591  0.75000000  0.91860661  1.0
  Co  Co6  1  0.27324092  0.25000000  0.64691490  1.0
  Co  Co7  1  0.72675908  0.75000000  0.35308510  1.0
  P  P8  1  0.79531587  0.25000000  0.41599058  1.0
  P  P9  1  0.20468413  0.75000000  0.58400942  1.0
  C  C10  1  0.21872069  0.25000000  0.93961061  1.0
  C  C11  1  0.78127931  0.75000000  0.06038939  1.0
  O  O12  1  0.27324649  0.56331363  0.68215316  1.0
  O  O13  1  0.27324649  0.93668637  0.68215316  1.0
  O  O14  1  0.72675351  0.06331363  0.31784684  1.0
  O  O15  1  0.72675351  0.43668637  0.31784684  1.0
  O  O16  1  0.00118399  0.25000000  0.86701302  1.0
  O  O17  1  0.99881601  0.75000000  0.13298698  1.0
  O  O18  1  0.09551194  0.25000000  0.44764850  1.0
  O  O19  1  0.90448806  0.75000000  0.55235150  1.0
  O  O20  1  0.22965747  0.25000000  0.08307681  1.0
  O  O21  1  0.77034253  0.75000000  0.91692319  1.0
  O  O22  1  0.43161804  0.25000000  0.86507584  1.0
  O  O23  1  0.56838196  0.75000000  0.13492416  1.0
  O  O24  1  0.65511176  0.25000000  0.56534603  1.0
  O  O25  1  0.34488824  0.75000000  0.43465397  1.0
