# generated using pymatgen
data_NaZn4As3
_symmetry_space_group_name_H-M   'P 1'
_cell_length_a   11.32675636
_cell_length_b   11.32675636
_cell_length_c   11.32675636
_cell_angle_alpha   21.31553782
_cell_angle_beta   21.31553782
_cell_angle_gamma   21.31553782
_symmetry_Int_Tables_number   1
_chemical_formula_structural   NaZn4As3
_chemical_formula_sum   'Na1 Zn4 As3'
_cell_volume   168.20695784
_cell_formula_units_Z   1
loop_
 _symmetry_equiv_pos_site_id
 _symmetry_equiv_pos_as_xyz
  1  'x, y, z'
loop_
 _atom_site_type_symbol
 _atom_site_label
 _atom_site_symmetry_multiplicity
 _atom_site_fract_x
 _atom_site_fract_y
 _atom_site_fract_z
 _atom_site_occupancy
  Na  Na0  1  1.50000000  0.50000000  0.50000000  1.0
  Zn  Zn1  1  0.90940677  0.90940677  0.90940677  1.0
  Zn  Zn2  1  1.09059323  1.09059323  0.09059323  1.0
  Zn  Zn3  1  0.69932016  0.69932016  0.69932016  1.0
  Zn  Zn4  1  1.30067984  1.30067984  0.30067984  1.0
  As  As5  1  0.77385126  0.77385126  0.77385126  1.0
  As  As6  1  1.22614874  1.22614874  0.22614874  1.0
  As  As7  1  0.00000000  0.00000000  0.00000000  1.0
