# generated using pymatgen
data_S
_symmetry_space_group_name_H-M   'P 1'
_cell_length_a   8.73564390
_cell_length_b   8.73564390
_cell_length_c   4.41635891
_cell_angle_alpha   90.00000000
_cell_angle_beta   90.00000000
_cell_angle_gamma   120.00000000
_symmetry_Int_Tables_number   1
_chemical_formula_structural   S
_chemical_formula_sum   S9
_cell_volume   291.86689424
_cell_formula_units_Z   9
loop_
 _symmetry_equiv_pos_site_id
 _symmetry_equiv_pos_as_xyz
  1  'x, y, z'
loop_
 _atom_site_type_symbol
 _atom_site_label
 _atom_site_symmetry_multiplicity
 _atom_site_fract_x
 _atom_site_fract_y
 _atom_site_fract_z
 _atom_site_occupancy
  S  S0  1  0.24039369  0.67378463  0.90870523  1.0
  S  S1  1  0.67378463  0.24039369  0.09129477  1.0
  S  S2  1  0.43339094  0.75960631  0.57537189  1.0
  S  S3  1  0.32621537  0.56660906  0.24203856  1.0
  S  S4  1  0.75960631  0.43339094  0.42462811  1.0
  S  S5  1  0.56660906  0.32621537  0.75796144  1.0
  S  S6  1  0.90303081  0.90303081  0.00000000  1.0
  S  S7  1  -0.00000000  0.09696919  0.66666667  1.0
  S  S8  1  0.09696919  0.00000000  0.33333333  1.0
