# generated using pymatgen
data_Fe2Mo4C
_symmetry_space_group_name_H-M   'P 1'
_cell_length_a   8.01337184
_cell_length_b   8.01337184
_cell_length_c   8.01337184
_cell_angle_alpha   60.00000000
_cell_angle_beta   60.00000000
_cell_angle_gamma   60.00000000
_symmetry_Int_Tables_number   1
_chemical_formula_structural   Fe2Mo4C
_chemical_formula_sum   'Fe8 Mo16 C4'
_cell_volume   363.85712996
_cell_formula_units_Z   4
loop_
 _symmetry_equiv_pos_site_id
 _symmetry_equiv_pos_as_xyz
  1  'x, y, z'
loop_
 _atom_site_type_symbol
 _atom_site_label
 _atom_site_symmetry_multiplicity
 _atom_site_fract_x
 _atom_site_fract_y
 _atom_site_fract_z
 _atom_site_occupancy
  Fe  Fe0  1  0.91757919  -0.08242081  0.24726242  1.0
  Fe  Fe1  1  0.91757919  -0.75273758  0.91757919  1.0
  Fe  Fe2  1  0.24726242  0.91757919  0.91757919  1.0
  Fe  Fe3  1  0.91757919  0.91757919  0.91757919  1.0
  Fe  Fe4  1  1.33242081  0.33242081  0.00273758  1.0
  Fe  Fe5  1  1.33242081  0.00273758  0.33242081  1.0
  Fe  Fe6  1  1.00273758  0.33242081  0.33242081  1.0
  Fe  Fe7  1  1.33242081  0.33242081  0.33242081  1.0
  Mo  Mo8  1  0.12500000  0.12500000  1.62500000  1.0
  Mo  Mo9  1  0.12500000  0.62500000  1.12500000  1.0
  Mo  Mo10  1  1.62500000  0.12500000  0.12500000  1.0
  Mo  Mo11  1  1.12500000  0.12500000  0.12500000  1.0
  Mo  Mo12  1  0.56186755  0.56186755  0.93813245  1.0
  Mo  Mo13  1  0.93813245  0.56186755  0.93813245  1.0
  Mo  Mo14  1  0.56186755  0.93813245  0.93813245  1.0
  Mo  Mo15  1  0.93813245  0.93813245  0.56186755  1.0
  Mo  Mo16  1  0.56186755  0.93813245  0.56186755  1.0
  Mo  Mo17  1  0.93813245  0.56186755  0.56186755  1.0
  Mo  Mo18  1  0.68813245  0.68813245  -0.68813245  1.0
  Mo  Mo19  1  1.31186755  -0.31186755  0.31186755  1.0
  Mo  Mo20  1  -0.31186755  0.31186755  0.31186755  1.0
  Mo  Mo21  1  0.31186755  0.31186755  -0.31186755  1.0
  Mo  Mo22  1  0.68813245  -0.68813245  0.68813245  1.0
  Mo  Mo23  1  -0.68813245  0.68813245  0.68813245  1.0
  C  C24  1  0.62500000  0.62500000  1.12500000  1.0
  C  C25  1  0.62500000  1.12500000  0.62500000  1.0
  C  C26  1  1.12500000  0.62500000  0.62500000  1.0
  C  C27  1  0.62500000  0.62500000  0.62500000  1.0
