# generated using pymatgen
data_Ba4Mg(ReO6)2
_symmetry_space_group_name_H-M   'P 1'
_cell_length_a   9.94664800
_cell_length_b   9.94664800
_cell_length_c   9.94664800
_cell_angle_alpha   33.68417296
_cell_angle_beta   33.68417296
_cell_angle_gamma   33.68417296
_symmetry_Int_Tables_number   1
_chemical_formula_structural   Ba4Mg(ReO6)2
_chemical_formula_sum   'Ba4 Mg1 Re2 O12'
_cell_volume   269.67862396
_cell_formula_units_Z   1
loop_
 _symmetry_equiv_pos_site_id
 _symmetry_equiv_pos_as_xyz
  1  'x, y, z'
loop_
 _atom_site_type_symbol
 _atom_site_label
 _atom_site_symmetry_multiplicity
 _atom_site_fract_x
 _atom_site_fract_y
 _atom_site_fract_z
 _atom_site_occupancy
  Ba  Ba0  1  0.86882111  0.86882111  0.86882111  1.0
  Ba  Ba1  1  1.13117889  1.13117889  0.13117889  1.0
  Ba  Ba2  1  0.70861956  0.70861956  0.70861956  1.0
  Ba  Ba3  1  1.29138044  1.29138044  0.29138044  1.0
  Mg  Mg4  1  0.00000000  -0.00000000  -0.00000000  1.0
  Re  Re5  1  1.58158084  0.58158084  0.58158084  1.0
  Re  Re6  1  1.41841916  0.41841916  0.41841916  1.0
  O  O7  1  1.39030815  0.39030815  0.85848867  1.0
  O  O8  1  1.39030815  0.85848867  0.39030815  1.0
  O  O9  1  1.14151133  0.60969185  0.60969185  1.0
  O  O10  1  1.60969185  0.14151133  0.60969185  1.0
  O  O11  1  1.60969185  0.60969185  0.14151133  1.0
  O  O12  1  0.85848867  1.39030815  0.39030815  1.0
  O  O13  1  1.21955913  0.21955913  0.69117895  1.0
  O  O14  1  1.21955913  0.69117895  0.21955913  1.0
  O  O15  1  1.30882105  0.78044087  0.78044087  1.0
  O  O16  1  1.78044087  0.30882105  0.78044087  1.0
  O  O17  1  1.78044087  0.78044087  0.30882105  1.0
  O  O18  1  0.69117895  1.21955913  0.21955913  1.0
