# generated using pymatgen
data_ZnSe2O5
_symmetry_space_group_name_H-M   'P 1'
_cell_length_a   6.90619332
_cell_length_b   10.59818970
_cell_length_c   6.17957673
_cell_angle_alpha   90.00000000
_cell_angle_beta   90.00000000
_cell_angle_gamma   90.00000000
_symmetry_Int_Tables_number   1
_chemical_formula_structural   ZnSe2O5
_chemical_formula_sum   'Zn4 Se8 O20'
_cell_volume   452.30266714
_cell_formula_units_Z   4
loop_
 _symmetry_equiv_pos_site_id
 _symmetry_equiv_pos_as_xyz
  1  'x, y, z'
loop_
 _atom_site_type_symbol
 _atom_site_label
 _atom_site_symmetry_multiplicity
 _atom_site_fract_x
 _atom_site_fract_y
 _atom_site_fract_z
 _atom_site_occupancy
  Zn  Zn0  1  0.50000000  0.06143530  0.75000000  1.0
  Zn  Zn1  1  0.50000000  0.93856470  0.25000000  1.0
  Zn  Zn2  1  -0.00000000  0.56143530  0.75000000  1.0
  Zn  Zn3  1  0.00000000  0.43856470  0.25000000  1.0
  Se  Se4  1  0.36446847  0.34519559  0.53493606  1.0
  Se  Se5  1  0.36446847  0.65480441  0.03493606  1.0
  Se  Se6  1  0.86446847  0.84519559  0.96506394  1.0
  Se  Se7  1  0.86446847  0.15480441  0.46506394  1.0
  Se  Se8  1  0.63553153  0.34519559  0.96506394  1.0
  Se  Se9  1  0.63553153  0.65480441  0.46506394  1.0
  Se  Se10  1  0.13553153  0.84519559  0.53493606  1.0
  Se  Se11  1  0.13553153  0.15480441  0.03493606  1.0
  O  O12  1  0.30090870  0.21096446  0.66495231  1.0
  O  O13  1  0.30090870  0.78903554  0.16495231  1.0
  O  O14  1  0.80090870  0.71096446  0.83504769  1.0
  O  O15  1  0.80090870  0.28903554  0.33504769  1.0
  O  O16  1  0.69909130  0.21096446  0.83504769  1.0
  O  O17  1  0.69909130  0.78903554  0.33504769  1.0
  O  O18  1  0.19909130  0.71096446  0.66495231  1.0
  O  O19  1  0.19909130  0.28903554  0.16495231  1.0
  O  O20  1  0.15530256  0.43356722  0.54634124  1.0
  O  O21  1  0.15530256  0.56643278  0.04634124  1.0
  O  O22  1  0.65530256  0.93356722  0.95365876  1.0
  O  O23  1  0.65530256  0.06643278  0.45365876  1.0
  O  O24  1  0.84469744  0.43356722  0.95365876  1.0
  O  O25  1  0.84469744  0.56643278  0.45365876  1.0
  O  O26  1  0.34469744  0.93356722  0.54634124  1.0
  O  O27  1  0.34469744  0.06643278  0.04634124  1.0
  O  O28  1  0.50000000  0.43252396  0.75000000  1.0
  O  O29  1  0.50000000  0.56747604  0.25000000  1.0
  O  O30  1  -0.00000000  0.93252396  0.75000000  1.0
  O  O31  1  -0.00000000  0.06747604  0.25000000  1.0
