# generated using pymatgen
data_Co2Mo3N
_symmetry_space_group_name_H-M   'P 1'
_cell_length_a   6.64829120
_cell_length_b   6.64829120
_cell_length_c   6.64829120
_cell_angle_alpha   90.00000000
_cell_angle_beta   90.00000000
_cell_angle_gamma   90.00000000
_symmetry_Int_Tables_number   1
_chemical_formula_structural   Co2Mo3N
_chemical_formula_sum   'Co8 Mo12 N4'
_cell_volume   293.85298137
_cell_formula_units_Z   4
loop_
 _symmetry_equiv_pos_site_id
 _symmetry_equiv_pos_as_xyz
  1  'x, y, z'
loop_
 _atom_site_type_symbol
 _atom_site_label
 _atom_site_symmetry_multiplicity
 _atom_site_fract_x
 _atom_site_fract_y
 _atom_site_fract_z
 _atom_site_occupancy
  Co  Co0  1  0.43048434  0.93048434  0.56951566  1.0
  Co  Co1  1  0.18048434  0.81951566  0.31951566  1.0
  Co  Co2  1  0.68048434  0.68048434  0.68048434  1.0
  Co  Co3  1  0.93048434  0.56951566  0.43048434  1.0
  Co  Co4  1  0.56951566  0.43048434  0.93048434  1.0
  Co  Co5  1  0.31951566  0.18048434  0.81951566  1.0
  Co  Co6  1  0.81951566  0.31951566  0.18048434  1.0
  Co  Co7  1  0.06951566  0.06951566  0.06951566  1.0
  Mo  Mo8  1  0.37500000  0.79801044  0.95198956  1.0
  Mo  Mo9  1  0.12500000  0.20198956  0.45198956  1.0
  Mo  Mo10  1  0.62500000  0.29801044  0.54801044  1.0
  Mo  Mo11  1  0.87500000  0.70198956  0.04801044  1.0
  Mo  Mo12  1  0.29801044  0.54801044  0.62500000  1.0
  Mo  Mo13  1  0.04801044  0.87500000  0.70198956  1.0
  Mo  Mo14  1  0.54801044  0.62500000  0.29801044  1.0
  Mo  Mo15  1  0.79801044  0.95198956  0.37500000  1.0
  Mo  Mo16  1  0.70198956  0.04801044  0.87500000  1.0
  Mo  Mo17  1  0.45198956  0.12500000  0.20198956  1.0
  Mo  Mo18  1  0.95198956  0.37500000  0.79801044  1.0
  Mo  Mo19  1  0.20198956  0.45198956  0.12500000  1.0
  N  N20  1  0.12500000  0.62500000  0.87500000  1.0
  N  N21  1  0.87500000  0.12500000  0.62500000  1.0
  N  N22  1  0.37500000  0.37500000  0.37500000  1.0
  N  N23  1  0.62500000  0.87500000  0.12500000  1.0
