# generated using pymatgen
data_La21Mn8Bi7C12
_symmetry_space_group_name_H-M   'P 1'
_cell_length_a   11.74540444
_cell_length_b   11.74540444
_cell_length_c   11.74540444
_cell_angle_alpha   60.00000000
_cell_angle_beta   60.00000000
_cell_angle_gamma   60.00000000
_symmetry_Int_Tables_number   1
_chemical_formula_structural   La21Mn8Bi7C12
_chemical_formula_sum   'La21 Mn8 Bi7 C12'
_cell_volume   1145.74752949
_cell_formula_units_Z   1
loop_
 _symmetry_equiv_pos_site_id
 _symmetry_equiv_pos_as_xyz
  1  'x, y, z'
loop_
 _atom_site_type_symbol
 _atom_site_label
 _atom_site_symmetry_multiplicity
 _atom_site_fract_x
 _atom_site_fract_y
 _atom_site_fract_z
 _atom_site_occupancy
  La  La0  1  1.65713879  -0.00000000  0.00000000  1.0
  La  La1  1  1.00000000  0.34286121  -0.34286121  1.0
  La  La2  1  1.00000000  0.65713879  -0.65713879  1.0
  La  La3  1  1.34286121  -0.00000000  0.00000000  1.0
  La  La4  1  -0.00000000  1.65713879  0.00000000  1.0
  La  La5  1  0.34286121  1.00000000  -0.34286121  1.0
  La  La6  1  0.00000000  -0.00000000  0.65713879  1.0
  La  La7  1  0.34286121  -0.34286121  1.00000000  1.0
  La  La8  1  0.65713879  1.00000000  -0.65713879  1.0
  La  La9  1  -0.00000000  1.34286121  0.00000000  1.0
  La  La10  1  0.65713879  -0.65713879  1.00000000  1.0
  La  La11  1  -0.00000000  -0.00000000  0.34286121  1.0
  La  La12  1  0.63625318  0.63625318  -0.36374682  1.0
  La  La13  1  0.36374682  1.36374682  -0.09124046  1.0
  La  La14  1  1.36374682  -0.09124046  0.36374682  1.0
  La  La15  1  1.09124046  0.63625318  0.63625318  1.0
  La  La16  1  -0.09124046  1.36374682  0.36374682  1.0
  La  La17  1  0.63625318  1.09124046  -0.36374682  1.0
  La  La18  1  0.63625318  0.63625318  1.09124046  1.0
  La  La19  1  1.36374682  0.36374682  0.36374682  1.0
  La  La20  1  -0.50000000  0.50000000  0.50000000  1.0
  Mn  Mn21  1  0.80184544  0.80184544  -0.19815456  1.0
  Mn  Mn22  1  1.19815456  0.19815456  0.40553631  1.0
  Mn  Mn23  1  1.19815456  0.40553631  0.19815456  1.0
  Mn  Mn24  1  0.59446369  0.80184544  -0.19815456  1.0
  Mn  Mn25  1  1.40553631  0.19815456  0.19815456  1.0
  Mn  Mn26  1  0.80184544  0.59446369  -0.19815456  1.0
  Mn  Mn27  1  0.80184544  0.80184544  -0.40553631  1.0
  Mn  Mn28  1  1.19815456  0.19815456  0.19815456  1.0
  Bi  Bi29  1  -0.70933331  0.70933331  0.70933331  1.0
  Bi  Bi30  1  -0.29066669  0.29066669  0.70933331  1.0
  Bi  Bi31  1  0.70933331  0.70933331  -0.70933331  1.0
  Bi  Bi32  1  0.29066669  1.29066669  -0.29066669  1.0
  Bi  Bi33  1  0.29066669  -0.29066669  1.29066669  1.0
  Bi  Bi34  1  -0.29066669  0.29066669  0.29066669  1.0
  Bi  Bi35  1  0.00000000  0.00000000  0.00000000  1.0
  C  C36  1  0.60788190  0.89211810  -0.10788190  1.0
  C  C37  1  1.10788190  0.39211810  0.39211810  1.0
  C  C38  1  0.89211810  0.60788190  -0.10788190  1.0
  C  C39  1  1.39211810  0.10788190  0.39211810  1.0
  C  C40  1  0.89211810  0.89211810  -0.39211810  1.0
  C  C41  1  1.10788190  0.10788190  0.39211810  1.0
  C  C42  1  1.10788190  0.39211810  0.10788190  1.0
  C  C43  1  0.60788190  0.89211810  -0.39211810  1.0
  C  C44  1  1.39211810  0.39211810  0.10788190  1.0
  C  C45  1  0.60788190  0.60788190  -0.10788190  1.0
  C  C46  1  1.39211810  0.10788190  0.10788190  1.0
  C  C47  1  0.89211810  0.60788190  -0.39211810  1.0
