# generated using pymatgen
data_LiCu2P
_symmetry_space_group_name_H-M   'P 1'
_cell_length_a   4.03682503
_cell_length_b   4.03682503
_cell_length_c   7.50408298
_cell_angle_alpha   90.00000000
_cell_angle_beta   90.00000000
_cell_angle_gamma   120.00000000
_symmetry_Int_Tables_number   1
_chemical_formula_structural   LiCu2P
_chemical_formula_sum   'Li2 Cu4 P2'
_cell_volume   105.90296297
_cell_formula_units_Z   2
loop_
 _symmetry_equiv_pos_site_id
 _symmetry_equiv_pos_as_xyz
  1  'x, y, z'
loop_
 _atom_site_type_symbol
 _atom_site_label
 _atom_site_symmetry_multiplicity
 _atom_site_fract_x
 _atom_site_fract_y
 _atom_site_fract_z
 _atom_site_occupancy
  Li  Li0  1  0.33333333  0.66666667  0.40698454  1.0
  Li  Li1  1  0.66666667  0.33333333  0.59301546  1.0
  Cu  Cu2  1  0.33333333  0.66666667  0.06391412  1.0
  Cu  Cu3  1  0.66666667  0.33333333  0.93608588  1.0
  Cu  Cu4  1  -0.00000000  0.00000000  0.22183926  1.0
  Cu  Cu5  1  -0.00000000  0.00000000  0.77816074  1.0
  P  P6  1  0.33333333  0.66666667  0.75098102  1.0
  P  P7  1  0.66666667  0.33333333  0.24901898  1.0
