# generated using pymatgen
data_Zr3Si
_symmetry_space_group_name_H-M   'P 1'
_cell_length_a   11.02307557
_cell_length_b   11.02307557
_cell_length_c   5.43352548
_cell_angle_alpha   90.00000000
_cell_angle_beta   90.00000000
_cell_angle_gamma   90.00000000
_symmetry_Int_Tables_number   1
_chemical_formula_structural   Zr3Si
_chemical_formula_sum   'Zr24 Si8'
_cell_volume   660.21787375
_cell_formula_units_Z   8
loop_
 _symmetry_equiv_pos_site_id
 _symmetry_equiv_pos_as_xyz
  1  'x, y, z'
loop_
 _atom_site_type_symbol
 _atom_site_label
 _atom_site_symmetry_multiplicity
 _atom_site_fract_x
 _atom_site_fract_y
 _atom_site_fract_z
 _atom_site_occupancy
  Zr  Zr0  1  0.60769007  0.91766194  0.53160966  1.0
  Zr  Zr1  1  0.39230993  0.08233806  0.53160966  1.0
  Zr  Zr2  1  0.41766194  0.89230993  0.03160966  1.0
  Zr  Zr3  1  0.58233806  0.10769007  0.03160966  1.0
  Zr  Zr4  1  0.89230993  0.58233806  0.96839034  1.0
  Zr  Zr5  1  0.10769007  0.41766194  0.96839034  1.0
  Zr  Zr6  1  0.08233806  0.60769007  0.46839034  1.0
  Zr  Zr7  1  0.91766194  0.39230993  0.46839034  1.0
  Zr  Zr8  1  0.97322756  0.86188838  0.72292634  1.0
  Zr  Zr9  1  0.02677244  0.13811162  0.72292634  1.0
  Zr  Zr10  1  0.36188838  0.52677244  0.22292634  1.0
  Zr  Zr11  1  0.63811162  0.47322756  0.22292634  1.0
  Zr  Zr12  1  0.52677244  0.63811162  0.77707366  1.0
  Zr  Zr13  1  0.47322756  0.36188838  0.77707366  1.0
  Zr  Zr14  1  0.13811162  0.97322756  0.27707366  1.0
  Zr  Zr15  1  0.86188838  0.02677244  0.27707366  1.0
  Zr  Zr16  1  0.71626327  0.82043845  0.00895780  1.0
  Zr  Zr17  1  0.28373673  0.17956155  0.00895780  1.0
  Zr  Zr18  1  0.32043845  0.78373673  0.50895780  1.0
  Zr  Zr19  1  0.67956155  0.21626327  0.50895780  1.0
  Zr  Zr20  1  0.78373673  0.67956155  0.49104220  1.0
  Zr  Zr21  1  0.21626327  0.32043845  0.49104220  1.0
  Zr  Zr22  1  0.17956155  0.71626327  0.99104220  1.0
  Zr  Zr23  1  0.82043845  0.28373673  0.99104220  1.0
  Si  Si24  1  0.95841706  0.79459075  0.21343623  1.0
  Si  Si25  1  0.04158294  0.20540925  0.21343623  1.0
  Si  Si26  1  0.29459075  0.54158294  0.71343623  1.0
  Si  Si27  1  0.70540925  0.45841706  0.71343623  1.0
  Si  Si28  1  0.54158294  0.70540925  0.28656377  1.0
  Si  Si29  1  0.45841706  0.29459075  0.28656377  1.0
  Si  Si30  1  0.20540925  0.95841706  0.78656377  1.0
  Si  Si31  1  0.79459075  0.04158294  0.78656377  1.0
