# generated using pymatgen
data_RbFeS2
_symmetry_space_group_name_H-M   'P 1'
_cell_length_a   6.90886907
_cell_length_b   6.90886907
_cell_length_c   5.41293075
_cell_angle_alpha   78.94422436
_cell_angle_beta   101.05577564
_cell_angle_gamma   63.64370400
_symmetry_Int_Tables_number   1
_chemical_formula_structural   RbFeS2
_chemical_formula_sum   'Rb2 Fe2 S4'
_cell_volume   215.66110664
_cell_formula_units_Z   2
loop_
 _symmetry_equiv_pos_site_id
 _symmetry_equiv_pos_as_xyz
  1  'x, y, z'
loop_
 _atom_site_type_symbol
 _atom_site_label
 _atom_site_symmetry_multiplicity
 _atom_site_fract_x
 _atom_site_fract_y
 _atom_site_fract_z
 _atom_site_occupancy
  Rb  Rb0  1  0.85399504  -0.14600496  0.25000000  1.0
  Rb  Rb1  1  1.14600496  0.14600496  0.75000000  1.0
  Fe  Fe2  1  1.49764331  0.49764331  0.25000000  1.0
  Fe  Fe3  1  0.50235669  -0.49764331  0.75000000  1.0
  S  S4  1  0.41314041  -0.21491635  0.40540294  1.0
  S  S5  1  1.21491635  0.58685959  0.90540294  1.0
  S  S6  1  0.78508365  -0.58685959  0.09459706  1.0
  S  S7  1  1.58685959  0.21491635  0.59459706  1.0
