# generated using pymatgen
data_K2PbO3
_symmetry_space_group_name_H-M   'P 1'
_cell_length_a   6.10601799
_cell_length_b   10.75676598
_cell_length_c   7.07170683
_cell_angle_alpha   90.00000000
_cell_angle_beta   90.00000000
_cell_angle_gamma   90.00000000
_symmetry_Int_Tables_number   1
_chemical_formula_structural   K2PbO3
_chemical_formula_sum   'K8 Pb4 O12'
_cell_volume   464.47682259
_cell_formula_units_Z   4
loop_
 _symmetry_equiv_pos_site_id
 _symmetry_equiv_pos_as_xyz
  1  'x, y, z'
loop_
 _atom_site_type_symbol
 _atom_site_label
 _atom_site_symmetry_multiplicity
 _atom_site_fract_x
 _atom_site_fract_y
 _atom_site_fract_z
 _atom_site_occupancy
  O  O0  1  0.49292195  0.88432989  0.71569964  1.0
  O  O1  1  0.49292195  0.61567011  0.71569964  1.0
  O  O2  1  0.99292195  0.88432989  0.78430036  1.0
  O  O3  1  0.99292195  0.61567011  0.78430036  1.0
  O  O4  1  0.50707805  0.38432989  0.28430036  1.0
  O  O5  1  0.50707805  0.11567011  0.28430036  1.0
  O  O6  1  0.00707805  0.38432989  0.21569964  1.0
  O  O7  1  0.00707805  0.11567011  0.21569964  1.0
  O  O8  1  0.37858446  0.25000000  0.87461599  1.0
  O  O9  1  0.87858446  0.25000000  0.62538401  1.0
  O  O10  1  0.62141554  0.75000000  0.12538401  1.0
  O  O11  1  0.12141554  0.75000000  0.37461599  1.0
  Pb  Pb12  1  0.27143333  0.25000000  0.15118814  1.0
  Pb  Pb13  1  0.77143333  0.25000000  0.34881186  1.0
  Pb  Pb14  1  0.72856667  0.75000000  0.84881186  1.0
  Pb  Pb15  1  0.22856667  0.75000000  0.65118814  1.0
  K  K16  1  0.23388792  0.41353312  0.61415505  1.0
  K  K17  1  0.23388792  0.08646688  0.61415505  1.0
  K  K18  1  0.73388792  0.41353312  0.88584495  1.0
  K  K19  1  0.73388792  0.08646688  0.88584495  1.0
  K  K20  1  0.76611208  0.91353312  0.38584495  1.0
  K  K21  1  0.76611208  0.58646688  0.38584495  1.0
  K  K22  1  0.26611208  0.91353312  0.11415505  1.0
  K  K23  1  0.26611208  0.58646688  0.11415505  1.0
