# generated using pymatgen
data_Sr6GdFe(BO3)6
_symmetry_space_group_name_H-M   'P 1'
_cell_length_a   7.80150279
_cell_length_b   7.80150279
_cell_length_c   7.80150279
_cell_angle_alpha   105.25533092
_cell_angle_beta   105.25533092
_cell_angle_gamma   105.25533092
_symmetry_Int_Tables_number   1
_chemical_formula_structural   Sr6GdFe(BO3)6
_chemical_formula_sum   'Sr6 Gd1 Fe1 B6 O18'
_cell_volume   412.81745359
_cell_formula_units_Z   1
loop_
 _symmetry_equiv_pos_site_id
 _symmetry_equiv_pos_as_xyz
  1  'x, y, z'
loop_
 _atom_site_type_symbol
 _atom_site_label
 _atom_site_symmetry_multiplicity
 _atom_site_fract_x
 _atom_site_fract_y
 _atom_site_fract_z
 _atom_site_occupancy
  Fe  Fe0  1  0.00000000  0.00000000  0.00000000  1.0
  B  B1  1  1.54723121  0.79537490  -0.11606238  1.0
  B  B2  1  1.20462510  0.11606238  -0.54723121  1.0
  B  B3  1  1.11606238  -0.54723121  0.20462510  1.0
  B  B4  1  0.45276879  0.20462510  0.11606238  1.0
  B  B5  1  0.79537490  0.88393762  0.54723121  1.0
  B  B6  1  0.88393762  1.54723121  -0.20462510  1.0
  O  O7  1  1.48073258  0.77360939  -0.30726261  1.0
  O  O8  1  1.22639061  0.30726261  -0.48073258  1.0
  O  O9  1  1.30726261  -0.48073258  0.22639061  1.0
  O  O10  1  0.51926742  0.22639061  0.30726261  1.0
  O  O11  1  0.77360939  0.69273739  0.48073258  1.0
  O  O12  1  0.69273739  1.48073258  -0.22639061  1.0
  O  O13  1  0.56076543  0.30721780  0.03910950  1.0
  O  O14  1  0.69278220  0.96089050  0.43923457  1.0
  O  O15  1  0.96089050  1.43923457  -0.30721780  1.0
  O  O16  1  1.43923457  0.69278220  -0.03910950  1.0
  O  O17  1  1.30721780  0.03910950  -0.43923457  1.0
  O  O18  1  1.03910950  -0.43923457  0.30721780  1.0
  O  O19  1  0.72705346  0.93163550  0.00053508  1.0
  O  O20  1  1.06836450  -0.00053508  -0.72705346  1.0
  O  O21  1  0.99946492  -0.72705346  0.06836450  1.0
  O  O22  1  0.27294654  0.06836450  -0.00053508  1.0
  O  O23  1  0.93163550  1.00053508  -0.27294654  1.0
  O  O24  1  1.00053508  0.72705346  -0.06836450  1.0
  Sr  Sr25  1  0.76900276  0.65966876  0.14544600  1.0
  Sr  Sr26  1  1.34033124  -0.14544600  0.23099724  1.0
  Sr  Sr27  1  0.85455400  0.23099724  0.34033124  1.0
  Sr  Sr28  1  1.23099724  0.34033124  -0.14544600  1.0
  Sr  Sr29  1  0.65966876  1.14544600  -0.23099724  1.0
  Sr  Sr30  1  1.14544600  0.76900276  -0.34033124  1.0
  Gd  Gd31  1  0.50000000  0.50000000  0.50000000  1.0
