# generated using pymatgen
data_Sr4Mg3Al5
_symmetry_space_group_name_H-M   'P 1'
_cell_length_a   6.05989327
_cell_length_b   6.05989327
_cell_length_c   19.89203939
_cell_angle_alpha   90.00000000
_cell_angle_beta   90.00000000
_cell_angle_gamma   120.00000000
_symmetry_Int_Tables_number   1
_chemical_formula_structural   Sr4Mg3Al5
_chemical_formula_sum   'Sr8 Mg6 Al10'
_cell_volume   632.61559339
_cell_formula_units_Z   2
loop_
 _symmetry_equiv_pos_site_id
 _symmetry_equiv_pos_as_xyz
  1  'x, y, z'
loop_
 _atom_site_type_symbol
 _atom_site_label
 _atom_site_symmetry_multiplicity
 _atom_site_fract_x
 _atom_site_fract_y
 _atom_site_fract_z
 _atom_site_occupancy
  Sr  Sr0  1  0.33333333  0.66666667  0.33860096  1.0
  Sr  Sr1  1  0.66666667  0.33333333  0.83860096  1.0
  Sr  Sr2  1  0.66666667  0.33333333  0.66139904  1.0
  Sr  Sr3  1  0.33333333  0.66666667  0.16139904  1.0
  Sr  Sr4  1  0.00000000  0.00000000  0.39785409  1.0
  Sr  Sr5  1  0.00000000  0.00000000  0.89785409  1.0
  Sr  Sr6  1  0.00000000  0.00000000  0.60214591  1.0
  Sr  Sr7  1  0.00000000  0.00000000  0.10214591  1.0
  Mg  Mg8  1  0.00000000  0.50000000  0.50000000  1.0
  Mg  Mg9  1  0.50000000  0.50000000  0.50000000  1.0
  Mg  Mg10  1  0.50000000  0.00000000  0.50000000  1.0
  Mg  Mg11  1  0.00000000  0.50000000  0.00000000  1.0
  Mg  Mg12  1  0.50000000  0.50000000  0.00000000  1.0
  Mg  Mg13  1  0.50000000  0.00000000  0.00000000  1.0
  Al  Al14  1  0.32691222  0.16345611  0.25000000  1.0
  Al  Al15  1  0.83654389  0.16345611  0.25000000  1.0
  Al  Al16  1  0.83654389  0.67308778  0.25000000  1.0
  Al  Al17  1  0.67308778  0.83654389  0.75000000  1.0
  Al  Al18  1  0.16345611  0.83654389  0.75000000  1.0
  Al  Al19  1  0.16345611  0.32691222  0.75000000  1.0
  Al  Al20  1  0.33333333  0.66666667  0.64132356  1.0
  Al  Al21  1  0.66666667  0.33333333  0.14132356  1.0
  Al  Al22  1  0.66666667  0.33333333  0.35867644  1.0
  Al  Al23  1  0.33333333  0.66666667  0.85867644  1.0
