# generated using pymatgen
data_B13C2
_symmetry_space_group_name_H-M   'P 1'
_cell_length_a   5.19172683
_cell_length_b   5.19172683
_cell_length_c   5.19172683
_cell_angle_alpha   65.98655889
_cell_angle_beta   65.98655889
_cell_angle_gamma   65.98655889
_symmetry_Int_Tables_number   1
_chemical_formula_structural   B13C2
_chemical_formula_sum   'B13 C2'
_cell_volume   111.77199825
_cell_formula_units_Z   1
loop_
 _symmetry_equiv_pos_site_id
 _symmetry_equiv_pos_as_xyz
  1  'x, y, z'
loop_
 _atom_site_type_symbol
 _atom_site_label
 _atom_site_symmetry_multiplicity
 _atom_site_fract_x
 _atom_site_fract_y
 _atom_site_fract_z
 _atom_site_occupancy
  B  B0  1  0.50782744  0.50782744  -0.17626525  1.0
  B  B1  1  0.50782744  0.82373475  -0.49217256  1.0
  B  B2  1  0.17626525  0.49217256  -0.50782744  1.0
  B  B3  1  0.49217256  0.17626525  -0.50782744  1.0
  B  B4  1  0.49217256  0.49217256  -0.82373475  1.0
  B  B5  1  0.82373475  0.50782744  -0.49217256  1.0
  B  B6  1  0.30358748  0.30358748  -0.18166549  1.0
  B  B7  1  0.30358748  0.81833451  -0.69641252  1.0
  B  B8  1  1.18166549  -0.30358748  -0.30358748  1.0
  B  B9  1  0.69641252  0.18166549  -0.30358748  1.0
  B  B10  1  0.69641252  -0.30358748  0.18166549  1.0
  B  B11  1  0.81833451  0.30358748  -0.69641252  1.0
  B  B12  1  0.00000000  0.00000000  0.00000000  1.0
  C  C13  1  0.88092668  0.88092668  -0.11907332  1.0
  C  C14  1  1.11907332  1.11907332  0.11907332  1.0
