# generated using pymatgen
data_CsTaCl6
_symmetry_space_group_name_H-M   'P 1'
_cell_length_a   7.13744713
_cell_length_b   7.13744713
_cell_length_c   12.77858314
_cell_angle_alpha   78.98868104
_cell_angle_beta   101.01131896
_cell_angle_gamma   124.03430297
_symmetry_Int_Tables_number   1
_chemical_formula_structural   CsTaCl6
_chemical_formula_sum   'Cs2 Ta2 Cl12'
_cell_volume   526.70024127
_cell_formula_units_Z   2
loop_
 _symmetry_equiv_pos_site_id
 _symmetry_equiv_pos_as_xyz
  1  'x, y, z'
loop_
 _atom_site_type_symbol
 _atom_site_label
 _atom_site_symmetry_multiplicity
 _atom_site_fract_x
 _atom_site_fract_y
 _atom_site_fract_z
 _atom_site_occupancy
  Cs  Cs0  1  0.88432754  0.88432754  0.75000000  1.0
  Cs  Cs1  1  0.11567246  0.11567246  0.25000000  1.0
  Ta  Ta2  1  0.50000000  -0.00000000  0.00000000  1.0
  Ta  Ta3  1  1.00000000  0.50000000  0.50000000  1.0
  Cl  Cl4  1  0.80753724  0.11721812  0.46298335  1.0
  Cl  Cl5  1  0.88278188  0.19246276  0.96298335  1.0
  Cl  Cl6  1  1.11721812  0.80753724  0.03701665  1.0
  Cl  Cl7  1  0.19246276  -0.11721812  0.53701665  1.0
  Cl  Cl8  1  0.37587025  -0.19541768  0.84541172  1.0
  Cl  Cl9  1  1.19541768  0.62412975  0.34541172  1.0
  Cl  Cl10  1  0.80458232  0.37587025  0.65458828  1.0
  Cl  Cl11  1  0.62412975  0.19541768  0.15458828  1.0
  Cl  Cl12  1  0.46602258  0.29438472  0.89568459  1.0
  Cl  Cl13  1  0.70561528  0.53397742  0.39568459  1.0
  Cl  Cl14  1  1.29438472  0.46602258  0.60431541  1.0
  Cl  Cl15  1  0.53397742  -0.29438472  0.10431541  1.0
