# generated using pymatgen
data_Ca4Ni3C5
_symmetry_space_group_name_H-M   'P 1'
_cell_length_a   5.87117808
_cell_length_b   5.87117808
_cell_length_c   9.80034861
_cell_angle_alpha   68.45406399
_cell_angle_beta   111.54593601
_cell_angle_gamma   142.57699011
_symmetry_Int_Tables_number   1
_chemical_formula_structural   Ca4Ni3C5
_chemical_formula_sum   'Ca4 Ni3 C5'
_cell_volume   189.23410799
_cell_formula_units_Z   1
loop_
 _symmetry_equiv_pos_site_id
 _symmetry_equiv_pos_as_xyz
  1  'x, y, z'
loop_
 _atom_site_type_symbol
 _atom_site_label
 _atom_site_symmetry_multiplicity
 _atom_site_fract_x
 _atom_site_fract_y
 _atom_site_fract_z
 _atom_site_occupancy
  Ca  Ca0  1  0.60134155  0.39865845  0.89873696  1.0
  Ca  Ca1  1  1.39865845  -0.39865845  0.10126304  1.0
  Ca  Ca2  1  0.75578214  -0.75578214  0.33682047  1.0
  Ca  Ca3  1  0.24421786  -0.24421786  0.66317953  1.0
  Ni  Ni4  1  0.95845569  -0.95845569  0.66345879  1.0
  Ni  Ni5  1  0.04154431  -0.04154431  0.33654121  1.0
  Ni  Ni6  1  0.50000000  0.50000000  0.50000000  1.0
  C  C7  1  -0.00000000  0.00000000  0.50000000  1.0
  C  C8  1  0.82710389  0.17289611  0.88946534  1.0
  C  C9  1  1.17289611  -0.17289611  0.11053466  1.0
  C  C10  1  0.89780809  0.10219191  0.81056139  1.0
  C  C11  1  1.10219191  -0.10219191  0.18943861  1.0
