# generated using pymatgen
data_Sr2SnO4
_symmetry_space_group_name_H-M   'P 1'
_cell_length_a   5.87645753
_cell_length_b   5.87590487
_cell_length_c   12.47458424
_cell_angle_alpha   90.00000000
_cell_angle_beta   90.00000000
_cell_angle_gamma   90.00000000
_symmetry_Int_Tables_number   1
_chemical_formula_structural   Sr2SnO4
_chemical_formula_sum   'Sr8 Sn4 O16'
_cell_volume   430.74122394
_cell_formula_units_Z   4
loop_
 _symmetry_equiv_pos_site_id
 _symmetry_equiv_pos_as_xyz
  1  'x, y, z'
loop_
 _atom_site_type_symbol
 _atom_site_label
 _atom_site_symmetry_multiplicity
 _atom_site_fract_x
 _atom_site_fract_y
 _atom_site_fract_z
 _atom_site_occupancy
  Sr  Sr0  1  0.48457219  0.01530988  0.14691213  1.0
  Sr  Sr1  1  0.48457219  0.48469012  0.64691213  1.0
  Sr  Sr2  1  0.98457219  0.51530988  0.85308787  1.0
  Sr  Sr3  1  0.98457219  0.98469012  0.35308787  1.0
  Sr  Sr4  1  0.51542781  0.51530988  0.35308787  1.0
  Sr  Sr5  1  0.51542781  0.98469012  0.85308787  1.0
  Sr  Sr6  1  0.01542781  0.01530988  0.64691213  1.0
  Sr  Sr7  1  0.01542781  0.48469012  0.14691213  1.0
  Sn  Sn8  1  0.50000000  0.50000000  0.00000000  1.0
  Sn  Sn9  1  0.50000000  0.00000000  0.50000000  1.0
  Sn  Sn10  1  0.00000000  0.00000000  0.00000000  1.0
  Sn  Sn11  1  0.00000000  0.50000000  0.50000000  1.0
  O  O12  1  0.45444425  0.45444059  0.16369163  1.0
  O  O13  1  0.45444425  0.04555941  0.66369163  1.0
  O  O14  1  0.95444425  0.95444059  0.83630837  1.0
  O  O15  1  0.95444425  0.54555941  0.33630837  1.0
  O  O16  1  0.54555575  0.95444059  0.33630837  1.0
  O  O17  1  0.54555575  0.54555941  0.83630837  1.0
  O  O18  1  0.04555575  0.45444059  0.66369163  1.0
  O  O19  1  0.04555575  0.04555941  0.16369163  1.0
  O  O20  1  0.25000000  0.75000000  0.00004000  1.0
  O  O21  1  0.25000000  0.75000000  0.50004000  1.0
  O  O22  1  0.75000000  0.25000000  0.99996000  1.0
  O  O23  1  0.75000000  0.25000000  0.49996000  1.0
  O  O24  1  0.25000000  0.25000000  0.46790033  1.0
  O  O25  1  0.25000000  0.25000000  0.96790033  1.0
  O  O26  1  0.75000000  0.75000000  0.53209967  1.0
  O  O27  1  0.75000000  0.75000000  0.03209967  1.0
