# generated using pymatgen
data_Y2Si3N4O3
_symmetry_space_group_name_H-M   'P 1'
_cell_length_a   7.63725101
_cell_length_b   7.63725101
_cell_length_c   4.93786518
_cell_angle_alpha   90.00000000
_cell_angle_beta   90.00000000
_cell_angle_gamma   90.00000000
_symmetry_Int_Tables_number   1
_chemical_formula_structural   Y2Si3N4O3
_chemical_formula_sum   'Y4 Si6 N8 O6'
_cell_volume   288.01383933
_cell_formula_units_Z   2
loop_
 _symmetry_equiv_pos_site_id
 _symmetry_equiv_pos_as_xyz
  1  'x, y, z'
loop_
 _atom_site_type_symbol
 _atom_site_label
 _atom_site_symmetry_multiplicity
 _atom_site_fract_x
 _atom_site_fract_y
 _atom_site_fract_z
 _atom_site_occupancy
  Y  Y0  1  0.82942148  0.32942148  0.49590957  1.0
  Y  Y1  1  0.67057852  0.82942148  0.50409043  1.0
  Y  Y2  1  0.17057852  0.67057852  0.49590957  1.0
  Y  Y3  1  0.32942148  0.17057852  0.50409043  1.0
  Si  Si4  1  0.35459348  0.85459348  0.05489240  1.0
  Si  Si5  1  0.14540652  0.35459348  0.94510760  1.0
  Si  Si6  1  0.64540652  0.14540652  0.05489240  1.0
  Si  Si7  1  0.85459348  0.64540652  0.94510760  1.0
  Si  Si8  1  0.50000000  0.50000000  0.00000000  1.0
  Si  Si9  1  0.00000000  0.00000000  0.00000000  1.0
  N  N10  1  0.33286145  0.42255419  0.79167836  1.0
  N  N11  1  0.16713855  0.92255419  0.20832164  1.0
  N  N12  1  0.57744581  0.33286145  0.20832164  1.0
  N  N13  1  0.92255419  0.83286145  0.79167836  1.0
  N  N14  1  0.66713855  0.57744581  0.79167836  1.0
  N  N15  1  0.83286145  0.07744581  0.20832164  1.0
  N  N16  1  0.42255419  0.66713855  0.20832164  1.0
  N  N17  1  0.07744581  0.16713855  0.79167836  1.0
  O  O18  1  0.36846657  0.86846657  0.72090017  1.0
  O  O19  1  0.13153343  0.36846657  0.27909983  1.0
  O  O20  1  0.63153343  0.13153343  0.72090017  1.0
  O  O21  1  0.86846657  0.63153343  0.27909983  1.0
  O  O22  1  0.00000000  0.50000000  0.81427819  1.0
  O  O23  1  0.50000000  0.00000000  0.18572181  1.0
