# generated using pymatgen
data_Yb2CdSe4
_symmetry_space_group_name_H-M   'P 1'
_cell_length_a   8.28789414
_cell_length_b   8.28789414
_cell_length_c   8.28789414
_cell_angle_alpha   60.00000000
_cell_angle_beta   60.00000000
_cell_angle_gamma   60.00000000
_symmetry_Int_Tables_number   1
_chemical_formula_structural   Yb2CdSe4
_chemical_formula_sum   'Yb4 Cd2 Se8'
_cell_volume   402.54792154
_cell_formula_units_Z   2
loop_
 _symmetry_equiv_pos_site_id
 _symmetry_equiv_pos_as_xyz
  1  'x, y, z'
loop_
 _atom_site_type_symbol
 _atom_site_label
 _atom_site_symmetry_multiplicity
 _atom_site_fract_x
 _atom_site_fract_y
 _atom_site_fract_z
 _atom_site_occupancy
  Yb  Yb0  1  1.12500000  -0.37500000  0.62500000  1.0
  Yb  Yb1  1  0.62500000  1.12500000  -0.37500000  1.0
  Yb  Yb2  1  0.62500000  0.62500000  0.12500000  1.0
  Yb  Yb3  1  0.62500000  0.62500000  -0.37500000  1.0
  Cd  Cd4  1  0.25000000  0.25000000  0.25000000  1.0
  Cd  Cd5  1  0.00000000  1.00000000  -0.00000000  1.0
  Se  Se6  1  -0.14609414  0.38203138  0.38203138  1.0
  Se  Se7  1  0.38203138  0.85390586  0.38203138  1.0
  Se  Se8  1  0.38203138  1.38203138  -0.14609414  1.0
  Se  Se9  1  0.38203138  0.38203138  0.38203138  1.0
  Se  Se10  1  0.39609414  0.86796862  -0.13203138  1.0
  Se  Se11  1  0.86796862  -0.60390586  0.86796862  1.0
  Se  Se12  1  0.86796862  0.86796862  -0.60390586  1.0
  Se  Se13  1  0.86796862  -0.13203138  0.86796862  1.0
