# generated using pymatgen
data_FeCl3
_symmetry_space_group_name_H-M   'P 1'
_cell_length_a   7.49094856
_cell_length_b   7.49094856
_cell_length_c   7.49094856
_cell_angle_alpha   48.90757659
_cell_angle_beta   48.90757659
_cell_angle_gamma   48.90757659
_symmetry_Int_Tables_number   1
_chemical_formula_structural   FeCl3
_chemical_formula_sum   'Fe2 Cl6'
_cell_volume   219.17391954
_cell_formula_units_Z   2
loop_
 _symmetry_equiv_pos_site_id
 _symmetry_equiv_pos_as_xyz
  1  'x, y, z'
loop_
 _atom_site_type_symbol
 _atom_site_label
 _atom_site_symmetry_multiplicity
 _atom_site_fract_x
 _atom_site_fract_y
 _atom_site_fract_z
 _atom_site_occupancy
  Fe  Fe0  1  0.16665318  0.16665318  0.16665318  1.0
  Fe  Fe1  1  0.83334682  -0.16665318  -0.16665318  1.0
  Cl  Cl2  1  0.43004356  0.06251565  -0.20248907  1.0
  Cl  Cl3  1  1.20248907  -0.43004356  -0.06251565  1.0
  Cl  Cl4  1  0.93748435  0.20248907  -0.43004356  1.0
  Cl  Cl5  1  0.56995644  -0.06251565  0.20248907  1.0
  Cl  Cl6  1  0.79751093  -0.56995644  0.06251565  1.0
  Cl  Cl7  1  1.06251565  -0.20248907  -0.56995644  1.0
