# generated using pymatgen
data_Ta3GaAu
_symmetry_space_group_name_H-M   'P 1'
_cell_length_a   7.00995001
_cell_length_b   7.00995001
_cell_length_c   7.00995001
_cell_angle_alpha   90.00000000
_cell_angle_beta   90.00000000
_cell_angle_gamma   90.00000000
_symmetry_Int_Tables_number   1
_chemical_formula_structural   Ta3GaAu
_chemical_formula_sum   'Ta12 Ga4 Au4'
_cell_volume   344.46473111
_cell_formula_units_Z   4
loop_
 _symmetry_equiv_pos_site_id
 _symmetry_equiv_pos_as_xyz
  1  'x, y, z'
loop_
 _atom_site_type_symbol
 _atom_site_label
 _atom_site_symmetry_multiplicity
 _atom_site_fract_x
 _atom_site_fract_y
 _atom_site_fract_z
 _atom_site_occupancy
  Ta  Ta0  1  0.04228697  0.86883299  0.70330890  1.0
  Ta  Ta1  1  0.29669110  0.54228697  0.63116701  1.0
  Ta  Ta2  1  0.36883299  0.79669110  0.95771303  1.0
  Ta  Ta3  1  0.54228697  0.63116701  0.29669110  1.0
  Ta  Ta4  1  0.79669110  0.95771303  0.36883299  1.0
  Ta  Ta5  1  0.86883299  0.70330890  0.04228697  1.0
  Ta  Ta6  1  0.95771303  0.36883299  0.79669110  1.0
  Ta  Ta7  1  0.70330890  0.04228697  0.86883299  1.0
  Ta  Ta8  1  0.63116701  0.29669110  0.54228697  1.0
  Ta  Ta9  1  0.45771303  0.13116701  0.20330890  1.0
  Ta  Ta10  1  0.20330890  0.45771303  0.13116701  1.0
  Ta  Ta11  1  0.13116701  0.20330890  0.45771303  1.0
  Ga  Ga12  1  0.81378841  0.31378841  0.18621159  1.0
  Ga  Ga13  1  0.31378841  0.18621159  0.81378841  1.0
  Ga  Ga14  1  0.18621159  0.81378841  0.31378841  1.0
  Ga  Ga15  1  0.68621159  0.68621159  0.68621159  1.0
  Au  Au16  1  0.43490106  0.93490106  0.56509894  1.0
  Au  Au17  1  0.93490106  0.56509894  0.43490106  1.0
  Au  Au18  1  0.56509894  0.43490106  0.93490106  1.0
  Au  Au19  1  0.06509894  0.06509894  0.06509894  1.0
