# generated using pymatgen
data_EuRhO3
_symmetry_space_group_name_H-M   'P 1'
_cell_length_a   5.79749817
_cell_length_b   7.78372904
_cell_length_c   5.41841983
_cell_angle_alpha   90.00000000
_cell_angle_beta   90.00000000
_cell_angle_gamma   90.00000000
_symmetry_Int_Tables_number   1
_chemical_formula_structural   EuRhO3
_chemical_formula_sum   'Eu4 Rh4 O12'
_cell_volume   244.51245255
_cell_formula_units_Z   4
loop_
 _symmetry_equiv_pos_site_id
 _symmetry_equiv_pos_as_xyz
  1  'x, y, z'
loop_
 _atom_site_type_symbol
 _atom_site_label
 _atom_site_symmetry_multiplicity
 _atom_site_fract_x
 _atom_site_fract_y
 _atom_site_fract_z
 _atom_site_occupancy
  Eu  Eu0  1  0.07377272  0.75000000  0.52335010  1.0
  Eu  Eu1  1  0.57377272  0.75000000  0.97664990  1.0
  Eu  Eu2  1  0.92622728  0.25000000  0.47664990  1.0
  Eu  Eu3  1  0.42622728  0.25000000  0.02335010  1.0
  Rh  Rh4  1  0.50000000  0.00000000  0.50000000  1.0
  Rh  Rh5  1  0.50000000  0.50000000  0.50000000  1.0
  Rh  Rh6  1  0.00000000  0.00000000  0.00000000  1.0
  Rh  Rh7  1  0.00000000  0.50000000  0.00000000  1.0
  O  O8  1  0.30367051  0.94601885  0.81215897  1.0
  O  O9  1  0.30367051  0.55398115  0.81215897  1.0
  O  O10  1  0.80367051  0.94601885  0.68784103  1.0
  O  O11  1  0.80367051  0.55398115  0.68784103  1.0
  O  O12  1  0.69632949  0.44601885  0.18784103  1.0
  O  O13  1  0.69632949  0.05398115  0.18784103  1.0
  O  O14  1  0.19632949  0.44601885  0.31215897  1.0
  O  O15  1  0.19632949  0.05398115  0.31215897  1.0
  O  O16  1  0.96394299  0.75000000  0.11088415  1.0
  O  O17  1  0.46394299  0.75000000  0.38911585  1.0
  O  O18  1  0.03605701  0.25000000  0.88911585  1.0
  O  O19  1  0.53605701  0.25000000  0.61088415  1.0
