# generated using pymatgen
data_CdI2
_symmetry_space_group_name_H-M   'P 1'
_cell_length_a   4.32763895
_cell_length_b   4.32763895
_cell_length_c   53.03384663
_cell_angle_alpha   90.00000000
_cell_angle_beta   90.00000000
_cell_angle_gamma   120.00000000
_symmetry_Int_Tables_number   1
_chemical_formula_structural   CdI2
_chemical_formula_sum   'Cd7 I14'
_cell_volume   860.17299083
_cell_formula_units_Z   7
loop_
 _symmetry_equiv_pos_site_id
 _symmetry_equiv_pos_as_xyz
  1  'x, y, z'
loop_
 _atom_site_type_symbol
 _atom_site_label
 _atom_site_symmetry_multiplicity
 _atom_site_fract_x
 _atom_site_fract_y
 _atom_site_fract_z
 _atom_site_occupancy
  Cd  Cd0  1  0.00000000  0.00000000  0.03571630  1.0
  Cd  Cd1  1  0.00000000  0.00000000  0.46430865  1.0
  Cd  Cd2  1  0.00000000  0.00000000  0.60713961  1.0
  Cd  Cd3  1  0.00000000  0.00000000  0.74997997  1.0
  Cd  Cd4  1  0.66666667  0.33333333  0.17860306  1.0
  Cd  Cd5  1  0.66666667  0.33333333  0.32139735  1.0
  Cd  Cd6  1  0.33333333  0.66666667  0.89285477  1.0
  I  I7  1  0.00000000  0.00000000  0.21100989  1.0
  I  I8  1  0.00000000  0.00000000  0.35380681  1.0
  I  I9  1  0.00000000  0.00000000  0.86043544  1.0
  I  I10  1  0.66666667  0.33333333  0.06812823  1.0
  I  I11  1  0.66666667  0.33333333  0.49671569  1.0
  I  I12  1  0.66666667  0.33333333  0.63955957  1.0
  I  I13  1  0.66666667  0.33333333  0.78238732  1.0
  I  I14  1  0.66666667  0.33333333  0.92527688  1.0
  I  I15  1  0.33333333  0.66666667  0.00330761  1.0
  I  I16  1  0.33333333  0.66666667  0.14619613  1.0
  I  I17  1  0.33333333  0.66666667  0.28898729  1.0
  I  I18  1  0.33333333  0.66666667  0.43190132  1.0
  I  I19  1  0.33333333  0.66666667  0.57471407  1.0
  I  I20  1  0.33333333  0.66666667  0.71757404  1.0
