# generated using pymatgen
data_CI
_symmetry_space_group_name_H-M   'P 1'
_cell_length_a   15.84630953
_cell_length_b   15.84630953
_cell_length_c   4.87884634
_cell_angle_alpha   90.00000000
_cell_angle_beta   90.00000000
_cell_angle_gamma   90.00000000
_symmetry_Int_Tables_number   1
_chemical_formula_structural   CI
_chemical_formula_sum   'C16 I16'
_cell_volume   1225.10527487
_cell_formula_units_Z   16
loop_
 _symmetry_equiv_pos_site_id
 _symmetry_equiv_pos_as_xyz
  1  'x, y, z'
loop_
 _atom_site_type_symbol
 _atom_site_label
 _atom_site_symmetry_multiplicity
 _atom_site_fract_x
 _atom_site_fract_y
 _atom_site_fract_z
 _atom_site_occupancy
  C  C0  1  0.22779416  0.96073219  0.13878175  1.0
  C  C1  1  0.77220584  0.03926781  0.13878175  1.0
  C  C2  1  0.46073219  0.27220584  0.63878175  1.0
  C  C3  1  0.53926781  0.72779416  0.63878175  1.0
  C  C4  1  0.27220584  0.53926781  0.36121825  1.0
  C  C5  1  0.72779416  0.46073219  0.36121825  1.0
  C  C6  1  0.03926781  0.22779416  0.86121825  1.0
  C  C7  1  0.96073219  0.77220584  0.86121825  1.0
  C  C8  1  0.27957632  0.01248920  0.22092602  1.0
  C  C9  1  0.72042368  0.98751080  0.22092602  1.0
  C  C10  1  0.51248920  0.22042368  0.72092602  1.0
  C  C11  1  0.48751080  0.77957632  0.72092602  1.0
  C  C12  1  0.22042368  0.48751080  0.27907398  1.0
  C  C13  1  0.77957632  0.51248920  0.27907398  1.0
  C  C14  1  0.98751080  0.27957632  0.77907398  1.0
  C  C15  1  0.01248920  0.72042368  0.77907398  1.0
  I  I16  1  0.14059272  0.87596988  0.02078618  1.0
  I  I17  1  0.85940728  0.12403012  0.02078618  1.0
  I  I18  1  0.37596988  0.35940728  0.52078618  1.0
  I  I19  1  0.62403012  0.64059272  0.52078618  1.0
  I  I20  1  0.35940728  0.62403012  0.47921382  1.0
  I  I21  1  0.64059272  0.37596988  0.47921382  1.0
  I  I22  1  0.12403012  0.14059272  0.97921382  1.0
  I  I23  1  0.87596988  0.85940728  0.97921382  1.0
  I  I24  1  0.36186017  0.09647747  0.37544776  1.0
  I  I25  1  0.63813983  0.90352253  0.37544776  1.0
  I  I26  1  0.59647747  0.13813983  0.87544776  1.0
  I  I27  1  0.40352253  0.86186017  0.87544776  1.0
  I  I28  1  0.13813983  0.40352253  0.12455224  1.0
  I  I29  1  0.86186017  0.59647747  0.12455224  1.0
  I  I30  1  0.90352253  0.36186017  0.62455224  1.0
  I  I31  1  0.09647747  0.63813983  0.62455224  1.0
