# generated using pymatgen
data_CsEuS2
_symmetry_space_group_name_H-M   'P 1'
_cell_length_a   4.23532285
_cell_length_b   4.23532285
_cell_length_c   16.01030112
_cell_angle_alpha   90.00000000
_cell_angle_beta   90.00000000
_cell_angle_gamma   120.00000000
_symmetry_Int_Tables_number   1
_chemical_formula_structural   CsEuS2
_chemical_formula_sum   'Cs2 Eu2 S4'
_cell_volume   248.71568497
_cell_formula_units_Z   2
loop_
 _symmetry_equiv_pos_site_id
 _symmetry_equiv_pos_as_xyz
  1  'x, y, z'
loop_
 _atom_site_type_symbol
 _atom_site_label
 _atom_site_symmetry_multiplicity
 _atom_site_fract_x
 _atom_site_fract_y
 _atom_site_fract_z
 _atom_site_occupancy
  Cs  Cs0  1  0.33333333  0.66666667  0.25000000  1.0
  Cs  Cs1  1  0.66666667  0.33333333  0.75000000  1.0
  Eu  Eu2  1  0.00000000  0.00000000  0.50000000  1.0
  Eu  Eu3  1  0.00000000  0.00000000  0.00000000  1.0
  S  S4  1  0.33333333  0.66666667  0.90831419  1.0
  S  S5  1  0.33333333  0.66666667  0.59168581  1.0
  S  S6  1  0.66666667  0.33333333  0.40831419  1.0
  S  S7  1  0.66666667  0.33333333  0.09168581  1.0
