# generated using pymatgen
data_CuAgO2
_symmetry_space_group_name_H-M   'P 1'
_cell_length_a   5.98016485
_cell_length_b   2.81955312
_cell_length_c   6.58343632
_cell_angle_alpha   90.00000000
_cell_angle_beta   109.97633536
_cell_angle_gamma   90.00000000
_symmetry_Int_Tables_number   1
_chemical_formula_structural   CuAgO2
_chemical_formula_sum   'Cu2 Ag2 O4'
_cell_volume   104.32710083
_cell_formula_units_Z   2
loop_
 _symmetry_equiv_pos_site_id
 _symmetry_equiv_pos_as_xyz
  1  'x, y, z'
loop_
 _atom_site_type_symbol
 _atom_site_label
 _atom_site_symmetry_multiplicity
 _atom_site_fract_x
 _atom_site_fract_y
 _atom_site_fract_z
 _atom_site_occupancy
  Cu  Cu0  1  -0.00000000  0.50000000  -0.00000000  1.0
  Cu  Cu1  1  0.00000000  0.00000000  0.50000000  1.0
  Ag  Ag2  1  0.50000000  0.50000000  0.50000000  1.0
  Ag  Ag3  1  0.50000000  -0.00000000  0.00000000  1.0
  O  O4  1  0.79045004  0.49999873  0.38000005  1.0
  O  O5  1  0.79045004  0.00000127  0.88000005  1.0
  O  O6  1  0.20954996  0.99999873  0.11999995  1.0
  O  O7  1  0.20954996  0.50000127  0.61999995  1.0
