# generated using pymatgen
data_Hf9BW4
_symmetry_space_group_name_H-M   'P 1'
_cell_length_a   8.57627628
_cell_length_b   8.57627628
_cell_length_c   8.53404717
_cell_angle_alpha   90.00000000
_cell_angle_beta   90.00000000
_cell_angle_gamma   120.00000000
_symmetry_Int_Tables_number   1
_chemical_formula_structural   Hf9BW4
_chemical_formula_sum   'Hf18 B2 W8'
_cell_volume   543.60469181
_cell_formula_units_Z   2
loop_
 _symmetry_equiv_pos_site_id
 _symmetry_equiv_pos_as_xyz
  1  'x, y, z'
loop_
 _atom_site_type_symbol
 _atom_site_label
 _atom_site_symmetry_multiplicity
 _atom_site_fract_x
 _atom_site_fract_y
 _atom_site_fract_z
 _atom_site_occupancy
  Hf  Hf0  1  0.20307049  0.79692951  0.44373023  1.0
  Hf  Hf1  1  0.20307049  0.79692951  0.05626977  1.0
  Hf  Hf2  1  0.20307049  0.40614097  0.44373023  1.0
  Hf  Hf3  1  0.20307049  0.40614097  0.05626977  1.0
  Hf  Hf4  1  0.79692951  0.20307049  0.94373023  1.0
  Hf  Hf5  1  0.79692951  0.20307049  0.55626977  1.0
  Hf  Hf6  1  0.79692951  0.59385903  0.94373023  1.0
  Hf  Hf7  1  0.79692951  0.59385903  0.55626977  1.0
  Hf  Hf8  1  0.59385903  0.79692951  0.44373023  1.0
  Hf  Hf9  1  0.59385903  0.79692951  0.05626977  1.0
  Hf  Hf10  1  0.40614097  0.20307049  0.94373023  1.0
  Hf  Hf11  1  0.40614097  0.20307049  0.55626977  1.0
  Hf  Hf12  1  0.54006792  0.45993208  0.25000000  1.0
  Hf  Hf13  1  0.54006792  0.08013585  0.25000000  1.0
  Hf  Hf14  1  0.45993208  0.54006792  0.75000000  1.0
  Hf  Hf15  1  0.45993208  0.91986415  0.75000000  1.0
  Hf  Hf16  1  0.91986415  0.45993208  0.25000000  1.0
  Hf  Hf17  1  0.08013585  0.54006792  0.75000000  1.0
  B  B18  1  0.33333333  0.66666667  0.25000000  1.0
  B  B19  1  0.66666667  0.33333333  0.75000000  1.0
  W  W20  1  0.88894815  0.11105185  0.25000000  1.0
  W  W21  1  0.88894815  0.77789629  0.25000000  1.0
  W  W22  1  0.11105185  0.88894815  0.75000000  1.0
  W  W23  1  0.11105185  0.22210371  0.75000000  1.0
  W  W24  1  0.22210371  0.11105185  0.25000000  1.0
  W  W25  1  0.77789629  0.88894815  0.75000000  1.0
  W  W26  1  0.00000000  0.00000000  0.50000000  1.0
  W  W27  1  0.00000000  0.00000000  0.00000000  1.0
