# generated using pymatgen
data_Sb(IF3)2
_symmetry_space_group_name_H-M   'P 1'
_cell_length_a   8.50775972
_cell_length_b   6.22322336
_cell_length_c   8.57640624
_cell_angle_alpha   83.42135101
_cell_angle_beta   77.73859045
_cell_angle_gamma   86.33255374
_symmetry_Int_Tables_number   1
_chemical_formula_structural   Sb(IF3)2
_chemical_formula_sum   'Sb2 I4 F12'
_cell_volume   440.43630407
_cell_formula_units_Z   2
loop_
 _symmetry_equiv_pos_site_id
 _symmetry_equiv_pos_as_xyz
  1  'x, y, z'
loop_
 _atom_site_type_symbol
 _atom_site_label
 _atom_site_symmetry_multiplicity
 _atom_site_fract_x
 _atom_site_fract_y
 _atom_site_fract_z
 _atom_site_occupancy
  Sb  Sb0  1  -0.79672203  -0.95614990  -0.80831096  1.0
  Sb  Sb1  1  -0.20327797  -0.04385010  -0.19168904  1.0
  I  I2  1  -0.73736789  -0.61058390  -0.43238642  1.0
  I  I3  1  -0.26263211  -0.38941610  -0.56761358  1.0
  I  I4  1  -0.42570672  -0.59023628  -0.73354545  1.0
  I  I5  1  -0.57429328  -0.40976372  -0.26645455  1.0
  F  F6  1  -0.94284884  -0.79446926  -0.92188449  1.0
  F  F7  1  -0.05715116  -0.20553074  -0.07811551  1.0
  F  F8  1  -0.35301957  -0.90346111  -0.31482571  1.0
  F  F9  1  -0.64698043  -0.09653889  -0.68517429  1.0
  F  F10  1  -0.30046944  -0.89433578  -1.00976837  1.0
  F  F11  1  -0.69953056  -0.10566422  0.00976837  1.0
  F  F12  1  -0.88516572  -0.79472531  -0.62354283  1.0
  F  F13  1  -0.11483428  -0.20527469  -0.37645717  1.0
  F  F14  1  -0.94635318  -0.18022391  -0.72528312  1.0
  F  F15  1  -0.05364682  -0.81977609  -0.27471688  1.0
  F  F16  1  -0.64266839  -0.72581912  -0.88050188  1.0
  F  F17  1  -0.35733161  -0.27418088  -0.11949812  1.0
