# generated using pymatgen
data_K2CrSO7
_symmetry_space_group_name_H-M   'P 1'
_cell_length_a   7.51343373
_cell_length_b   7.50817281
_cell_length_c   14.91145320
_cell_angle_alpha   90.00000000
_cell_angle_beta   117.76775700
_cell_angle_gamma   90.00000000
_symmetry_Int_Tables_number   1
_chemical_formula_structural   K2CrSO7
_chemical_formula_sum   'K8 Cr4 S4 O28'
_cell_volume   744.31891048
_cell_formula_units_Z   4
loop_
 _symmetry_equiv_pos_site_id
 _symmetry_equiv_pos_as_xyz
  1  'x, y, z'
loop_
 _atom_site_type_symbol
 _atom_site_label
 _atom_site_symmetry_multiplicity
 _atom_site_fract_x
 _atom_site_fract_y
 _atom_site_fract_z
 _atom_site_occupancy
  K  K0  1  0.44828112  0.27584878  0.13623010  1.0
  K  K1  1  0.44828112  0.22415122  0.63623010  1.0
  K  K2  1  0.55171888  0.77584878  0.36376990  1.0
  K  K3  1  0.55171888  0.72415122  0.86376990  1.0
  K  K4  1  0.97445195  0.11597778  0.34461210  1.0
  K  K5  1  0.97445195  0.38402222  0.84461210  1.0
  K  K6  1  0.02554805  0.61597778  0.15538790  1.0
  K  K7  1  0.02554805  0.88402222  0.65538790  1.0
  Cr  Cr8  1  0.89894745  0.16905329  0.07932484  1.0
  Cr  Cr9  1  0.89894745  0.33094671  0.57932484  1.0
  Cr  Cr10  1  0.10105255  0.66905329  0.42067516  1.0
  Cr  Cr11  1  0.10105255  0.83094671  0.92067516  1.0
  S  S12  1  0.49377375  0.28247774  0.38430432  1.0
  S  S13  1  0.49377375  0.21752226  0.88430432  1.0
  S  S14  1  0.50622625  0.78247774  0.11569568  1.0
  S  S15  1  0.50622625  0.71752226  0.61569568  1.0
  O  O16  1  0.37304956  0.41437414  0.30676960  1.0
  O  O17  1  0.37304956  0.08562586  0.80676960  1.0
  O  O18  1  0.62695044  0.91437414  0.19323040  1.0
  O  O19  1  0.62695044  0.58562586  0.69323040  1.0
  O  O20  1  0.96811018  0.79767057  0.45387405  1.0
  O  O21  1  0.96811018  0.70232943  0.95387405  1.0
  O  O22  1  0.03188982  0.29767057  0.04612595  1.0
  O  O23  1  0.03188982  0.20232943  0.54612595  1.0
  O  O24  1  0.97581045  0.49438961  0.36397125  1.0
  O  O25  1  0.97581045  0.00561039  0.86397125  1.0
  O  O26  1  0.02418955  0.99438961  0.13602875  1.0
  O  O27  1  0.02418955  0.50561039  0.63602875  1.0
  O  O28  1  0.83507460  0.28046646  0.15318847  1.0
  O  O29  1  0.83507460  0.21953354  0.65318847  1.0
  O  O30  1  0.16492540  0.78046646  0.34681153  1.0
  O  O31  1  0.16492540  0.71953354  0.84681153  1.0
  O  O32  1  0.67247345  0.40265153  0.46802478  1.0
  O  O33  1  0.67247345  0.09734847  0.96802478  1.0
  O  O34  1  0.32752655  0.90265153  0.03197522  1.0
  O  O35  1  0.32752655  0.59734847  0.53197522  1.0
  O  O36  1  0.59096710  0.15149988  0.34744018  1.0
  O  O37  1  0.59096710  0.34850012  0.84744018  1.0
  O  O38  1  0.40903290  0.65149988  0.15255982  1.0
  O  O39  1  0.40903290  0.84850012  0.65255982  1.0
  O  O40  1  0.38891538  0.20031322  0.43591071  1.0
  O  O41  1  0.38891538  0.29968678  0.93591071  1.0
  O  O42  1  0.61108462  0.70031322  0.06408929  1.0
  O  O43  1  0.61108462  0.79968678  0.56408929  1.0
