# generated using pymatgen
data_K2CoCl4
_symmetry_space_group_name_H-M   'P 1'
_cell_length_a   7.00330591
_cell_length_b   9.64884759
_cell_length_c   12.91055677
_cell_angle_alpha   90.00000000
_cell_angle_beta   106.81885529
_cell_angle_gamma   90.00000000
_symmetry_Int_Tables_number   1
_chemical_formula_structural   K2CoCl4
_chemical_formula_sum   'K8 Co4 Cl16'
_cell_volume   835.09761588
_cell_formula_units_Z   4
loop_
 _symmetry_equiv_pos_site_id
 _symmetry_equiv_pos_as_xyz
  1  'x, y, z'
loop_
 _atom_site_type_symbol
 _atom_site_label
 _atom_site_symmetry_multiplicity
 _atom_site_fract_x
 _atom_site_fract_y
 _atom_site_fract_z
 _atom_site_occupancy
  K  K0  1  0.91725753  0.41688500  0.17368969  1.0
  K  K1  1  0.91725753  0.08311500  0.67368969  1.0
  K  K2  1  0.08274247  0.91688500  0.32631031  1.0
  K  K3  1  0.08274247  0.58311500  0.82631031  1.0
  K  K4  1  0.71819933  0.84815104  0.98458439  1.0
  K  K5  1  0.71819933  0.65184896  0.48458439  1.0
  K  K6  1  0.28180067  0.34815104  0.51541561  1.0
  K  K7  1  0.28180067  0.15184896  0.01541561  1.0
  Co  Co8  1  0.63128793  0.15859164  0.32202058  1.0
  Co  Co9  1  0.63128793  0.34140836  0.82202058  1.0
  Co  Co10  1  0.36871207  0.65859164  0.17797942  1.0
  Co  Co11  1  0.36871207  0.84140836  0.67797942  1.0
  Cl  Cl12  1  0.81523626  0.34664674  0.39788210  1.0
  Cl  Cl13  1  0.81523626  0.15335326  0.89788210  1.0
  Cl  Cl14  1  0.18476374  0.84664674  0.10211790  1.0
  Cl  Cl15  1  0.18476374  0.65335326  0.60211790  1.0
  Cl  Cl16  1  0.71679398  0.11357972  0.16773792  1.0
  Cl  Cl17  1  0.71679398  0.38642028  0.66773792  1.0
  Cl  Cl18  1  0.28320602  0.61357972  0.33226208  1.0
  Cl  Cl19  1  0.28320602  0.88642028  0.83226208  1.0
  Cl  Cl20  1  0.72052401  0.97558061  0.43368457  1.0
  Cl  Cl21  1  0.72052401  0.52441939  0.93368457  1.0
  Cl  Cl22  1  0.27947599  0.47558061  0.06631543  1.0
  Cl  Cl23  1  0.27947599  0.02441939  0.56631543  1.0
  Cl  Cl24  1  0.30012616  0.19771661  0.28654273  1.0
  Cl  Cl25  1  0.30012616  0.30228339  0.78654273  1.0
  Cl  Cl26  1  0.69987384  0.69771661  0.21345727  1.0
  Cl  Cl27  1  0.69987384  0.80228339  0.71345727  1.0
