# generated using pymatgen
data_NbNi3
_symmetry_space_group_name_H-M   'P 1'
_cell_length_a   4.25202829
_cell_length_b   5.11473596
_cell_length_c   4.55393832
_cell_angle_alpha   90.00000000
_cell_angle_beta   90.00000000
_cell_angle_gamma   90.00000000
_symmetry_Int_Tables_number   1
_chemical_formula_structural   NbNi3
_chemical_formula_sum   'Nb2 Ni6'
_cell_volume   99.03905968
_cell_formula_units_Z   2
loop_
 _symmetry_equiv_pos_site_id
 _symmetry_equiv_pos_as_xyz
  1  'x, y, z'
loop_
 _atom_site_type_symbol
 _atom_site_label
 _atom_site_symmetry_multiplicity
 _atom_site_fract_x
 _atom_site_fract_y
 _atom_site_fract_z
 _atom_site_occupancy
  Nb  Nb0  1  0.50000000  0.00000000  0.15103126  1.0
  Nb  Nb1  1  0.00000000  0.50000000  0.84896874  1.0
  Ni  Ni2  1  0.50000000  0.75073464  0.65912763  1.0
  Ni  Ni3  1  0.50000000  0.24926536  0.65912763  1.0
  Ni  Ni4  1  0.00000000  0.25073464  0.34087237  1.0
  Ni  Ni5  1  0.00000000  0.74926536  0.34087237  1.0
  Ni  Ni6  1  0.50000000  0.50000000  0.18178949  1.0
  Ni  Ni7  1  0.00000000  0.00000000  0.81821051  1.0
