# generated using pymatgen
data_NaB(SO4)2
_symmetry_space_group_name_H-M   'P 1'
_cell_length_a   5.63733041
_cell_length_b   7.70212210
_cell_length_c   7.88921656
_cell_angle_alpha   90.00000000
_cell_angle_beta   108.34556110
_cell_angle_gamma   90.00000000
_symmetry_Int_Tables_number   1
_chemical_formula_structural   NaB(SO4)2
_chemical_formula_sum   'Na2 B2 S4 O16'
_cell_volume   325.13541963
_cell_formula_units_Z   2
loop_
 _symmetry_equiv_pos_site_id
 _symmetry_equiv_pos_as_xyz
  1  'x, y, z'
loop_
 _atom_site_type_symbol
 _atom_site_label
 _atom_site_symmetry_multiplicity
 _atom_site_fract_x
 _atom_site_fract_y
 _atom_site_fract_z
 _atom_site_occupancy
  Na  Na0  1  0.50000000  0.93013866  0.75000000  1.0
  Na  Na1  1  0.50000000  0.06986134  0.25000000  1.0
  B  B2  1  -0.00000000  0.46005033  0.75000000  1.0
  B  B3  1  0.00000000  0.53994967  0.25000000  1.0
  S  S4  1  0.87317534  0.72353653  0.50300882  1.0
  S  S5  1  0.87317534  0.27646347  0.00300882  1.0
  S  S6  1  0.12682466  0.72353653  0.99699118  1.0
  S  S7  1  0.12682466  0.27646347  0.49699118  1.0
  O  O8  1  0.87303611  0.78485527  0.91949971  1.0
  O  O9  1  0.87303611  0.21514473  0.41949971  1.0
  O  O10  1  0.12696389  0.78485527  0.58050029  1.0
  O  O11  1  0.12696389  0.21514473  0.08050029  1.0
  O  O12  1  0.82851303  0.34808269  0.81176929  1.0
  O  O13  1  0.82851303  0.65191731  0.31176929  1.0
  O  O14  1  0.17148697  0.34808269  0.68823071  1.0
  O  O15  1  0.17148697  0.65191731  0.18823071  1.0
  O  O16  1  0.82406304  0.56226222  0.60703053  1.0
  O  O17  1  0.82406304  0.43773778  0.10703053  1.0
  O  O18  1  0.17593696  0.56226222  0.89296947  1.0
  O  O19  1  0.17593696  0.43773778  0.39296947  1.0
  O  O20  1  0.67134783  0.84511022  0.48850614  1.0
  O  O21  1  0.67134783  0.15488978  0.98850614  1.0
  O  O22  1  0.32865217  0.84511022  0.01149386  1.0
  O  O23  1  0.32865217  0.15488978  0.51149386  1.0
