# generated using pymatgen
data_Sr2NiSe2(ClO3)2
_symmetry_space_group_name_H-M   'P 1'
_cell_length_a   5.40097006
_cell_length_b   6.54624419
_cell_length_c   13.25129419
_cell_angle_alpha   90.00000000
_cell_angle_beta   110.95615265
_cell_angle_gamma   90.00000000
_symmetry_Int_Tables_number   1
_chemical_formula_structural   Sr2NiSe2(ClO3)2
_chemical_formula_sum   'Sr4 Ni2 Se4 Cl4 O12'
_cell_volume   437.52355489
_cell_formula_units_Z   2
loop_
 _symmetry_equiv_pos_site_id
 _symmetry_equiv_pos_as_xyz
  1  'x, y, z'
loop_
 _atom_site_type_symbol
 _atom_site_label
 _atom_site_symmetry_multiplicity
 _atom_site_fract_x
 _atom_site_fract_y
 _atom_site_fract_z
 _atom_site_occupancy
  Sr  Sr0  1  0.28613408  0.29045814  0.26692846  1.0
  Sr  Sr1  1  0.28613408  0.20954186  0.76692846  1.0
  Sr  Sr2  1  0.71386592  0.79045814  0.23307154  1.0
  Sr  Sr3  1  0.71386592  0.70954186  0.73307154  1.0
  Ni  Ni4  1  -0.00000000  0.50000000  0.50000000  1.0
  Ni  Ni5  1  0.00000000  -0.00000000  0.00000000  1.0
  Se  Se6  1  0.57885577  0.25663904  0.07255027  1.0
  Se  Se7  1  0.57885577  0.24336096  0.57255027  1.0
  Se  Se8  1  0.42114423  0.75663904  0.42744973  1.0
  Se  Se9  1  0.42114423  0.74336096  0.92744973  1.0
  Cl  Cl10  1  0.95179928  0.18299724  0.39862287  1.0
  Cl  Cl11  1  0.95179928  0.31700276  0.89862287  1.0
  Cl  Cl12  1  0.04820072  0.68299724  0.10137713  1.0
  Cl  Cl13  1  0.04820072  0.81700276  0.60137713  1.0
  O  O14  1  0.88161388  0.12881067  0.12167210  1.0
  O  O15  1  0.88161388  0.37118933  0.62167210  1.0
  O  O16  1  0.11838612  0.62881067  0.37832790  1.0
  O  O17  1  0.11838612  0.87118933  0.87832790  1.0
  O  O18  1  0.60444365  0.42488444  0.17369778  1.0
  O  O19  1  0.60444365  0.07511556  0.67369778  1.0
  O  O20  1  0.39555635  0.92488444  0.32630222  1.0
  O  O21  1  0.39555635  0.57511556  0.82630222  1.0
  O  O22  1  0.38728084  0.06837052  0.10451780  1.0
  O  O23  1  0.38728084  0.43162948  0.60451780  1.0
  O  O24  1  0.61271916  0.56837052  0.39548220  1.0
  O  O25  1  0.61271916  0.93162948  0.89548220  1.0
