# generated using pymatgen
data_Lu3Si2(SnRh3)3
_symmetry_space_group_name_H-M   'P 1'
_cell_length_a   9.73242591
_cell_length_b   9.73242591
_cell_length_c   3.49452254
_cell_angle_alpha   90.00000000
_cell_angle_beta   90.00000000
_cell_angle_gamma   120.00000000
_symmetry_Int_Tables_number   1
_chemical_formula_structural   Lu3Si2(SnRh3)3
_chemical_formula_sum   'Lu3 Si2 Sn3 Rh9'
_cell_volume   286.65577121
_cell_formula_units_Z   1
loop_
 _symmetry_equiv_pos_site_id
 _symmetry_equiv_pos_as_xyz
  1  'x, y, z'
loop_
 _atom_site_type_symbol
 _atom_site_label
 _atom_site_symmetry_multiplicity
 _atom_site_fract_x
 _atom_site_fract_y
 _atom_site_fract_z
 _atom_site_occupancy
  Lu  Lu0  1  0.59864957  0.59864957  0.50000000  1.0
  Lu  Lu1  1  0.00000000  0.40135043  0.50000000  1.0
  Lu  Lu2  1  0.40135043  -0.00000000  0.50000000  1.0
  Si  Si3  1  0.33333333  0.66666667  0.50000000  1.0
  Si  Si4  1  0.66666667  0.33333333  0.50000000  1.0
  Sn  Sn5  1  0.23907429  0.23907429  0.50000000  1.0
  Sn  Sn6  1  -0.00000000  0.76092571  0.50000000  1.0
  Sn  Sn7  1  0.76092571  -0.00000000  0.50000000  1.0
  Rh  Rh8  1  0.18392655  0.70133056  0.00000000  1.0
  Rh  Rh9  1  0.70133056  0.18392655  -0.00000000  1.0
  Rh  Rh10  1  0.51740401  0.81607345  0.00000000  1.0
  Rh  Rh11  1  0.29866944  0.48259599  -0.00000000  1.0
  Rh  Rh12  1  0.81607345  0.51740401  0.00000000  1.0
  Rh  Rh13  1  0.48259599  0.29866944  0.00000000  1.0
  Rh  Rh14  1  0.83270359  0.83270359  0.00000000  1.0
  Rh  Rh15  1  -0.00000000  0.16729641  0.00000000  1.0
  Rh  Rh16  1  0.16729641  -0.00000000  0.00000000  1.0
