# generated using pymatgen
data_LiLaSn2
_symmetry_space_group_name_H-M   'P 1'
_cell_length_a   9.92568647
_cell_length_b   9.92568647
_cell_length_c   4.58051037
_cell_angle_alpha   90.00000000
_cell_angle_beta   90.00000000
_cell_angle_gamma   153.15933501
_symmetry_Int_Tables_number   1
_chemical_formula_structural   LiLaSn2
_chemical_formula_sum   'Li2 La2 Sn4'
_cell_volume   203.75263929
_cell_formula_units_Z   2
loop_
 _symmetry_equiv_pos_site_id
 _symmetry_equiv_pos_as_xyz
  1  'x, y, z'
loop_
 _atom_site_type_symbol
 _atom_site_label
 _atom_site_symmetry_multiplicity
 _atom_site_fract_x
 _atom_site_fract_y
 _atom_site_fract_z
 _atom_site_occupancy
  Li  Li0  1  -0.82407469  0.82407469  0.25000000  1.0
  Li  Li1  1  -0.17592531  1.17592531  0.75000000  1.0
  La  La2  1  -0.60629426  0.60629426  0.25000000  1.0
  La  La3  1  -0.39370574  1.39370574  0.75000000  1.0
  Sn  Sn4  1  -0.95618143  0.95618143  0.25000000  1.0
  Sn  Sn5  1  -0.04381857  1.04381857  0.75000000  1.0
  Sn  Sn6  1  -0.25012193  1.25012193  0.25000000  1.0
  Sn  Sn7  1  -0.74987807  0.74987807  0.75000000  1.0
