# generated using pymatgen
data_Sr4P2O
_symmetry_space_group_name_H-M   'P 1'
_cell_length_a   8.71379402
_cell_length_b   8.71379402
_cell_length_c   8.71379402
_cell_angle_alpha   147.86680900
_cell_angle_beta   147.86680900
_cell_angle_gamma   46.08202175
_symmetry_Int_Tables_number   1
_chemical_formula_structural   Sr4P2O
_chemical_formula_sum   'Sr4 P2 O1'
_cell_volume   186.53704776
_cell_formula_units_Z   1
loop_
 _symmetry_equiv_pos_site_id
 _symmetry_equiv_pos_as_xyz
  1  'x, y, z'
loop_
 _atom_site_type_symbol
 _atom_site_label
 _atom_site_symmetry_multiplicity
 _atom_site_fract_x
 _atom_site_fract_y
 _atom_site_fract_z
 _atom_site_occupancy
  Sr  Sr0  1  0.82421787  0.82421787  1.00000000  1.0
  Sr  Sr1  1  0.17578213  0.17578213  -0.00000000  1.0
  Sr  Sr2  1  0.50000000  0.00000000  0.50000000  1.0
  Sr  Sr3  1  0.00000000  0.50000000  0.50000000  1.0
  P  P4  1  0.63521742  0.63521742  1.00000000  1.0
  P  P5  1  0.36478258  0.36478258  -0.00000000  1.0
  O  O6  1  0.00000000  0.00000000  0.00000000  1.0
