# generated using pymatgen
data_K6Co2O5
_symmetry_space_group_name_H-M   'P 1'
_cell_length_a   6.67238303
_cell_length_b   6.67238303
_cell_length_c   11.86251922
_cell_angle_alpha   90.00000000
_cell_angle_beta   90.00000000
_cell_angle_gamma   90.00000000
_symmetry_Int_Tables_number   1
_chemical_formula_structural   K6Co2O5
_chemical_formula_sum   'K12 Co4 O10'
_cell_volume   528.12760317
_cell_formula_units_Z   2
loop_
 _symmetry_equiv_pos_site_id
 _symmetry_equiv_pos_as_xyz
  1  'x, y, z'
loop_
 _atom_site_type_symbol
 _atom_site_label
 _atom_site_symmetry_multiplicity
 _atom_site_fract_x
 _atom_site_fract_y
 _atom_site_fract_z
 _atom_site_occupancy
  K  K0  1  0.18847229  0.18847229  0.50000000  1.0
  K  K1  1  0.68847229  0.31152771  0.00000000  1.0
  K  K2  1  0.81152771  0.81152771  0.50000000  1.0
  K  K3  1  0.31152771  0.68847229  0.00000000  1.0
  K  K4  1  0.50000000  0.50000000  0.28182039  1.0
  K  K5  1  0.50000000  0.50000000  0.71817961  1.0
  K  K6  1  0.00000000  0.00000000  0.78182039  1.0
  K  K7  1  0.00000000  0.00000000  0.21817961  1.0
  K  K8  1  0.50000000  0.00000000  0.25000000  1.0
  K  K9  1  0.50000000  0.00000000  0.75000000  1.0
  K  K10  1  0.00000000  0.50000000  0.75000000  1.0
  K  K11  1  0.00000000  0.50000000  0.25000000  1.0
  Co  Co12  1  0.29031367  0.70968633  0.50000000  1.0
  Co  Co13  1  0.79031367  0.79031367  0.00000000  1.0
  Co  Co14  1  0.70968633  0.29031367  0.50000000  1.0
  Co  Co15  1  0.20968633  0.20968633  0.00000000  1.0
  O  O16  1  0.21452522  0.78547478  0.36064408  1.0
  O  O17  1  0.21452522  0.78547478  0.63935592  1.0
  O  O18  1  0.71452522  0.71452522  0.86064408  1.0
  O  O19  1  0.71452522  0.71452522  0.13935592  1.0
  O  O20  1  0.78547478  0.21452522  0.36064408  1.0
  O  O21  1  0.78547478  0.21452522  0.63935592  1.0
  O  O22  1  0.28547478  0.28547478  0.86064408  1.0
  O  O23  1  0.28547478  0.28547478  0.13935592  1.0
  O  O24  1  0.50000000  0.50000000  0.50000000  1.0
  O  O25  1  0.00000000  0.00000000  0.00000000  1.0
