# generated using pymatgen
data_CsMo(PO4)2
_symmetry_space_group_name_H-M   'P 1'
_cell_length_a   5.22242027
_cell_length_b   12.14503628
_cell_length_c   13.14889307
_cell_angle_alpha   90.00000000
_cell_angle_beta   111.57283190
_cell_angle_gamma   90.00000000
_symmetry_Int_Tables_number   1
_chemical_formula_structural   CsMo(PO4)2
_chemical_formula_sum   'Cs4 Mo4 P8 O32'
_cell_volume   775.56796909
_cell_formula_units_Z   4
loop_
 _symmetry_equiv_pos_site_id
 _symmetry_equiv_pos_as_xyz
  1  'x, y, z'
loop_
 _atom_site_type_symbol
 _atom_site_label
 _atom_site_symmetry_multiplicity
 _atom_site_fract_x
 _atom_site_fract_y
 _atom_site_fract_z
 _atom_site_occupancy
  Cs  Cs0  1  0.72123143  0.84880854  0.44908966  1.0
  Cs  Cs1  1  0.72123143  0.65119146  0.94908966  1.0
  Cs  Cs2  1  0.27876857  0.34880854  0.05091034  1.0
  Cs  Cs3  1  0.27876857  0.15119146  0.55091034  1.0
  Mo  Mo4  1  0.94644622  0.05141103  0.18883789  1.0
  Mo  Mo5  1  0.94644622  0.44858897  0.68883789  1.0
  Mo  Mo6  1  0.05355378  0.55141103  0.31116211  1.0
  Mo  Mo7  1  0.05355378  0.94858897  0.81116211  1.0
  P  P8  1  0.63926095  0.40021399  0.41380842  1.0
  P  P9  1  0.63926095  0.09978601  0.91380842  1.0
  P  P10  1  0.36073905  0.90021399  0.08619158  1.0
  P  P11  1  0.36073905  0.59978601  0.58619158  1.0
  P  P12  1  0.53804157  0.17362129  0.30489260  1.0
  P  P13  1  0.53804157  0.32637871  0.80489260  1.0
  P  P14  1  0.46195843  0.67362129  0.19510740  1.0
  P  P15  1  0.46195843  0.82637871  0.69510740  1.0
  O  O16  1  0.95113207  0.47868260  0.19359432  1.0
  O  O17  1  0.95113207  0.02131740  0.69359432  1.0
  O  O18  1  0.04886793  0.97868260  0.30640568  1.0
  O  O19  1  0.04886793  0.52131740  0.80640568  1.0
  O  O20  1  0.78797827  0.14308671  0.02953973  1.0
  O  O21  1  0.78797827  0.35691329  0.52953973  1.0
  O  O22  1  0.21202173  0.64308671  0.47046027  1.0
  O  O23  1  0.21202173  0.85691329  0.97046027  1.0
  O  O24  1  0.79352196  0.49083523  0.37816511  1.0
  O  O25  1  0.79352196  0.00916477  0.87816511  1.0
  O  O26  1  0.20647804  0.99083523  0.12183489  1.0
  O  O27  1  0.20647804  0.50916477  0.62183489  1.0
  O  O28  1  0.66173605  0.14576087  0.21734657  1.0
  O  O29  1  0.66173605  0.35423913  0.71734657  1.0
  O  O30  1  0.33826395  0.64576087  0.28265343  1.0
  O  O31  1  0.33826395  0.85423913  0.78265343  1.0
  O  O32  1  0.64466840  0.10827680  0.40900169  1.0
  O  O33  1  0.64466840  0.39172320  0.90900169  1.0
  O  O34  1  0.35533160  0.60827680  0.09099831  1.0
  O  O35  1  0.35533160  0.89172320  0.59099831  1.0
  O  O36  1  0.62034859  0.30360326  0.32640699  1.0
  O  O37  1  0.62034859  0.19639674  0.82640699  1.0
  O  O38  1  0.37965141  0.80360326  0.17359301  1.0
  O  O39  1  0.37965141  0.69639674  0.67359301  1.0
  O  O40  1  0.34180851  0.43587868  0.39570936  1.0
  O  O41  1  0.34180851  0.06412132  0.89570936  1.0
  O  O42  1  0.65819149  0.93587868  0.10429064  1.0
  O  O43  1  0.65819149  0.56412132  0.60429064  1.0
  O  O44  1  0.21709012  0.17816739  0.24768939  1.0
  O  O45  1  0.21709012  0.32183261  0.74768939  1.0
  O  O46  1  0.78290988  0.67816739  0.25231061  1.0
  O  O47  1  0.78290988  0.82183261  0.75231061  1.0
