# generated using pymatgen
data_Cs2Ce3OF12
_symmetry_space_group_name_H-M   'P 1'
_cell_length_a   11.83698734
_cell_length_b   11.83698734
_cell_length_c   11.83698734
_cell_angle_alpha   41.61365688
_cell_angle_beta   41.61365688
_cell_angle_gamma   41.61365688
_symmetry_Int_Tables_number   1
_chemical_formula_structural   Cs2Ce3OF12
_chemical_formula_sum   'Cs4 Ce6 O2 F24'
_cell_volume   661.15607515
_cell_formula_units_Z   2
loop_
 _symmetry_equiv_pos_site_id
 _symmetry_equiv_pos_as_xyz
  1  'x, y, z'
loop_
 _atom_site_type_symbol
 _atom_site_label
 _atom_site_symmetry_multiplicity
 _atom_site_fract_x
 _atom_site_fract_y
 _atom_site_fract_z
 _atom_site_occupancy
  Cs  Cs0  1  0.86315048  0.86315048  0.86315048  1.0
  Cs  Cs1  1  1.13684952  1.13684952  0.13684952  1.0
  Cs  Cs2  1  1.50000000  0.50000000  0.50000000  1.0
  Cs  Cs3  1  0.00000000  0.00000000  0.00000000  1.0
  Ce  Ce4  1  1.42405624  1.42405624  -0.03049895  1.0
  Ce  Ce5  1  1.42405624  0.96950105  0.42405624  1.0
  Ce  Ce6  1  1.03049895  0.57594376  0.57594376  1.0
  Ce  Ce7  1  1.57594376  0.03049895  0.57594376  1.0
  Ce  Ce8  1  1.57594376  0.57594376  0.03049895  1.0
  Ce  Ce9  1  0.96950105  1.42405624  0.42405624  1.0
  O  O10  1  0.71468100  0.71468100  0.71468100  1.0
  O  O11  1  1.28531900  1.28531900  0.28531900  1.0
  F  F12  1  1.29587907  0.29587907  0.62689806  1.0
  F  F13  1  1.29587907  0.62689806  0.29587907  1.0
  F  F14  1  1.37310194  0.70412093  0.70412093  1.0
  F  F15  1  1.70412093  0.37310194  0.70412093  1.0
  F  F16  1  1.70412093  0.70412093  0.37310194  1.0
  F  F17  1  1.62689806  0.29587907  0.29587907  1.0
  F  F18  1  1.09152795  1.09152795  0.59309935  1.0
  F  F19  1  1.09152795  1.59309935  0.09152795  1.0
  F  F20  1  1.40690065  0.90847205  -0.09152795  1.0
  F  F21  1  0.90847205  1.40690065  -0.09152795  1.0
  F  F22  1  0.90847205  0.90847205  0.40690065  1.0
  F  F23  1  1.59309935  1.09152795  0.09152795  1.0
  F  F24  1  1.35008490  1.35008490  -0.08127610  1.0
  F  F25  1  1.35008490  0.91872390  0.35008490  1.0
  F  F26  1  1.08127610  0.64991510  0.64991510  1.0
  F  F27  1  1.64991510  0.08127610  0.64991510  1.0
  F  F28  1  1.64991510  0.64991510  0.08127610  1.0
  F  F29  1  0.91872390  1.35008490  0.35008490  1.0
  F  F30  1  0.64568710  -0.00000000  -0.64568710  1.0
  F  F31  1  0.64568710  -0.64568710  -0.00000000  1.0
  F  F32  1  -0.00000000  0.64568710  -0.64568710  1.0
  F  F33  1  0.00000000  0.35431290  -0.35431290  1.0
  F  F34  1  0.35431290  0.00000000  -0.35431290  1.0
  F  F35  1  0.35431290  -0.35431290  -0.00000000  1.0
