# generated using pymatgen
data_Mn(PO4)2
_symmetry_space_group_name_H-M   'P 1'
_cell_length_a   8.86674282
_cell_length_b   4.89739556
_cell_length_c   8.53099246
_cell_angle_alpha   90.00000000
_cell_angle_beta   125.22453933
_cell_angle_gamma   90.00000000
_symmetry_Int_Tables_number   1
_chemical_formula_structural   Mn(PO4)2
_chemical_formula_sum   'Mn2 P4 O16'
_cell_volume   302.61932269
_cell_formula_units_Z   2
loop_
 _symmetry_equiv_pos_site_id
 _symmetry_equiv_pos_as_xyz
  1  'x, y, z'
loop_
 _atom_site_type_symbol
 _atom_site_label
 _atom_site_symmetry_multiplicity
 _atom_site_fract_x
 _atom_site_fract_y
 _atom_site_fract_z
 _atom_site_occupancy
  P  P0  1  0.21084209  1.00652897  0.80333646  1.0
  P  P1  1  0.78915791  0.50652897  0.69666354  1.0
  P  P2  1  0.78915791  -0.00652897  0.19666354  1.0
  P  P3  1  0.21084209  0.49347103  0.30333646  1.0
  Mn  Mn4  1  -0.00000000  0.50000000  0.50000000  1.0
  Mn  Mn5  1  0.00000000  0.00000000  0.00000000  1.0
  O  O6  1  0.40322962  0.92822408  0.85513049  1.0
  O  O7  1  0.59677038  0.42822408  0.64486951  1.0
  O  O8  1  0.59677038  0.07177592  0.14486951  1.0
  O  O9  1  0.40322962  0.57177592  0.35513049  1.0
  O  O10  1  0.06536083  0.81903163  0.63461286  1.0
  O  O11  1  0.93463917  0.31903163  0.86538714  1.0
  O  O12  1  0.93463917  0.18096837  0.36538714  1.0
  O  O13  1  0.06536083  0.68096837  0.13461286  1.0
  O  O14  1  0.19893446  0.96336080  -0.02386676  1.0
  O  O15  1  0.80106554  0.46336080  0.52386676  1.0
  O  O16  1  0.80106554  0.03663920  1.02386676  1.0
  O  O17  1  0.19893446  0.53663920  0.47613324  1.0
  O  O18  1  0.84002566  0.80868262  0.76770454  1.0
  O  O19  1  0.15997434  0.30868262  0.73229546  1.0
  O  O20  1  0.15997434  0.19131738  0.23229546  1.0
  O  O21  1  0.84002566  0.69131738  0.26770454  1.0
