# generated using pymatgen
data_SbSO6
_symmetry_space_group_name_H-M   'P 1'
_cell_length_a   5.71494335
_cell_length_b   14.08685318
_cell_length_c   7.29736493
_cell_angle_alpha   90.00000000
_cell_angle_beta   124.12152848
_cell_angle_gamma   90.00000000
_symmetry_Int_Tables_number   1
_chemical_formula_structural   SbSO6
_chemical_formula_sum   'Sb4 S4 O24'
_cell_volume   486.34385976
_cell_formula_units_Z   4
loop_
 _symmetry_equiv_pos_site_id
 _symmetry_equiv_pos_as_xyz
  1  'x, y, z'
loop_
 _atom_site_type_symbol
 _atom_site_label
 _atom_site_symmetry_multiplicity
 _atom_site_fract_x
 _atom_site_fract_y
 _atom_site_fract_z
 _atom_site_occupancy
  O  O0  1  0.73060871  0.25710271  0.02903458  1.0
  O  O1  1  0.73060871  0.24289729  0.52903458  1.0
  O  O2  1  0.26939129  0.75710271  0.47096542  1.0
  O  O3  1  0.26939129  0.74289729  0.97096542  1.0
  O  O4  1  0.23351094  0.13303537  0.19422283  1.0
  O  O5  1  0.23351094  0.36696463  0.69422283  1.0
  O  O6  1  0.76648906  0.63303537  0.30577717  1.0
  O  O7  1  0.76648906  0.86696463  0.80577717  1.0
  O  O8  1  0.61719689  0.44964340  0.42044882  1.0
  O  O9  1  0.61719689  0.05035660  0.92044882  1.0
  O  O10  1  0.38280311  0.94964340  0.07955118  1.0
  O  O11  1  0.38280311  0.55035660  0.57955118  1.0
  O  O12  1  1.05326379  0.38696664  0.24963581  1.0
  O  O13  1  1.05326379  0.11303336  0.74963581  1.0
  O  O14  1  -0.05326379  0.88696664  0.25036419  1.0
  O  O15  1  -0.05326379  0.61303336  0.75036419  1.0
  O  O16  1  0.81927674  0.10613250  0.35824787  1.0
  O  O17  1  0.81927674  0.39386750  0.85824787  1.0
  O  O18  1  0.18072326  0.60613250  0.14175213  1.0
  O  O19  1  0.18072326  0.89386750  0.64175213  1.0
  O  O20  1  0.81625592  0.77705998  0.44300657  1.0
  O  O21  1  0.81625592  0.72294002  0.94300657  1.0
  O  O22  1  0.18374408  0.27705998  0.05699343  1.0
  O  O23  1  0.18374408  0.22294002  0.55699343  1.0
  Sb  Sb24  1  0.42058043  0.08908740  0.06184574  1.0
  Sb  Sb25  1  0.42058043  0.41091260  0.56184574  1.0
  Sb  Sb26  1  0.57941957  0.58908740  0.43815426  1.0
  Sb  Sb27  1  0.57941957  0.91091260  0.93815426  1.0
  S  S28  1  0.94062271  0.32072257  0.04878179  1.0
  S  S29  1  0.94062271  0.17927743  0.54878179  1.0
  S  S30  1  0.05937729  0.82072257  0.45121821  1.0
  S  S31  1  0.05937729  0.67927743  0.95121821  1.0
