# generated using pymatgen
data_Cs4P2Se9
_symmetry_space_group_name_H-M   'P 1'
_cell_length_a   7.53674236
_cell_length_b   7.53674236
_cell_length_c   20.29121854
_cell_angle_alpha   87.53010416
_cell_angle_beta   92.46989584
_cell_angle_gamma   86.70926947
_symmetry_Int_Tables_number   1
_chemical_formula_structural   Cs4P2Se9
_chemical_formula_sum   'Cs8 P4 Se18'
_cell_volume   1148.42179276
_cell_formula_units_Z   2
loop_
 _symmetry_equiv_pos_site_id
 _symmetry_equiv_pos_as_xyz
  1  'x, y, z'
loop_
 _atom_site_type_symbol
 _atom_site_label
 _atom_site_symmetry_multiplicity
 _atom_site_fract_x
 _atom_site_fract_y
 _atom_site_fract_z
 _atom_site_occupancy
  Cs  Cs0  1  0.71900009  -0.21245719  0.02788933  1.0
  Cs  Cs1  1  1.21245719  0.28099991  0.52788933  1.0
  Cs  Cs2  1  0.78754281  -0.28099991  0.47211067  1.0
  Cs  Cs3  1  1.28099991  0.21245719  0.97211067  1.0
  Cs  Cs4  1  0.27292825  -0.05203327  0.32293781  1.0
  Cs  Cs5  1  1.05203327  0.72707175  0.82293781  1.0
  Cs  Cs6  1  0.94796673  -0.72707175  0.17706219  1.0
  Cs  Cs7  1  1.72707175  0.05203327  0.67706219  1.0
  P  P8  1  1.75233726  0.22310928  0.87626346  1.0
  P  P9  1  0.77689072  -0.75233726  0.37626346  1.0
  P  P10  1  1.22310928  0.75233726  0.62373654  1.0
  P  P11  1  0.24766274  -0.22310928  0.12373654  1.0
  Se  Se12  1  1.76393659  0.00927502  0.31913292  1.0
  Se  Se13  1  0.99072498  -0.76393659  0.81913292  1.0
  Se  Se14  1  1.00927502  0.76393659  0.18086708  1.0
  Se  Se15  1  0.23606341  -0.00927502  0.68086708  1.0
  Se  Se16  1  1.70695149  0.21896139  0.48073093  1.0
  Se  Se17  1  0.78103861  -0.70695149  0.98073093  1.0
  Se  Se18  1  1.21896139  0.70695149  0.01926907  1.0
  Se  Se19  1  0.29304851  -0.21896139  0.51926907  1.0
  Se  Se20  1  1.38567129  0.01871491  0.14158016  1.0
  Se  Se21  1  0.98128509  -0.38567129  0.64158016  1.0
  Se  Se22  1  1.01871491  0.38567129  0.35841984  1.0
  Se  Se23  1  0.61432871  -0.01871491  0.85841984  1.0
  Se  Se24  1  1.52482727  0.44439154  0.34861404  1.0
  Se  Se25  1  0.55560846  -0.52482727  0.84861404  1.0
  Se  Se26  1  1.44439154  0.52482727  0.15138596  1.0
  Se  Se27  1  0.47517273  -0.44439154  0.65138596  1.0
  Se  Se28  1  0.60066299  -0.39933701  0.25000000  1.0
  Se  Se29  1  1.39933701  0.39933701  0.75000000  1.0
