# generated using pymatgen
data_HfGa
_symmetry_space_group_name_H-M   'P 1'
_cell_length_a   9.21370090
_cell_length_b   8.55503486
_cell_length_c   5.67337550
_cell_angle_alpha   90.00000000
_cell_angle_beta   90.00000000
_cell_angle_gamma   90.00000000
_symmetry_Int_Tables_number   1
_chemical_formula_structural   HfGa
_chemical_formula_sum   'Hf12 Ga12'
_cell_volume   447.19549769
_cell_formula_units_Z   12
loop_
 _symmetry_equiv_pos_site_id
 _symmetry_equiv_pos_as_xyz
  1  'x, y, z'
loop_
 _atom_site_type_symbol
 _atom_site_label
 _atom_site_symmetry_multiplicity
 _atom_site_fract_x
 _atom_site_fract_y
 _atom_site_fract_z
 _atom_site_occupancy
  Hf  Hf0  1  0.88328965  0.97310941  0.75000000  1.0
  Hf  Hf1  1  0.88328965  0.52689059  0.25000000  1.0
  Hf  Hf2  1  0.11671035  0.47310941  0.75000000  1.0
  Hf  Hf3  1  0.11671035  0.02689059  0.25000000  1.0
  Hf  Hf4  1  0.69192876  0.36497455  0.75000000  1.0
  Hf  Hf5  1  0.69192876  0.13502545  0.25000000  1.0
  Hf  Hf6  1  0.30807124  0.86497455  0.75000000  1.0
  Hf  Hf7  1  0.30807124  0.63502545  0.25000000  1.0
  Hf  Hf8  1  0.38913160  0.25000000  0.00000000  1.0
  Hf  Hf9  1  0.38913160  0.25000000  0.50000000  1.0
  Hf  Hf10  1  0.61086840  0.75000000  0.00000000  1.0
  Hf  Hf11  1  0.61086840  0.75000000  0.50000000  1.0
  Ga  Ga12  1  0.93344491  0.25000000  0.00000000  1.0
  Ga  Ga13  1  0.93344491  0.25000000  0.50000000  1.0
  Ga  Ga14  1  0.06655509  0.75000000  0.00000000  1.0
  Ga  Ga15  1  0.06655509  0.75000000  0.50000000  1.0
  Ga  Ga16  1  0.84916352  0.63324951  0.75000000  1.0
  Ga  Ga17  1  0.84916352  0.86675049  0.25000000  1.0
  Ga  Ga18  1  0.15083648  0.13324951  0.75000000  1.0
  Ga  Ga19  1  0.15083648  0.36675049  0.25000000  1.0
  Ga  Ga20  1  0.58690690  0.04881591  0.75000000  1.0
  Ga  Ga21  1  0.58690690  0.45118409  0.25000000  1.0
  Ga  Ga22  1  0.41309310  0.54881591  0.75000000  1.0
  Ga  Ga23  1  0.41309310  0.95118409  0.25000000  1.0
