# generated using pymatgen
data_Sr(InSe2)2
_symmetry_space_group_name_H-M   'P 1'
_cell_length_a   15.80456457
_cell_length_b   13.11402857
_cell_length_c   13.09941763
_cell_angle_alpha   74.15835159
_cell_angle_beta   52.96308272
_cell_angle_gamma   52.87856569
_symmetry_Int_Tables_number   1
_chemical_formula_structural   Sr(InSe2)2
_chemical_formula_sum   'Sr8 In16 Se32'
_cell_volume   1710.50254018
_cell_formula_units_Z   8
loop_
 _symmetry_equiv_pos_site_id
 _symmetry_equiv_pos_as_xyz
  1  'x, y, z'
loop_
 _atom_site_type_symbol
 _atom_site_label
 _atom_site_symmetry_multiplicity
 _atom_site_fract_x
 _atom_site_fract_y
 _atom_site_fract_z
 _atom_site_occupancy
  Sr  Sr0  1  0.50000000  0.50000000  -0.50000000  1.0
  Sr  Sr1  1  0.75000000  0.75000000  0.75000000  1.0
  Sr  Sr2  1  1.00000000  0.00000000  -0.00000000  1.0
  Sr  Sr3  1  0.25000000  1.25000000  0.25000000  1.0
  Sr  Sr4  1  0.75253941  0.24746059  -0.24746059  1.0
  Sr  Sr5  1  1.24746059  -0.24746059  0.24746059  1.0
  Sr  Sr6  1  0.49746059  1.00253941  0.49746059  1.0
  Sr  Sr7  1  0.00253941  1.49746059  0.00253941  1.0
  In  In8  1  0.98224440  0.65921257  0.26736202  1.0
  In  In9  1  1.26736202  0.09118101  -0.01775560  1.0
  In  In10  1  0.65921257  0.98224440  0.09118101  1.0
  In  In11  1  0.09118101  1.26736202  0.65921257  1.0
  In  In12  1  0.26775560  0.59078743  -0.01736202  1.0
  In  In13  1  -0.01736202  1.15881899  0.26775560  1.0
  In  In14  1  0.59078743  0.26775560  0.15881899  1.0
  In  In15  1  0.15881899  0.98263798  0.59078743  1.0
  In  In16  1  0.76153096  0.01234079  0.48726832  1.0
  In  In17  1  0.48726832  0.73885992  0.76153096  1.0
  In  In18  1  0.01234079  0.76153096  0.73885992  1.0
  In  In19  1  0.73885992  0.48726832  0.01234079  1.0
  In  In20  1  0.48846904  1.23765921  -0.23726832  1.0
  In  In21  1  -0.23726832  1.51114008  0.48846904  1.0
  In  In22  1  0.23765921  1.48846904  0.51114008  1.0
  In  In23  1  0.51114008  0.76273168  0.23765921  1.0
  Se  Se24  1  1.21582510  -0.46588149  0.71299466  1.0
  Se  Se25  1  0.71299466  0.53706173  1.21582510  1.0
  Se  Se26  1  0.53411851  0.21582510  0.53706173  1.0
  Se  Se27  1  0.53706173  0.71299466  0.53411851  1.0
  Se  Se28  1  1.03417490  0.71588149  0.53700534  1.0
  Se  Se29  1  0.53700534  0.71293827  1.03417490  1.0
  Se  Se30  1  0.71588149  1.03417490  -0.28706173  1.0
  Se  Se31  1  0.71293827  0.53700534  -0.28411851  1.0
  Se  Se32  1  0.21672024  1.03368473  0.71352816  1.0
  Se  Se33  1  0.71352816  0.03606687  0.21672024  1.0
  Se  Se34  1  1.03368473  0.21672024  0.03606687  1.0
  Se  Se35  1  0.03606687  0.71352816  1.03368473  1.0
  Se  Se36  1  0.03327976  1.21631527  0.53647184  1.0
  Se  Se37  1  0.53647184  1.21393313  0.03327976  1.0
  Se  Se38  1  0.21631527  1.03327976  0.21393313  1.0
  Se  Se39  1  0.21393313  1.53647184  0.21631527  1.0
  Se  Se40  1  0.27356002  1.29040281  -0.02083068  1.0
  Se  Se41  1  -0.02083068  1.45686785  0.27356002  1.0
  Se  Se42  1  0.29040281  1.27356002  0.45686785  1.0
  Se  Se43  1  0.45686785  0.97916932  0.29040281  1.0
  Se  Se44  1  0.97643998  -0.04040281  0.27083068  1.0
  Se  Se45  1  0.27083068  0.79313215  0.97643998  1.0
  Se  Se46  1  -0.04040281  0.97643998  0.79313215  1.0
  Se  Se47  1  0.79313215  0.27083068  -0.04040281  1.0
  Se  Se48  1  0.48108346  0.94518155  0.76616308  1.0
  Se  Se49  1  0.76616308  0.80757191  0.48108346  1.0
  Se  Se50  1  0.94518155  0.48108346  -0.19242809  1.0
  Se  Se51  1  0.80757191  0.76616308  -0.05481845  1.0
  Se  Se52  1  -0.23108346  1.30481845  0.48383692  1.0
  Se  Se53  1  0.48383692  0.44242809  -0.23108346  1.0
  Se  Se54  1  0.30481845  0.76891654  0.44242809  1.0
  Se  Se55  1  0.44242809  0.48383692  0.30481845  1.0
