# generated using pymatgen
data_CaSnO3
_symmetry_space_group_name_H-M   'P 1'
_cell_length_a   6.06964791
_cell_length_b   6.06964791
_cell_length_c   6.06964791
_cell_angle_alpha   54.56854875
_cell_angle_beta   54.56854875
_cell_angle_gamma   54.56854875
_symmetry_Int_Tables_number   1
_chemical_formula_structural   CaSnO3
_chemical_formula_sum   'Ca2 Sn2 O6'
_cell_volume   138.09968600
_cell_formula_units_Z   2
loop_
 _symmetry_equiv_pos_site_id
 _symmetry_equiv_pos_as_xyz
  1  'x, y, z'
loop_
 _atom_site_type_symbol
 _atom_site_label
 _atom_site_symmetry_multiplicity
 _atom_site_fract_x
 _atom_site_fract_y
 _atom_site_fract_z
 _atom_site_occupancy
  Ca  Ca0  1  0.36268624  0.36268624  -0.63731376  1.0
  Ca  Ca1  1  0.63731376  0.63731376  -0.36268624  1.0
  Sn  Sn2  1  0.15414224  0.15414224  0.15414224  1.0
  Sn  Sn3  1  0.84585776  -0.15414224  -0.15414224  1.0
  O  O4  1  0.44375152  0.03608907  -0.20915594  1.0
  O  O5  1  1.20915594  -0.44375152  -0.03608907  1.0
  O  O6  1  0.96391093  0.20915594  -0.44375152  1.0
  O  O7  1  0.55624848  -0.03608907  0.20915594  1.0
  O  O8  1  0.79084406  -0.55624848  0.03608907  1.0
  O  O9  1  1.03608907  -0.20915594  -0.55624848  1.0
