# generated using pymatgen
data_Hg2MoO4
_symmetry_space_group_name_H-M   'P 1'
_cell_length_a   5.29019120
_cell_length_b   9.52488720
_cell_length_c   11.27280693
_cell_angle_alpha   90.00000000
_cell_angle_beta   99.25211774
_cell_angle_gamma   90.00000000
_symmetry_Int_Tables_number   1
_chemical_formula_structural   Hg2MoO4
_chemical_formula_sum   'Hg8 Mo4 O16'
_cell_volume   560.62985118
_cell_formula_units_Z   4
loop_
 _symmetry_equiv_pos_site_id
 _symmetry_equiv_pos_as_xyz
  1  'x, y, z'
loop_
 _atom_site_type_symbol
 _atom_site_label
 _atom_site_symmetry_multiplicity
 _atom_site_fract_x
 _atom_site_fract_y
 _atom_site_fract_z
 _atom_site_occupancy
  Hg  Hg0  1  0.68035701  0.63529856  0.93650731  1.0
  Hg  Hg1  1  0.68035701  0.86470144  0.43650731  1.0
  Hg  Hg2  1  0.31964299  0.13529856  0.56349269  1.0
  Hg  Hg3  1  0.31964299  0.36470144  0.06349269  1.0
  Hg  Hg4  1  0.45364700  0.70792208  0.57297494  1.0
  Hg  Hg5  1  0.45364700  0.79207792  0.07297494  1.0
  Hg  Hg6  1  0.54635300  0.20792208  0.92702506  1.0
  Hg  Hg7  1  0.54635300  0.29207792  0.42702506  1.0
  Mo  Mo8  1  0.96561103  0.97204306  0.78450099  1.0
  Mo  Mo9  1  0.96561103  0.52795694  0.28450099  1.0
  Mo  Mo10  1  0.03438897  0.47204306  0.71549901  1.0
  Mo  Mo11  1  0.03438897  0.02795694  0.21549901  1.0
  O  O12  1  0.91106977  0.48728932  0.85617570  1.0
  O  O13  1  0.91106977  0.01271068  0.35617570  1.0
  O  O14  1  0.08893023  0.98728932  0.64382430  1.0
  O  O15  1  0.08893023  0.51271068  0.14382430  1.0
  O  O16  1  0.82730028  0.80468217  0.78595390  1.0
  O  O17  1  0.82730028  0.69531783  0.28595390  1.0
  O  O18  1  0.17269972  0.30468217  0.71404610  1.0
  O  O19  1  0.17269972  0.19531783  0.21404610  1.0
  O  O20  1  0.78684547  0.48736937  0.59271146  1.0
  O  O21  1  0.78684547  0.01263063  0.09271146  1.0
  O  O22  1  0.21315453  0.98736937  0.90728854  1.0
  O  O23  1  0.21315453  0.51263063  0.40728854  1.0
  O  O24  1  0.28007753  0.60316574  0.70751606  1.0
  O  O25  1  0.28007753  0.89683426  0.20751606  1.0
  O  O26  1  0.71992247  0.10316574  0.79248394  1.0
  O  O27  1  0.71992247  0.39683426  0.29248394  1.0
