# generated using pymatgen
data_AuCl
_symmetry_space_group_name_H-M   'P 1'
_cell_length_a   6.64889323
_cell_length_b   6.64889323
_cell_length_c   6.64889323
_cell_angle_alpha   115.29434136
_cell_angle_beta   115.29434136
_cell_angle_gamma   98.36408302
_symmetry_Int_Tables_number   1
_chemical_formula_structural   AuCl
_chemical_formula_sum   'Au4 Cl4'
_cell_volume   220.07948521
_cell_formula_units_Z   4
loop_
 _symmetry_equiv_pos_site_id
 _symmetry_equiv_pos_as_xyz
  1  'x, y, z'
loop_
 _atom_site_type_symbol
 _atom_site_label
 _atom_site_symmetry_multiplicity
 _atom_site_fract_x
 _atom_site_fract_y
 _atom_site_fract_z
 _atom_site_occupancy
  Au  Au0  1  0.37500000  1.12500000  0.75000000  1.0
  Au  Au1  1  0.87500000  0.62500000  0.25000000  1.0
  Au  Au2  1  1.37500000  0.62500000  0.75000000  1.0
  Au  Au3  1  0.37500000  0.62500000  0.25000000  1.0
  Cl  Cl4  1  0.20442322  0.20442322  -0.00000000  1.0
  Cl  Cl5  1  0.95442322  0.45442322  0.50000000  1.0
  Cl  Cl6  1  0.54557678  1.04557678  0.50000000  1.0
  Cl  Cl7  1  0.79557678  0.79557678  1.00000000  1.0
