# generated using pymatgen
data_MnSO3
_symmetry_space_group_name_H-M   'P 1'
_cell_length_a   8.01637986
_cell_length_b   8.01637986
_cell_length_c   8.01637986
_cell_angle_alpha   109.32458855
_cell_angle_beta   109.32458855
_cell_angle_gamma   109.32458855
_symmetry_Int_Tables_number   1
_chemical_formula_structural   MnSO3
_chemical_formula_sum   'Mn6 S6 O18'
_cell_volume   398.70208996
_cell_formula_units_Z   6
loop_
 _symmetry_equiv_pos_site_id
 _symmetry_equiv_pos_as_xyz
  1  'x, y, z'
loop_
 _atom_site_type_symbol
 _atom_site_label
 _atom_site_symmetry_multiplicity
 _atom_site_fract_x
 _atom_site_fract_y
 _atom_site_fract_z
 _atom_site_occupancy
  Mn  Mn0  1  0.68642679  0.86499114  0.18224035  1.0
  Mn  Mn1  1  1.13500886  -0.18224035  0.31357321  1.0
  Mn  Mn2  1  0.81775965  0.31357321  0.13500886  1.0
  Mn  Mn3  1  1.31357321  0.13500886  -0.18224035  1.0
  Mn  Mn4  1  0.86499114  1.18224035  -0.31357321  1.0
  Mn  Mn5  1  1.18224035  0.68642679  -0.13500886  1.0
  S  S6  1  1.52420046  0.85359902  -0.29067926  1.0
  S  S7  1  1.14640098  0.29067926  -0.52420046  1.0
  S  S8  1  1.29067926  -0.52420046  0.14640098  1.0
  S  S9  1  0.47579954  0.14640098  0.29067926  1.0
  S  S10  1  0.85359902  0.70932074  0.52420046  1.0
  S  S11  1  0.70932074  1.52420046  -0.14640098  1.0
  O  O12  1  0.84122070  0.73149783  0.05863916  1.0
  O  O13  1  1.26850217  -0.05863916  0.15877930  1.0
  O  O14  1  0.94136084  0.15877930  0.26850217  1.0
  O  O15  1  1.15877930  0.26850217  -0.05863916  1.0
  O  O16  1  0.73149783  1.05863916  -0.15877930  1.0
  O  O17  1  1.05863916  0.84122070  -0.26850217  1.0
  O  O18  1  0.91676170  0.61968603  0.36616279  1.0
  O  O19  1  0.38031397  0.63383721  0.08323830  1.0
  O  O20  1  0.63383721  1.08323830  -0.61968603  1.0
  O  O21  1  1.08323830  0.38031397  -0.36616279  1.0
  O  O22  1  1.61968603  0.36616279  -0.08323830  1.0
  O  O23  1  1.36616279  -0.08323830  0.61968603  1.0
  O  O24  1  1.48038099  0.81145446  -0.12846972  1.0
  O  O25  1  1.18854554  0.12846972  -0.48038099  1.0
  O  O26  1  1.12846972  -0.48038099  0.18854554  1.0
  O  O27  1  0.51961901  0.18854554  0.12846972  1.0
  O  O28  1  0.81145446  0.87153028  0.48038099  1.0
  O  O29  1  0.87153028  1.48038099  -0.18854554  1.0
