# generated using pymatgen
data_Nb12SiNi4
_symmetry_space_group_name_H-M   'P 1'
_cell_length_a   10.05333069
_cell_length_b   10.05333069
_cell_length_c   10.05333069
_cell_angle_alpha   60.00000000
_cell_angle_beta   60.00000000
_cell_angle_gamma   60.00000000
_symmetry_Int_Tables_number   1
_chemical_formula_structural   Nb12SiNi4
_chemical_formula_sum   'Nb24 Si2 Ni8'
_cell_volume   718.48037088
_cell_formula_units_Z   2
loop_
 _symmetry_equiv_pos_site_id
 _symmetry_equiv_pos_as_xyz
  1  'x, y, z'
loop_
 _atom_site_type_symbol
 _atom_site_label
 _atom_site_symmetry_multiplicity
 _atom_site_fract_x
 _atom_site_fract_y
 _atom_site_fract_z
 _atom_site_occupancy
  Nb  Nb0  1  0.95044440  -0.59058734  0.68969854  1.0
  Nb  Nb1  1  -0.04955560  0.68969854  0.40941266  1.0
  Nb  Nb2  1  -0.15941266  0.29955560  0.29955560  1.0
  Nb  Nb3  1  0.56030146  0.29955560  0.29955560  1.0
  Nb  Nb4  1  -0.59058734  0.95044440  0.68969854  1.0
  Nb  Nb5  1  0.95044440  -0.04955560  0.68969854  1.0
  Nb  Nb6  1  0.95044440  -0.31030146  0.95044440  1.0
  Nb  Nb7  1  -0.59058734  0.68969854  0.95044440  1.0
  Nb  Nb8  1  0.29955560  -0.15941266  0.29955560  1.0
  Nb  Nb9  1  0.29955560  0.29955560  -0.15941266  1.0
  Nb  Nb10  1  0.56030146  0.29955560  -0.15941266  1.0
  Nb  Nb11  1  0.56030146  -0.15941266  0.29955560  1.0
  Nb  Nb12  1  0.68969854  -0.04955560  0.95044440  1.0
  Nb  Nb13  1  -0.59058734  0.95044440  0.95044440  1.0
  Nb  Nb14  1  0.29955560  0.56030146  -0.15941266  1.0
  Nb  Nb15  1  0.29955560  -0.15941266  0.56030146  1.0
  Nb  Nb16  1  -0.31030146  0.95044440  0.40941266  1.0
  Nb  Nb17  1  0.68969854  -0.59058734  0.95044440  1.0
  Nb  Nb18  1  0.95044440  -0.59058734  0.95044440  1.0
  Nb  Nb19  1  -0.04955560  0.95044440  0.40941266  1.0
  Nb  Nb20  1  0.29955560  0.56030146  0.29955560  1.0
  Nb  Nb21  1  -0.15941266  0.56030146  0.29955560  1.0
  Nb  Nb22  1  -0.15941266  0.29955560  0.56030146  1.0
  Nb  Nb23  1  0.29955560  0.29955560  0.56030146  1.0
  Si  Si24  1  0.50000000  0.50000000  -0.50000000  1.0
  Si  Si25  1  0.75000000  -0.25000000  0.75000000  1.0
  Ni  Ni26  1  0.66610215  -0.33389785  1.00169354  1.0
  Ni  Ni27  1  0.66610215  0.00169354  0.66610215  1.0
  Ni  Ni28  1  0.58389785  -0.41610215  0.58389785  1.0
  Ni  Ni29  1  1.24830646  -0.41610215  0.58389785  1.0
  Ni  Ni30  1  1.00169354  -0.33389785  0.66610215  1.0
  Ni  Ni31  1  0.66610215  -0.33389785  0.66610215  1.0
  Ni  Ni32  1  0.58389785  0.24830646  0.58389785  1.0
  Ni  Ni33  1  0.58389785  -0.41610215  1.24830646  1.0
