# generated using pymatgen
data_Cu3PSe4
_symmetry_space_group_name_H-M   'P 1'
_cell_length_a   7.76193009
_cell_length_b   6.73803078
_cell_length_c   6.43671688
_cell_angle_alpha   90.00000000
_cell_angle_beta   90.00000000
_cell_angle_gamma   90.00000000
_symmetry_Int_Tables_number   1
_chemical_formula_structural   Cu3PSe4
_chemical_formula_sum   'Cu6 P2 Se8'
_cell_volume   336.64109005
_cell_formula_units_Z   2
loop_
 _symmetry_equiv_pos_site_id
 _symmetry_equiv_pos_as_xyz
  1  'x, y, z'
loop_
 _atom_site_type_symbol
 _atom_site_label
 _atom_site_symmetry_multiplicity
 _atom_site_fract_x
 _atom_site_fract_y
 _atom_site_fract_z
 _atom_site_occupancy
  Cu  Cu0  1  0.50000000  0.65402195  0.99731758  1.0
  Cu  Cu1  1  0.00000000  0.34597805  0.49731758  1.0
  Cu  Cu2  1  0.24653797  0.17573743  0.00822619  1.0
  Cu  Cu3  1  0.74653797  0.82426257  0.50822619  1.0
  Cu  Cu4  1  0.75346203  0.17573743  0.00822619  1.0
  Cu  Cu5  1  0.25346203  0.82426257  0.50822619  1.0
  P  P6  1  0.50000000  0.32800445  0.49942308  1.0
  P  P7  1  0.00000000  0.67199555  -0.00057692  1.0
  Se  Se8  1  0.25639105  0.16340929  0.38152236  1.0
  Se  Se9  1  0.75639105  0.83659071  0.88152236  1.0
  Se  Se10  1  0.74360895  0.16340929  0.38152236  1.0
  Se  Se11  1  0.24360895  0.83659071  0.88152236  1.0
  Se  Se12  1  0.50000000  0.32125887  0.85823054  1.0
  Se  Se13  1  0.00000000  0.67874113  0.35823054  1.0
  Se  Se14  1  0.50000000  0.64710956  0.37483170  1.0
  Se  Se15  1  0.00000000  0.35289044  0.87483170  1.0
