# generated using pymatgen
data_CdI2
_symmetry_space_group_name_H-M   'P 1'
_cell_length_a   4.32807056
_cell_length_b   4.32807056
_cell_length_c   75.87423229
_cell_angle_alpha   90.00000000
_cell_angle_beta   90.00000000
_cell_angle_gamma   120.00000000
_symmetry_Int_Tables_number   1
_chemical_formula_structural   CdI2
_chemical_formula_sum   'Cd10 I20'
_cell_volume   1230.87402330
_cell_formula_units_Z   10
loop_
 _symmetry_equiv_pos_site_id
 _symmetry_equiv_pos_as_xyz
  1  'x, y, z'
loop_
 _atom_site_type_symbol
 _atom_site_label
 _atom_site_symmetry_multiplicity
 _atom_site_fract_x
 _atom_site_fract_y
 _atom_site_fract_z
 _atom_site_occupancy
  Cd  Cd0  1  0.00000000  0.00000000  0.02501368  1.0
  Cd  Cd1  1  0.00000000  0.00000000  0.12499567  1.0
  Cd  Cd2  1  0.00000000  0.00000000  0.22498124  1.0
  Cd  Cd3  1  0.00000000  0.00000000  0.42500034  1.0
  Cd  Cd4  1  0.00000000  0.00000000  0.72500130  1.0
  Cd  Cd5  1  0.66666667  0.33333333  0.32499822  1.0
  Cd  Cd6  1  0.66666667  0.33333333  0.52501133  1.0
  Cd  Cd7  1  0.66666667  0.33333333  0.62498085  1.0
  Cd  Cd8  1  0.66666667  0.33333333  0.82501164  1.0
  Cd  Cd9  1  0.66666667  0.33333333  0.92498211  1.0
  I  I10  1  0.00000000  0.00000000  0.34765865  1.0
  I  I11  1  0.00000000  0.00000000  0.54767027  1.0
  I  I12  1  0.00000000  0.00000000  0.64764151  1.0
  I  I13  1  0.00000000  0.00000000  0.84767070  1.0
  I  I14  1  0.00000000  0.00000000  0.94764362  1.0
  I  I15  1  0.66666667  0.33333333  0.04767375  1.0
  I  I16  1  0.66666667  0.33333333  0.14765706  1.0
  I  I17  1  0.66666667  0.33333333  0.24764190  1.0
  I  I18  1  0.66666667  0.33333333  0.44766100  1.0
  I  I19  1  0.66666667  0.33333333  0.74766251  1.0
  I  I20  1  0.33333333  0.66666667  0.00236210  1.0
  I  I21  1  0.33333333  0.66666667  0.10234118  1.0
  I  I22  1  0.33333333  0.66666667  0.20232390  1.0
  I  I23  1  0.33333333  0.66666667  0.30234581  1.0
  I  I24  1  0.33333333  0.66666667  0.40234887  1.0
  I  I25  1  0.33333333  0.66666667  0.50235974  1.0
  I  I26  1  0.33333333  0.66666667  0.60232458  1.0
  I  I27  1  0.33333333  0.66666667  0.70234961  1.0
  I  I28  1  0.33333333  0.66666667  0.80236021  1.0
  I  I29  1  0.33333333  0.66666667  0.90232665  1.0
