# generated using pymatgen
data_SrBPO5
_symmetry_space_group_name_H-M   'P 1'
_cell_length_a   6.94481612
_cell_length_b   6.94481612
_cell_length_c   6.89247550
_cell_angle_alpha   90.00000000
_cell_angle_beta   90.00000000
_cell_angle_gamma   120.00000000
_symmetry_Int_Tables_number   1
_chemical_formula_structural   SrBPO5
_chemical_formula_sum   'Sr3 B3 P3 O15'
_cell_volume   287.89052077
_cell_formula_units_Z   3
loop_
 _symmetry_equiv_pos_site_id
 _symmetry_equiv_pos_as_xyz
  1  'x, y, z'
loop_
 _atom_site_type_symbol
 _atom_site_label
 _atom_site_symmetry_multiplicity
 _atom_site_fract_x
 _atom_site_fract_y
 _atom_site_fract_z
 _atom_site_occupancy
  Sr  Sr0  1  0.39291226  0.39291226  0.00000000  1.0
  Sr  Sr1  1  0.00000000  0.60708774  0.66666667  1.0
  Sr  Sr2  1  0.60708774  0.00000000  0.33333333  1.0
  B  B3  1  0.90165187  0.90165187  0.00000000  1.0
  B  B4  1  -0.00000000  0.09834813  0.66666667  1.0
  B  B5  1  0.09834813  0.00000000  0.33333333  1.0
  P  P6  1  0.40395714  0.40395714  0.50000000  1.0
  P  P7  1  -0.00000000  0.59604286  0.16666667  1.0
  P  P8  1  0.59604286  0.00000000  0.83333333  1.0
  O  O9  1  0.41321196  0.86100631  0.68876474  1.0
  O  O10  1  0.86100631  0.41321196  0.31123526  1.0
  O  O11  1  0.44779435  0.58678804  0.35543141  1.0
  O  O12  1  0.13899369  0.55220565  0.02209807  1.0
  O  O13  1  0.58678804  0.44779435  0.64456859  1.0
  O  O14  1  0.55220565  0.13899369  0.97790193  1.0
  O  O15  1  0.85105832  0.66389327  0.03690414  1.0
  O  O16  1  0.66389327  0.85105832  0.96309586  1.0
  O  O17  1  0.81283496  0.14894168  0.70357081  1.0
  O  O18  1  0.33610673  0.18716504  0.37023747  1.0
  O  O19  1  0.14894168  0.81283496  0.29642919  1.0
  O  O20  1  0.18716504  0.33610673  0.62976253  1.0
  O  O21  1  0.95729438  0.95729438  0.50000000  1.0
  O  O22  1  0.00000000  0.04270562  0.16666667  1.0
  O  O23  1  0.04270562  0.00000000  0.83333333  1.0
