# generated using pymatgen
data_Ba5P3BrO12
_symmetry_space_group_name_H-M   'P 1'
_cell_length_a   10.52259369
_cell_length_b   10.52259369
_cell_length_c   7.73256210
_cell_angle_alpha   90.00000000
_cell_angle_beta   90.00000000
_cell_angle_gamma   120.00000000
_symmetry_Int_Tables_number   1
_chemical_formula_structural   Ba5P3BrO12
_chemical_formula_sum   'Ba10 P6 Br2 O24'
_cell_volume   741.48035660
_cell_formula_units_Z   2
loop_
 _symmetry_equiv_pos_site_id
 _symmetry_equiv_pos_as_xyz
  1  'x, y, z'
loop_
 _atom_site_type_symbol
 _atom_site_label
 _atom_site_symmetry_multiplicity
 _atom_site_fract_x
 _atom_site_fract_y
 _atom_site_fract_z
 _atom_site_occupancy
  Ba  Ba0  1  0.98991922  0.73479524  0.25000000  1.0
  Ba  Ba1  1  0.73479524  0.74487602  0.75000000  1.0
  Ba  Ba2  1  0.74487602  0.01008078  0.25000000  1.0
  Ba  Ba3  1  0.26520476  0.25512398  0.25000000  1.0
  Ba  Ba4  1  0.01008078  0.26520476  0.75000000  1.0
  Ba  Ba5  1  0.25512398  0.98991922  0.75000000  1.0
  Ba  Ba6  1  0.33333333  0.66666667  0.50092018  1.0
  Ba  Ba7  1  0.33333333  0.66666667  0.99907982  1.0
  Ba  Ba8  1  0.66666667  0.33333333  0.00092018  1.0
  Ba  Ba9  1  0.66666667  0.33333333  0.49907982  1.0
  P  P10  1  0.37053472  0.96211883  0.25000000  1.0
  P  P11  1  0.96211883  0.59158411  0.75000000  1.0
  P  P12  1  0.59158411  0.62946528  0.25000000  1.0
  P  P13  1  0.03788117  0.40841589  0.25000000  1.0
  P  P14  1  0.62946528  0.03788117  0.75000000  1.0
  P  P15  1  0.40841589  0.37053472  0.75000000  1.0
  Br  Br16  1  0.00000000  0.00000000  0.50000000  1.0
  Br  Br17  1  0.00000000  0.00000000  0.00000000  1.0
  O  O18  1  0.27074241  0.91144417  0.41449249  1.0
  O  O19  1  0.27074241  0.91144417  0.08550751  1.0
  O  O20  1  0.91144417  0.64070176  0.91449249  1.0
  O  O21  1  0.91144417  0.64070176  0.58550751  1.0
  O  O22  1  0.64070176  0.72925759  0.41449249  1.0
  O  O23  1  0.64070176  0.72925759  0.08550751  1.0
  O  O24  1  0.08855583  0.35929824  0.41449249  1.0
  O  O25  1  0.08855583  0.35929824  0.08550751  1.0
  O  O26  1  0.72925759  0.08855583  0.91449249  1.0
  O  O27  1  0.72925759  0.08855583  0.58550751  1.0
  O  O28  1  0.35929824  0.27074241  0.91449249  1.0
  O  O29  1  0.35929824  0.27074241  0.58550751  1.0
  O  O30  1  0.46037616  0.87919679  0.25000000  1.0
  O  O31  1  0.87919679  0.41882062  0.75000000  1.0
  O  O32  1  0.41882062  0.53962384  0.25000000  1.0
  O  O33  1  0.12080321  0.58117938  0.25000000  1.0
  O  O34  1  0.53962384  0.12080321  0.75000000  1.0
  O  O35  1  0.58117938  0.46037616  0.75000000  1.0
  O  O36  1  0.65478440  0.52255102  0.25000000  1.0
  O  O37  1  0.52255102  0.86776661  0.75000000  1.0
  O  O38  1  0.86776661  0.34521560  0.25000000  1.0
  O  O39  1  0.47744898  0.13223339  0.25000000  1.0
  O  O40  1  0.34521560  0.47744898  0.75000000  1.0
  O  O41  1  0.13223339  0.65478440  0.75000000  1.0
