# generated using pymatgen
data_Ni8Ge2B3
_symmetry_space_group_name_H-M   'P 1'
_cell_length_a   2.94648141
_cell_length_b   14.69063091
_cell_length_c   6.09200584
_cell_angle_alpha   90.00000000
_cell_angle_beta   90.00000000
_cell_angle_gamma   90.00000000
_symmetry_Int_Tables_number   1
_chemical_formula_structural   Ni8Ge2B3
_chemical_formula_sum   'Ni16 Ge4 B6'
_cell_volume   263.69656029
_cell_formula_units_Z   2
loop_
 _symmetry_equiv_pos_site_id
 _symmetry_equiv_pos_as_xyz
  1  'x, y, z'
loop_
 _atom_site_type_symbol
 _atom_site_label
 _atom_site_symmetry_multiplicity
 _atom_site_fract_x
 _atom_site_fract_y
 _atom_site_fract_z
 _atom_site_occupancy
  Ni  Ni0  1  0.50000000  0.72647953  0.20086152  1.0
  Ni  Ni1  1  0.50000000  0.27352047  0.20086152  1.0
  Ni  Ni2  1  0.00000000  0.22647953  0.79913848  1.0
  Ni  Ni3  1  0.00000000  0.77352047  0.79913848  1.0
  Ni  Ni4  1  0.50000000  0.64542352  0.63288246  1.0
  Ni  Ni5  1  0.50000000  0.35457648  0.63288246  1.0
  Ni  Ni6  1  0.00000000  0.14542352  0.36711754  1.0
  Ni  Ni7  1  0.00000000  0.85457648  0.36711754  1.0
  Ni  Ni8  1  0.50000000  0.08671692  0.65900043  1.0
  Ni  Ni9  1  0.50000000  0.91328308  0.65900043  1.0
  Ni  Ni10  1  0.00000000  0.58671692  0.34099957  1.0
  Ni  Ni11  1  0.00000000  0.41328308  0.34099957  1.0
  Ni  Ni12  1  0.50000000  0.00000000  0.29848202  1.0
  Ni  Ni13  1  0.00000000  0.50000000  0.70151798  1.0
  Ni  Ni14  1  0.50000000  0.50000000  0.07547639  1.0
  Ni  Ni15  1  0.00000000  0.00000000  0.92452361  1.0
  Ge  Ge16  1  0.50000000  0.12448548  0.03768348  1.0
  Ge  Ge17  1  0.50000000  0.87551452  0.03768348  1.0
  Ge  Ge18  1  0.00000000  0.62448548  0.96231652  1.0
  Ge  Ge19  1  0.00000000  0.37551452  0.96231652  1.0
  B  B20  1  0.50000000  0.21775998  0.53924280  1.0
  B  B21  1  0.50000000  0.78224002  0.53924280  1.0
  B  B22  1  -0.00000000  0.71775998  0.46075720  1.0
  B  B23  1  0.00000000  0.28224002  0.46075720  1.0
  B  B24  1  0.50000000  0.50000000  0.45616237  1.0
  B  B25  1  0.00000000  0.00000000  0.54383763  1.0
