# generated using pymatgen
data_Ba3ZrRu2O9
_symmetry_space_group_name_H-M   'P 1'
_cell_length_a   5.84908738
_cell_length_b   5.84908738
_cell_length_c   14.40455551
_cell_angle_alpha   90.00000000
_cell_angle_beta   90.00000000
_cell_angle_gamma   120.00000000
_symmetry_Int_Tables_number   1
_chemical_formula_structural   Ba3ZrRu2O9
_chemical_formula_sum   'Ba6 Zr2 Ru4 O18'
_cell_volume   426.78260685
_cell_formula_units_Z   2
loop_
 _symmetry_equiv_pos_site_id
 _symmetry_equiv_pos_as_xyz
  1  'x, y, z'
loop_
 _atom_site_type_symbol
 _atom_site_label
 _atom_site_symmetry_multiplicity
 _atom_site_fract_x
 _atom_site_fract_y
 _atom_site_fract_z
 _atom_site_occupancy
  Ba  Ba0  1  0.33333333  0.66666667  0.40803532  1.0
  Ba  Ba1  1  0.33333333  0.66666667  0.09196468  1.0
  Ba  Ba2  1  0.66666667  0.33333333  0.90803532  1.0
  Ba  Ba3  1  0.66666667  0.33333333  0.59196468  1.0
  Ba  Ba4  1  0.00000000  0.00000000  0.25000000  1.0
  Ba  Ba5  1  0.00000000  0.00000000  0.75000000  1.0
  Zr  Zr6  1  0.00000000  0.00000000  0.50000000  1.0
  Zr  Zr7  1  0.00000000  0.00000000  0.00000000  1.0
  Ru  Ru8  1  0.33333333  0.66666667  0.83682442  1.0
  Ru  Ru9  1  0.33333333  0.66666667  0.66317558  1.0
  Ru  Ru10  1  0.66666667  0.33333333  0.33682442  1.0
  Ru  Ru11  1  0.66666667  0.33333333  0.16317558  1.0
  O  O12  1  0.17005345  0.82994655  0.91694311  1.0
  O  O13  1  0.17005345  0.82994655  0.58305689  1.0
  O  O14  1  0.17005345  0.34010690  0.91694311  1.0
  O  O15  1  0.17005345  0.34010690  0.58305689  1.0
  O  O16  1  0.82994655  0.17005345  0.41694311  1.0
  O  O17  1  0.82994655  0.17005345  0.08305689  1.0
  O  O18  1  0.82994655  0.65989310  0.41694311  1.0
  O  O19  1  0.82994655  0.65989310  0.08305689  1.0
  O  O20  1  0.65989310  0.82994655  0.91694311  1.0
  O  O21  1  0.65989310  0.82994655  0.58305689  1.0
  O  O22  1  0.34010690  0.17005345  0.41694311  1.0
  O  O23  1  0.34010690  0.17005345  0.08305689  1.0
  O  O24  1  0.51063960  0.48936040  0.25000000  1.0
  O  O25  1  0.51063960  0.02127919  0.25000000  1.0
  O  O26  1  0.48936040  0.51063960  0.75000000  1.0
  O  O27  1  0.48936040  0.97872081  0.75000000  1.0
  O  O28  1  0.97872081  0.48936040  0.25000000  1.0
  O  O29  1  0.02127919  0.51063960  0.75000000  1.0
