# generated using pymatgen
data_Ba5Os3ClO15
_symmetry_space_group_name_H-M   'P 1'
_cell_length_a   11.09006307
_cell_length_b   11.09006307
_cell_length_c   7.99115952
_cell_angle_alpha   90.00000000
_cell_angle_beta   90.00000000
_cell_angle_gamma   120.00000000
_symmetry_Int_Tables_number   1
_chemical_formula_structural   Ba5Os3ClO15
_chemical_formula_sum   'Ba10 Os6 Cl2 O30'
_cell_volume   851.15462549
_cell_formula_units_Z   2
loop_
 _symmetry_equiv_pos_site_id
 _symmetry_equiv_pos_as_xyz
  1  'x, y, z'
loop_
 _atom_site_type_symbol
 _atom_site_label
 _atom_site_symmetry_multiplicity
 _atom_site_fract_x
 _atom_site_fract_y
 _atom_site_fract_z
 _atom_site_occupancy
  Ba  Ba0  1  0.26809790  0.26809790  0.23328395  1.0
  Ba  Ba1  1  0.26809790  0.00000000  0.73328395  1.0
  Ba  Ba2  1  -0.00000000  0.26809790  0.73328395  1.0
  Ba  Ba3  1  -0.00000000  0.73190210  0.23328395  1.0
  Ba  Ba4  1  0.73190210  0.73190210  0.73328395  1.0
  Ba  Ba5  1  0.73190210  0.00000000  0.23328395  1.0
  Ba  Ba6  1  0.33333333  0.66666667  0.46776006  1.0
  Ba  Ba7  1  0.33333333  0.66666667  0.96776006  1.0
  Ba  Ba8  1  0.66666667  0.33333333  0.46776006  1.0
  Ba  Ba9  1  0.66666667  0.33333333  0.96776006  1.0
  Os  Os10  1  0.61205907  0.61205907  0.17707838  1.0
  Os  Os11  1  0.61205907  0.00000000  0.67707838  1.0
  Os  Os12  1  -0.00000000  0.61205907  0.67707838  1.0
  Os  Os13  1  -0.00000000  0.38794093  0.17707838  1.0
  Os  Os14  1  0.38794093  0.38794093  0.67707838  1.0
  Os  Os15  1  0.38794093  0.00000000  0.17707838  1.0
  Cl  Cl16  1  0.00000000  0.00000000  0.05717563  1.0
  Cl  Cl17  1  0.00000000  0.00000000  0.55717563  1.0
  O  O18  1  0.44565367  0.87002442  0.21020484  1.0
  O  O19  1  0.44565367  0.57562925  0.71020484  1.0
  O  O20  1  0.87002442  0.44565367  0.21020484  1.0
  O  O21  1  0.87002442  0.42437075  0.71020484  1.0
  O  O22  1  0.42437075  0.87002442  0.71020484  1.0
  O  O23  1  0.42437075  0.55434633  0.21020484  1.0
  O  O24  1  0.12997558  0.55434633  0.71020484  1.0
  O  O25  1  0.12997558  0.57562925  0.21020484  1.0
  O  O26  1  0.55434633  0.42437075  0.21020484  1.0
  O  O27  1  0.55434633  0.12997558  0.71020484  1.0
  O  O28  1  0.57562925  0.44565367  0.71020484  1.0
  O  O29  1  0.57562925  0.12997558  0.21020484  1.0
  O  O30  1  0.25860356  0.86909638  0.03081637  1.0
  O  O31  1  0.25860356  0.38950718  0.53081637  1.0
  O  O32  1  0.86909638  0.25860356  0.03081637  1.0
  O  O33  1  0.86909638  0.61049282  0.53081637  1.0
  O  O34  1  0.61049282  0.86909638  0.53081637  1.0
  O  O35  1  0.61049282  0.74139644  0.03081637  1.0
  O  O36  1  0.13090362  0.74139644  0.53081637  1.0
  O  O37  1  0.13090362  0.38950718  0.03081637  1.0
  O  O38  1  0.74139644  0.61049282  0.03081637  1.0
  O  O39  1  0.74139644  0.13090362  0.53081637  1.0
  O  O40  1  0.38950718  0.25860356  0.53081637  1.0
  O  O41  1  0.38950718  0.13090362  0.03081637  1.0
  O  O42  1  0.70631590  0.70631590  0.35059667  1.0
  O  O43  1  0.70631590  0.00000000  0.85059667  1.0
  O  O44  1  -0.00000000  0.70631590  0.85059667  1.0
  O  O45  1  0.00000000  0.29368410  0.35059667  1.0
  O  O46  1  0.29368410  0.29368410  0.85059667  1.0
  O  O47  1  0.29368410  0.00000000  0.35059667  1.0
