# generated using pymatgen
data_RbLa2C6N6ClO6
_symmetry_space_group_name_H-M   'P 1'
_cell_length_a   6.83642828
_cell_length_b   6.83642828
_cell_length_c   14.81626394
_cell_angle_alpha   90.00000000
_cell_angle_beta   90.00000000
_cell_angle_gamma   120.00000000
_symmetry_Int_Tables_number   1
_chemical_formula_structural   RbLa2C6N6ClO6
_chemical_formula_sum   'Rb2 La4 C12 N12 Cl2 O12'
_cell_volume   599.69145663
_cell_formula_units_Z   2
loop_
 _symmetry_equiv_pos_site_id
 _symmetry_equiv_pos_as_xyz
  1  'x, y, z'
loop_
 _atom_site_type_symbol
 _atom_site_label
 _atom_site_symmetry_multiplicity
 _atom_site_fract_x
 _atom_site_fract_y
 _atom_site_fract_z
 _atom_site_occupancy
  Rb  Rb0  1  0.66666667  0.33333333  0.25000000  1.0
  Rb  Rb1  1  0.33333333  0.66666667  0.75000000  1.0
  La  La2  1  0.33333333  0.66666667  0.44732645  1.0
  La  La3  1  0.33333333  0.66666667  0.05267355  1.0
  La  La4  1  0.66666667  0.33333333  0.94732645  1.0
  La  La5  1  0.66666667  0.33333333  0.55267355  1.0
  C  C6  1  0.83297483  0.78742544  0.40433111  1.0
  C  C7  1  0.83297483  0.78742544  0.09566889  1.0
  C  C8  1  0.78742544  0.95445061  0.90433111  1.0
  C  C9  1  0.78742544  0.95445061  0.59566889  1.0
  C  C10  1  0.95445061  0.16702517  0.40433111  1.0
  C  C11  1  0.95445061  0.16702517  0.09566889  1.0
  C  C12  1  0.21257456  0.04554939  0.40433111  1.0
  C  C13  1  0.21257456  0.04554939  0.09566889  1.0
  C  C14  1  0.16702517  0.21257456  0.90433111  1.0
  C  C15  1  0.16702517  0.21257456  0.59566889  1.0
  C  C16  1  0.04554939  0.83297483  0.90433111  1.0
  C  C17  1  0.04554939  0.83297483  0.59566889  1.0
  N  N18  1  0.04645737  0.82558947  0.40083748  1.0
  N  N19  1  0.04645737  0.82558947  0.09916252  1.0
  N  N20  1  0.82558947  0.77913211  0.90083748  1.0
  N  N21  1  0.82558947  0.77913211  0.59916252  1.0
  N  N22  1  0.77913211  0.95354263  0.40083748  1.0
  N  N23  1  0.77913211  0.95354263  0.09916252  1.0
  N  N24  1  0.17441053  0.22086789  0.40083748  1.0
  N  N25  1  0.17441053  0.22086789  0.09916252  1.0
  N  N26  1  0.95354263  0.17441053  0.90083748  1.0
  N  N27  1  0.95354263  0.17441053  0.59916252  1.0
  N  N28  1  0.22086789  0.04645737  0.90083748  1.0
  N  N29  1  0.22086789  0.04645737  0.59916252  1.0
  Cl  Cl30  1  0.33333333  0.66666667  0.25000000  1.0
  Cl  Cl31  1  0.66666667  0.33333333  0.75000000  1.0
  O  O32  1  0.66488186  0.58477559  0.41733477  1.0
  O  O33  1  0.66488186  0.58477559  0.08266523  1.0
  O  O34  1  0.58477559  0.91989373  0.91733477  1.0
  O  O35  1  0.58477559  0.91989373  0.58266523  1.0
  O  O36  1  0.91989373  0.33511814  0.41733477  1.0
  O  O37  1  0.91989373  0.33511814  0.08266523  1.0
  O  O38  1  0.41522441  0.08010627  0.41733477  1.0
  O  O39  1  0.41522441  0.08010627  0.08266523  1.0
  O  O40  1  0.33511814  0.41522441  0.91733477  1.0
  O  O41  1  0.33511814  0.41522441  0.58266523  1.0
  O  O42  1  0.08010627  0.66488186  0.91733477  1.0
  O  O43  1  0.08010627  0.66488186  0.58266523  1.0
