# generated using pymatgen
data_LaMg4Cu
_symmetry_space_group_name_H-M   'P 1'
_cell_length_a   10.36299303
_cell_length_b   10.36299303
_cell_length_c   4.52781421
_cell_angle_alpha   90.00000000
_cell_angle_beta   90.00000000
_cell_angle_gamma   120.00000000
_symmetry_Int_Tables_number   1
_chemical_formula_structural   LaMg4Cu
_chemical_formula_sum   'La3 Mg12 Cu3'
_cell_volume   421.10426715
_cell_formula_units_Z   3
loop_
 _symmetry_equiv_pos_site_id
 _symmetry_equiv_pos_as_xyz
  1  'x, y, z'
loop_
 _atom_site_type_symbol
 _atom_site_label
 _atom_site_symmetry_multiplicity
 _atom_site_fract_x
 _atom_site_fract_y
 _atom_site_fract_z
 _atom_site_occupancy
  La  La0  1  0.59261751  0.59261751  0.00000000  1.0
  La  La1  1  -0.00000000  0.40738249  0.00000000  1.0
  La  La2  1  0.40738249  0.00000000  0.00000000  1.0
  Mg  Mg3  1  0.18381023  0.70351500  0.50000000  1.0
  Mg  Mg4  1  0.70351500  0.18381023  0.50000000  1.0
  Mg  Mg5  1  0.51970477  0.81618977  0.50000000  1.0
  Mg  Mg6  1  0.29648500  0.48029523  0.50000000  1.0
  Mg  Mg7  1  0.81618977  0.51970477  0.50000000  1.0
  Mg  Mg8  1  0.48029523  0.29648500  0.50000000  1.0
  Mg  Mg9  1  0.83407822  0.83407822  0.50000000  1.0
  Mg  Mg10  1  0.00000000  0.16592178  0.50000000  1.0
  Mg  Mg11  1  0.16592178  0.00000000  0.50000000  1.0
  Mg  Mg12  1  0.25368105  0.25368105  0.00000000  1.0
  Mg  Mg13  1  -0.00000000  0.74631895  0.00000000  1.0
  Mg  Mg14  1  0.74631895  0.00000000  0.00000000  1.0
  Cu  Cu15  1  0.33333333  0.66666667  0.00000000  1.0
  Cu  Cu16  1  0.66666667  0.33333333  0.00000000  1.0
  Cu  Cu17  1  0.00000000  0.00000000  0.00000000  1.0
