# generated using pymatgen
data_MoCl3
_symmetry_space_group_name_H-M   'P 1'
_cell_length_a   5.75958035
_cell_length_b   5.75958035
_cell_length_c   7.18187613
_cell_angle_alpha   82.23493463
_cell_angle_beta   97.76506537
_cell_angle_gamma   65.19923874
_symmetry_Int_Tables_number   1
_chemical_formula_structural   MoCl3
_chemical_formula_sum   'Mo2 Cl6'
_cell_volume   209.35893005
_cell_formula_units_Z   2
loop_
 _symmetry_equiv_pos_site_id
 _symmetry_equiv_pos_as_xyz
  1  'x, y, z'
loop_
 _atom_site_type_symbol
 _atom_site_label
 _atom_site_symmetry_multiplicity
 _atom_site_fract_x
 _atom_site_fract_y
 _atom_site_fract_z
 _atom_site_occupancy
  Mo  Mo0  1  0.86679781  -0.13320219  -0.00000000  1.0
  Mo  Mo1  1  1.13320219  0.13320219  -0.00000000  1.0
  Cl  Cl2  1  0.44209378  -0.09986569  0.81037128  1.0
  Cl  Cl3  1  1.09986569  0.55790622  0.81037128  1.0
  Cl  Cl4  1  0.90013431  -0.55790622  0.18962872  1.0
  Cl  Cl5  1  1.55790622  0.09986569  0.18962872  1.0
  Cl  Cl6  1  0.76579408  -0.76579408  0.75234004  1.0
  Cl  Cl7  1  0.23420592  -0.23420592  0.24765996  1.0
