# generated using pymatgen
data_CuPH6NO5
_symmetry_space_group_name_H-M   'P 1'
_cell_length_a   8.74599496
_cell_length_b   7.55924881
_cell_length_c   7.62493636
_cell_angle_alpha   90.00000000
_cell_angle_beta   95.72423634
_cell_angle_gamma   90.00000000
_symmetry_Int_Tables_number   1
_chemical_formula_structural   CuPH6NO5
_chemical_formula_sum   'Cu4 P4 H24 N4 O20'
_cell_volume   501.59482311
_cell_formula_units_Z   4
loop_
 _symmetry_equiv_pos_site_id
 _symmetry_equiv_pos_as_xyz
  1  'x, y, z'
loop_
 _atom_site_type_symbol
 _atom_site_label
 _atom_site_symmetry_multiplicity
 _atom_site_fract_x
 _atom_site_fract_y
 _atom_site_fract_z
 _atom_site_occupancy
  N  N0  1  0.53362282  0.27410474  0.53389005  1.0
  N  N1  1  0.46637718  0.77410474  0.96610995  1.0
  N  N2  1  0.46637718  0.72589526  0.46610995  1.0
  N  N3  1  0.53362282  0.22589526  0.03389005  1.0
  P  P4  1  0.19294108  0.05071637  0.67257437  1.0
  P  P5  1  0.80705892  0.55071637  0.82742563  1.0
  P  P6  1  0.80705892  0.94928363  0.32742563  1.0
  P  P7  1  0.19294108  0.44928363  0.17257437  1.0
  O  O8  1  0.21829823  0.56174857  0.69900237  1.0
  O  O9  1  0.78170177  0.06174857  0.80099763  1.0
  O  O10  1  0.78170177  0.43825143  0.30099763  1.0
  O  O11  1  0.21829823  0.93825143  0.19900237  1.0
  O  O12  1  0.17084794  0.89432191  0.53399793  1.0
  O  O13  1  0.82915206  0.39432191  0.96600207  1.0
  O  O14  1  0.82915206  0.10567809  0.46600207  1.0
  O  O15  1  0.17084794  0.60567809  0.03399793  1.0
  O  O16  1  0.36565824  0.05907253  0.74211748  1.0
  O  O17  1  0.63434176  0.55907253  0.75788252  1.0
  O  O18  1  0.63434176  0.94092747  0.25788252  1.0
  O  O19  1  0.36565824  0.44092747  0.24211748  1.0
  O  O20  1  0.90993361  0.51034278  0.67692372  1.0
  O  O21  1  0.09006639  0.01034278  0.82307628  1.0
  O  O22  1  0.09006639  0.48965722  0.32307628  1.0
  O  O23  1  0.90993361  0.98965722  0.17692372  1.0
  O  O24  1  0.85120231  0.77097171  0.42390817  1.0
  O  O25  1  0.14879769  0.27097171  0.07609183  1.0
  O  O26  1  0.14879769  0.22902829  0.57609183  1.0
  O  O27  1  0.85120231  0.72902829  0.92390817  1.0
  H  H28  1  0.19830136  0.43663374  0.65955554  1.0
  H  H29  1  0.80169864  0.93663374  0.84044446  1.0
  H  H30  1  0.80169864  0.56336626  0.34044446  1.0
  H  H31  1  0.19830136  0.06336626  0.15955554  1.0
  H  H32  1  0.19738797  0.56410572  0.82639442  1.0
  H  H33  1  0.80261203  0.06410572  0.67360558  1.0
  H  H34  1  0.80261203  0.43589428  0.17360558  1.0
  H  H35  1  0.19738797  0.93589428  0.32639442  1.0
  H  H36  1  0.47247571  0.18387509  0.60533150  1.0
  H  H37  1  0.52752429  0.68387509  0.89466850  1.0
  H  H38  1  0.52752429  0.81612491  0.39466850  1.0
  H  H39  1  0.47247571  0.31612491  0.10533150  1.0
  H  H40  1  0.46197678  0.32451977  0.42764075  1.0
  H  H41  1  0.53802322  0.82451977  0.07235925  1.0
  H  H42  1  0.53802322  0.67548023  0.57235925  1.0
  H  H43  1  0.46197678  0.17548023  0.92764075  1.0
  H  H44  1  0.62881599  0.21431494  0.48862171  1.0
  H  H45  1  0.37118401  0.71431494  0.01137829  1.0
  H  H46  1  0.37118401  0.78568506  0.51137829  1.0
  H  H47  1  0.62881599  0.28568506  0.98862171  1.0
  H  H48  1  0.57239138  0.37803899  0.61818559  1.0
  H  H49  1  0.42760862  0.87803899  0.88181441  1.0
  H  H50  1  0.42760862  0.62196101  0.38181441  1.0
  H  H51  1  0.57239138  0.12196101  0.11818559  1.0
  Cu  Cu52  1  0.03451845  0.69511664  0.57708911  1.0
  Cu  Cu53  1  0.96548155  0.19511664  0.92291089  1.0
  Cu  Cu54  1  0.96548155  0.30488336  0.42291089  1.0
  Cu  Cu55  1  0.03451845  0.80488336  0.07708911  1.0
