# generated using pymatgen
data_CuSi(O2F3)2
_symmetry_space_group_name_H-M   'P 1'
_cell_length_a   4.95011919
_cell_length_b   7.78961406
_cell_length_c   8.05809415
_cell_angle_alpha   90.00000000
_cell_angle_beta   104.61194913
_cell_angle_gamma   90.00000000
_symmetry_Int_Tables_number   1
_chemical_formula_structural   CuSi(O2F3)2
_chemical_formula_sum   'Si2 Cu2 O8 F12'
_cell_volume   300.66660143
_cell_formula_units_Z   2
loop_
 _symmetry_equiv_pos_site_id
 _symmetry_equiv_pos_as_xyz
  1  'x, y, z'
loop_
 _atom_site_type_symbol
 _atom_site_label
 _atom_site_symmetry_multiplicity
 _atom_site_fract_x
 _atom_site_fract_y
 _atom_site_fract_z
 _atom_site_occupancy
  Si  Si0  1  0.00000000  0.50000000  0.50000000  1.0
  Si  Si1  1  0.00000000  0.00000000  0.00000000  1.0
  F  F2  1  0.74792724  0.50921249  0.31441057  1.0
  F  F3  1  0.74792724  -0.00921249  0.81441057  1.0
  F  F4  1  0.25207276  1.00921249  0.18558943  1.0
  F  F5  1  0.25207276  0.49078751  0.68558943  1.0
  F  F6  1  0.10984402  0.30823416  0.42680123  1.0
  F  F7  1  0.10984402  0.19176584  0.92680123  1.0
  F  F8  1  0.89015598  0.80823416  0.07319877  1.0
  F  F9  1  0.89015598  0.69176584  0.57319877  1.0
  F  F10  1  0.78413260  0.11497493  0.09664725  1.0
  F  F11  1  0.78413260  0.38502507  0.59664725  1.0
  F  F12  1  0.21586740  0.61497493  0.40335275  1.0
  F  F13  1  0.21586740  0.88502507  0.90335275  1.0
  Cu  Cu14  1  0.50000000  0.50000000  0.00000000  1.0
  Cu  Cu15  1  0.50000000  0.00000000  0.50000000  1.0
  O  O16  1  0.51798427  0.21370689  0.41189438  1.0
  O  O17  1  0.51798427  0.28629311  0.91189438  1.0
  O  O18  1  0.48201573  0.71370689  0.08810562  1.0
  O  O19  1  0.48201573  0.78629311  0.58810562  1.0
  O  O20  1  0.80688229  0.94182973  0.42546383  1.0
  O  O21  1  0.80688229  0.55817027  0.92546383  1.0
  O  O22  1  0.19311771  0.44182973  0.07453617  1.0
  O  O23  1  0.19311771  0.05817027  0.57453617  1.0
