# generated using pymatgen
data_GdFeSi2
_symmetry_space_group_name_H-M   'P 1'
_cell_length_a   4.29527584
_cell_length_b   3.98417414
_cell_length_c   7.98843648
_cell_angle_alpha   90.00000000
_cell_angle_beta   103.58572521
_cell_angle_gamma   90.00000000
_symmetry_Int_Tables_number   1
_chemical_formula_structural   GdFeSi2
_chemical_formula_sum   'Gd2 Fe2 Si4'
_cell_volume   132.88200118
_cell_formula_units_Z   2
loop_
 _symmetry_equiv_pos_site_id
 _symmetry_equiv_pos_as_xyz
  1  'x, y, z'
loop_
 _atom_site_type_symbol
 _atom_site_label
 _atom_site_symmetry_multiplicity
 _atom_site_fract_x
 _atom_site_fract_y
 _atom_site_fract_z
 _atom_site_occupancy
  Gd  Gd0  1  0.60351381  0.25000000  0.20612876  1.0
  Gd  Gd1  1  0.39648619  0.75000000  0.79387124  1.0
  Fe  Fe2  1  0.88459385  0.25000000  0.60939138  1.0
  Fe  Fe3  1  0.11540615  0.75000000  0.39060862  1.0
  Si  Si4  1  0.32782713  0.25000000  0.50499563  1.0
  Si  Si5  1  0.67217287  0.75000000  0.49500437  1.0
  Si  Si6  1  0.95498669  0.25000000  0.90212460  1.0
  Si  Si7  1  0.04501331  0.75000000  0.09787540  1.0
