# generated using pymatgen
data_LiSb2F7
_symmetry_space_group_name_H-M   'P 1'
_cell_length_a   8.83049188
_cell_length_b   14.58789767
_cell_length_c   5.11452748
_cell_angle_alpha   90.00000000
_cell_angle_beta   90.00000000
_cell_angle_gamma   90.00000000
_symmetry_Int_Tables_number   1
_chemical_formula_structural   LiSb2F7
_chemical_formula_sum   'Li4 Sb8 F28'
_cell_volume   658.84479570
_cell_formula_units_Z   4
loop_
 _symmetry_equiv_pos_site_id
 _symmetry_equiv_pos_as_xyz
  1  'x, y, z'
loop_
 _atom_site_type_symbol
 _atom_site_label
 _atom_site_symmetry_multiplicity
 _atom_site_fract_x
 _atom_site_fract_y
 _atom_site_fract_z
 _atom_site_occupancy
  Li  Li0  1  0.04961249  0.75000000  0.61438838  1.0
  Li  Li1  1  0.54961249  0.75000000  0.88561162  1.0
  Li  Li2  1  0.95038751  0.25000000  0.38561162  1.0
  Li  Li3  1  0.45038751  0.25000000  0.11438838  1.0
  Sb  Sb4  1  0.12317101  0.39920863  0.83370559  1.0
  Sb  Sb5  1  0.12317101  0.10079137  0.83370559  1.0
  Sb  Sb6  1  0.62317101  0.39920863  0.66629441  1.0
  Sb  Sb7  1  0.62317101  0.10079137  0.66629441  1.0
  Sb  Sb8  1  0.87682899  0.89920863  0.16629441  1.0
  Sb  Sb9  1  0.87682899  0.60079137  0.16629441  1.0
  Sb  Sb10  1  0.37682899  0.89920863  0.33370559  1.0
  Sb  Sb11  1  0.37682899  0.60079137  0.33370559  1.0
  F  F12  1  0.47107286  0.84400028  0.64786132  1.0
  F  F13  1  0.47107286  0.65599972  0.64786132  1.0
  F  F14  1  0.97107286  0.84400028  0.85213868  1.0
  F  F15  1  0.97107286  0.65599972  0.85213868  1.0
  F  F16  1  0.52892714  0.34400028  0.35213868  1.0
  F  F17  1  0.52892714  0.15599972  0.35213868  1.0
  F  F18  1  0.02892714  0.34400028  0.14786132  1.0
  F  F19  1  0.02892714  0.15599972  0.14786132  1.0
  F  F20  1  0.33999175  1.00819654  0.58380309  1.0
  F  F21  1  0.33999175  0.49180346  0.58380309  1.0
  F  F22  1  0.83999175  1.00819654  0.91619691  1.0
  F  F23  1  0.83999175  0.49180346  0.91619691  1.0
  F  F24  1  0.66000825  0.50819654  0.41619691  1.0
  F  F25  1  0.66000825  -0.00819654  0.41619691  1.0
  F  F26  1  0.16000825  0.50819654  0.08380309  1.0
  F  F27  1  0.16000825  -0.00819654  0.08380309  1.0
  F  F28  1  0.32043145  0.34955618  0.95492167  1.0
  F  F29  1  0.32043145  0.15044382  0.95492167  1.0
  F  F30  1  0.82043145  0.34955618  0.54507833  1.0
  F  F31  1  0.82043145  0.15044382  0.54507833  1.0
  F  F32  1  0.67956855  0.84955618  0.04507833  1.0
  F  F33  1  0.67956855  0.65044382  0.04507833  1.0
  F  F34  1  0.17956855  0.84955618  0.45492167  1.0
  F  F35  1  0.17956855  0.65044382  0.45492167  1.0
  F  F36  1  0.40199477  0.75000000  0.17443573  1.0
  F  F37  1  0.90199477  0.75000000  0.32556427  1.0
  F  F38  1  0.59800523  0.25000000  0.82556427  1.0
  F  F39  1  0.09800523  0.25000000  0.67443573  1.0
