# generated using pymatgen
data_RbBSe3
_symmetry_space_group_name_H-M   'P 1'
_cell_length_a   7.47198218
_cell_length_b   12.66771499
_cell_length_c   6.27791305
_cell_angle_alpha   90.00000000
_cell_angle_beta   104.41438297
_cell_angle_gamma   90.00000000
_symmetry_Int_Tables_number   1
_chemical_formula_structural   RbBSe3
_chemical_formula_sum   'Rb4 B4 Se12'
_cell_volume   575.51721006
_cell_formula_units_Z   4
loop_
 _symmetry_equiv_pos_site_id
 _symmetry_equiv_pos_as_xyz
  1  'x, y, z'
loop_
 _atom_site_type_symbol
 _atom_site_label
 _atom_site_symmetry_multiplicity
 _atom_site_fract_x
 _atom_site_fract_y
 _atom_site_fract_z
 _atom_site_occupancy
  Rb  Rb0  1  0.75861833  0.42236058  0.70934638  1.0
  Rb  Rb1  1  0.75861833  0.07763942  0.20934638  1.0
  Rb  Rb2  1  0.24138167  0.92236058  0.79065362  1.0
  Rb  Rb3  1  0.24138167  0.57763942  0.29065362  1.0
  B  B4  1  0.79292872  0.76817646  0.80649370  1.0
  B  B5  1  0.79292872  0.73182354  0.30649370  1.0
  B  B6  1  0.20707128  0.26817646  0.69350630  1.0
  B  B7  1  0.20707128  0.23182354  0.19350630  1.0
  Se  Se8  1  0.95147340  0.69653755  0.61621449  1.0
  Se  Se9  1  0.95147340  0.80346245  0.11621449  1.0
  Se  Se10  1  0.04852660  0.19653755  0.88378551  1.0
  Se  Se11  1  0.04852660  0.30346245  0.38378551  1.0
  Se  Se12  1  0.69508911  0.90792730  0.65630026  1.0
  Se  Se13  1  0.69508911  0.59207270  0.15630026  1.0
  Se  Se14  1  0.30491089  0.40792730  0.84369974  1.0
  Se  Se15  1  0.30491089  0.09207270  0.34369974  1.0
  Se  Se16  1  0.55881598  0.67936582  0.81513280  1.0
  Se  Se17  1  0.55881598  0.82063418  0.31513280  1.0
  Se  Se18  1  0.44118402  0.17936582  0.68486720  1.0
  Se  Se19  1  0.44118402  0.32063418  0.18486720  1.0
