# generated using pymatgen
data_KBe3ZnF9
_symmetry_space_group_name_H-M   'P 1'
_cell_length_a   6.69338970
_cell_length_b   6.69338970
_cell_length_c   9.79098188
_cell_angle_alpha   90.00000000
_cell_angle_beta   90.00000000
_cell_angle_gamma   120.00000000
_symmetry_Int_Tables_number   1
_chemical_formula_structural   KBe3ZnF9
_chemical_formula_sum   'K2 Be6 Zn2 F18'
_cell_volume   379.88233642
_cell_formula_units_Z   2
loop_
 _symmetry_equiv_pos_site_id
 _symmetry_equiv_pos_as_xyz
  1  'x, y, z'
loop_
 _atom_site_type_symbol
 _atom_site_label
 _atom_site_symmetry_multiplicity
 _atom_site_fract_x
 _atom_site_fract_y
 _atom_site_fract_z
 _atom_site_occupancy
  K  K0  1  0.00000000  0.00000000  0.50000000  1.0
  K  K1  1  0.00000000  0.00000000  -0.00000000  1.0
  Be  Be2  1  0.60707158  0.55036217  0.25000000  1.0
  Be  Be3  1  0.60707158  0.05670941  0.75000000  1.0
  Be  Be4  1  0.94329059  0.55036217  0.75000000  1.0
  Be  Be5  1  0.94329059  0.39292842  0.25000000  1.0
  Be  Be6  1  0.44963783  0.39292842  0.75000000  1.0
  Be  Be7  1  0.44963783  0.05670941  0.25000000  1.0
  Zn  Zn8  1  0.33333333  0.66666667  0.50000000  1.0
  Zn  Zn9  1  0.33333333  0.66666667  -0.00000000  1.0
  F  F10  1  0.08030467  0.41046391  0.38138775  1.0
  F  F11  1  0.08030467  0.41046391  0.11861225  1.0
  F  F12  1  0.08030467  0.66984075  0.88138775  1.0
  F  F13  1  0.08030467  0.66984075  0.61861225  1.0
  F  F14  1  0.33015925  0.41046391  0.88138775  1.0
  F  F15  1  0.33015925  0.41046391  0.61861225  1.0
  F  F16  1  0.33015925  0.91969533  0.38138775  1.0
  F  F17  1  0.33015925  0.91969533  0.11861225  1.0
  F  F18  1  0.58953609  0.91969533  0.88138775  1.0
  F  F19  1  0.58953609  0.91969533  0.61861225  1.0
  F  F20  1  0.58953609  0.66984075  0.38138775  1.0
  F  F21  1  0.58953609  0.66984075  0.11861225  1.0
  F  F22  1  0.85696036  0.57431380  0.25000000  1.0
  F  F23  1  0.85696036  0.28264655  0.75000000  1.0
  F  F24  1  0.71735345  0.57431380  0.75000000  1.0
  F  F25  1  0.71735345  0.14303964  0.25000000  1.0
  F  F26  1  0.42568620  0.14303964  0.75000000  1.0
  F  F27  1  0.42568620  0.28264655  0.25000000  1.0
