# generated using pymatgen
data_TiFe2O5
_symmetry_space_group_name_H-M   'P 1'
_cell_length_a   5.34067681
_cell_length_b   5.34067681
_cell_length_c   10.13285967
_cell_angle_alpha   90.00000000
_cell_angle_beta   90.00000000
_cell_angle_gamma   139.11362820
_symmetry_Int_Tables_number   1
_chemical_formula_structural   TiFe2O5
_chemical_formula_sum   'Ti2 Fe4 O10'
_cell_volume   189.17979732
_cell_formula_units_Z   2
loop_
 _symmetry_equiv_pos_site_id
 _symmetry_equiv_pos_as_xyz
  1  'x, y, z'
loop_
 _atom_site_type_symbol
 _atom_site_label
 _atom_site_symmetry_multiplicity
 _atom_site_fract_x
 _atom_site_fract_y
 _atom_site_fract_z
 _atom_site_occupancy
  Ti  Ti0  1  0.18098594  0.81901406  0.75000000  1.0
  Ti  Ti1  1  -0.18098594  0.18098594  0.25000000  1.0
  Fe  Fe2  1  0.13681807  0.86318193  0.44060401  1.0
  Fe  Fe3  1  0.13681807  0.86318193  0.05939599  1.0
  Fe  Fe4  1  -0.13681807  0.13681807  0.94060401  1.0
  Fe  Fe5  1  -0.13681807  0.13681807  0.55939599  1.0
  O  O6  1  0.04650155  0.95349845  0.88042322  1.0
  O  O7  1  0.04650155  0.95349845  0.61957678  1.0
  O  O8  1  -0.04650155  0.04650155  0.38042322  1.0
  O  O9  1  -0.04650155  0.04650155  0.11957678  1.0
  O  O10  1  0.30564537  0.69435463  0.91787482  1.0
  O  O11  1  0.30564537  0.69435463  0.58212518  1.0
  O  O12  1  -0.30564537  0.30564537  0.41787482  1.0
  O  O13  1  -0.30564537  0.30564537  0.08212518  1.0
  O  O14  1  -0.25867474  0.25867474  0.75000000  1.0
  O  O15  1  0.25867474  0.74132526  0.25000000  1.0
