# generated using pymatgen
data_Na3Ca2TaO6
_symmetry_space_group_name_H-M   'P 1'
_cell_length_a   10.98055864
_cell_length_b   10.42772760
_cell_length_c   5.82943670
_cell_angle_alpha   79.50393901
_cell_angle_beta   69.02929055
_cell_angle_gamma   31.46677044
_symmetry_Int_Tables_number   1
_chemical_formula_structural   Na3Ca2TaO6
_chemical_formula_sum   'Na6 Ca4 Ta2 O12'
_cell_volume   314.80516366
_cell_formula_units_Z   2
loop_
 _symmetry_equiv_pos_site_id
 _symmetry_equiv_pos_as_xyz
  1  'x, y, z'
loop_
 _atom_site_type_symbol
 _atom_site_label
 _atom_site_symmetry_multiplicity
 _atom_site_fract_x
 _atom_site_fract_y
 _atom_site_fract_z
 _atom_site_occupancy
  Na  Na0  1  0.16355862  0.16355862  -0.16355862  1.0
  Na  Na1  1  -0.16355862  0.83644138  0.16355862  1.0
  Na  Na2  1  0.08644138  1.08644138  0.41355862  1.0
  Na  Na3  1  0.41355862  0.41355862  0.08644138  1.0
  Na  Na4  1  0.00000000  1.00000000  -0.00000000  1.0
  Na  Na5  1  0.25000000  0.25000000  0.25000000  1.0
  Ca  Ca6  1  0.33051538  0.33051538  -0.33051538  1.0
  Ca  Ca7  1  -0.33051538  0.66948462  0.33051538  1.0
  Ca  Ca8  1  -0.08051538  0.91948462  0.58051538  1.0
  Ca  Ca9  1  0.58051538  0.58051538  -0.08051538  1.0
  Ta  Ta10  1  0.50000000  0.50000000  0.50000000  1.0
  Ta  Ta11  1  0.75000000  -0.25000000  0.75000000  1.0
  O  O12  1  0.36418095  0.78303971  -0.35416310  1.0
  O  O13  1  1.20694244  -0.35416310  0.78303971  1.0
  O  O14  1  -0.35416310  1.20694244  0.36418095  1.0
  O  O15  1  0.78303971  0.36418095  1.20694244  1.0
  O  O16  1  -0.11418095  0.46696029  0.60416310  1.0
  O  O17  1  0.04305756  0.60416310  0.46696029  1.0
  O  O18  1  -0.39583690  1.04305756  0.88581905  1.0
  O  O19  1  -0.53303971  0.88581905  1.04305756  1.0
  O  O20  1  0.71181390  0.28818610  0.71181390  1.0
  O  O21  1  0.28818610  0.71181390  0.28818610  1.0
  O  O22  1  0.53818610  -0.03818610  0.53818610  1.0
  O  O23  1  0.96181390  -0.46181390  0.96181390  1.0
