# generated using pymatgen
data_NaNbO3
_symmetry_space_group_name_H-M   'P 1'
_cell_length_a   5.59560161
_cell_length_b   7.80996557
_cell_length_c   5.65720305
_cell_angle_alpha   90.00000000
_cell_angle_beta   90.00301967
_cell_angle_gamma   90.00000000
_symmetry_Int_Tables_number   1
_chemical_formula_structural   NaNbO3
_chemical_formula_sum   'Na4 Nb4 O12'
_cell_volume   247.22800912
_cell_formula_units_Z   4
loop_
 _symmetry_equiv_pos_site_id
 _symmetry_equiv_pos_as_xyz
  1  'x, y, z'
loop_
 _atom_site_type_symbol
 _atom_site_label
 _atom_site_symmetry_multiplicity
 _atom_site_fract_x
 _atom_site_fract_y
 _atom_site_fract_z
 _atom_site_occupancy
  Na  Na0  1  0.93796548  0.50000000  0.46631126  1.0
  Na  Na1  1  0.47006526  0.50000000  0.96628105  1.0
  Na  Na2  1  0.94491791  0.00000000  0.44753895  1.0
  Na  Na3  1  0.46308961  0.00000000  0.94752255  1.0
  Nb  Nb4  1  0.96082245  0.75038528  0.96293066  1.0
  Nb  Nb5  1  0.96082245  0.24961472  0.96293066  1.0
  Nb  Nb6  1  0.44720235  0.75038698  0.46292301  1.0
  Nb  Nb7  1  0.44720235  0.24961302  0.46292301  1.0
  O  O8  1  0.74359785  0.77884089  0.71245784  1.0
  O  O9  1  0.74359785  0.22115911  0.71245784  1.0
  O  O10  1  0.66437913  0.77882757  0.21245262  1.0
  O  O11  1  0.66437913  0.22117243  0.21245262  1.0
  O  O12  1  0.24145497  0.72285064  0.78475289  1.0
  O  O13  1  0.24145497  0.27714936  0.78475289  1.0
  O  O14  1  0.16652624  0.72284266  0.28475477  1.0
  O  O15  1  0.16652624  0.27715734  0.28475477  1.0
  O  O16  1  0.89875676  0.50000000  -0.00198492  1.0
  O  O17  1  0.50925002  0.50000000  0.49803945  1.0
  O  O18  1  0.00940178  0.00000000  0.01508591  1.0
  O  O19  1  0.39858721  0.00000000  0.51506219  1.0
