# generated using pymatgen
data_Ta3NO6
_symmetry_space_group_name_H-M   'P 1'
_cell_length_a   10.61621447
_cell_length_b   10.61621447
_cell_length_c   12.00795037
_cell_angle_alpha   60.53798590
_cell_angle_beta   119.46201410
_cell_angle_gamma   158.91345864
_symmetry_Int_Tables_number   1
_chemical_formula_structural   Ta3NO6
_chemical_formula_sum   'Ta9 N3 O18'
_cell_volume   421.58798750
_cell_formula_units_Z   3
loop_
 _symmetry_equiv_pos_site_id
 _symmetry_equiv_pos_as_xyz
  1  'x, y, z'
loop_
 _atom_site_type_symbol
 _atom_site_label
 _atom_site_symmetry_multiplicity
 _atom_site_fract_x
 _atom_site_fract_y
 _atom_site_fract_z
 _atom_site_occupancy
  Ta  Ta0  1  -0.00007592  0.00007592  1.00018722  1.0
  Ta  Ta1  1  0.18429127  -0.18429127  1.00189277  1.0
  Ta  Ta2  1  0.81712356  0.18287644  1.00227467  1.0
  Ta  Ta3  1  0.08045097  -0.08045097  0.63321595  1.0
  Ta  Ta4  1  0.91973087  -0.91973087  0.37414761  1.0
  Ta  Ta5  1  0.89551626  -0.89551626  0.62693102  1.0
  Ta  Ta6  1  0.10876717  -0.10876717  0.37367273  1.0
  Ta  Ta7  1  1.29150732  -0.29150732  0.36947801  1.0
  Ta  Ta8  1  0.70977546  0.29022454  0.63229322  1.0
  N  N9  1  0.17158525  -0.17158525  0.58997745  1.0
  N  N10  1  0.82729435  -0.82729435  0.40414575  1.0
  N  N11  1  0.97581804  -0.97581804  0.58160869  1.0
  O  O12  1  1.37221374  -0.37221374  0.58174656  1.0
  O  O13  1  0.62500095  0.37499905  0.41336534  1.0
  O  O14  1  0.59815157  0.40184843  0.62588138  1.0
  O  O15  1  1.40223392  -0.40223392  0.37119957  1.0
  O  O16  1  0.79280139  0.20719861  0.61465318  1.0
  O  O17  1  1.20476381  -0.20476381  0.37792960  1.0
  O  O18  1  1.24720905  -0.24720905  0.19120174  1.0
  O  O19  1  0.75451988  0.24548012  0.81069103  1.0
  O  O20  1  0.70919001  -0.70919001  0.00276969  1.0
  O  O21  1  0.29107357  -0.29107357  0.99919577  1.0
  O  O22  1  0.90189611  0.09810389  0.99027456  1.0
  O  O23  1  1.09923865  -0.09923865  0.01271495  1.0
  O  O24  1  0.02383319  -0.02383319  0.41363335  1.0
  O  O25  1  0.87221145  -0.87221145  0.18926778  1.0
  O  O26  1  0.12910663  -0.12910663  0.81360217  1.0
  O  O27  1  1.50073730  -0.50073730  0.00064983  1.0
  O  O28  1  0.04890060  -0.04890060  0.19570094  1.0
  O  O29  1  0.95020359  -0.95020359  0.80569747  1.0
