# generated using pymatgen
data_Sr3NbGa3(SiO7)2
_symmetry_space_group_name_H-M   'P 1'
_cell_length_a   8.39291831
_cell_length_b   8.39291831
_cell_length_c   5.12385102
_cell_angle_alpha   90.00000000
_cell_angle_beta   90.00000000
_cell_angle_gamma   120.00000000
_symmetry_Int_Tables_number   1
_chemical_formula_structural   Sr3NbGa3(SiO7)2
_chemical_formula_sum   'Sr3 Nb1 Ga3 Si2 O14'
_cell_volume   312.57419245
_cell_formula_units_Z   1
loop_
 _symmetry_equiv_pos_site_id
 _symmetry_equiv_pos_as_xyz
  1  'x, y, z'
loop_
 _atom_site_type_symbol
 _atom_site_label
 _atom_site_symmetry_multiplicity
 _atom_site_fract_x
 _atom_site_fract_y
 _atom_site_fract_z
 _atom_site_occupancy
  Sr  Sr0  1  0.42584134  0.42584134  -0.00000000  1.0
  Sr  Sr1  1  -0.00000000  0.57415866  -0.00000000  1.0
  Sr  Sr2  1  0.57415866  -0.00000000  0.00000000  1.0
  Nb  Nb3  1  -0.00000000  -0.00000000  -0.00000000  1.0
  Ga  Ga4  1  0.74479248  0.74479248  0.50000000  1.0
  Ga  Ga5  1  0.00000000  0.25520752  0.50000000  1.0
  Ga  Ga6  1  0.25520752  0.00000000  0.50000000  1.0
  Si  Si7  1  0.33333333  0.66666667  0.53624115  1.0
  Si  Si8  1  0.66666667  0.33333333  0.46375885  1.0
  O  O9  1  0.09453548  0.87312218  0.23051999  1.0
  O  O10  1  0.87312218  0.09453548  0.76948001  1.0
  O  O11  1  0.77858670  0.90546452  0.23051999  1.0
  O  O12  1  0.12687782  0.22141330  0.23051999  1.0
  O  O13  1  0.90546452  0.77858670  0.76948001  1.0
  O  O14  1  0.22141330  0.12687782  0.76948001  1.0
  O  O15  1  0.68960217  0.52417616  0.32839400  1.0
  O  O16  1  0.52417616  0.68960217  0.67160600  1.0
  O  O17  1  0.83457399  0.31039783  0.32839400  1.0
  O  O18  1  0.47582384  0.16542601  0.32839400  1.0
  O  O19  1  0.31039783  0.83457399  0.67160600  1.0
  O  O20  1  0.16542601  0.47582384  0.67160600  1.0
  O  O21  1  0.33333333  0.66666667  0.22192228  1.0
  O  O22  1  0.66666667  0.33333333  0.77807772  1.0
