# generated using pymatgen
data_Tl6Si2O7
_symmetry_space_group_name_H-M   'P 1'
_cell_length_a   9.92569833
_cell_length_b   9.92569833
_cell_length_c   8.15698937
_cell_angle_alpha   90.00000000
_cell_angle_beta   90.00000000
_cell_angle_gamma   120.00000000
_symmetry_Int_Tables_number   1
_chemical_formula_structural   Tl6Si2O7
_chemical_formula_sum   'Tl12 Si4 O14'
_cell_volume   695.95742311
_cell_formula_units_Z   2
loop_
 _symmetry_equiv_pos_site_id
 _symmetry_equiv_pos_as_xyz
  1  'x, y, z'
loop_
 _atom_site_type_symbol
 _atom_site_label
 _atom_site_symmetry_multiplicity
 _atom_site_fract_x
 _atom_site_fract_y
 _atom_site_fract_z
 _atom_site_occupancy
  Tl  Tl0  1  0.32101421  0.96554679  0.36874643  1.0
  Tl  Tl1  1  0.96554679  0.64453258  0.63125357  1.0
  Tl  Tl2  1  0.64453258  0.67898579  0.36874643  1.0
  Tl  Tl3  1  0.03445321  0.35546742  0.36874643  1.0
  Tl  Tl4  1  0.67898579  0.03445321  0.63125357  1.0
  Tl  Tl5  1  0.35546742  0.32101421  0.63125357  1.0
  Tl  Tl6  1  0.94662663  0.63600146  0.12001161  1.0
  Tl  Tl7  1  0.63600146  0.68937483  0.87998839  1.0
  Tl  Tl8  1  0.68937483  0.05337337  0.12001161  1.0
  Tl  Tl9  1  0.36399854  0.31062517  0.12001161  1.0
  Tl  Tl10  1  0.05337337  0.36399854  0.87998839  1.0
  Tl  Tl11  1  0.31062517  0.94662663  0.87998839  1.0
  Si  Si12  1  0.33333333  0.66666667  0.16971655  1.0
  Si  Si13  1  0.66666667  0.33333333  0.83028345  1.0
  Si  Si14  1  0.33333333  0.66666667  0.58013555  1.0
  Si  Si15  1  0.66666667  0.33333333  0.41986445  1.0
  O  O16  1  0.40333676  0.84935472  0.11487627  1.0
  O  O17  1  0.84935472  0.44601795  0.88512373  1.0
  O  O18  1  0.44601795  0.59666324  0.11487627  1.0
  O  O19  1  0.15064528  0.55398205  0.11487627  1.0
  O  O20  1  0.59666324  0.15064528  0.88512373  1.0
  O  O21  1  0.55398205  0.40333676  0.88512373  1.0
  O  O22  1  0.54860783  0.39669729  0.36432378  1.0
  O  O23  1  0.39669729  0.84808946  0.63567622  1.0
  O  O24  1  0.84808946  0.45139217  0.36432378  1.0
  O  O25  1  0.60330271  0.15191054  0.36432378  1.0
  O  O26  1  0.45139217  0.60330271  0.63567622  1.0
  O  O27  1  0.15191054  0.54860783  0.63567622  1.0
  O  O28  1  0.33333333  0.66666667  0.37510025  1.0
  O  O29  1  0.66666667  0.33333333  0.62489975  1.0
