# generated using pymatgen
data_K3Sc(HO)6
_symmetry_space_group_name_H-M   'P 1'
_cell_length_a   7.44925849
_cell_length_b   7.44925849
_cell_length_c   7.41633929
_cell_angle_alpha   83.34680220
_cell_angle_beta   96.65319780
_cell_angle_gamma   83.26912885
_symmetry_Int_Tables_number   1
_chemical_formula_structural   K3Sc(HO)6
_chemical_formula_sum   'K6 Sc2 H12 O12'
_cell_volume   402.44432069
_cell_formula_units_Z   2
loop_
 _symmetry_equiv_pos_site_id
 _symmetry_equiv_pos_as_xyz
  1  'x, y, z'
loop_
 _atom_site_type_symbol
 _atom_site_label
 _atom_site_symmetry_multiplicity
 _atom_site_fract_x
 _atom_site_fract_y
 _atom_site_fract_z
 _atom_site_occupancy
  K  K0  1  1.75328432  0.13532333  0.13577286  1.0
  K  K1  1  0.86467667  -0.75328432  0.63577286  1.0
  K  K2  1  1.13532333  0.75328432  0.36422714  1.0
  K  K3  1  0.24671568  -0.13532333  0.86422714  1.0
  K  K4  1  0.63563691  -0.36436309  0.25000000  1.0
  K  K5  1  1.36436309  0.36436309  0.75000000  1.0
  Sc  Sc6  1  1.50000000  0.00000000  0.50000000  1.0
  Sc  Sc7  1  1.00000000  -0.50000000  -0.00000000  1.0
  H  H8  1  1.38010924  0.07536603  0.14695745  1.0
  H  H9  1  0.92463397  -0.38010924  0.64695745  1.0
  H  H10  1  1.07536603  0.38010924  0.35304255  1.0
  H  H11  1  0.61989076  -0.07536603  0.85304255  1.0
  H  H12  1  1.42495505  0.35097552  0.37477767  1.0
  H  H13  1  0.64902448  -0.42495505  0.87477767  1.0
  H  H14  1  1.35097552  0.42495505  0.12522233  1.0
  H  H15  1  0.57504495  -0.35097552  0.62522233  1.0
  H  H16  1  1.14972201  0.12959169  0.42386127  1.0
  H  H17  1  0.87040831  -0.14972201  0.92386127  1.0
  H  H18  1  1.12959169  0.14972201  0.07613873  1.0
  H  H19  1  0.85027799  -0.12959169  0.57613873  1.0
  O  O20  1  0.77453616  -0.09249146  0.45904710  1.0
  O  O21  1  1.09249146  0.22546384  0.95904710  1.0
  O  O22  1  0.90750854  -0.22546384  0.04095290  1.0
  O  O23  1  1.22546384  0.09249146  0.54095290  1.0
  O  O24  1  0.40766299  -0.04144352  0.22409862  1.0
  O  O25  1  1.04144352  0.59233701  0.72409862  1.0
  O  O26  1  0.95855648  -0.59233701  0.27590138  1.0
  O  O27  1  1.59233701  0.04144352  0.77590138  1.0
  O  O28  1  1.54153423  0.27408234  0.40662796  1.0
  O  O29  1  0.72591766  -0.54153423  0.90662796  1.0
  O  O30  1  1.27408234  0.54153423  0.09337204  1.0
  O  O31  1  0.45846577  -0.27408234  0.59337204  1.0
