# generated using pymatgen
data_CdSO4
_symmetry_space_group_name_H-M   'P 1'
_cell_length_a   4.99860283
_cell_length_b   4.99860283
_cell_length_c   7.28986802
_cell_angle_alpha   90.00000000
_cell_angle_beta   90.00000000
_cell_angle_gamma   114.65533057
_symmetry_Int_Tables_number   1
_chemical_formula_structural   CdSO4
_chemical_formula_sum   'Cd2 S2 O8'
_cell_volume   165.53938666
_cell_formula_units_Z   2
loop_
 _symmetry_equiv_pos_site_id
 _symmetry_equiv_pos_as_xyz
  1  'x, y, z'
loop_
 _atom_site_type_symbol
 _atom_site_label
 _atom_site_symmetry_multiplicity
 _atom_site_fract_x
 _atom_site_fract_y
 _atom_site_fract_z
 _atom_site_occupancy
  Cd  Cd0  1  0.00000000  0.00000000  0.50000000  1.0
  Cd  Cd1  1  0.00000000  0.00000000  0.00000000  1.0
  S  S2  1  0.35490947  0.64509053  0.25000000  1.0
  S  S3  1  -0.35490947  1.35490947  0.75000000  1.0
  O  O4  1  0.23315456  0.31115340  0.25000000  1.0
  O  O5  1  -0.68884660  1.23315456  0.75000000  1.0
  O  O6  1  0.68884660  0.76684544  0.25000000  1.0
  O  O7  1  -0.23315456  1.68884660  0.75000000  1.0
  O  O8  1  0.26067579  0.73932421  0.42096252  1.0
  O  O9  1  0.26067579  0.73932421  0.07903748  1.0
  O  O10  1  -0.26067579  1.26067579  0.92096252  1.0
  O  O11  1  -0.26067579  1.26067579  0.57903748  1.0
