# generated using pymatgen
data_Ag2S(NO)4
_symmetry_space_group_name_H-M   'P 1'
_cell_length_a   5.83441009
_cell_length_b   5.83441009
_cell_length_c   14.38451013
_cell_angle_alpha   90.00000000
_cell_angle_beta   90.00000000
_cell_angle_gamma   90.00000000
_symmetry_Int_Tables_number   1
_chemical_formula_structural   Ag2S(NO)4
_chemical_formula_sum   'Ag4 S2 N8 O8'
_cell_volume   489.65363142
_cell_formula_units_Z   2
loop_
 _symmetry_equiv_pos_site_id
 _symmetry_equiv_pos_as_xyz
  1  'x, y, z'
loop_
 _atom_site_type_symbol
 _atom_site_label
 _atom_site_symmetry_multiplicity
 _atom_site_fract_x
 _atom_site_fract_y
 _atom_site_fract_z
 _atom_site_occupancy
  Ag  Ag0  1  0.00000000  0.50000000  0.41221231  1.0
  Ag  Ag1  1  0.50000000  0.00000000  0.08778769  1.0
  Ag  Ag2  1  0.50000000  0.00000000  0.58778769  1.0
  Ag  Ag3  1  0.00000000  0.50000000  0.91221231  1.0
  S  S4  1  0.50000000  0.50000000  0.50000000  1.0
  S  S5  1  0.00000000  0.00000000  0.00000000  1.0
  N  N6  1  0.23009934  0.14608914  0.67590924  1.0
  N  N7  1  0.26990066  0.64608914  -0.17590924  1.0
  N  N8  1  0.85391086  0.23009934  0.32409076  1.0
  N  N9  1  0.64608914  0.73009934  1.17590924  1.0
  N  N10  1  0.76990066  0.85391086  0.67590924  1.0
  N  N11  1  0.73009934  0.35391086  -0.17590924  1.0
  N  N12  1  0.14608914  0.76990066  0.32409076  1.0
  N  N13  1  0.35391086  0.26990066  1.17590924  1.0
  O  O14  1  0.34413699  0.35195480  0.44211754  1.0
  O  O15  1  0.15586301  0.85195480  0.05788246  1.0
  O  O16  1  0.64804520  0.34413699  0.55788246  1.0
  O  O17  1  0.85195480  0.84413699  0.94211754  1.0
  O  O18  1  0.65586301  0.64804520  0.44211754  1.0
  O  O19  1  0.84413699  0.14804520  0.05788246  1.0
  O  O20  1  0.35195480  0.65586301  0.55788246  1.0
  O  O21  1  0.14804520  0.15586301  0.94211754  1.0
