# generated using pymatgen
data_CaFeF5
_symmetry_space_group_name_H-M   'P 1'
_cell_length_a   5.59633912
_cell_length_b   10.24749959
_cell_length_c   7.73226295
_cell_angle_alpha   90.00000000
_cell_angle_beta   109.96914416
_cell_angle_gamma   90.00000000
_symmetry_Int_Tables_number   1
_chemical_formula_structural   CaFeF5
_chemical_formula_sum   'Ca4 Fe4 F20'
_cell_volume   416.77284996
_cell_formula_units_Z   4
loop_
 _symmetry_equiv_pos_site_id
 _symmetry_equiv_pos_as_xyz
  1  'x, y, z'
loop_
 _atom_site_type_symbol
 _atom_site_label
 _atom_site_symmetry_multiplicity
 _atom_site_fract_x
 _atom_site_fract_y
 _atom_site_fract_z
 _atom_site_occupancy
  Fe  Fe0  1  0.10484514  0.75316463  0.39970370  1.0
  Fe  Fe1  1  0.89515486  0.25316463  0.10029630  1.0
  Fe  Fe2  1  0.89515486  0.24683537  0.60029630  1.0
  Fe  Fe3  1  0.10484514  0.74683537  0.89970370  1.0
  Ca  Ca4  1  0.52973948  0.01992780  0.25471961  1.0
  Ca  Ca5  1  0.47026052  0.51992780  0.24528039  1.0
  Ca  Ca6  1  0.47026052  0.98007220  0.74528039  1.0
  Ca  Ca7  1  0.52973948  0.48007220  0.75471961  1.0
  F  F8  1  0.38608129  0.88396031  0.44165114  1.0
  F  F9  1  0.61391871  0.38396031  0.05834886  1.0
  F  F10  1  0.61391871  0.11603969  0.55834886  1.0
  F  F11  1  0.38608129  0.61603969  0.94165114  1.0
  F  F12  1  0.16870909  0.13550702  0.14003429  1.0
  F  F13  1  0.83129091  0.63550702  0.35996571  1.0
  F  F14  1  0.83129091  0.86449298  0.85996571  1.0
  F  F15  1  0.16870909  0.36449298  0.64003429  1.0
  F  F16  1  0.15842036  0.70088265  0.16416299  1.0
  F  F17  1  0.84157964  0.20088265  0.33583701  1.0
  F  F18  1  0.84157964  0.29911735  0.83583701  1.0
  F  F19  1  0.15842036  0.79911735  0.66416299  1.0
  F  F20  1  0.12403442  0.39375051  0.18951434  1.0
  F  F21  1  0.87596558  0.89375051  0.31048566  1.0
  F  F22  1  0.87596558  0.60624949  0.81048566  1.0
  F  F23  1  0.12403442  0.10624949  0.68951434  1.0
  F  F24  1  0.35869633  0.61193708  0.49638251  1.0
  F  F25  1  0.64130367  0.11193708  0.00361749  1.0
  F  F26  1  0.64130367  0.38806292  0.50361749  1.0
  F  F27  1  0.35869633  0.88806292  0.99638251  1.0
