# generated using pymatgen
data_CCl
_symmetry_space_group_name_H-M   'P 1'
_cell_length_a   16.24159496
_cell_length_b   11.31996258
_cell_length_c   9.29398547
_cell_angle_alpha   99.53401876
_cell_angle_beta   96.92167653
_cell_angle_gamma   99.18207493
_symmetry_Int_Tables_number   1
_chemical_formula_structural   CCl
_chemical_formula_sum   'C32 Cl32'
_cell_volume   1644.48561117
_cell_formula_units_Z   32
loop_
 _symmetry_equiv_pos_site_id
 _symmetry_equiv_pos_as_xyz
  1  'x, y, z'
loop_
 _atom_site_type_symbol
 _atom_site_label
 _atom_site_symmetry_multiplicity
 _atom_site_fract_x
 _atom_site_fract_y
 _atom_site_fract_z
 _atom_site_occupancy
  C  C0  1  -0.83326932  -0.80083040  -0.91395149  1.0
  C  C1  1  -0.16673068  -0.19916960  -0.08604851  1.0
  C  C2  1  -0.86080089  -0.92867876  -0.89914938  1.0
  C  C3  1  -0.13919911  -0.07132124  -0.10085062  1.0
  C  C4  1  -0.88916254  -0.72020712  -0.85373008  1.0
  C  C5  1  -0.11083746  -0.27979288  -0.14626992  1.0
  C  C6  1  -0.89228006  -0.94921127  -0.77465086  1.0
  C  C7  1  -0.10771994  -0.05078873  -0.22534914  1.0
  C  C8  1  -0.28695231  -0.70740930  -0.55151895  1.0
  C  C9  1  -0.71304769  -0.29259070  -0.44848105  1.0
  C  C10  1  -0.50747466  -0.80260951  -0.53246840  1.0
  C  C11  1  -0.49252534  -0.19739049  -0.46753160  1.0
  C  C12  1  -0.87357195  -0.83458317  -0.51432221  1.0
  C  C13  1  -0.12642805  -0.16541683  -0.48567779  1.0
  C  C14  1  -0.35394746  -0.75893799  -0.49340591  1.0
  C  C15  1  -0.64605254  -0.24106201  -0.50659409  1.0
  C  C16  1  -0.50055331  -0.71536720  -0.39234996  1.0
  C  C17  1  -0.49944669  -0.28463280  -0.60765004  1.0
  C  C18  1  -0.54950680  -0.62872192  -0.37090934  1.0
  C  C19  1  -0.45049320  -0.37127808  -0.62909066  1.0
  C  C20  1  -0.92062486  -0.74097872  -0.72934134  1.0
  C  C21  1  -0.07937514  -0.25902128  -0.27065866  1.0
  C  C22  1  -0.89654673  -0.84242049  -0.66214519  1.0
  C  C23  1  -0.10345327  -0.15757951  -0.33785481  1.0
  C  C24  1  -0.64341905  -0.25312993  -0.66687897  1.0
  C  C25  1  -0.35658095  -0.74687007  -0.33312103  1.0
  C  C26  1  -0.76074564  -0.75986429  -0.96506147  1.0
  C  C27  1  -0.23925436  -0.24013571  -0.03493853  1.0
  C  C28  1  -0.43504103  -0.82392229  -0.58255485  1.0
  C  C29  1  -0.56495897  -0.17607771  -0.41744515  1.0
  C  C30  1  -0.57088752  -0.27447170  -0.71672563  1.0
  C  C31  1  -0.42911248  -0.72552830  -0.28327437  1.0
  Cl  Cl32  1  -0.55745218  -0.27180509  -0.89770914  1.0
  Cl  Cl33  1  -0.44254782  -0.72819491  -0.10229086  1.0
  Cl  Cl34  1  -0.72596756  -0.22317012  -0.78183933  1.0
  Cl  Cl35  1  -0.27403244  -0.77682988  -0.21816067  1.0
  Cl  Cl36  1  -0.60445581  -0.88658077  -0.61675562  1.0
  Cl  Cl37  1  -0.39554419  -0.11341923  -0.38324438  1.0
  Cl  Cl38  1  -0.80387675  -0.37744540  -0.55407578  1.0
  Cl  Cl39  1  -0.19612325  -0.62255460  -0.44592422  1.0
  Cl  Cl40  1  -0.62763763  -0.61119618  -0.50353220  1.0
  Cl  Cl41  1  -0.37236237  -0.38880382  -0.49646780  1.0
  Cl  Cl42  1  -0.83836449  -0.94904500  -0.43887147  1.0
  Cl  Cl43  1  -0.16163551  -0.05095500  -0.56112853  1.0
  Cl  Cl44  1  -0.87217470  -0.70640180  -0.38555852  1.0
  Cl  Cl45  1  -0.12782530  -0.29359820  -0.61444148  1.0
  Cl  Cl46  1  -0.69304806  -0.85225339  -0.02535209  1.0
  Cl  Cl47  1  -0.30695194  -0.14774661  -0.97464791  1.0
  Cl  Cl48  1  -0.92224864  -0.61467391  -0.95094488  1.0
  Cl  Cl49  1  -0.07775136  -0.38532609  -0.04905512  1.0
  Cl  Cl50  1  -0.13690462  -0.95330801  -0.95592818  1.0
  Cl  Cl51  1  -0.86309538  -0.04669199  -0.04407182  1.0
  Cl  Cl52  1  -0.99585409  -0.66399186  -0.66275025  1.0
  Cl  Cl53  1  -0.00414591  -0.33600814  -0.33724975  1.0
  Cl  Cl54  1  -0.72536495  -0.60899962  -0.96709983  1.0
  Cl  Cl55  1  -0.27463505  -0.39100038  -0.03290017  1.0
  Cl  Cl56  1  -0.93700449  -0.09350089  -0.75592906  1.0
  Cl  Cl57  1  -0.06299551  -0.90649911  -0.24407094  1.0
  Cl  Cl58  1  -0.46361496  -0.47850290  -0.78781723  1.0
  Cl  Cl59  1  -0.53638504  -0.52149710  -0.21218277  1.0
  Cl  Cl60  1  -0.28651013  -0.71455499  -0.73736910  1.0
  Cl  Cl61  1  -0.71348987  -0.28544501  -0.26263090  1.0
  Cl  Cl62  1  -0.43661745  -0.93576905  -0.73417930  1.0
  Cl  Cl63  1  -0.56338255  -0.06423095  -0.26582070  1.0
