# generated using pymatgen
data_KC(NO2)2
_symmetry_space_group_name_H-M   'P 1'
_cell_length_a   7.63554214
_cell_length_b   7.63554214
_cell_length_c   9.28660518
_cell_angle_alpha   76.31270868
_cell_angle_beta   103.68729132
_cell_angle_gamma   118.38639685
_symmetry_Int_Tables_number   1
_chemical_formula_structural   KC(NO2)2
_chemical_formula_sum   'K4 C4 N8 O16'
_cell_volume   457.89058667
_cell_formula_units_Z   4
loop_
 _symmetry_equiv_pos_site_id
 _symmetry_equiv_pos_as_xyz
  1  'x, y, z'
loop_
 _atom_site_type_symbol
 _atom_site_label
 _atom_site_symmetry_multiplicity
 _atom_site_fract_x
 _atom_site_fract_y
 _atom_site_fract_z
 _atom_site_occupancy
  K  K0  1  1.65541322  0.00860001  0.21626717  1.0
  K  K1  1  1.00860001  -0.34458678  0.28373283  1.0
  K  K2  1  1.34458678  -0.00860001  0.78373283  1.0
  K  K3  1  0.99139999  -0.65541322  0.71626717  1.0
  C  C4  1  1.27534711  0.31557532  0.16907783  1.0
  C  C5  1  1.31557532  0.27534711  0.33092217  1.0
  C  C6  1  0.72465289  0.68442468  0.83092217  1.0
  C  C7  1  1.68442468  -0.27534711  0.66907783  1.0
  N  N8  1  1.27007838  -0.50145007  0.10118806  1.0
  N  N9  1  1.49854993  0.27007838  0.39881194  1.0
  N  N10  1  0.72992162  -0.49854993  0.89881194  1.0
  N  N11  1  1.50145007  -0.27007838  0.60118806  1.0
  N  N12  1  1.25761909  0.17966004  0.08365256  1.0
  N  N13  1  1.17966004  0.25761909  0.41634744  1.0
  N  N14  1  1.74238091  -0.17966004  0.91634744  1.0
  N  N15  1  0.82033996  0.74238091  0.58365256  1.0
  O  O16  1  1.32547680  -0.37413402  0.18782667  1.0
  O  O17  1  1.62586598  0.32547680  0.31217333  1.0
  O  O18  1  0.67452320  -0.62586598  0.81217333  1.0
  O  O19  1  1.37413402  -0.32547680  0.68782667  1.0
  O  O20  1  1.21065197  -0.46636627  0.96535629  1.0
  O  O21  1  1.53363373  0.21065197  0.53464371  1.0
  O  O22  1  0.78934803  -0.53363373  0.03464371  1.0
  O  O23  1  1.46636627  -0.21065197  0.46535629  1.0
  O  O24  1  1.27383147  0.02314460  0.15571417  1.0
  O  O25  1  1.02314460  0.27383147  0.34428583  1.0
  O  O26  1  1.72616853  -0.02314460  0.84428583  1.0
  O  O27  1  0.97685540  0.72616853  0.65571417  1.0
  O  O28  1  1.23558186  0.20902744  0.94300774  1.0
  O  O29  1  1.20902744  0.23558186  0.55699226  1.0
  O  O30  1  1.76441814  -0.20902744  0.05699226  1.0
  O  O31  1  0.79097256  0.76441814  0.44300774  1.0
