# generated using pymatgen
data_KHCN4O5
_symmetry_space_group_name_H-M   'P 1'
_cell_length_a   7.68560003
_cell_length_b   7.68560003
_cell_length_c   10.56786226
_cell_angle_alpha   49.60422716
_cell_angle_beta   130.39577284
_cell_angle_gamma   134.42573000
_symmetry_Int_Tables_number   1
_chemical_formula_structural   KHCN4O5
_chemical_formula_sum   'K2 H2 C2 N8 O10'
_cell_volume   317.07851648
_cell_formula_units_Z   2
loop_
 _symmetry_equiv_pos_site_id
 _symmetry_equiv_pos_as_xyz
  1  'x, y, z'
loop_
 _atom_site_type_symbol
 _atom_site_label
 _atom_site_symmetry_multiplicity
 _atom_site_fract_x
 _atom_site_fract_y
 _atom_site_fract_z
 _atom_site_occupancy
  K  K0  1  1.28067483  0.63855567  0.73100625  1.0
  K  K1  1  1.36144433  -0.28067483  0.23100625  1.0
  H  H2  1  0.60472165  0.12433328  0.87051451  1.0
  H  H3  1  0.87566672  -0.60472165  0.37051451  1.0
  C  C4  1  0.31726241  0.24983515  0.66225707  1.0
  C  C5  1  0.75016485  0.68273759  0.16225707  1.0
  N  N6  1  0.54946932  0.25635368  0.81492636  1.0
  N  N7  1  0.74364632  0.45053068  0.31492636  1.0
  N  N8  1  0.97563342  -0.19494441  0.14149394  1.0
  N  N9  1  0.19494441  0.02436658  0.64149394  1.0
  N  N10  1  0.74730483  0.45911082  0.87669784  1.0
  N  N11  1  0.54088918  0.25269517  0.37669784  1.0
  N  N12  1  0.97547746  0.97370546  0.50020863  1.0
  N  N13  1  0.02629454  0.02452254  0.00020863  1.0
  O  O14  1  0.95224772  0.44706318  0.98624778  1.0
  O  O15  1  1.55293682  0.04775228  0.48624778  1.0
  O  O16  1  0.84940898  0.74430318  0.50637731  1.0
  O  O17  1  1.25569682  0.15059102  0.00637731  1.0
  O  O18  1  0.71143377  0.63183854  0.82470666  1.0
  O  O19  1  0.36816146  0.28856623  0.32470666  1.0
  O  O20  1  0.86344533  0.10098082  0.86779650  1.0
  O  O21  1  0.89901918  -0.86344533  0.36779650  1.0
  O  O22  1  1.25497611  -0.58247954  0.57946716  1.0
  O  O23  1  1.58247954  -0.25497611  0.07946716  1.0
