# generated using pymatgen
data_MgTe6O13
_symmetry_space_group_name_H-M   'P 1'
_cell_length_a   8.81414650
_cell_length_b   8.81414650
_cell_length_c   8.81414650
_cell_angle_alpha   71.78496803
_cell_angle_beta   71.78496803
_cell_angle_gamma   71.78496803
_symmetry_Int_Tables_number   1
_chemical_formula_structural   MgTe6O13
_chemical_formula_sum   'Mg2 Te12 O26'
_cell_volume   600.08049401
_cell_formula_units_Z   2
loop_
 _symmetry_equiv_pos_site_id
 _symmetry_equiv_pos_as_xyz
  1  'x, y, z'
loop_
 _atom_site_type_symbol
 _atom_site_label
 _atom_site_symmetry_multiplicity
 _atom_site_fract_x
 _atom_site_fract_y
 _atom_site_fract_z
 _atom_site_occupancy
  Mg  Mg0  1  0.74540095  0.74540095  -0.25459905  1.0
  Mg  Mg1  1  1.25459905  1.25459905  0.25459905  1.0
  Te  Te2  1  0.52994203  0.41912950  -0.17167321  1.0
  Te  Te3  1  0.58087050  0.17167321  -0.52994203  1.0
  Te  Te4  1  0.17167321  0.47005797  -0.41912950  1.0
  Te  Te5  1  0.47005797  0.58087050  -0.82832679  1.0
  Te  Te6  1  0.41912950  0.82832679  -0.47005797  1.0
  Te  Te7  1  0.82832679  0.52994203  -0.58087050  1.0
  Te  Te8  1  0.66540620  -0.01206244  0.06479614  1.0
  Te  Te9  1  1.01206244  -0.06479614  -0.66540620  1.0
  Te  Te10  1  0.93520386  -0.66540620  0.01206244  1.0
  Te  Te11  1  0.33459380  0.01206244  -0.06479614  1.0
  Te  Te12  1  0.98793756  0.06479614  -0.33459380  1.0
  Te  Te13  1  1.06479614  -0.33459380  -0.01206244  1.0
  O  O14  1  0.63666039  0.54911705  -0.11335643  1.0
  O  O15  1  1.45088295  1.11335643  0.36333961  1.0
  O  O16  1  1.11335643  1.36333961  0.45088295  1.0
  O  O17  1  1.36333961  1.45088295  0.11335643  1.0
  O  O18  1  0.54911705  0.88664357  -0.36333961  1.0
  O  O19  1  0.88664357  0.63666039  -0.45088295  1.0
  O  O20  1  0.37976535  0.62449960  -0.29439554  1.0
  O  O21  1  0.37550040  0.29439554  -0.37976535  1.0
  O  O22  1  0.29439554  0.62023465  -0.62449960  1.0
  O  O23  1  0.62023465  0.37550040  -0.70560446  1.0
  O  O24  1  0.62449960  0.70560446  -0.62023465  1.0
  O  O25  1  0.70560446  0.37976535  -0.37550040  1.0
  O  O26  1  0.60355437  0.91576404  -0.10036332  1.0
  O  O27  1  1.08423596  1.10036332  0.39644563  1.0
  O  O28  1  1.10036332  1.39644563  0.08423596  1.0
  O  O29  1  1.39644563  1.08423596  0.10036332  1.0
  O  O30  1  0.91576404  0.89963668  -0.39644563  1.0
  O  O31  1  0.89963668  0.60355437  -0.08423596  1.0
  O  O32  1  0.70254704  0.20533103  -0.05114748  1.0
  O  O33  1  0.79466897  0.05114748  -0.70254704  1.0
  O  O34  1  0.05114748  0.29745296  -0.20533103  1.0
  O  O35  1  0.29745296  0.79466897  -0.94885252  1.0
  O  O36  1  1.20533103  -0.05114748  -0.29745296  1.0
  O  O37  1  0.94885252  -0.29745296  0.20533103  1.0
  O  O38  1  0.91430629  0.91430629  -0.08569371  1.0
  O  O39  1  1.08569371  1.08569371  0.08569371  1.0
