# generated using pymatgen
data_Sr3Li4(GeN3)2
_symmetry_space_group_name_H-M   'P 1'
_cell_length_a   5.91752577
_cell_length_b   5.91752577
_cell_length_c   6.34663746
_cell_angle_alpha   89.34434505
_cell_angle_beta   90.65565495
_cell_angle_gamma   62.87447394
_symmetry_Int_Tables_number   1
_chemical_formula_structural   Sr3Li4(GeN3)2
_chemical_formula_sum   'Sr3 Li4 Ge2 N6'
_cell_volume   197.74896836
_cell_formula_units_Z   1
loop_
 _symmetry_equiv_pos_site_id
 _symmetry_equiv_pos_as_xyz
  1  'x, y, z'
loop_
 _atom_site_type_symbol
 _atom_site_label
 _atom_site_symmetry_multiplicity
 _atom_site_fract_x
 _atom_site_fract_y
 _atom_site_fract_z
 _atom_site_occupancy
  Sr  Sr0  1  0.81154187  -0.18845813  0.50000000  1.0
  Sr  Sr1  1  1.18845813  0.18845813  0.50000000  1.0
  Sr  Sr2  1  0.00000000  0.00000000  0.00000000  1.0
  Li  Li3  1  1.45725584  0.18298224  0.88096897  1.0
  Li  Li4  1  0.81701776  -0.45725584  0.88096897  1.0
  Li  Li5  1  1.18298224  0.45725584  0.11903103  1.0
  Li  Li6  1  0.54274416  -0.18298224  0.11903103  1.0
  Ge  Ge7  1  0.38792272  -0.38792272  0.67994780  1.0
  Ge  Ge8  1  0.61207728  -0.61207728  0.32005220  1.0
  N  N9  1  0.45077126  -0.13889509  0.80210972  1.0
  N  N10  1  1.13889509  0.54922874  0.80210972  1.0
  N  N11  1  0.86110491  -0.54922874  0.19789028  1.0
  N  N12  1  1.54922874  0.13889509  0.19789028  1.0
  N  N13  1  0.70051773  -0.70051773  0.63172250  1.0
  N  N14  1  0.29948227  -0.29948227  0.36827750  1.0
