# generated using pymatgen
data_CaBi6(PO5)4
_symmetry_space_group_name_H-M   'P 1'
_cell_length_a   7.00916793
_cell_length_b   9.33409500
_cell_length_c   7.71877175
_cell_angle_alpha   106.92929730
_cell_angle_beta   112.49899276
_cell_angle_gamma   93.72970126
_symmetry_Int_Tables_number   1
_chemical_formula_structural   CaBi6(PO5)4
_chemical_formula_sum   'Ca1 Bi6 P4 O20'
_cell_volume   437.35143702
_cell_formula_units_Z   1
loop_
 _symmetry_equiv_pos_site_id
 _symmetry_equiv_pos_as_xyz
  1  'x, y, z'
loop_
 _atom_site_type_symbol
 _atom_site_label
 _atom_site_symmetry_multiplicity
 _atom_site_fract_x
 _atom_site_fract_y
 _atom_site_fract_z
 _atom_site_occupancy
  Ca  Ca0  1  0.00000000  0.00000000  0.00000000  1.0
  Bi  Bi1  1  -0.66297663  -0.48626186  -0.86832760  1.0
  Bi  Bi2  1  -0.33702337  -0.51373814  -0.13167240  1.0
  Bi  Bi3  1  -0.56660652  -0.91503631  -0.20786041  1.0
  Bi  Bi4  1  -0.43339348  -0.08496369  -0.79213959  1.0
  Bi  Bi5  1  -0.19136803  -0.67730189  -0.69705080  1.0
  Bi  Bi6  1  -0.80863197  -0.32269811  -0.30294920  1.0
  P  P7  1  -0.94938039  -0.23839252  -0.73439830  1.0
  P  P8  1  -0.05061961  -0.76160748  -0.26560170  1.0
  P  P9  1  -0.66029353  -0.74892886  -0.61370786  1.0
  P  P10  1  -0.33970647  -0.25107114  -0.38629214  1.0
  O  O11  1  -0.94283797  -0.59033865  -0.20163326  1.0
  O  O12  1  -0.05716203  -0.40966135  -0.79836674  1.0
  O  O13  1  -0.89155961  -0.85615462  -0.17216524  1.0
  O  O14  1  -0.10844039  -0.14384538  -0.82783476  1.0
  O  O15  1  -0.88033062  -0.72952033  -0.75330911  1.0
  O  O16  1  -0.11966938  -0.27047967  -0.24669089  1.0
  O  O17  1  -0.84976007  -0.16787387  -0.50119477  1.0
  O  O18  1  -0.15023993  -0.83212613  -0.49880523  1.0
  O  O19  1  -0.77752179  -0.24121694  -0.81779785  1.0
  O  O20  1  -0.22247821  -0.75878306  -0.18220215  1.0
  O  O21  1  -0.65689986  -0.92153737  -0.69605742  1.0
  O  O22  1  -0.34310014  -0.07846263  -0.30394258  1.0
  O  O23  1  -0.63454246  -0.69836499  -0.39366175  1.0
  O  O24  1  -0.36545754  -0.30163501  -0.60633825  1.0
  O  O25  1  -0.48322070  -0.64682044  -0.62606129  1.0
  O  O26  1  -0.51677930  -0.35317956  -0.37393871  1.0
  O  O27  1  -0.44861941  -0.63671316  -0.97295507  1.0
  O  O28  1  -0.55138059  -0.36328684  -0.02704493  1.0
  O  O29  1  -0.31851256  -0.90239646  -0.90737044  1.0
  O  O30  1  -0.68148744  -0.09760354  -0.09262956  1.0
