# generated using pymatgen
data_Sc3CoC4
_symmetry_space_group_name_H-M   'P 1'
_cell_length_a   6.59181962
_cell_length_b   6.59181962
_cell_length_c   5.52868494
_cell_angle_alpha   84.54497741
_cell_angle_beta   95.45502259
_cell_angle_gamma   49.58892255
_symmetry_Int_Tables_number   1
_chemical_formula_structural   Sc3CoC4
_chemical_formula_sum   'Sc6 Co2 C8'
_cell_volume   178.15471279
_cell_formula_units_Z   2
loop_
 _symmetry_equiv_pos_site_id
 _symmetry_equiv_pos_as_xyz
  1  'x, y, z'
loop_
 _atom_site_type_symbol
 _atom_site_label
 _atom_site_symmetry_multiplicity
 _atom_site_fract_x
 _atom_site_fract_y
 _atom_site_fract_z
 _atom_site_occupancy
  Sc  Sc0  1  0.24990219  -0.24990219  0.74999209  1.0
  Sc  Sc1  1  0.75009781  -0.75009781  0.25000791  1.0
  Sc  Sc2  1  0.68808652  -0.31191348  0.50000000  1.0
  Sc  Sc3  1  0.31191348  0.31191348  0.50000000  1.0
  Sc  Sc4  1  0.81189731  -0.18810269  -0.00000000  1.0
  Sc  Sc5  1  0.18810269  0.18810269  -0.00000000  1.0
  Co  Co6  1  0.74994234  -0.74994234  0.74997639  1.0
  Co  Co7  1  0.25005766  -0.25005766  0.25002361  1.0
  C  C8  1  0.79303957  -0.03933528  0.58373013  1.0
  C  C9  1  1.03933528  -0.79303957  0.58373013  1.0
  C  C10  1  0.96066472  -0.20696043  0.41626987  1.0
  C  C11  1  0.20696043  0.03933528  0.41626987  1.0
  C  C12  1  0.46067392  0.29310523  0.91625111  1.0
  C  C13  1  0.70689477  -0.46067392  0.91625111  1.0
  C  C14  1  1.29310523  -0.53932608  0.08374889  1.0
  C  C15  1  0.53932608  -0.29310523  0.08374889  1.0
