# generated using pymatgen
data_LiLa2IrO6
_symmetry_space_group_name_H-M   'P 1'
_cell_length_a   5.56243990
_cell_length_b   5.77430126
_cell_length_c   9.63108886
_cell_angle_alpha   90.00000000
_cell_angle_beta   124.98973834
_cell_angle_gamma   90.00000000
_symmetry_Int_Tables_number   1
_chemical_formula_structural   LiLa2IrO6
_chemical_formula_sum   'Li2 La4 Ir2 O12'
_cell_volume   253.43064707
_cell_formula_units_Z   2
loop_
 _symmetry_equiv_pos_site_id
 _symmetry_equiv_pos_as_xyz
  1  'x, y, z'
loop_
 _atom_site_type_symbol
 _atom_site_label
 _atom_site_symmetry_multiplicity
 _atom_site_fract_x
 _atom_site_fract_y
 _atom_site_fract_z
 _atom_site_occupancy
  Li  Li0  1  0.50000000  0.50000000  -0.00000000  1.0
  Li  Li1  1  0.50000000  0.00000000  0.50000000  1.0
  La  La2  1  0.73656278  0.05929602  0.24858544  1.0
  La  La3  1  0.73656278  0.44070398  0.74858544  1.0
  La  La4  1  0.26343722  0.55929602  0.25141456  1.0
  La  La5  1  0.26343722  0.94070398  0.75141456  1.0
  Ir  Ir6  1  0.00000000  0.50000000  0.50000000  1.0
  Ir  Ir7  1  -0.00000000  0.00000000  -0.00000000  1.0
  O  O8  1  0.84038223  0.47837379  0.25542641  1.0
  O  O9  1  0.84038223  0.02162621  0.75542641  1.0
  O  O10  1  0.15961777  0.97837379  0.24457359  1.0
  O  O11  1  0.15961777  0.52162621  0.74457359  1.0
  O  O12  1  0.76409019  0.78438382  0.45312585  1.0
  O  O13  1  0.76409019  0.71561618  0.95312585  1.0
  O  O14  1  0.23590981  0.28438382  0.04687415  1.0
  O  O15  1  0.23590981  0.21561618  0.54687415  1.0
  O  O16  1  0.66561417  0.30670553  0.45640871  1.0
  O  O17  1  0.66561417  0.19329447  0.95640871  1.0
  O  O18  1  0.33438583  0.80670553  0.04359129  1.0
  O  O19  1  0.33438583  0.69329447  0.54359129  1.0
