# generated using pymatgen
data_FeSnF6
_symmetry_space_group_name_H-M   'P 1'
_cell_length_a   5.68058052
_cell_length_b   5.68058052
_cell_length_c   5.68058052
_cell_angle_alpha   57.73594509
_cell_angle_beta   57.73594509
_cell_angle_gamma   57.73594509
_symmetry_Int_Tables_number   1
_chemical_formula_structural   FeSnF6
_chemical_formula_sum   'Fe1 Sn1 F6'
_cell_volume   122.87622058
_cell_formula_units_Z   1
loop_
 _symmetry_equiv_pos_site_id
 _symmetry_equiv_pos_as_xyz
  1  'x, y, z'
loop_
 _atom_site_type_symbol
 _atom_site_label
 _atom_site_symmetry_multiplicity
 _atom_site_fract_x
 _atom_site_fract_y
 _atom_site_fract_z
 _atom_site_occupancy
  Fe  Fe0  1  0.00000000  -0.00000000  0.00000000  1.0
  Sn  Sn1  1  0.50000000  0.50000000  -0.50000000  1.0
  F  F2  1  1.15515314  -0.24941306  -0.65387132  1.0
  F  F3  1  0.65387132  0.84484686  -0.75058694  1.0
  F  F4  1  0.24941306  0.65387132  -0.15515314  1.0
  F  F5  1  0.84484686  0.24941306  -0.34612868  1.0
  F  F6  1  0.34612868  0.15515314  -0.24941306  1.0
  F  F7  1  0.75058694  -0.65387132  0.15515314  1.0
