# generated using pymatgen
data_BaGe3
_symmetry_space_group_name_H-M   'P 1'
_cell_length_a   5.95522103
_cell_length_b   5.95522103
_cell_length_c   12.84360067
_cell_angle_alpha   90.00000000
_cell_angle_beta   90.00000000
_cell_angle_gamma   120.00000000
_symmetry_Int_Tables_number   1
_chemical_formula_structural   BaGe3
_chemical_formula_sum   'Ba4 Ge12'
_cell_volume   394.46928838
_cell_formula_units_Z   4
loop_
 _symmetry_equiv_pos_site_id
 _symmetry_equiv_pos_as_xyz
  1  'x, y, z'
loop_
 _atom_site_type_symbol
 _atom_site_label
 _atom_site_symmetry_multiplicity
 _atom_site_fract_x
 _atom_site_fract_y
 _atom_site_fract_z
 _atom_site_occupancy
  Ba  Ba0  1  0.66666667  0.33333333  0.74893916  1.0
  Ba  Ba1  1  0.66666667  0.33333333  0.25106084  1.0
  Ba  Ba2  1  -0.00000000  -0.00000000  0.84998554  1.0
  Ba  Ba3  1  -0.00000000  -0.00000000  0.15001446  1.0
  Ge  Ge4  1  0.66666667  0.33333333  0.50000000  1.0
  Ge  Ge5  1  0.33333333  0.66666667  0.81430592  1.0
  Ge  Ge6  1  0.33333333  0.66666667  0.18569408  1.0
  Ge  Ge7  1  0.48250414  -0.03499171  0.00000000  1.0
  Ge  Ge8  1  1.03499171  0.51749586  -0.00000000  1.0
  Ge  Ge9  1  0.48250414  0.51749586  -0.00000000  1.0
  Ge  Ge10  1  0.17121641  0.34243281  0.39881528  1.0
  Ge  Ge11  1  0.65756719  0.82878359  0.39881528  1.0
  Ge  Ge12  1  0.17121641  0.82878359  0.39881528  1.0
  Ge  Ge13  1  0.17121641  0.34243281  0.60118472  1.0
  Ge  Ge14  1  0.65756719  0.82878359  0.60118472  1.0
  Ge  Ge15  1  0.17121641  0.82878359  0.60118472  1.0
