# generated using pymatgen
data_NaTaCl6
_symmetry_space_group_name_H-M   'P 1'
_cell_length_a   6.72318871
_cell_length_b   7.05566934
_cell_length_c   20.38321879
_cell_angle_alpha   90.00000000
_cell_angle_beta   91.18276673
_cell_angle_gamma   90.00000000
_symmetry_Int_Tables_number   1
_chemical_formula_structural   NaTaCl6
_chemical_formula_sum   'Na4 Ta4 Cl24'
_cell_volume   966.70451142
_cell_formula_units_Z   4
loop_
 _symmetry_equiv_pos_site_id
 _symmetry_equiv_pos_as_xyz
  1  'x, y, z'
loop_
 _atom_site_type_symbol
 _atom_site_label
 _atom_site_symmetry_multiplicity
 _atom_site_fract_x
 _atom_site_fract_y
 _atom_site_fract_z
 _atom_site_occupancy
  Na  Na0  1  0.78887284  0.70107875  0.74137208  1.0
  Na  Na1  1  0.78887284  0.79892125  0.24137208  1.0
  Na  Na2  1  0.21112716  0.20107875  0.75862792  1.0
  Na  Na3  1  0.21112716  0.29892125  0.25862792  1.0
  Ta  Ta4  1  0.73539200  0.29156169  0.87850634  1.0
  Ta  Ta5  1  0.73539200  0.20843831  0.37850634  1.0
  Ta  Ta6  1  0.26460800  0.79156169  0.62149366  1.0
  Ta  Ta7  1  0.26460800  0.70843831  0.12149366  1.0
  Cl  Cl8  1  0.58323162  0.57169171  0.90779045  1.0
  Cl  Cl9  1  0.58323162  0.92830829  0.40779045  1.0
  Cl  Cl10  1  0.41676838  0.07169171  0.59220955  1.0
  Cl  Cl11  1  0.41676838  0.42830829  0.09220955  1.0
  Cl  Cl12  1  0.39112797  0.83815035  0.73551278  1.0
  Cl  Cl13  1  0.39112797  0.66184965  0.23551278  1.0
  Cl  Cl14  1  0.60887203  0.33815035  0.76448722  1.0
  Cl  Cl15  1  0.60887203  0.16184965  0.26448722  1.0
  Cl  Cl16  1  0.54444200  0.60775947  0.60288489  1.0
  Cl  Cl17  1  0.54444200  0.89224053  0.10288489  1.0
  Cl  Cl18  1  0.45555800  0.10775947  0.89711511  1.0
  Cl  Cl19  1  0.45555800  0.39224053  0.39711511  1.0
  Cl  Cl20  1  0.97927603  0.97244766  0.65759233  1.0
  Cl  Cl21  1  0.97927603  0.52755234  0.15759233  1.0
  Cl  Cl22  1  0.02072397  0.47244766  0.84240767  1.0
  Cl  Cl23  1  0.02072397  0.02755234  0.34240767  1.0
  Cl  Cl24  1  0.90708686  1.01378891  0.83630126  1.0
  Cl  Cl25  1  0.90708686  0.48621109  0.33630126  1.0
  Cl  Cl26  1  0.09291314  0.51378891  0.66369874  1.0
  Cl  Cl27  1  0.09291314  -0.01378891  0.16369874  1.0
  Cl  Cl28  1  0.87697018  0.24170375  0.98021926  1.0
  Cl  Cl29  1  0.87697018  0.25829625  0.48021926  1.0
  Cl  Cl30  1  0.12302982  0.74170375  0.51978074  1.0
  Cl  Cl31  1  0.12302982  0.75829625  0.01978074  1.0
