# generated using pymatgen
data_RbBaPO4
_symmetry_space_group_name_H-M   'P 1'
_cell_length_a   7.94522047
_cell_length_b   5.79571459
_cell_length_c   10.27016267
_cell_angle_alpha   90.00000000
_cell_angle_beta   90.00000000
_cell_angle_gamma   90.00000000
_symmetry_Int_Tables_number   1
_chemical_formula_structural   RbBaPO4
_chemical_formula_sum   'Rb4 Ba4 P4 O16'
_cell_volume   472.92281472
_cell_formula_units_Z   4
loop_
 _symmetry_equiv_pos_site_id
 _symmetry_equiv_pos_as_xyz
  1  'x, y, z'
loop_
 _atom_site_type_symbol
 _atom_site_label
 _atom_site_symmetry_multiplicity
 _atom_site_fract_x
 _atom_site_fract_y
 _atom_site_fract_z
 _atom_site_occupancy
  Rb  Rb0  1  0.84449208  0.75000000  0.41660493  1.0
  Rb  Rb1  1  0.34449208  0.75000000  0.08339507  1.0
  Rb  Rb2  1  0.15550792  0.25000000  0.58339507  1.0
  Rb  Rb3  1  0.65550792  0.25000000  0.91660493  1.0
  Ba  Ba4  1  0.49907271  0.75000000  0.69087202  1.0
  Ba  Ba5  1  -0.00092729  0.75000000  0.80912798  1.0
  Ba  Ba6  1  0.50092729  0.25000000  0.30912798  1.0
  Ba  Ba7  1  1.00092729  0.25000000  0.19087202  1.0
  P  P8  1  0.77151488  0.75000000  0.08668386  1.0
  P  P9  1  0.27151488  0.75000000  0.41331614  1.0
  P  P10  1  0.22848512  0.25000000  0.91331614  1.0
  P  P11  1  0.72848512  0.25000000  0.58668386  1.0
  O  O12  1  0.71073644  0.97216860  0.15983747  1.0
  O  O13  1  0.71073644  0.52783140  0.15983747  1.0
  O  O14  1  0.21073644  0.97216860  0.34016253  1.0
  O  O15  1  0.21073644  0.52783140  0.34016253  1.0
  O  O16  1  0.28926356  0.47216860  0.84016253  1.0
  O  O17  1  0.28926356  0.02783140  0.84016253  1.0
  O  O18  1  0.78926356  0.47216860  0.65983747  1.0
  O  O19  1  0.78926356  0.02783140  0.65983747  1.0
  O  O20  1  0.96860485  0.75000000  0.08119627  1.0
  O  O21  1  0.46860485  0.75000000  0.41880373  1.0
  O  O22  1  0.03139515  0.25000000  0.91880373  1.0
  O  O23  1  0.53139515  0.25000000  0.58119627  1.0
  O  O24  1  0.19963865  0.75000000  0.55598880  1.0
  O  O25  1  0.69963865  0.75000000  0.94401120  1.0
  O  O26  1  0.80036135  0.25000000  0.44401120  1.0
  O  O27  1  0.30036135  0.25000000  0.05598880  1.0
