# generated using pymatgen
data_ZnCN2
_symmetry_space_group_name_H-M   'P 1'
_cell_length_a   6.91020514
_cell_length_b   6.91020514
_cell_length_c   6.91020514
_cell_angle_alpha   98.77396211
_cell_angle_beta   98.77396211
_cell_angle_gamma   134.02136477
_symmetry_Int_Tables_number   1
_chemical_formula_structural   ZnCN2
_chemical_formula_sum   'Zn4 C4 N8'
_cell_volume   218.42930828
_cell_formula_units_Z   4
loop_
 _symmetry_equiv_pos_site_id
 _symmetry_equiv_pos_as_xyz
  1  'x, y, z'
loop_
 _atom_site_type_symbol
 _atom_site_label
 _atom_site_symmetry_multiplicity
 _atom_site_fract_x
 _atom_site_fract_y
 _atom_site_fract_z
 _atom_site_occupancy
  Zn  Zn0  1  0.82993705  0.62500000  0.70493705  1.0
  Zn  Zn1  1  0.37500000  1.07993705  1.20493705  1.0
  Zn  Zn2  1  0.87500000  0.17006295  0.79506295  1.0
  Zn  Zn3  1  0.92006295  1.12500000  1.29506295  1.0
  C  C4  1  1.30262625  1.62500000  1.17762625  1.0
  C  C5  1  1.37500000  1.55262625  1.67762625  1.0
  C  C6  1  0.87500000  0.69737375  0.32237375  1.0
  C  C7  1  1.44737375  1.12500000  0.82237375  1.0
  N  N8  1  1.63999526  1.75420729  1.73414981  1.0
  N  N9  1  0.72994252  0.49579271  0.38578797  1.0
  N  N10  1  0.50420729  0.88999526  1.23414981  1.0
  N  N11  1  1.09415454  1.36000474  1.11421203  1.0
  N  N12  1  1.11000474  1.34415454  1.61421203  1.0
  N  N13  1  1.02005748  0.90584546  0.26585019  1.0
  N  N14  1  1.24579271  0.97994252  0.88578797  1.0
  N  N15  1  0.65584546  0.27005748  0.76585019  1.0
