# generated using pymatgen
data_LiNiO2
_symmetry_space_group_name_H-M   'P 1'
_cell_length_a   5.02602192
_cell_length_b   5.02602192
_cell_length_c   5.01203276
_cell_angle_alpha   80.43239441
_cell_angle_beta   99.56760559
_cell_angle_gamma   59.89622854
_symmetry_Int_Tables_number   1
_chemical_formula_structural   LiNiO2
_chemical_formula_sum   'Li3 Ni3 O6'
_cell_volume   103.28212618
_cell_formula_units_Z   3
loop_
 _symmetry_equiv_pos_site_id
 _symmetry_equiv_pos_as_xyz
  1  'x, y, z'
loop_
 _atom_site_type_symbol
 _atom_site_label
 _atom_site_symmetry_multiplicity
 _atom_site_fract_x
 _atom_site_fract_y
 _atom_site_fract_z
 _atom_site_occupancy
  Ni  Ni0  1  0.50003818  -0.50003818  0.49999660  1.0
  Ni  Ni1  1  0.16655857  0.16656958  0.49997598  1.0
  Ni  Ni2  1  0.83343042  -0.16655857  0.49997598  1.0
  Li  Li3  1  0.00007716  -0.00007716  0.00001591  1.0
  Li  Li4  1  0.66846313  -0.33128713  -0.00002857  1.0
  Li  Li5  1  0.33128713  0.33153687  -0.00002857  1.0
  O  O6  1  0.77313536  -0.77313536  0.27620371  1.0
  O  O7  1  0.92097819  -0.57412842  0.72050936  1.0
  O  O8  1  0.57412842  0.07902181  0.72050936  1.0
  O  O9  1  1.07903865  -0.42585581  0.27946216  1.0
  O  O10  1  0.42585581  -0.07903865  0.27946216  1.0
  O  O11  1  0.22690198  -0.22690198  0.72377191  1.0
