# generated using pymatgen
data_CuSn(O2F3)2
_symmetry_space_group_name_H-M   'P 1'
_cell_length_a   5.00014035
_cell_length_b   8.30034232
_cell_length_c   8.36749443
_cell_angle_alpha   90.00000000
_cell_angle_beta   103.30745779
_cell_angle_gamma   90.00000000
_symmetry_Int_Tables_number   1
_chemical_formula_structural   CuSn(O2F3)2
_chemical_formula_sum   'Cu2 Sn2 O8 F12'
_cell_volume   337.95037754
_cell_formula_units_Z   2
loop_
 _symmetry_equiv_pos_site_id
 _symmetry_equiv_pos_as_xyz
  1  'x, y, z'
loop_
 _atom_site_type_symbol
 _atom_site_label
 _atom_site_symmetry_multiplicity
 _atom_site_fract_x
 _atom_site_fract_y
 _atom_site_fract_z
 _atom_site_occupancy
  F  F0  1  0.72891885  0.49976151  0.28573194  1.0
  F  F1  1  0.72891885  0.00023849  0.78573194  1.0
  F  F2  1  0.27108115  0.99976151  0.21426806  1.0
  F  F3  1  0.27108115  0.50023849  0.71426806  1.0
  F  F4  1  0.13434829  0.28826862  0.42350159  1.0
  F  F5  1  0.13434829  0.21173138  0.92350159  1.0
  F  F6  1  0.86565171  0.78826862  0.07649841  1.0
  F  F7  1  0.86565171  0.71173138  0.57649841  1.0
  F  F8  1  0.74581930  0.13127266  0.10334081  1.0
  F  F9  1  0.74581930  0.36872734  0.60334081  1.0
  F  F10  1  0.25418070  0.63127266  0.39665919  1.0
  F  F11  1  0.25418070  0.86872734  0.89665919  1.0
  Sn  Sn12  1  -0.00000000  0.50000000  0.50000000  1.0
  Sn  Sn13  1  0.00000000  0.00000000  0.00000000  1.0
  Cu  Cu14  1  0.50000000  0.50000000  -0.00000000  1.0
  Cu  Cu15  1  0.50000000  0.00000000  0.50000000  1.0
  O  O16  1  0.53523644  0.20102674  0.41831506  1.0
  O  O17  1  0.53523644  0.29897326  0.91831506  1.0
  O  O18  1  0.46476356  0.70102674  0.08168494  1.0
  O  O19  1  0.46476356  0.79897326  0.58168494  1.0
  O  O20  1  0.80937853  0.94231272  0.43174266  1.0
  O  O21  1  0.80937853  0.55768728  0.93174266  1.0
  O  O22  1  0.19062147  0.44231272  0.06825734  1.0
  O  O23  1  0.19062147  0.05768728  0.56825734  1.0
