# generated using pymatgen
data_Na2InNiF7
_symmetry_space_group_name_H-M   'P 1'
_cell_length_a   10.44766237
_cell_length_b   7.44044549
_cell_length_c   7.62324380
_cell_angle_alpha   90.00000000
_cell_angle_beta   90.00000000
_cell_angle_gamma   90.00000000
_symmetry_Int_Tables_number   1
_chemical_formula_structural   Na2InNiF7
_chemical_formula_sum   'Na8 In4 Ni4 F28'
_cell_volume   592.59485629
_cell_formula_units_Z   4
loop_
 _symmetry_equiv_pos_site_id
 _symmetry_equiv_pos_as_xyz
  1  'x, y, z'
loop_
 _atom_site_type_symbol
 _atom_site_label
 _atom_site_symmetry_multiplicity
 _atom_site_fract_x
 _atom_site_fract_y
 _atom_site_fract_z
 _atom_site_occupancy
  Na  Na0  1  0.50000000  0.00000000  0.00000000  1.0
  Na  Na1  1  0.00000000  0.50000000  0.50000000  1.0
  Na  Na2  1  0.50000000  0.50000000  0.00000000  1.0
  Na  Na3  1  0.00000000  0.00000000  0.50000000  1.0
  Na  Na4  1  0.26777001  0.75000000  0.74597990  1.0
  Na  Na5  1  0.76777001  0.75000000  0.75402010  1.0
  Na  Na6  1  0.73222999  0.25000000  0.25402010  1.0
  Na  Na7  1  0.23222999  0.25000000  0.24597990  1.0
  In  In8  1  0.26938199  0.75000000  0.27074419  1.0
  In  In9  1  0.76938199  0.75000000  0.22925581  1.0
  In  In10  1  0.73061801  0.25000000  0.72925581  1.0
  In  In11  1  0.23061801  0.25000000  0.77074419  1.0
  Ni  Ni12  1  0.50000000  0.00000000  0.50000000  1.0
  Ni  Ni13  1  0.00000000  0.50000000  0.00000000  1.0
  Ni  Ni14  1  0.50000000  0.50000000  0.50000000  1.0
  Ni  Ni15  1  0.00000000  0.00000000  0.00000000  1.0
  F  F16  1  0.42971644  0.75000000  0.51478756  1.0
  F  F17  1  0.92971644  0.75000000  0.98521244  1.0
  F  F18  1  0.57028356  0.25000000  0.48521244  1.0
  F  F19  1  0.07028356  0.25000000  0.01478756  1.0
  F  F20  1  0.15370354  0.75000000  0.49364543  1.0
  F  F21  1  0.65370354  0.75000000  0.00635457  1.0
  F  F22  1  0.84629646  0.25000000  0.50635457  1.0
  F  F23  1  0.34629646  0.25000000  0.99364543  1.0
  F  F24  1  0.36039275  0.75000000  0.02309395  1.0
  F  F25  1  0.86039275  0.75000000  0.47690605  1.0
  F  F26  1  0.63960725  0.25000000  0.97690605  1.0
  F  F27  1  0.13960725  0.25000000  0.52309395  1.0
  F  F28  1  0.36887426  0.05118526  0.68840452  1.0
  F  F29  1  0.86887426  0.44881474  0.81159548  1.0
  F  F30  1  0.63112574  0.55118526  0.31159548  1.0
  F  F31  1  0.13112574  0.94881474  0.18840452  1.0
  F  F32  1  0.63112574  0.94881474  0.31159548  1.0
  F  F33  1  0.13112574  0.55118526  0.18840452  1.0
  F  F34  1  0.36887426  0.44881474  0.68840452  1.0
  F  F35  1  0.86887426  0.05118526  0.81159548  1.0
  F  F36  1  0.37121785  1.00440718  0.30117120  1.0
  F  F37  1  0.87121785  0.49559282  0.19882880  1.0
  F  F38  1  0.62878215  0.50440718  0.69882880  1.0
  F  F39  1  0.12878215  -0.00440718  0.80117120  1.0
  F  F40  1  0.62878215  -0.00440718  0.69882880  1.0
  F  F41  1  0.12878215  0.50440718  0.80117120  1.0
  F  F42  1  0.37121785  0.49559282  0.30117120  1.0
  F  F43  1  0.87121785  1.00440718  0.19882880  1.0
