# generated using pymatgen
data_Na4Li5(BO3)3
_symmetry_space_group_name_H-M   'P 1'
_cell_length_a   7.28292270
_cell_length_b   7.28292270
_cell_length_c   9.86552312
_cell_angle_alpha   75.31192079
_cell_angle_beta   104.68807921
_cell_angle_gamma   118.97695012
_symmetry_Int_Tables_number   1
_chemical_formula_structural   Na4Li5(BO3)3
_chemical_formula_sum   'Na8 Li10 B6 O18'
_cell_volume   437.49551542
_cell_formula_units_Z   2
loop_
 _symmetry_equiv_pos_site_id
 _symmetry_equiv_pos_as_xyz
  1  'x, y, z'
loop_
 _atom_site_type_symbol
 _atom_site_label
 _atom_site_symmetry_multiplicity
 _atom_site_fract_x
 _atom_site_fract_y
 _atom_site_fract_z
 _atom_site_occupancy
  Na  Na0  1  0.62002221  -0.13460356  0.98515721  1.0
  Na  Na1  1  1.13460356  0.37997779  0.48515721  1.0
  Na  Na2  1  0.86539644  -0.37997779  0.51484279  1.0
  Na  Na3  1  1.37997779  0.13460356  0.01484279  1.0
  Na  Na4  1  0.27581291  -0.16609919  0.28616400  1.0
  Na  Na5  1  1.16609919  0.72418709  0.78616400  1.0
  Na  Na6  1  0.83390081  -0.72418709  0.21383600  1.0
  Na  Na7  1  1.72418709  0.16609919  0.71383600  1.0
  Li  Li8  1  0.48705406  -0.42251058  0.36011578  1.0
  Li  Li9  1  1.42251058  0.51294594  0.86011578  1.0
  Li  Li10  1  0.57748942  -0.51294594  0.13988422  1.0
  Li  Li11  1  1.51294594  0.42251058  0.63988422  1.0
  Li  Li12  1  0.79649964  -0.01824693  0.48785531  1.0
  Li  Li13  1  1.01824693  0.20350036  0.98785531  1.0
  Li  Li14  1  0.98175307  -0.20350036  0.01214469  1.0
  Li  Li15  1  1.20350036  0.01824693  0.51214469  1.0
  Li  Li16  1  1.22186240  0.22186240  0.25000000  1.0
  Li  Li17  1  0.77813760  -0.22186240  0.75000000  1.0
  B  B18  1  1.58232292  0.24846315  0.40318629  1.0
  B  B19  1  0.75153685  -0.58232292  0.90318629  1.0
  B  B20  1  1.24846315  0.58232292  0.09681371  1.0
  B  B21  1  0.41767708  -0.24846315  0.59681371  1.0
  B  B22  1  0.89516736  -0.10483264  0.25000000  1.0
  B  B23  1  1.10483264  0.10483264  0.75000000  1.0
  O  O24  1  1.96813310  0.01940728  0.35603841  1.0
  O  O25  1  0.98059272  -0.96813310  0.85603841  1.0
  O  O26  1  1.01940728  0.96813310  0.14396159  1.0
  O  O27  1  0.03186690  -0.01940728  0.64396159  1.0
  O  O28  1  1.75081762  0.22531922  0.96862545  1.0
  O  O29  1  0.77468078  -0.75081762  0.46862545  1.0
  O  O30  1  1.22531922  0.75081762  0.53137455  1.0
  O  O31  1  0.24918238  -0.22531922  0.03137455  1.0
  O  O32  1  1.49940178  0.21058060  0.26318096  1.0
  O  O33  1  0.78941940  -0.49940178  0.76318096  1.0
  O  O34  1  1.21058060  0.49940178  0.23681904  1.0
  O  O35  1  0.50059822  -0.21058060  0.73681904  1.0
  O  O36  1  1.46866228  0.29224223  0.47620500  1.0
  O  O37  1  0.70775777  -0.46866228  0.97620500  1.0
  O  O38  1  1.29224223  0.46866228  0.02379500  1.0
  O  O39  1  0.53133772  -0.29224223  0.52379500  1.0
  O  O40  1  0.70848876  -0.29151124  0.25000000  1.0
  O  O41  1  1.29151124  0.29151124  0.75000000  1.0
