# generated using pymatgen
data_H2C3NClOF4
_symmetry_space_group_name_H-M   'P 1'
_cell_length_a   12.90042561
_cell_length_b   5.80644951
_cell_length_c   10.14851129
_cell_angle_alpha   90.00000000
_cell_angle_beta   102.34384644
_cell_angle_gamma   90.00000000
_symmetry_Int_Tables_number   1
_chemical_formula_structural   H2C3NClOF4
_chemical_formula_sum   'H8 C12 N4 Cl4 O4 F16'
_cell_volume   742.60737256
_cell_formula_units_Z   4
loop_
 _symmetry_equiv_pos_site_id
 _symmetry_equiv_pos_as_xyz
  1  'x, y, z'
loop_
 _atom_site_type_symbol
 _atom_site_label
 _atom_site_symmetry_multiplicity
 _atom_site_fract_x
 _atom_site_fract_y
 _atom_site_fract_z
 _atom_site_occupancy
  H  H0  1  0.47754384  0.97311696  0.87156836  1.0
  H  H1  1  0.47754384  0.52688304  0.37156836  1.0
  H  H2  1  0.52245616  0.47311696  0.62843164  1.0
  H  H3  1  0.52245616  0.02688304  0.12843164  1.0
  H  H4  1  0.39939655  0.78892146  0.75126031  1.0
  H  H5  1  0.39939655  0.71107854  0.25126031  1.0
  H  H6  1  0.60060345  0.28892146  0.74873969  1.0
  H  H7  1  0.60060345  0.21107854  0.24873969  1.0
  C  C8  1  0.38913936  0.74451451  0.95087994  1.0
  C  C9  1  0.38913936  0.75548549  0.45087994  1.0
  C  C10  1  0.61086064  0.24451451  0.54912006  1.0
  C  C11  1  0.61086064  0.25548549  0.04912006  1.0
  C  C12  1  0.30602543  0.54728416  0.91246125  1.0
  C  C13  1  0.30602543  0.95271584  0.41246125  1.0
  C  C14  1  0.69397457  0.04728416  0.58753875  1.0
  C  C15  1  0.69397457  0.45271584  0.08753875  1.0
  C  C16  1  0.18996505  0.62725015  0.91035599  1.0
  C  C17  1  0.18996505  0.87274985  0.41035599  1.0
  C  C18  1  0.81003495  0.12725015  0.58964401  1.0
  C  C19  1  0.81003495  0.37274985  0.08964401  1.0
  N  N20  1  0.42172915  0.84370381  0.84920855  1.0
  N  N21  1  0.42172915  0.65629619  0.34920855  1.0
  N  N22  1  0.57827085  0.34370381  0.65079145  1.0
  N  N23  1  0.57827085  0.15629619  0.15079145  1.0
  Cl  Cl24  1  0.90260630  0.90288216  0.63917346  1.0
  Cl  Cl25  1  0.90260630  0.59711784  0.13917346  1.0
  Cl  Cl26  1  0.09739370  0.40288216  0.86082654  1.0
  Cl  Cl27  1  0.09739370  0.09711784  0.36082654  1.0
  O  O28  1  0.41889144  0.70436542  0.57214561  1.0
  O  O29  1  0.41889144  0.79563458  0.07214561  1.0
  O  O30  1  0.58110856  0.20436542  0.92785439  1.0
  O  O31  1  0.58110856  0.29563458  0.42785439  1.0
  F  F32  1  0.33112542  0.37385416  1.00499184  1.0
  F  F33  1  0.33112542  0.12614584  0.50499184  1.0
  F  F34  1  0.66887458  0.87385416  0.49500816  1.0
  F  F35  1  0.66887458  0.62614584  -0.00499184  1.0
  F  F36  1  0.30852960  0.45974286  0.78767942  1.0
  F  F37  1  0.30852960  0.04025714  0.28767942  1.0
  F  F38  1  0.69147040  0.95974286  0.71232058  1.0
  F  F39  1  0.69147040  0.54025714  0.21232058  1.0
  F  F40  1  0.16639545  0.80741123  0.82282381  1.0
  F  F41  1  0.16639545  0.69258877  0.32282381  1.0
  F  F42  1  0.83360455  0.30741123  0.67717619  1.0
  F  F43  1  0.83360455  0.19258877  0.17717619  1.0
  F  F44  1  0.18398317  0.79568024  0.53494773  1.0
  F  F45  1  0.18398317  0.70431976  0.03494773  1.0
  F  F46  1  0.81601683  0.29568024  0.96505227  1.0
  F  F47  1  0.81601683  0.20431976  0.46505227  1.0
