# generated using pymatgen
data_K3(TcCl4)2
_symmetry_space_group_name_H-M   'P 1'
_cell_length_a   13.00072583
_cell_length_b   13.00072583
_cell_length_c   8.24639867
_cell_angle_alpha   90.00000000
_cell_angle_beta   90.00000000
_cell_angle_gamma   120.00000000
_symmetry_Int_Tables_number   1
_chemical_formula_structural   K3(TcCl4)2
_chemical_formula_sum   'K9 Tc6 Cl24'
_cell_volume   1207.06361183
_cell_formula_units_Z   3
loop_
 _symmetry_equiv_pos_site_id
 _symmetry_equiv_pos_as_xyz
  1  'x, y, z'
loop_
 _atom_site_type_symbol
 _atom_site_label
 _atom_site_symmetry_multiplicity
 _atom_site_fract_x
 _atom_site_fract_y
 _atom_site_fract_z
 _atom_site_occupancy
  K  K0  1  0.32971734  0.82027534  0.92272346  1.0
  K  K1  1  0.49055800  0.67028266  0.58939012  1.0
  K  K2  1  0.17972466  0.50944200  0.25605679  1.0
  K  K3  1  0.67028266  0.49055800  0.41060988  1.0
  K  K4  1  0.82027534  0.32971734  0.07727654  1.0
  K  K5  1  0.50944200  0.17972466  0.74394321  1.0
  K  K6  1  0.70297912  0.00000000  0.33333333  1.0
  K  K7  1  0.29702088  0.29702088  0.00000000  1.0
  K  K8  1  0.00000000  0.70297912  0.66666667  1.0
  Tc  Tc9  1  0.35595868  0.91840124  0.39767349  1.0
  Tc  Tc10  1  0.56244256  0.64404132  0.06434016  1.0
  Tc  Tc11  1  0.08159876  0.43755744  0.73100683  1.0
  Tc  Tc12  1  0.64404132  0.56244256  0.93565984  1.0
  Tc  Tc13  1  0.91840124  0.35595868  0.60232651  1.0
  Tc  Tc14  1  0.43755744  0.08159876  0.26899317  1.0
  Cl  Cl15  1  0.25024066  0.94447643  0.61488737  1.0
  Cl  Cl16  1  0.69423578  0.74975934  0.28155403  1.0
  Cl  Cl17  1  0.05552357  0.30576422  0.94822070  1.0
  Cl  Cl18  1  0.74975934  0.69423578  0.71844597  1.0
  Cl  Cl19  1  0.94447643  0.25024066  0.38511263  1.0
  Cl  Cl20  1  0.30576422  0.05552357  0.05177930  1.0
  Cl  Cl21  1  0.49684330  0.93788210  0.60279646  1.0
  Cl  Cl22  1  0.44103880  0.50315670  0.26946313  1.0
  Cl  Cl23  1  0.06211790  0.55896120  0.93612979  1.0
  Cl  Cl24  1  0.50315670  0.44103880  0.73053687  1.0
  Cl  Cl25  1  0.93788210  0.49684330  0.39720354  1.0
  Cl  Cl26  1  0.55896120  0.06211790  0.06387021  1.0
  Cl  Cl27  1  0.17391697  0.80384336  0.26513423  1.0
  Cl  Cl28  1  0.62992639  0.82608303  0.93180090  1.0
  Cl  Cl29  1  0.19615664  0.37007361  0.59846756  1.0
  Cl  Cl30  1  0.82608303  0.62992639  0.06819910  1.0
  Cl  Cl31  1  0.80384336  0.17391697  0.73486577  1.0
  Cl  Cl32  1  0.37007361  0.19615664  0.40153244  1.0
  Cl  Cl33  1  0.42003373  0.79583179  0.26678367  1.0
  Cl  Cl34  1  0.37579806  0.57996627  0.93345034  1.0
  Cl  Cl35  1  0.20416821  0.62420194  0.60011700  1.0
  Cl  Cl36  1  0.57996627  0.37579806  0.06654966  1.0
  Cl  Cl37  1  0.79583179  0.42003373  0.73321633  1.0
  Cl  Cl38  1  0.62420194  0.20416821  0.39988300  1.0
