# generated using pymatgen
data_Ti2Bi
_symmetry_space_group_name_H-M   'P 1'
_cell_length_a   7.69084736
_cell_length_b   7.69084736
_cell_length_c   7.69084736
_cell_angle_alpha   148.32171148
_cell_angle_beta   148.32171148
_cell_angle_gamma   45.41067844
_symmetry_Int_Tables_number   1
_chemical_formula_structural   Ti2Bi
_chemical_formula_sum   'Ti4 Bi2'
_cell_volume   125.04794927
_cell_formula_units_Z   2
loop_
 _symmetry_equiv_pos_site_id
 _symmetry_equiv_pos_as_xyz
  1  'x, y, z'
loop_
 _atom_site_type_symbol
 _atom_site_label
 _atom_site_symmetry_multiplicity
 _atom_site_fract_x
 _atom_site_fract_y
 _atom_site_fract_z
 _atom_site_occupancy
  Ti  Ti0  1  0.85812698  0.85812698  1.00000000  1.0
  Ti  Ti1  1  0.14187302  0.14187302  -0.00000000  1.0
  Ti  Ti2  1  0.50000000  0.00000000  0.50000000  1.0
  Ti  Ti3  1  0.00000000  0.50000000  0.50000000  1.0
  Bi  Bi4  1  0.64949037  0.64949037  1.00000000  1.0
  Bi  Bi5  1  0.35050963  0.35050963  -0.00000000  1.0
