# generated using pymatgen
data_CeCdO3
_symmetry_space_group_name_H-M   'P 1'
_cell_length_a   8.30380133
_cell_length_b   8.61089028
_cell_length_c   8.30387307
_cell_angle_alpha   90.00000000
_cell_angle_beta   89.13906545
_cell_angle_gamma   90.00000000
_symmetry_Int_Tables_number   1
_chemical_formula_structural   CeCdO3
_chemical_formula_sum   'Ce8 Cd8 O24'
_cell_volume   593.68582127
_cell_formula_units_Z   8
loop_
 _symmetry_equiv_pos_site_id
 _symmetry_equiv_pos_as_xyz
  1  'x, y, z'
loop_
 _atom_site_type_symbol
 _atom_site_label
 _atom_site_symmetry_multiplicity
 _atom_site_fract_x
 _atom_site_fract_y
 _atom_site_fract_z
 _atom_site_occupancy
  Ce  Ce0  1  0.50000000  0.00000000  0.50000000  1.0
  Ce  Ce1  1  0.50000000  0.50000000  0.50000000  1.0
  Ce  Ce2  1  0.00000000  0.00000000  0.50000000  1.0
  Ce  Ce3  1  0.00000000  0.50000000  0.50000000  1.0
  Ce  Ce4  1  0.50000000  0.00000000  -0.00000000  1.0
  Ce  Ce5  1  0.50000000  0.50000000  -0.00000000  1.0
  Ce  Ce6  1  0.00000000  0.00000000  0.00000000  1.0
  Ce  Ce7  1  0.00000000  0.50000000  0.00000000  1.0
  Cd  Cd8  1  0.73403564  0.75000000  0.73015541  1.0
  Cd  Cd9  1  0.26596436  0.25000000  0.26984459  1.0
  Cd  Cd10  1  0.73015525  0.75000000  0.23406928  1.0
  Cd  Cd11  1  0.26984475  0.25000000  0.76593072  1.0
  Cd  Cd12  1  0.23014963  0.75000000  0.73407155  1.0
  Cd  Cd13  1  0.76985037  0.25000000  0.26592845  1.0
  Cd  Cd14  1  0.23407310  0.75000000  0.23011814  1.0
  Cd  Cd15  1  0.76592690  0.25000000  0.76988186  1.0
  O  O16  1  0.92358105  0.93174216  0.25244812  1.0
  O  O17  1  0.92358105  0.56825784  0.25244812  1.0
  O  O18  1  0.07641895  0.43174216  0.74755188  1.0
  O  O19  1  0.07641895  0.06825784  0.74755188  1.0
  O  O20  1  0.75243997  -0.06820975  0.92357859  1.0
  O  O21  1  0.75243997  0.56820975  0.92357859  1.0
  O  O22  1  0.24756003  0.43179025  0.07642141  1.0
  O  O23  1  0.24756003  0.06820975  0.07642141  1.0
  O  O24  1  0.74755534  0.06825285  0.57642045  1.0
  O  O25  1  0.74755534  0.43174715  0.57642045  1.0
  O  O26  1  0.25244466  0.56825285  0.42357955  1.0
  O  O27  1  0.25244466  -0.06825285  0.42357955  1.0
  O  O28  1  0.42356605  0.93176234  0.75242848  1.0
  O  O29  1  0.42356605  0.56823766  0.75242848  1.0
  O  O30  1  0.57643395  0.43176234  0.24757152  1.0
  O  O31  1  0.57643395  0.06823766  0.24757152  1.0
  O  O32  1  0.10629500  0.75000000  0.98498453  1.0
  O  O33  1  -0.10629500  0.25000000  0.01501547  1.0
  O  O34  1  -0.01496780  0.75000000  0.60627305  1.0
  O  O35  1  0.01496780  0.25000000  0.39372695  1.0
  O  O36  1  0.60630680  0.75000000  0.48501071  1.0
  O  O37  1  0.39369320  0.25000000  0.51498929  1.0
  O  O38  1  0.48498969  0.75000000  0.10625014  1.0
  O  O39  1  0.51501031  0.25000000  0.89374986  1.0
