# generated using pymatgen
data_In2Cu2O5
_symmetry_space_group_name_H-M   'P 1'
_cell_length_a   10.73039076
_cell_length_b   3.35024693
_cell_length_c   12.47379427
_cell_angle_alpha   90.00000000
_cell_angle_beta   90.00000000
_cell_angle_gamma   90.00000000
_symmetry_Int_Tables_number   1
_chemical_formula_structural   In2Cu2O5
_chemical_formula_sum   'In8 Cu8 O20'
_cell_volume   448.42615221
_cell_formula_units_Z   4
loop_
 _symmetry_equiv_pos_site_id
 _symmetry_equiv_pos_as_xyz
  1  'x, y, z'
loop_
 _atom_site_type_symbol
 _atom_site_label
 _atom_site_symmetry_multiplicity
 _atom_site_fract_x
 _atom_site_fract_y
 _atom_site_fract_z
 _atom_site_occupancy
  O  O0  1  0.42149444  0.22939571  0.40366892  1.0
  O  O1  1  0.92149444  0.27060429  0.40366892  1.0
  O  O2  1  0.57850556  0.77060429  0.90366892  1.0
  O  O3  1  0.07850556  0.72939571  0.90366892  1.0
  O  O4  1  0.17150631  0.71434213  0.29123990  1.0
  O  O5  1  0.67150631  0.78565787  0.29123990  1.0
  O  O6  1  0.82849369  0.28565787  0.79123990  1.0
  O  O7  1  0.32849369  0.21434213  0.79123990  1.0
  O  O8  1  0.37552228  0.82422079  0.59718601  1.0
  O  O9  1  0.87552228  0.67577921  0.59718601  1.0
  O  O10  1  0.62447772  0.17577921  0.09718601  1.0
  O  O11  1  0.12447772  0.32422079  0.09718601  1.0
  O  O12  1  0.32065044  0.71159483  0.00044884  1.0
  O  O13  1  0.82065044  0.78840517  0.00044884  1.0
  O  O14  1  0.67934956  0.28840517  0.50044884  1.0
  O  O15  1  0.17934956  0.21159483  0.50044884  1.0
  O  O16  1  0.42959563  0.78239583  0.19456684  1.0
  O  O17  1  0.92959563  0.71760417  0.19456684  1.0
  O  O18  1  0.57040437  0.21760417  0.69456684  1.0
  O  O19  1  0.07040437  0.28239583  0.69456684  1.0
  Cu  Cu20  1  0.49077591  0.83110824  0.04405089  1.0
  Cu  Cu21  1  0.99077591  0.66889176  0.04405089  1.0
  Cu  Cu22  1  0.50922409  0.16889176  0.54405089  1.0
  Cu  Cu23  1  0.00922409  0.33110824  0.54405089  1.0
  Cu  Cu24  1  0.25979605  0.65891699  0.15099142  1.0
  Cu  Cu25  1  0.75979605  0.84108301  0.15099142  1.0
  Cu  Cu26  1  0.74020395  0.34108301  0.65099142  1.0
  Cu  Cu27  1  0.24020395  0.15891699  0.65099142  1.0
  In  In28  1  0.46201396  0.71485906  0.76231889  1.0
  In  In29  1  0.96201396  0.78514094  0.76231889  1.0
  In  In30  1  0.53798604  0.28514094  0.26231889  1.0
  In  In31  1  0.03798604  0.21485906  0.26231889  1.0
  In  In32  1  0.28790398  0.71690841  0.43302829  1.0
  In  In33  1  0.78790398  0.78309159  0.43302829  1.0
  In  In34  1  0.71209602  0.28309159  0.93302829  1.0
  In  In35  1  0.21209602  0.21690841  0.93302829  1.0
