# generated using pymatgen
data_Sr(ClO)2
_symmetry_space_group_name_H-M   'P 1'
_cell_length_a   5.75699721
_cell_length_b   5.75699721
_cell_length_c   7.18887454
_cell_angle_alpha   79.23269607
_cell_angle_beta   100.76730393
_cell_angle_gamma   117.92887825
_symmetry_Int_Tables_number   1
_chemical_formula_structural   Sr(ClO)2
_chemical_formula_sum   'Sr2 Cl4 O4'
_cell_volume   205.44607800
_cell_formula_units_Z   2
loop_
 _symmetry_equiv_pos_site_id
 _symmetry_equiv_pos_as_xyz
  1  'x, y, z'
loop_
 _atom_site_type_symbol
 _atom_site_label
 _atom_site_symmetry_multiplicity
 _atom_site_fract_x
 _atom_site_fract_y
 _atom_site_fract_z
 _atom_site_occupancy
  Sr  Sr0  1  0.72918396  0.72918396  0.25000000  1.0
  Sr  Sr1  1  0.27081604  0.27081604  0.75000000  1.0
  Cl  Cl2  1  0.99283789  -0.31912045  0.67496774  1.0
  Cl  Cl3  1  1.68087955  -0.00716211  0.82503226  1.0
  Cl  Cl4  1  1.00716211  -0.68087955  0.32503226  1.0
  Cl  Cl5  1  1.31912045  0.00716211  0.17496774  1.0
  O  O6  1  1.43805495  0.27940871  0.43508330  1.0
  O  O7  1  1.27940871  -0.56194505  0.06491670  1.0
  O  O8  1  1.56194505  -0.27940871  0.56491670  1.0
  O  O9  1  0.72059129  -0.43805495  0.93508330  1.0
