# generated using pymatgen
data_Ba3Os2O9
_symmetry_space_group_name_H-M   'P 1'
_cell_length_a   7.49227426
_cell_length_b   7.49227426
_cell_length_c   7.49227426
_cell_angle_alpha   85.82222325
_cell_angle_beta   85.82222325
_cell_angle_gamma   85.82222325
_symmetry_Int_Tables_number   1
_chemical_formula_structural   Ba3Os2O9
_chemical_formula_sum   'Ba6 Os4 O18'
_cell_volume   417.37490869
_cell_formula_units_Z   2
loop_
 _symmetry_equiv_pos_site_id
 _symmetry_equiv_pos_as_xyz
  1  'x, y, z'
loop_
 _atom_site_type_symbol
 _atom_site_label
 _atom_site_symmetry_multiplicity
 _atom_site_fract_x
 _atom_site_fract_y
 _atom_site_fract_z
 _atom_site_occupancy
  O  O0  1  1.41026678  1.08973322  0.25000000  1.0
  O  O1  1  1.08973322  1.25000000  0.41026678  1.0
  O  O2  1  1.25000000  1.41026678  0.08973322  1.0
  O  O3  1  0.91026678  0.75000000  -0.41026678  1.0
  O  O4  1  0.75000000  0.58973322  -0.08973322  1.0
  O  O5  1  0.58973322  0.91026678  -0.25000000  1.0
  O  O6  1  0.90632232  0.06624558  -0.24848607  1.0
  O  O7  1  1.06624558  -0.24848607  -0.09367768  1.0
  O  O8  1  0.75151393  -0.09367768  0.06624558  1.0
  O  O9  1  0.40632232  0.25151393  -0.43375442  1.0
  O  O10  1  0.25151393  0.56624558  -0.59367768  1.0
  O  O11  1  0.56624558  0.40632232  -0.74848607  1.0
  O  O12  1  0.09367768  0.93375442  -0.75151393  1.0
  O  O13  1  0.93375442  0.24848607  -0.90632232  1.0
  O  O14  1  0.24848607  0.09367768  -0.06624558  1.0
  O  O15  1  0.59367768  0.74848607  -0.56624558  1.0
  O  O16  1  0.74848607  0.43375442  -0.40632232  1.0
  O  O17  1  0.43375442  0.59367768  -0.25151393  1.0
  Os  Os18  1  0.34168551  0.34168551  -0.65831449  1.0
  Os  Os19  1  0.84168551  0.84168551  -0.15831449  1.0
  Os  Os20  1  0.65831449  0.65831449  -0.34168551  1.0
  Os  Os21  1  1.15831449  1.15831449  0.15831449  1.0
  Ba  Ba22  1  0.91093755  -0.41093755  0.25000000  1.0
  Ba  Ba23  1  0.58906245  0.25000000  -0.08906245  1.0
  Ba  Ba24  1  0.25000000  0.91093755  -0.41093755  1.0
  Ba  Ba25  1  0.41093755  0.75000000  -0.91093755  1.0
  Ba  Ba26  1  0.75000000  0.08906245  -0.58906245  1.0
  Ba  Ba27  1  0.08906245  0.41093755  -0.25000000  1.0
