# generated using pymatgen
data_SiCl2O
_symmetry_space_group_name_H-M   'P 1'
_cell_length_a   6.78960199
_cell_length_b   8.92152790
_cell_length_c   8.88642078
_cell_angle_alpha   75.92558840
_cell_angle_beta   74.16953106
_cell_angle_gamma   80.91964311
_symmetry_Int_Tables_number   1
_chemical_formula_structural   SiCl2O
_chemical_formula_sum   'Si4 Cl8 O4'
_cell_volume   499.90180276
_cell_formula_units_Z   4
loop_
 _symmetry_equiv_pos_site_id
 _symmetry_equiv_pos_as_xyz
  1  'x, y, z'
loop_
 _atom_site_type_symbol
 _atom_site_label
 _atom_site_symmetry_multiplicity
 _atom_site_fract_x
 _atom_site_fract_y
 _atom_site_fract_z
 _atom_site_occupancy
  Si  Si0  1  -0.98765306  -0.76966171  -0.67655130  1.0
  Si  Si1  1  -0.01234694  -0.23033829  -0.32344870  1.0
  Si  Si2  1  -0.92649165  -0.88574119  -0.32520024  1.0
  Si  Si3  1  -0.07350835  -0.11425881  -0.67479976  1.0
  Cl  Cl4  1  -0.84163725  -0.20468295  -0.83761682  1.0
  Cl  Cl5  1  -0.15836275  -0.79531705  -0.16238318  1.0
  Cl  Cl6  1  -0.77158960  -0.39545758  -0.30666082  1.0
  Cl  Cl7  1  -0.22841040  -0.60454242  -0.69333918  1.0
  Cl  Cl8  1  -0.73556461  -0.70461402  -0.85296078  1.0
  Cl  Cl9  1  -0.26443539  -0.29538598  -0.14703922  1.0
  Cl  Cl10  1  -0.65089550  -0.86624383  -0.28651567  1.0
  Cl  Cl11  1  -0.34910450  -0.13375617  -0.71348433  1.0
  O  O12  1  -0.93504684  -0.78983407  -0.50430311  1.0
  O  O13  1  -0.06495316  -0.21016593  -0.49569689  1.0
  O  O14  1  -0.04958449  -0.93217213  -0.69351991  1.0
  O  O15  1  -0.95041551  -0.06782787  -0.30648009  1.0
