# generated using pymatgen
data_Ca3Ga3Rh2
_symmetry_space_group_name_H-M   'P 1'
_cell_length_a   8.06865632
_cell_length_b   14.98376003
_cell_length_c   5.84711167
_cell_angle_alpha   90.00000000
_cell_angle_beta   90.00000000
_cell_angle_gamma   90.00000000
_symmetry_Int_Tables_number   1
_chemical_formula_structural   Ca3Ga3Rh2
_chemical_formula_sum   'Ca12 Ga12 Rh8'
_cell_volume   706.90884229
_cell_formula_units_Z   4
loop_
 _symmetry_equiv_pos_site_id
 _symmetry_equiv_pos_as_xyz
  1  'x, y, z'
loop_
 _atom_site_type_symbol
 _atom_site_label
 _atom_site_symmetry_multiplicity
 _atom_site_fract_x
 _atom_site_fract_y
 _atom_site_fract_z
 _atom_site_occupancy
  Ca  Ca0  1  0.45411569  0.89124858  0.11464076  1.0
  Ca  Ca1  1  0.45411569  0.60875142  0.11464076  1.0
  Ca  Ca2  1  0.95411569  0.89124858  0.38535924  1.0
  Ca  Ca3  1  0.95411569  0.60875142  0.38535924  1.0
  Ca  Ca4  1  0.54588431  0.39124858  0.88535924  1.0
  Ca  Ca5  1  0.54588431  0.10875142  0.88535924  1.0
  Ca  Ca6  1  0.04588431  0.39124858  0.61464076  1.0
  Ca  Ca7  1  0.04588431  0.10875142  0.61464076  1.0
  Ca  Ca8  1  0.30436507  0.75000000  0.62086728  1.0
  Ca  Ca9  1  0.80436507  0.75000000  0.87913272  1.0
  Ca  Ca10  1  0.69563493  0.25000000  0.37913272  1.0
  Ca  Ca11  1  0.19563493  0.25000000  0.12086728  1.0
  Ga  Ga12  1  0.32099998  0.96027845  0.62149251  1.0
  Ga  Ga13  1  0.32099998  0.53972155  0.62149251  1.0
  Ga  Ga14  1  0.82099998  0.96027845  0.87850749  1.0
  Ga  Ga15  1  0.82099998  0.53972155  0.87850749  1.0
  Ga  Ga16  1  0.67900002  0.46027845  0.37850749  1.0
  Ga  Ga17  1  0.67900002  0.03972155  0.37850749  1.0
  Ga  Ga18  1  0.17900002  0.46027845  0.12149251  1.0
  Ga  Ga19  1  0.17900002  0.03972155  0.12149251  1.0
  Ga  Ga20  1  0.14960444  0.75000000  0.08586721  1.0
  Ga  Ga21  1  0.64960444  0.75000000  0.41413279  1.0
  Ga  Ga22  1  0.85039556  0.25000000  0.91413279  1.0
  Ga  Ga23  1  0.35039556  0.25000000  0.58586721  1.0
  Rh  Rh24  1  0.11093892  0.90172515  0.89552203  1.0
  Rh  Rh25  1  0.11093892  0.59827485  0.89552203  1.0
  Rh  Rh26  1  0.61093892  0.90172515  0.60447797  1.0
  Rh  Rh27  1  0.61093892  0.59827485  0.60447797  1.0
  Rh  Rh28  1  0.88906108  0.40172515  0.10447797  1.0
  Rh  Rh29  1  0.88906108  0.09827485  0.10447797  1.0
  Rh  Rh30  1  0.38906108  0.40172515  0.39552203  1.0
  Rh  Rh31  1  0.38906108  0.09827485  0.39552203  1.0
