# generated using pymatgen
data_CS2(NCl)3
_symmetry_space_group_name_H-M   'P 1'
_cell_length_a   12.69508096
_cell_length_b   9.86065235
_cell_length_c   7.74659588
_cell_angle_alpha   72.86174066
_cell_angle_beta   76.20027903
_cell_angle_gamma   81.95089381
_symmetry_Int_Tables_number   1
_chemical_formula_structural   CS2(NCl)3
_chemical_formula_sum   'C4 S8 N12 Cl12'
_cell_volume   897.38087790
_cell_formula_units_Z   4
loop_
 _symmetry_equiv_pos_site_id
 _symmetry_equiv_pos_as_xyz
  1  'x, y, z'
loop_
 _atom_site_type_symbol
 _atom_site_label
 _atom_site_symmetry_multiplicity
 _atom_site_fract_x
 _atom_site_fract_y
 _atom_site_fract_z
 _atom_site_occupancy
  C  C0  1  -0.15841666  -0.89335418  -0.73526218  1.0
  C  C1  1  -0.84158334  -0.10664582  -0.26473782  1.0
  C  C2  1  -0.37690812  -0.66479340  -0.24854543  1.0
  C  C3  1  -0.62309188  -0.33520660  -0.75145457  1.0
  S  S4  1  -0.10244812  -0.65697071  -0.96726687  1.0
  S  S5  1  -0.89755188  -0.34302929  -0.03273313  1.0
  S  S6  1  -0.98157047  -0.81309363  -0.70378281  1.0
  S  S7  1  -0.01842953  -0.18690637  -0.29621719  1.0
  S  S8  1  -0.22380344  -0.51971256  -0.47254957  1.0
  S  S9  1  -0.77619656  -0.48028744  -0.52745043  1.0
  S  S10  1  -0.37189720  -0.42037293  -0.19697425  1.0
  S  S11  1  -0.62810280  -0.57962707  -0.80302575  1.0
  N  N12  1  -0.18053289  -0.78731315  -0.87660613  1.0
  N  N13  1  -0.81946711  -0.21268685  -0.12339387  1.0
  N  N14  1  -0.07651647  -0.92245313  -0.64798660  1.0
  N  N15  1  -0.92348353  -0.07754687  -0.35201340  1.0
  N  N16  1  -0.01755903  -0.66175608  -0.83949840  1.0
  N  N17  1  -0.98244097  -0.33824392  -0.16050160  1.0
  N  N18  1  -0.29320892  -0.65925490  -0.38984161  1.0
  N  N19  1  -0.70679108  -0.34074510  -0.61015839  1.0
  N  N20  1  -0.25276568  -0.41905739  -0.33355357  1.0
  N  N21  1  -0.74723432  -0.58094261  -0.66644643  1.0
  N  N22  1  -0.42304632  -0.57218606  -0.15374635  1.0
  N  N23  1  -0.57695368  -0.42781394  -0.84625365  1.0
  Cl  Cl24  1  -0.25824078  -0.01332131  -0.64115012  1.0
  Cl  Cl25  1  -0.74175922  -0.98667869  -0.35884988  1.0
  Cl  Cl26  1  -0.00912053  -0.71245975  -0.21772047  1.0
  Cl  Cl27  1  -0.99087947  -0.28754025  -0.78227953  1.0
  Cl  Cl28  1  -0.85151072  -0.90980979  -0.87210962  1.0
  Cl  Cl29  1  -0.14848928  -0.09019021  -0.12789038  1.0
  Cl  Cl30  1  -0.43415241  -0.82789604  -0.16625505  1.0
  Cl  Cl31  1  -0.56584759  -0.17210396  -0.83374495  1.0
  Cl  Cl32  1  -0.29142649  -0.40823267  -0.71379418  1.0
  Cl  Cl33  1  -0.70857351  -0.59176733  -0.28620582  1.0
  Cl  Cl34  1  -0.47870695  -0.27510723  -0.35696659  1.0
  Cl  Cl35  1  -0.52129305  -0.72489277  -0.64303341  1.0
