# generated using pymatgen
data_MnVO3
_symmetry_space_group_name_H-M   'P 1'
_cell_length_a   5.25854379
_cell_length_b   7.43152486
_cell_length_c   5.10921854
_cell_angle_alpha   90.00000000
_cell_angle_beta   90.00000000
_cell_angle_gamma   90.00000000
_symmetry_Int_Tables_number   1
_chemical_formula_structural   MnVO3
_chemical_formula_sum   'Mn4 V4 O12'
_cell_volume   199.66314554
_cell_formula_units_Z   4
loop_
 _symmetry_equiv_pos_site_id
 _symmetry_equiv_pos_as_xyz
  1  'x, y, z'
loop_
 _atom_site_type_symbol
 _atom_site_label
 _atom_site_symmetry_multiplicity
 _atom_site_fract_x
 _atom_site_fract_y
 _atom_site_fract_z
 _atom_site_occupancy
  Mn  Mn0  1  0.04952787  0.75000000  0.51088744  1.0
  Mn  Mn1  1  0.54952787  0.75000000  0.98911256  1.0
  Mn  Mn2  1  0.95047213  0.25000000  0.48911256  1.0
  Mn  Mn3  1  0.45047213  0.25000000  0.01088744  1.0
  V  V4  1  0.50000000  0.00000000  0.50000000  1.0
  V  V5  1  0.50000000  0.50000000  0.50000000  1.0
  V  V6  1  0.00000000  0.00000000  0.00000000  1.0
  V  V7  1  0.00000000  0.50000000  0.00000000  1.0
  O  O8  1  0.30791462  0.93793286  0.81490683  1.0
  O  O9  1  0.30791462  0.56206714  0.81490683  1.0
  O  O10  1  0.80791462  0.93793286  0.68509317  1.0
  O  O11  1  0.80791462  0.56206714  0.68509317  1.0
  O  O12  1  0.69208538  0.43793286  0.18509317  1.0
  O  O13  1  0.69208538  0.06206714  0.18509317  1.0
  O  O14  1  0.19208538  0.43793286  0.31490683  1.0
  O  O15  1  0.19208538  0.06206714  0.31490683  1.0
  O  O16  1  0.95054174  0.75000000  0.12078393  1.0
  O  O17  1  0.45054174  0.75000000  0.37921607  1.0
  O  O18  1  0.04945826  0.25000000  0.87921607  1.0
  O  O19  1  0.54945826  0.25000000  0.62078393  1.0
