# generated using pymatgen
data_K2Mo(SO)2
_symmetry_space_group_name_H-M   'P 1'
_cell_length_a   6.81274089
_cell_length_b   6.81274089
_cell_length_c   10.12075951
_cell_angle_alpha   61.69463992
_cell_angle_beta   118.30536008
_cell_angle_gamma   117.12287579
_symmetry_Int_Tables_number   1
_chemical_formula_structural   K2Mo(SO)2
_chemical_formula_sum   'K4 Mo2 S4 O4'
_cell_volume   347.57105899
_cell_formula_units_Z   2
loop_
 _symmetry_equiv_pos_site_id
 _symmetry_equiv_pos_as_xyz
  1  'x, y, z'
loop_
 _atom_site_type_symbol
 _atom_site_label
 _atom_site_symmetry_multiplicity
 _atom_site_fract_x
 _atom_site_fract_y
 _atom_site_fract_z
 _atom_site_occupancy
  K  K0  1  1.66303980  0.22842343  0.83121868  1.0
  K  K1  1  0.77157657  0.33696020  0.33121868  1.0
  K  K2  1  1.22842343  0.66303980  0.66878132  1.0
  K  K3  1  1.33696020  -0.22842343  0.16878132  1.0
  Mo  Mo4  1  0.92830850  0.92830850  0.75000000  1.0
  Mo  Mo5  1  1.07169150  0.07169150  0.25000000  1.0
  S  S6  1  1.72422423  -0.23945033  0.56196759  1.0
  S  S7  1  1.23945033  -0.72422423  0.06196759  1.0
  S  S8  1  0.76054967  -0.27577577  0.93803241  1.0
  S  S9  1  1.27577577  0.23945033  0.43803241  1.0
  O  O10  1  0.21835465  -0.08108152  0.83312118  1.0
  O  O11  1  1.08108152  0.78164535  0.33312118  1.0
  O  O12  1  0.91891848  0.21835465  0.66687882  1.0
  O  O13  1  0.78164535  0.08108152  0.16687882  1.0
