# generated using pymatgen
data_Mn2CdO4
_symmetry_space_group_name_H-M   'P 1'
_cell_length_a   6.53464966
_cell_length_b   6.53464966
_cell_length_c   6.53464966
_cell_angle_alpha   126.68988143
_cell_angle_beta   126.68988143
_cell_angle_gamma   78.75719925
_symmetry_Int_Tables_number   1
_chemical_formula_structural   Mn2CdO4
_chemical_formula_sum   'Mn4 Cd2 O8'
_cell_volume   173.63750562
_cell_formula_units_Z   2
loop_
 _symmetry_equiv_pos_site_id
 _symmetry_equiv_pos_as_xyz
  1  'x, y, z'
loop_
 _atom_site_type_symbol
 _atom_site_label
 _atom_site_symmetry_multiplicity
 _atom_site_fract_x
 _atom_site_fract_y
 _atom_site_fract_z
 _atom_site_occupancy
  Mn  Mn0  1  0.37500000  1.12500000  0.75000000  1.0
  Mn  Mn1  1  0.37500000  0.62500000  0.25000000  1.0
  Mn  Mn2  1  0.87500000  0.62500000  1.25000000  1.0
  Mn  Mn3  1  0.37500000  0.62500000  0.75000000  1.0
  Cd  Cd4  1  0.75000000  0.25000000  0.50000000  1.0
  Cd  Cd5  1  0.00000000  -0.00000000  -0.00000000  1.0
  O  O6  1  0.14000829  0.85536996  0.71536166  1.0
  O  O7  1  0.14000829  0.42464663  0.28463834  1.0
  O  O8  1  0.60999171  0.82535337  1.21536166  1.0
  O  O9  1  0.60999171  0.39463004  0.78463834  1.0
  O  O10  1  1.14463004  0.85999171  1.28463834  1.0
  O  O11  1  0.57535337  0.85999171  0.71536166  1.0
  O  O12  1  1.17464663  0.39000829  0.78463834  1.0
  O  O13  1  0.60536996  0.39000829  0.21536166  1.0
