# generated using pymatgen
data_La(BOs)2
_symmetry_space_group_name_H-M   'P 1'
_cell_length_a   10.43920427
_cell_length_b   10.43920427
_cell_length_c   3.99738427
_cell_angle_alpha   90.00000000
_cell_angle_beta   90.00000000
_cell_angle_gamma   90.00000000
_symmetry_Int_Tables_number   1
_chemical_formula_structural   La(BOs)2
_chemical_formula_sum   'La4 B8 Os8'
_cell_volume   435.62288811
_cell_formula_units_Z   4
loop_
 _symmetry_equiv_pos_site_id
 _symmetry_equiv_pos_as_xyz
  1  'x, y, z'
loop_
 _atom_site_type_symbol
 _atom_site_label
 _atom_site_symmetry_multiplicity
 _atom_site_fract_x
 _atom_site_fract_y
 _atom_site_fract_z
 _atom_site_occupancy
  La  La0  1  0.25000000  0.25000000  0.25000000  1.0
  La  La1  1  0.75000000  0.75000000  0.25000000  1.0
  La  La2  1  0.25000000  0.75000000  0.75000000  1.0
  La  La3  1  0.75000000  0.25000000  0.75000000  1.0
  B  B4  1  0.49052465  0.81759956  0.24998920  1.0
  B  B5  1  0.99052465  0.31759956  0.25001080  1.0
  B  B6  1  0.81759956  0.50947535  0.75001080  1.0
  B  B7  1  0.31759956  0.00947535  0.74998920  1.0
  B  B8  1  0.50947535  0.18240044  0.24998920  1.0
  B  B9  1  0.00947535  0.68240044  0.25001080  1.0
  B  B10  1  0.18240044  0.49052465  0.75001080  1.0
  B  B11  1  0.68240044  0.99052465  0.74998920  1.0
  Os  Os12  1  0.87137429  0.47997700  0.25001060  1.0
  Os  Os13  1  0.37137429  0.97997700  0.24998940  1.0
  Os  Os14  1  0.47997700  0.12862571  0.74998940  1.0
  Os  Os15  1  0.97997700  0.62862571  0.75001060  1.0
  Os  Os16  1  0.12862571  0.52002300  0.25001060  1.0
  Os  Os17  1  0.62862571  0.02002300  0.24998940  1.0
  Os  Os18  1  0.52002300  0.87137429  0.74998940  1.0
  Os  Os19  1  0.02002300  0.37137429  0.75001060  1.0
