# generated using pymatgen
data_Hg3(ClO)2
_symmetry_space_group_name_H-M   'P 1'
_cell_length_a   6.44061962
_cell_length_b   7.07992745
_cell_length_c   6.94982037
_cell_angle_alpha   90.00000000
_cell_angle_beta   113.47336489
_cell_angle_gamma   90.00000000
_symmetry_Int_Tables_number   1
_chemical_formula_structural   Hg3(ClO)2
_chemical_formula_sum   'Hg6 Cl4 O4'
_cell_volume   290.68026835
_cell_formula_units_Z   2
loop_
 _symmetry_equiv_pos_site_id
 _symmetry_equiv_pos_as_xyz
  1  'x, y, z'
loop_
 _atom_site_type_symbol
 _atom_site_label
 _atom_site_symmetry_multiplicity
 _atom_site_fract_x
 _atom_site_fract_y
 _atom_site_fract_z
 _atom_site_occupancy
  Hg  Hg0  1  0.57637995  0.13866536  0.23658796  1.0
  Hg  Hg1  1  0.57637995  0.36133464  0.73658796  1.0
  Hg  Hg2  1  0.42362005  0.63866536  0.26341204  1.0
  Hg  Hg3  1  0.42362005  0.86133464  0.76341204  1.0
  Hg  Hg4  1  -0.00000000  0.50000000  0.50000000  1.0
  Hg  Hg5  1  -0.00000000  0.00000000  -0.00000000  1.0
  Cl  Cl6  1  0.22306767  0.12335543  0.46491075  1.0
  Cl  Cl7  1  0.22306767  0.37664457  0.96491075  1.0
  Cl  Cl8  1  0.77693233  0.62335543  0.03508925  1.0
  Cl  Cl9  1  0.77693233  0.87664457  0.53508925  1.0
  O  O10  1  0.67659836  0.39756949  0.43856388  1.0
  O  O11  1  0.67659836  0.10243051  0.93856388  1.0
  O  O12  1  0.32340164  0.89756949  0.06143612  1.0
  O  O13  1  0.32340164  0.60243051  0.56143612  1.0
