# generated using pymatgen
data_Mg16Si8HO32
_symmetry_space_group_name_H-M   'P 1'
_cell_length_a   10.30814139
_cell_length_b   9.59997237
_cell_length_c   6.04856330
_cell_angle_alpha   90.00027656
_cell_angle_beta   90.00065754
_cell_angle_gamma   89.88443454
_symmetry_Int_Tables_number   1
_chemical_formula_structural   Mg16Si8HO32
_chemical_formula_sum   'Mg16 Si8 H1 O32'
_cell_volume   598.55173852
_cell_formula_units_Z   1
loop_
 _symmetry_equiv_pos_site_id
 _symmetry_equiv_pos_as_xyz
  1  'x, y, z'
loop_
 _atom_site_type_symbol
 _atom_site_label
 _atom_site_symmetry_multiplicity
 _atom_site_fract_x
 _atom_site_fract_y
 _atom_site_fract_z
 _atom_site_occupancy
  Mg  Mg0  1  -1.00195621  -0.00352768  0.00003985  1.0
  Mg  Mg1  1  -0.50415225  -0.25395859  0.00098787  1.0
  Mg  Mg2  1  -1.00195550  -0.00352251  -0.50003125  1.0
  Mg  Mg3  1  -0.50417498  -0.25394586  -0.50098084  1.0
  Mg  Mg4  1  -0.28018762  -0.50050435  -0.24993251  1.0
  Mg  Mg5  1  -0.22468415  -0.24597049  -0.75001648  1.0
  Mg  Mg6  1  -0.72562968  -0.00730688  -0.74999843  1.0
  Mg  Mg7  1  -0.77967976  -0.25792144  -0.24998899  1.0
  Mg  Mg8  1  -1.00250977  -0.50274672  0.00055850  1.0
  Mg  Mg9  1  -0.50463483  -0.75421074  -0.00041495  1.0
  Mg  Mg10  1  -1.00250349  -0.50275008  -0.50052704  1.0
  Mg  Mg11  1  -0.50463201  -0.75421214  -0.49955966  1.0
  Mg  Mg12  1  -0.28061937  -0.99958787  -0.24999682  1.0
  Mg  Mg13  1  -0.22676231  -0.74941291  -0.74998578  1.0
  Mg  Mg14  1  -0.72234536  -0.50708343  -0.74999560  1.0
  Mg  Mg15  1  -0.78006267  -0.75723092  -0.24999392  1.0
  Si  Si16  1  -0.09602418  -0.21629997  -0.25000787  1.0
  Si  Si17  1  -0.40212133  -0.46829536  -0.74995731  1.0
  Si  Si18  1  -0.90685855  -0.28959590  -0.74999133  1.0
  Si  Si19  1  -0.59681907  -0.04079957  -0.24999136  1.0
  Si  Si20  1  -0.09496550  -0.71783172  -0.24996473  1.0
  Si  Si21  1  -0.40942825  -0.96656526  -0.74999441  1.0
  Si  Si22  1  -0.90958369  -0.78993347  -0.74999282  1.0
  Si  Si23  1  -0.59699982  -0.54047476  -0.24998960  1.0
  H  H24  1  -0.22773404  -0.51429146  -0.74960405  1.0
  O  O25  1  -0.09390414  -0.38661841  -0.24999564  1.0
  O  O26  1  -0.41066625  -0.13667317  -0.74999454  1.0
  O  O27  1  -0.90948761  -0.11941293  -0.74999732  1.0
  O  O28  1  -0.59554560  -0.37034255  -0.24998918  1.0
  O  O29  1  -0.44987617  -0.11484468  -0.24999499  1.0
  O  O30  1  -0.05454947  -0.36150627  -0.74999515  1.0
  O  O31  1  -0.55185254  -0.39353086  -0.74998612  1.0
  O  O32  1  -0.94892496  -0.14264574  -0.24999920  1.0
  O  O33  1  -0.16512645  -0.14115850  -0.03315327  1.0
  O  O34  1  -0.34098219  -0.38871191  -0.97334175  1.0
  O  O35  1  -0.83843705  -0.36494870  -0.53310719  1.0
  O  O36  1  -0.66614972  -0.11511039  -0.46709957  1.0
  O  O37  1  -0.83843766  -0.36494917  -0.96687420  1.0
  O  O38  1  -0.66614494  -0.11511259  -0.03288708  1.0
  O  O39  1  -0.16512118  -0.14115986  -0.46686874  1.0
  O  O40  1  -0.34101621  -0.38870877  -0.52653055  1.0
  O  O41  1  -0.09302535  -0.88763789  -0.24998440  1.0
  O  O42  1  -0.41794308  -0.63878870  -0.74998604  1.0
  O  O43  1  -0.91206469  -0.61973769  -0.74998546  1.0
  O  O44  1  -0.59544349  -0.87059021  -0.24999227  1.0
  O  O45  1  -0.45001182  -0.61509995  -0.24997710  1.0
  O  O46  1  -0.05644913  -0.86446299  -0.74999538  1.0
  O  O47  1  -0.55683899  -0.89321247  -0.74999129  1.0
  O  O48  1  -0.94926559  -0.64184694  -0.24998103  1.0
  O  O49  1  -0.16679984  -0.64299649  -0.03552139  1.0
  O  O50  1  -0.34034910  -0.89192212  -0.96710263  1.0
  O  O51  1  -0.84013841  -0.86447883  -0.53295193  1.0
  O  O52  1  -0.66669157  -0.61525075  -0.46639272  1.0
  O  O53  1  -0.84013780  -0.86447823  -0.96703244  1.0
  O  O54  1  -0.66669716  -0.61525195  -0.03359582  1.0
  O  O55  1  -0.16681190  -0.64300751  -0.46441106  1.0
  O  O56  1  -0.34034554  -0.89192273  -0.53288498  1.0
