# generated using pymatgen
data_PH12N3O7
_symmetry_space_group_name_H-M   'P 1'
_cell_length_a   7.24319095
_cell_length_b   7.24319095
_cell_length_c   7.24319095
_cell_angle_alpha   95.84340396
_cell_angle_beta   95.84340396
_cell_angle_gamma   95.84340396
_symmetry_Int_Tables_number   1
_chemical_formula_structural   PH12N3O7
_chemical_formula_sum   'P2 H24 N6 O14'
_cell_volume   373.64286788
_cell_formula_units_Z   2
loop_
 _symmetry_equiv_pos_site_id
 _symmetry_equiv_pos_as_xyz
  1  'x, y, z'
loop_
 _atom_site_type_symbol
 _atom_site_label
 _atom_site_symmetry_multiplicity
 _atom_site_fract_x
 _atom_site_fract_y
 _atom_site_fract_z
 _atom_site_occupancy
  P  P0  1  0.13867691  0.13867691  0.13867691  1.0
  P  P1  1  0.63867691  0.63867691  0.63867691  1.0
  H  H2  1  0.45957023  1.06808292  -0.70359747  1.0
  H  H3  1  0.95957023  0.79640253  0.56808292  1.0
  H  H4  1  1.56808292  0.95957023  -0.20359747  1.0
  H  H5  1  1.06808292  0.29640253  -0.54042977  1.0
  H  H6  1  0.79640253  1.56808292  -0.04042977  1.0
  H  H7  1  0.29640253  0.45957023  0.06808292  1.0
  H  H8  1  1.37073194  0.33094238  -0.39492109  1.0
  H  H9  1  0.87073194  1.10507891  -0.16905762  1.0
  H  H10  1  0.83094238  0.87073194  0.10507891  1.0
  H  H11  1  1.33094238  -0.39492109  0.37073194  1.0
  H  H12  1  1.10507891  0.83094238  -0.12926806  1.0
  H  H13  1  0.60507891  0.37073194  0.33094238  1.0
  H  H14  1  1.23467862  -0.20512033  0.27840469  1.0
  H  H15  1  0.73467862  0.77840469  0.29487967  1.0
  H  H16  1  1.29487967  0.73467862  -0.22159531  1.0
  H  H17  1  0.79487967  0.27840469  0.23467862  1.0
  H  H18  1  0.77840469  1.29487967  -0.26532138  1.0
  H  H19  1  1.27840469  0.23467862  -0.20512033  1.0
  H  H20  1  1.25705457  0.10858129  -0.42369828  1.0
  H  H21  1  0.75705457  1.07630172  -0.39141871  1.0
  H  H22  1  0.60858129  0.75705457  0.07630172  1.0
  H  H23  1  1.10858129  -0.42369828  0.25705457  1.0
  H  H24  1  1.07630172  0.60858129  -0.24294543  1.0
  H  H25  1  0.57630172  0.25705457  0.10858129  1.0
  N  N26  1  1.24055509  -0.35176685  0.26292410  1.0
  N  N27  1  0.74055509  0.76292410  0.14823315  1.0
  N  N28  1  1.14823315  0.74055509  -0.23707590  1.0
  N  N29  1  0.64823315  0.26292410  0.24055509  1.0
  N  N30  1  0.76292410  1.14823315  -0.25944491  1.0
  N  N31  1  1.26292410  0.24055509  -0.35176685  1.0
  O  O32  1  1.31273212  -0.39384866  0.09077069  1.0
  O  O33  1  0.81273212  0.59077069  0.10615134  1.0
  O  O34  1  1.10615134  0.81273212  -0.40922931  1.0
  O  O35  1  0.60615134  0.09077069  0.31273212  1.0
  O  O36  1  0.59077069  1.10615134  -0.18726788  1.0
  O  O37  1  1.09077069  0.31273212  -0.39384866  1.0
  O  O38  1  0.25382162  1.02776929  -0.72440928  1.0
  O  O39  1  0.75382162  0.77559072  0.52776929  1.0
  O  O40  1  1.52776929  0.75382162  -0.22440928  1.0
  O  O41  1  1.02776929  0.27559072  -0.74617838  1.0
  O  O42  1  0.77559072  1.52776929  -0.24617838  1.0
  O  O43  1  0.27559072  0.25382162  0.02776929  1.0
  O  O44  1  -0.00103453  -0.00103453  -0.00103453  1.0
  O  O45  1  0.49896547  0.49896547  0.49896547  1.0
