# generated using pymatgen
data_Sb2H3NF11
_symmetry_space_group_name_H-M   'P 1'
_cell_length_a   8.82416353
_cell_length_b   9.45040803
_cell_length_c   6.68923391
_cell_angle_alpha   76.11329424
_cell_angle_beta   70.38754116
_cell_angle_gamma   82.36401731
_symmetry_Int_Tables_number   1
_chemical_formula_structural   Sb2H3NF11
_chemical_formula_sum   'Sb4 H6 N2 F22'
_cell_volume   509.27172064
_cell_formula_units_Z   2
loop_
 _symmetry_equiv_pos_site_id
 _symmetry_equiv_pos_as_xyz
  1  'x, y, z'
loop_
 _atom_site_type_symbol
 _atom_site_label
 _atom_site_symmetry_multiplicity
 _atom_site_fract_x
 _atom_site_fract_y
 _atom_site_fract_z
 _atom_site_occupancy
  Sb  Sb0  1  -0.86591199  -0.80316516  -0.87573767  1.0
  Sb  Sb1  1  -0.13408801  -0.19683484  -0.12426233  1.0
  Sb  Sb2  1  -0.35185795  -0.72778801  -0.70245065  1.0
  Sb  Sb3  1  -0.64814205  -0.27221199  -0.29754935  1.0
  H  H4  1  -0.89153970  -0.45172405  -0.71788355  1.0
  H  H5  1  -0.10846030  -0.54827595  -0.28211645  1.0
  H  H6  1  -1.01262130  -0.34103410  -0.55165265  1.0
  H  H7  1  0.01262130  -0.65896590  -0.44834735  1.0
  H  H8  1  -0.85840002  -0.44531142  -0.47961697  1.0
  H  H9  1  -0.14159998  -0.55468858  -0.52038303  1.0
  N  N10  1  -0.94630669  -0.44134290  -0.55702018  1.0
  N  N11  1  -0.05369331  -0.55865710  -0.44297982  1.0
  F  F12  1  -0.72253989  -0.35231835  -0.99118803  1.0
  F  F13  1  -0.27746011  -0.64768165  -0.00881197  1.0
  F  F14  1  -0.64169576  -0.78263437  -0.98301520  1.0
  F  F15  1  -0.35830424  -0.21736563  -0.01698480  1.0
  F  F16  1  -0.91496169  -0.59792410  -0.87115626  1.0
  F  F17  1  -0.08503831  -0.40207590  -0.12884374  1.0
  F  F18  1  -0.85872426  -0.00745163  -0.84656542  1.0
  F  F19  1  -0.14127574  -0.99254837  -0.15343458  1.0
  F  F20  1  -0.11506573  -0.82038876  -0.75344132  1.0
  F  F21  1  -0.88493427  -0.17961124  -0.24655868  1.0
  F  F22  1  -0.40062176  -0.90320061  -0.74934468  1.0
  F  F23  1  -0.59937824  -0.09679939  -0.25065532  1.0
  F  F24  1  -0.26297830  -0.56240598  -0.66022776  1.0
  F  F25  1  -0.73702170  -0.43759402  -0.33977224  1.0
  F  F26  1  -0.55968965  -0.63163781  -0.66192021  1.0
  F  F27  1  -0.44031035  -0.36836219  -0.33807979  1.0
  F  F28  1  -0.88564024  -0.82104713  -0.57389792  1.0
  F  F29  1  -0.11435976  -0.17895287  -0.42610208  1.0
  F  F30  1  -0.37940768  -0.80901492  -0.40545845  1.0
  F  F31  1  -0.62059232  -0.19098508  -0.59454155  1.0
  F  F32  1  -0.89524724  -0.76157575  -0.15511172  1.0
  F  F33  1  -0.10475276  -0.23842425  -0.84488828  1.0
