# generated using pymatgen
data_Yb5P12Ru19
_symmetry_space_group_name_H-M   'P 1'
_cell_length_a   12.51739280
_cell_length_b   12.51739280
_cell_length_c   3.95298659
_cell_angle_alpha   90.00000000
_cell_angle_beta   90.00000000
_cell_angle_gamma   120.00000000
_symmetry_Int_Tables_number   1
_chemical_formula_structural   Yb5P12Ru19
_chemical_formula_sum   'Yb5 P12 Ru19'
_cell_volume   536.39378144
_cell_formula_units_Z   1
loop_
 _symmetry_equiv_pos_site_id
 _symmetry_equiv_pos_as_xyz
  1  'x, y, z'
loop_
 _atom_site_type_symbol
 _atom_site_label
 _atom_site_symmetry_multiplicity
 _atom_site_fract_x
 _atom_site_fract_y
 _atom_site_fract_z
 _atom_site_occupancy
  Yb  Yb0  1  -0.00000000  0.18238880  0.50000000  1.0
  Yb  Yb1  1  0.81761120  0.81761120  0.50000000  1.0
  Yb  Yb2  1  0.18238880  0.00000000  0.50000000  1.0
  Yb  Yb3  1  0.66666667  0.33333333  0.00000000  1.0
  Yb  Yb4  1  0.33333333  0.66666667  0.00000000  1.0
  P  P5  1  -0.00000000  0.81550064  0.00000000  1.0
  P  P6  1  0.18449936  0.18449936  0.00000000  1.0
  P  P7  1  0.81550064  0.00000000  0.00000000  1.0
  P  P8  1  0.69292817  0.17155165  0.50000000  1.0
  P  P9  1  0.82844835  0.52137652  0.50000000  1.0
  P  P10  1  0.47862348  0.30707183  0.50000000  1.0
  P  P11  1  0.17155165  0.69292817  0.50000000  1.0
  P  P12  1  0.52137652  0.82844835  0.50000000  1.0
  P  P13  1  0.30707183  0.47862348  0.50000000  1.0
  P  P14  1  0.00000000  0.37283953  0.00000000  1.0
  P  P15  1  0.62716047  0.62716047  0.00000000  1.0
  P  P16  1  0.37283953  0.00000000  0.00000000  1.0
  Ru  Ru17  1  -0.00000000  0.55445501  0.00000000  1.0
  Ru  Ru18  1  0.44554499  0.44554499  0.00000000  1.0
  Ru  Ru19  1  0.55445501  0.00000000  0.00000000  1.0
  Ru  Ru20  1  -0.00000000  0.71602328  0.50000000  1.0
  Ru  Ru21  1  0.28397672  0.28397672  0.50000000  1.0
  Ru  Ru22  1  0.71602328  0.00000000  0.50000000  1.0
  Ru  Ru23  1  0.80634895  0.18450764  0.00000000  1.0
  Ru  Ru24  1  0.81549236  0.62184131  0.00000000  1.0
  Ru  Ru25  1  0.37815869  0.19365105  0.00000000  1.0
  Ru  Ru26  1  0.18450764  0.80634895  0.00000000  1.0
  Ru  Ru27  1  0.62184131  0.81549236  0.00000000  1.0
  Ru  Ru28  1  0.19365105  0.37815869  0.00000000  1.0
  Ru  Ru29  1  0.87470502  0.36550049  0.50000000  1.0
  Ru  Ru30  1  0.63449951  0.50920453  0.50000000  1.0
  Ru  Ru31  1  0.49079547  0.12529498  0.50000000  1.0
  Ru  Ru32  1  0.36550049  0.87470502  0.50000000  1.0
  Ru  Ru33  1  0.50920453  0.63449951  0.50000000  1.0
  Ru  Ru34  1  0.12529498  0.49079547  0.50000000  1.0
  Ru  Ru35  1  0.00000000  0.00000000  0.00000000  1.0
