# generated using pymatgen
data_Ba3(Ge4Ir)4
_symmetry_space_group_name_H-M   'P 1'
_cell_length_a   12.21595498
_cell_length_b   12.21595498
_cell_length_c   12.21595498
_cell_angle_alpha   148.58450115
_cell_angle_beta   148.58450115
_cell_angle_gamma   45.02326030
_symmetry_Int_Tables_number   1
_chemical_formula_structural   Ba3(Ge4Ir)4
_chemical_formula_sum   'Ba3 Ge16 Ir4'
_cell_volume   493.73729770
_cell_formula_units_Z   1
loop_
 _symmetry_equiv_pos_site_id
 _symmetry_equiv_pos_as_xyz
  1  'x, y, z'
loop_
 _atom_site_type_symbol
 _atom_site_label
 _atom_site_symmetry_multiplicity
 _atom_site_fract_x
 _atom_site_fract_y
 _atom_site_fract_z
 _atom_site_occupancy
  Ba  Ba0  1  0.25000000  0.75000000  0.50000000  1.0
  Ba  Ba1  1  0.75000000  0.25000000  0.50000000  1.0
  Ba  Ba2  1  0.00000000  0.00000000  0.00000000  1.0
  Ge  Ge3  1  0.62637717  0.62637717  0.51266812  1.0
  Ge  Ge4  1  0.88629095  0.88629095  1.51266812  1.0
  Ge  Ge5  1  1.11370905  0.62637717  1.00000000  1.0
  Ge  Ge6  1  0.37362283  0.88629095  1.00000000  1.0
  Ge  Ge7  1  0.62637717  1.11370905  1.00000000  1.0
  Ge  Ge8  1  0.88629095  0.37362283  1.00000000  1.0
  Ge  Ge9  1  1.11370905  1.11370905  1.48733188  1.0
  Ge  Ge10  1  0.37362283  0.37362283  0.48733188  1.0
  Ge  Ge11  1  0.50000000  0.77435819  1.27435819  1.0
  Ge  Ge12  1  0.77435819  0.50000000  1.27435819  1.0
  Ge  Ge13  1  0.22564181  0.50000000  0.72564181  1.0
  Ge  Ge14  1  0.50000000  0.22564181  0.72564181  1.0
  Ge  Ge15  1  0.80381105  0.80381105  1.00000000  1.0
  Ge  Ge16  1  0.19618895  0.19618895  -0.00000000  1.0
  Ge  Ge17  1  0.69168958  0.69168958  1.00000000  1.0
  Ge  Ge18  1  0.30831042  0.30831042  -0.00000000  1.0
  Ir  Ir19  1  0.41071032  0.91071032  0.50000000  1.0
  Ir  Ir20  1  0.58928968  0.08928968  0.50000000  1.0
  Ir  Ir21  1  0.91071032  0.41071032  0.50000000  1.0
  Ir  Ir22  1  0.08928968  0.58928968  0.50000000  1.0
