# generated using pymatgen
data_YNiH3SO7
_symmetry_space_group_name_H-M   'P 1'
_cell_length_a   7.00731564
_cell_length_b   7.32938901
_cell_length_c   10.39349277
_cell_angle_alpha   90.00000000
_cell_angle_beta   90.00000000
_cell_angle_gamma   90.00000000
_symmetry_Int_Tables_number   1
_chemical_formula_structural   YNiH3SO7
_chemical_formula_sum   'Y4 Ni4 H12 S4 O28'
_cell_volume   533.80295204
_cell_formula_units_Z   4
loop_
 _symmetry_equiv_pos_site_id
 _symmetry_equiv_pos_as_xyz
  1  'x, y, z'
loop_
 _atom_site_type_symbol
 _atom_site_label
 _atom_site_symmetry_multiplicity
 _atom_site_fract_x
 _atom_site_fract_y
 _atom_site_fract_z
 _atom_site_occupancy
  S  S0  1  0.37803323  0.75000000  0.94653709  1.0
  S  S1  1  0.87803323  0.75000000  0.55346291  1.0
  S  S2  1  0.62196677  0.25000000  0.05346291  1.0
  S  S3  1  0.12196677  0.25000000  0.44653709  1.0
  Y  Y4  1  0.26083530  0.75000000  0.30207355  1.0
  Y  Y5  1  0.76083530  0.75000000  0.19792645  1.0
  Y  Y6  1  0.73916470  0.25000000  0.69792645  1.0
  Y  Y7  1  0.23916470  0.25000000  0.80207355  1.0
  Ni  Ni8  1  0.50000000  0.00000000  0.50000000  1.0
  Ni  Ni9  1  0.50000000  0.50000000  0.50000000  1.0
  Ni  Ni10  1  0.00000000  -0.00000000  0.00000000  1.0
  Ni  Ni11  1  0.00000000  0.50000000  0.00000000  1.0
  O  O12  1  0.45490118  0.43304547  0.69292583  1.0
  O  O13  1  0.45490118  0.06695453  0.69292583  1.0
  O  O14  1  0.95490118  0.43304547  0.80707417  1.0
  O  O15  1  0.95490118  0.06695453  0.80707417  1.0
  O  O16  1  0.54509882  0.93304547  0.30707417  1.0
  O  O17  1  0.54509882  0.56695453  0.30707417  1.0
  O  O18  1  0.04509882  0.93304547  0.19292583  1.0
  O  O19  1  0.04509882  0.56695453  0.19292583  1.0
  O  O20  1  0.26116756  0.91811869  0.92439118  1.0
  O  O21  1  0.26116756  0.58188131  0.92439118  1.0
  O  O22  1  0.76116756  0.91811869  0.57560882  1.0
  O  O23  1  0.76116756  0.58188131  0.57560882  1.0
  O  O24  1  0.73883244  0.41811869  0.07560882  1.0
  O  O25  1  0.73883244  0.08188131  0.07560882  1.0
  O  O26  1  0.23883244  0.41811869  0.42439118  1.0
  O  O27  1  0.23883244  0.08188131  0.42439118  1.0
  O  O28  1  0.44752469  0.75000000  0.08369192  1.0
  O  O29  1  0.94752469  0.75000000  0.41630808  1.0
  O  O30  1  0.55247531  0.25000000  0.91630808  1.0
  O  O31  1  0.05247531  0.25000000  0.58369192  1.0
  O  O32  1  0.03898446  0.75000000  0.64659994  1.0
  O  O33  1  0.53898446  0.75000000  0.85340006  1.0
  O  O34  1  0.96101554  0.25000000  0.35340006  1.0
  O  O35  1  0.46101554  0.25000000  0.14659994  1.0
  O  O36  1  0.37136774  0.75000000  0.50821689  1.0
  O  O37  1  0.87136774  0.75000000  0.99178311  1.0
  O  O38  1  0.62863226  0.25000000  0.49178311  1.0
  O  O39  1  0.12863226  0.25000000  0.00821689  1.0
  H  H40  1  0.47835098  0.95195422  0.73879840  1.0
  H  H41  1  0.47835098  0.54804578  0.73879840  1.0
  H  H42  1  0.97835098  0.95195422  0.76120160  1.0
  H  H43  1  0.97835098  0.54804578  0.76120160  1.0
  H  H44  1  0.52164902  0.45195422  0.26120160  1.0
  H  H45  1  0.52164902  0.04804578  0.26120160  1.0
  H  H46  1  0.02164902  0.45195422  0.23879840  1.0
  H  H47  1  0.02164902  0.04804578  0.23879840  1.0
  H  H48  1  0.26769185  0.75000000  0.57229519  1.0
  H  H49  1  0.76769185  0.75000000  0.92770481  1.0
  H  H50  1  0.73230815  0.25000000  0.42770481  1.0
  H  H51  1  0.23230815  0.25000000  0.07229519  1.0
