# generated using pymatgen
data_Cd(InSe2)2
_symmetry_space_group_name_H-M   'P 1'
_cell_length_a   7.25689911
_cell_length_b   7.25689911
_cell_length_c   7.25689911
_cell_angle_alpha   131.17847654
_cell_angle_beta   131.17847654
_cell_angle_gamma   71.52967029
_symmetry_Int_Tables_number   1
_chemical_formula_structural   Cd(InSe2)2
_chemical_formula_sum   'Cd1 In2 Se4'
_cell_volume   211.85545694
_cell_formula_units_Z   1
loop_
 _symmetry_equiv_pos_site_id
 _symmetry_equiv_pos_as_xyz
  1  'x, y, z'
loop_
 _atom_site_type_symbol
 _atom_site_label
 _atom_site_symmetry_multiplicity
 _atom_site_fract_x
 _atom_site_fract_y
 _atom_site_fract_z
 _atom_site_occupancy
  Cd  Cd0  1  0.50000000  0.50000000  1.00000000  1.0
  In  In1  1  0.25000000  0.75000000  0.50000000  1.0
  In  In2  1  0.00000000  0.00000000  0.00000000  1.0
  Se  Se3  1  0.40060521  0.90856457  1.03660055  1.0
  Se  Se4  1  1.09143543  1.12803598  1.49204064  1.0
  Se  Se5  1  0.87196402  0.36400465  0.96339945  1.0
  Se  Se6  1  0.63599535  0.59939479  0.50795936  1.0
