# generated using pymatgen
data_BaNb2P2O11
_symmetry_space_group_name_H-M   'P 1'
_cell_length_a   20.09494881
_cell_length_b   20.09494881
_cell_length_c   20.09494881
_cell_angle_alpha   14.89133561
_cell_angle_beta   14.89133561
_cell_angle_gamma   14.89133561
_symmetry_Int_Tables_number   1
_chemical_formula_structural   BaNb2P2O11
_chemical_formula_sum   'Ba2 Nb4 P4 O22'
_cell_volume   466.71323615
_cell_formula_units_Z   2
loop_
 _symmetry_equiv_pos_site_id
 _symmetry_equiv_pos_as_xyz
  1  'x, y, z'
loop_
 _atom_site_type_symbol
 _atom_site_label
 _atom_site_symmetry_multiplicity
 _atom_site_fract_x
 _atom_site_fract_y
 _atom_site_fract_z
 _atom_site_occupancy
  Ba  Ba0  1  1.00000000  0.00000000  0.00000000  1.0
  Ba  Ba1  1  0.50000000  0.50000000  0.50000000  1.0
  Nb  Nb2  1  0.93459919  -0.06540081  -0.06540081  1.0
  Nb  Nb3  1  0.43459919  0.43459919  0.43459919  1.0
  Nb  Nb4  1  0.56540081  0.56540081  -0.43459919  1.0
  Nb  Nb5  1  1.06540081  0.06540081  0.06540081  1.0
  P  P6  1  0.79906493  0.79906493  -0.20093507  1.0
  P  P7  1  0.29906493  0.29906493  0.29906493  1.0
  P  P8  1  0.70093507  0.70093507  -0.29906493  1.0
  P  P9  1  0.20093507  0.20093507  0.20093507  1.0
  O  O10  1  0.61006173  0.07279372  0.18758078  1.0
  O  O11  1  1.11006173  0.68758078  -0.42720628  1.0
  O  O12  1  0.31241922  0.42720628  -0.11006173  1.0
  O  O13  1  0.81241922  0.38993827  -0.07279372  1.0
  O  O14  1  0.92720628  0.81241922  -0.61006173  1.0
  O  O15  1  0.42720628  0.88993827  -0.68758078  1.0
  O  O16  1  0.38993827  0.92720628  -0.18758078  1.0
  O  O17  1  0.88993827  0.31241922  -0.57279372  1.0
  O  O18  1  1.18758078  -0.38993827  0.07279372  1.0
  O  O19  1  0.68758078  0.57279372  0.11006173  1.0
  O  O20  1  0.57279372  1.11006173  -0.31241922  1.0
  O  O21  1  1.07279372  0.18758078  -0.38993827  1.0
  O  O22  1  1.34169546  -0.25000000  0.15830454  1.0
  O  O23  1  0.84169546  -0.34169546  0.25000000  1.0
  O  O24  1  0.25000000  0.84169546  -0.34169546  1.0
  O  O25  1  0.75000000  0.15830454  0.34169546  1.0
  O  O26  1  0.65830454  0.25000000  -0.15830454  1.0
  O  O27  1  1.15830454  0.34169546  -0.25000000  1.0
  O  O28  1  0.82465347  0.82465347  -0.17534653  1.0
  O  O29  1  0.32465347  0.32465347  0.32465347  1.0
  O  O30  1  0.67534653  0.67534653  -0.32465347  1.0
  O  O31  1  0.17534653  0.17534653  0.17534653  1.0
