# generated using pymatgen
data_Li4P2O7
_symmetry_space_group_name_H-M   'P 1'
_cell_length_a   5.23466672
_cell_length_b   8.64618610
_cell_length_c   7.20999410
_cell_angle_alpha   102.47362833
_cell_angle_beta   111.00502263
_cell_angle_gamma   89.93715339
_symmetry_Int_Tables_number   1
_chemical_formula_structural   Li4P2O7
_chemical_formula_sum   'Li8 P4 O14'
_cell_volume   296.40365588
_cell_formula_units_Z   2
loop_
 _symmetry_equiv_pos_site_id
 _symmetry_equiv_pos_as_xyz
  1  'x, y, z'
loop_
 _atom_site_type_symbol
 _atom_site_label
 _atom_site_symmetry_multiplicity
 _atom_site_fract_x
 _atom_site_fract_y
 _atom_site_fract_z
 _atom_site_occupancy
  Li  Li0  1  1.02777213  0.79184741  -0.32837360  1.0
  Li  Li1  1  -0.02777213  0.20815259  -0.67162640  1.0
  Li  Li2  1  0.05628779  0.45253473  -0.24081324  1.0
  Li  Li3  1  0.94371221  0.54746527  -0.75918676  1.0
  Li  Li4  1  0.39528449  0.74995137  -0.59067686  1.0
  Li  Li5  1  0.60471551  0.25004863  -0.40932314  1.0
  Li  Li6  1  0.74424171  0.98842072  -0.14506846  1.0
  Li  Li7  1  0.25575829  0.01157928  -0.85493154  1.0
  P  P8  1  0.78438178  0.84477385  -0.77956426  1.0
  P  P9  1  0.21561822  0.15522615  -0.22043574  1.0
  P  P10  1  0.57360198  0.63287795  -0.21368782  1.0
  P  P11  1  0.42639802  0.36712205  -0.78631218  1.0
  O  O12  1  0.73753082  0.68306938  -0.96264275  1.0
  O  O13  1  0.26246918  0.31693062  -0.03735725  1.0
  O  O14  1  0.51597373  0.87223494  -0.74401355  1.0
  O  O15  1  0.48402627  0.12776506  -0.25598645  1.0
  O  O16  1  1.00672181  0.78946653  -0.60481611  1.0
  O  O17  1  -0.00672181  0.21053347  -0.39518389  1.0
  O  O18  1  0.88329976  0.98278109  -0.84845443  1.0
  O  O19  1  0.11670024  0.01721891  -0.15154557  1.0
  O  O20  1  0.26539816  0.62473181  -0.25410622  1.0
  O  O21  1  0.73460184  0.37526819  -0.74589378  1.0
  O  O22  1  0.68503454  0.47400210  -0.27043670  1.0
  O  O23  1  0.31496546  0.52599790  -0.72956330  1.0
  O  O24  1  0.65985756  0.76559426  -0.29890697  1.0
  O  O25  1  0.34014244  0.23440574  -0.70109303  1.0
