# generated using pymatgen
data_CuO2
_symmetry_space_group_name_H-M   'P 1'
_cell_length_a   6.61659190
_cell_length_b   5.53736485
_cell_length_c   4.10690513
_cell_angle_alpha   85.27093710
_cell_angle_beta   56.51619152
_cell_angle_gamma   38.21287138
_symmetry_Int_Tables_number   1
_chemical_formula_structural   CuO2
_chemical_formula_sum   'Cu1 O2'
_cell_volume   56.89146565
_cell_formula_units_Z   1
loop_
 _symmetry_equiv_pos_site_id
 _symmetry_equiv_pos_as_xyz
  1  'x, y, z'
loop_
 _atom_site_type_symbol
 _atom_site_label
 _atom_site_symmetry_multiplicity
 _atom_site_fract_x
 _atom_site_fract_y
 _atom_site_fract_z
 _atom_site_occupancy
  Cu  Cu0  1  0.50000000  0.50000000  0.50000000  1.0
  O  O1  1  0.88992093  -0.11007907  0.11007907  1.0
  O  O2  1  1.11007907  0.11007907  -0.11007907  1.0
