# generated using pymatgen
data_Te3As2
_symmetry_space_group_name_H-M   'P 1'
_cell_length_a   7.09674408
_cell_length_b   16.39216584
_cell_length_c   10.32012374
_cell_angle_alpha   90.00000000
_cell_angle_beta   103.17402694
_cell_angle_gamma   90.00000000
_symmetry_Int_Tables_number   1
_chemical_formula_structural   Te3As2
_chemical_formula_sum   'Te24 As16'
_cell_volume   1168.95467326
_cell_formula_units_Z   8
loop_
 _symmetry_equiv_pos_site_id
 _symmetry_equiv_pos_as_xyz
  1  'x, y, z'
loop_
 _atom_site_type_symbol
 _atom_site_label
 _atom_site_symmetry_multiplicity
 _atom_site_fract_x
 _atom_site_fract_y
 _atom_site_fract_z
 _atom_site_occupancy
  Te  Te0  1  0.78047943  0.50011616  0.34347310  1.0
  Te  Te1  1  0.78047943  -0.00011616  0.34347310  1.0
  Te  Te2  1  0.21952057  0.00011616  0.65652690  1.0
  Te  Te3  1  0.21952057  0.49988384  0.65652690  1.0
  Te  Te4  1  0.71960181  0.87494151  0.65648201  1.0
  Te  Te5  1  0.71960181  0.62505849  0.65648201  1.0
  Te  Te6  1  0.28039819  0.37494151  0.34351799  1.0
  Te  Te7  1  0.28039819  0.12505849  0.34351799  1.0
  Te  Te8  1  0.71940002  0.37506356  0.65645490  1.0
  Te  Te9  1  0.71940002  0.12493644  0.65645490  1.0
  Te  Te10  1  0.28059998  0.87506356  0.34354510  1.0
  Te  Te11  1  0.28059998  0.62493644  0.34354510  1.0
  Te  Te12  1  0.49990736  0.37500494  0.99969568  1.0
  Te  Te13  1  0.49990736  0.12499506  0.99969568  1.0
  Te  Te14  1  0.50009264  0.87500494  0.00030432  1.0
  Te  Te15  1  0.50009264  0.62499506  0.00030432  1.0
  Te  Te16  1  0.99982119  0.25000000  1.00027537  1.0
  Te  Te17  1  0.00017881  0.75000000  -0.00027537  1.0
  Te  Te18  1  0.78030494  0.25000000  0.34353882  1.0
  Te  Te19  1  0.21969506  0.75000000  0.65646118  1.0
  Te  Te20  1  0.21933074  0.25000000  0.65646686  1.0
  Te  Te21  1  0.78066926  0.75000000  0.34353314  1.0
  Te  Te22  1  0.00000000  0.50000000  0.00000000  1.0
  Te  Te23  1  0.00000000  0.00000000  0.00000000  1.0
  As  As24  1  0.89464986  0.37488613  0.18455956  1.0
  As  As25  1  0.89464986  0.12511387  0.18455956  1.0
  As  As26  1  0.10535014  0.87488613  0.81544044  1.0
  As  As27  1  0.10535014  0.62511387  0.81544044  1.0
  As  As28  1  0.60552549  0.49975144  0.81550825  1.0
  As  As29  1  0.60552549  0.00024856  0.81550825  1.0
  As  As30  1  0.39447451  0.99975144  0.18449175  1.0
  As  As31  1  0.39447451  0.50024856  0.18449175  1.0
  As  As32  1  0.10569355  0.37509335  0.81539783  1.0
  As  As33  1  0.10569355  0.12490665  0.81539783  1.0
  As  As34  1  0.89430645  0.87509335  0.18460217  1.0
  As  As35  1  0.89430645  0.62490665  0.18460217  1.0
  As  As36  1  0.60500987  0.25000000  0.81546307  1.0
  As  As37  1  0.39499013  0.75000000  0.18453693  1.0
  As  As38  1  0.39390967  0.25000000  0.18480852  1.0
  As  As39  1  0.60609033  0.75000000  0.81519148  1.0
