# generated using pymatgen
data_PtSO4
_symmetry_space_group_name_H-M   'P 1'
_cell_length_a   4.77945530
_cell_length_b   4.77945530
_cell_length_c   4.77945530
_cell_angle_alpha   101.18523753
_cell_angle_beta   101.18523753
_cell_angle_gamma   127.73692331
_symmetry_Int_Tables_number   1
_chemical_formula_structural   PtSO4
_chemical_formula_sum   'Pt1 S1 O4'
_cell_volume   77.51583533
_cell_formula_units_Z   1
loop_
 _symmetry_equiv_pos_site_id
 _symmetry_equiv_pos_as_xyz
  1  'x, y, z'
loop_
 _atom_site_type_symbol
 _atom_site_label
 _atom_site_symmetry_multiplicity
 _atom_site_fract_x
 _atom_site_fract_y
 _atom_site_fract_z
 _atom_site_occupancy
  Pt  Pt0  1  0.00000000  0.00000000  0.00000000  1.0
  S  S1  1  0.75000000  0.25000000  0.50000000  1.0
  O  O2  1  0.36178785  0.94630130  1.22982348  1.0
  O  O3  1  0.71647782  0.13196437  0.77017652  1.0
  O  O4  1  1.05369870  1.28352218  1.41548655  1.0
  O  O5  1  0.86803563  0.63821215  0.58451345  1.0
