# generated using pymatgen
data_BiC12N5O12
_symmetry_space_group_name_H-M   'P 1'
_cell_length_a   9.35380283
_cell_length_b   9.35380283
_cell_length_c   9.35380283
_cell_angle_alpha   60.32585553
_cell_angle_beta   60.32585553
_cell_angle_gamma   60.32585554
_symmetry_Int_Tables_number   1
_chemical_formula_structural   BiC12N5O12
_chemical_formula_sum   'Bi1 C12 N5 O12'
_cell_volume   582.96137608
_cell_formula_units_Z   1
loop_
 _symmetry_equiv_pos_site_id
 _symmetry_equiv_pos_as_xyz
  1  'x, y, z'
loop_
 _atom_site_type_symbol
 _atom_site_label
 _atom_site_symmetry_multiplicity
 _atom_site_fract_x
 _atom_site_fract_y
 _atom_site_fract_z
 _atom_site_occupancy
  O  O0  1  0.92769568  -0.07131715  -0.69589951  1.0
  O  O1  1  0.30410049  -0.07230432  -0.07131715  1.0
  O  O2  1  0.69589951  0.07131715  0.07230432  1.0
  O  O3  1  0.92868285  -0.69589951  -0.07230432  1.0
  O  O4  1  1.07131715  0.07230432  -0.30410049  1.0
  O  O5  1  1.07230432  -0.30410049  0.07131715  1.0
  O  O6  1  0.89813501  -0.10077166  -0.43270903  1.0
  O  O7  1  0.56729097  0.89813501  -1.10077166  1.0
  O  O8  1  0.43270903  1.10077166  -0.89813501  1.0
  O  O9  1  -0.10077166  0.56729097  -0.10186499  1.0
  O  O10  1  1.10077166  0.10186499  -0.56729097  1.0
  O  O11  1  0.10186499  0.43270903  0.10077166  1.0
  C  C12  1  0.96651168  -0.03255347  -0.61105193  1.0
  C  C13  1  0.38894807  0.96651168  -1.03255347  1.0
  C  C14  1  0.61105193  0.03255347  0.03348832  1.0
  C  C15  1  -0.03255347  0.38894807  -0.03348832  1.0
  C  C16  1  1.03255347  0.03348832  -0.38894807  1.0
  C  C17  1  1.03348832  -0.38894807  0.03255347  1.0
  C  C18  1  1.06877011  0.06946056  -0.67581513  1.0
  C  C19  1  0.32418487  1.06877011  -0.93053944  1.0
  C  C20  1  0.67581513  -0.06946056  -0.06877011  1.0
  C  C21  1  0.06946056  0.32418487  0.06877011  1.0
  C  C22  1  0.93053944  -0.06877011  -0.32418487  1.0
  C  C23  1  0.93122989  -0.32418487  -0.06946056  1.0
  Bi  Bi24  1  0.00000000  0.00000000  0.00000000  1.0
  N  N25  1  0.14583718  0.14583718  0.14583718  1.0
  N  N26  1  0.85416282  -0.14583718  -0.14583718  1.0
  N  N27  1  0.34350063  0.34350063  0.34350063  1.0
  N  N28  1  0.65649937  -0.34350063  -0.34350063  1.0
  N  N29  1  0.50000000  0.50000000  -0.50000000  1.0
