# generated using pymatgen
data_PrBiS2O
_symmetry_space_group_name_H-M   'P 1'
_cell_length_a   4.00747633
_cell_length_b   4.00747633
_cell_length_c   13.98560207
_cell_angle_alpha   90.00000000
_cell_angle_beta   90.00000000
_cell_angle_gamma   90.00000000
_symmetry_Int_Tables_number   1
_chemical_formula_structural   PrBiS2O
_chemical_formula_sum   'Pr2 Bi2 S4 O2'
_cell_volume   224.60690247
_cell_formula_units_Z   2
loop_
 _symmetry_equiv_pos_site_id
 _symmetry_equiv_pos_as_xyz
  1  'x, y, z'
loop_
 _atom_site_type_symbol
 _atom_site_label
 _atom_site_symmetry_multiplicity
 _atom_site_fract_x
 _atom_site_fract_y
 _atom_site_fract_z
 _atom_site_occupancy
  Pr  Pr0  1  0.50000000  0.00000000  0.08749765  1.0
  Pr  Pr1  1  0.00000000  0.50000000  0.91250235  1.0
  Bi  Bi2  1  0.50000000  0.00000000  0.63064696  1.0
  Bi  Bi3  1  0.00000000  0.50000000  0.36935304  1.0
  S  S4  1  0.50000000  0.00000000  0.39121905  1.0
  S  S5  1  0.00000000  0.50000000  0.60878095  1.0
  S  S6  1  0.50000000  0.00000000  0.81380873  1.0
  S  S7  1  0.00000000  0.50000000  0.18619127  1.0
  O  O8  1  0.00000000  0.00000000  0.00000000  1.0
  O  O9  1  0.50000000  0.50000000  0.00000000  1.0
