# generated using pymatgen
data_Na3CrO4
_symmetry_space_group_name_H-M   'P 1'
_cell_length_a   12.33373707
_cell_length_b   7.12377314
_cell_length_c   5.66176246
_cell_angle_alpha   90.00000000
_cell_angle_beta   90.00000000
_cell_angle_gamma   90.00000000
_symmetry_Int_Tables_number   1
_chemical_formula_structural   Na3CrO4
_chemical_formula_sum   'Na12 Cr4 O16'
_cell_volume   497.45799034
_cell_formula_units_Z   4
loop_
 _symmetry_equiv_pos_site_id
 _symmetry_equiv_pos_as_xyz
  1  'x, y, z'
loop_
 _atom_site_type_symbol
 _atom_site_label
 _atom_site_symmetry_multiplicity
 _atom_site_fract_x
 _atom_site_fract_y
 _atom_site_fract_z
 _atom_site_occupancy
  Na  Na0  1  0.66306417  1.00267923  0.28660156  1.0
  Na  Na1  1  0.66306417  0.49732077  0.28660156  1.0
  Na  Na2  1  0.16306417  1.00267923  0.21339844  1.0
  Na  Na3  1  0.16306417  0.49732077  0.21339844  1.0
  Na  Na4  1  0.33693583  0.50267923  0.71339844  1.0
  Na  Na5  1  0.33693583  -0.00267923  0.71339844  1.0
  Na  Na6  1  0.83693583  0.50267923  0.78660156  1.0
  Na  Na7  1  0.83693583  -0.00267923  0.78660156  1.0
  Na  Na8  1  0.57220729  0.25000000  0.72016009  1.0
  Na  Na9  1  0.07220729  0.25000000  0.77983991  1.0
  Na  Na10  1  0.42779271  0.75000000  0.27983991  1.0
  Na  Na11  1  0.92779271  0.75000000  0.22016009  1.0
  Cr  Cr12  1  0.90984475  0.25000000  0.29585633  1.0
  Cr  Cr13  1  0.40984475  0.25000000  0.20414367  1.0
  Cr  Cr14  1  0.09015525  0.75000000  0.70414367  1.0
  Cr  Cr15  1  0.59015525  0.75000000  0.79585633  1.0
  O  O16  1  0.84455113  0.44858754  0.19813805  1.0
  O  O17  1  0.84455113  0.05141246  0.19813805  1.0
  O  O18  1  0.34455113  0.44858754  0.30186195  1.0
  O  O19  1  0.34455113  0.05141246  0.30186195  1.0
  O  O20  1  0.15544887  0.94858754  0.80186195  1.0
  O  O21  1  0.15544887  0.55141246  0.80186195  1.0
  O  O22  1  0.65544887  0.94858754  0.69813805  1.0
  O  O23  1  0.65544887  0.55141246  0.69813805  1.0
  O  O24  1  0.90735520  0.25000000  0.59803260  1.0
  O  O25  1  0.40735520  0.25000000  0.90196740  1.0
  O  O26  1  0.09264480  0.75000000  0.40196740  1.0
  O  O27  1  0.59264480  0.75000000  0.09803260  1.0
  O  O28  1  0.54161404  0.25000000  0.30029177  1.0
  O  O29  1  0.04161404  0.25000000  0.19970823  1.0
  O  O30  1  0.45838596  0.75000000  0.69970823  1.0
  O  O31  1  0.95838596  0.75000000  0.80029177  1.0
