# generated using pymatgen
data_SrCu2SnS4
_symmetry_space_group_name_H-M   'P 1'
_cell_length_a   6.35851384
_cell_length_b   6.35851384
_cell_length_c   15.61909296
_cell_angle_alpha   90.00000000
_cell_angle_beta   90.00000000
_cell_angle_gamma   120.00000000
_symmetry_Int_Tables_number   1
_chemical_formula_structural   SrCu2SnS4
_chemical_formula_sum   'Sr3 Cu6 Sn3 S12'
_cell_volume   546.88710430
_cell_formula_units_Z   3
loop_
 _symmetry_equiv_pos_site_id
 _symmetry_equiv_pos_as_xyz
  1  'x, y, z'
loop_
 _atom_site_type_symbol
 _atom_site_label
 _atom_site_symmetry_multiplicity
 _atom_site_fract_x
 _atom_site_fract_y
 _atom_site_fract_z
 _atom_site_occupancy
  Sr  Sr0  1  0.33337555  0.23150951  0.83364156  1.0
  Sr  Sr1  1  0.89813396  0.66662445  0.50030823  1.0
  Sr  Sr2  1  0.76849049  0.10186604  0.16697489  1.0
  Cu  Cu3  1  0.96692687  0.73698442  0.25460350  1.0
  Cu  Cu4  1  0.77005755  0.03307313  0.92127017  1.0
  Cu  Cu5  1  0.26301558  0.22994245  0.58793683  1.0
  Cu  Cu6  1  0.89676807  0.59629465  0.74599718  1.0
  Cu  Cu7  1  0.69952659  0.10323193  0.41266385  1.0
  Cu  Cu8  1  0.40370535  0.30047341  0.07933052  1.0
  Sn  Sn9  1  0.03563779  0.66670815  0.00030938  1.0
  Sn  Sn10  1  0.63107036  0.96436221  0.66697605  1.0
  Sn  Sn11  1  0.33329185  0.36892964  0.33364272  1.0
  S  S12  1  0.21808357  0.90500308  0.67237718  1.0
  S  S13  1  0.68691951  0.78191643  0.33904384  1.0
  S  S14  1  0.09499692  0.31308049  0.00571051  1.0
  S  S15  1  0.81686391  0.71273893  0.87941192  1.0
  S  S16  1  0.89587502  0.18313609  0.54607859  1.0
  S  S17  1  0.28726107  0.10412498  0.21274525  1.0
  S  S18  1  0.77081831  0.62069639  0.12119228  1.0
  S  S19  1  0.84987808  0.22918169  0.78785895  1.0
  S  S20  1  0.37930361  0.15012192  0.45452561  1.0
  S  S21  1  0.57168980  0.55135440  0.66160033  1.0
  S  S22  1  0.97966459  0.42831020  0.32826699  1.0
  S  S23  1  0.44864560  0.02033541  -0.00506634  1.0
