# generated using pymatgen
data_Y2Ge2Ru
_symmetry_space_group_name_H-M   'P 1'
_cell_length_a   5.80936252
_cell_length_b   5.80936252
_cell_length_c   10.21358045
_cell_angle_alpha   63.78811668
_cell_angle_beta   116.21188332
_cell_angle_gamma   136.62585029
_symmetry_Int_Tables_number   1
_chemical_formula_structural   Y2Ge2Ru
_chemical_formula_sum   'Y4 Ge4 Ru2'
_cell_volume   208.26928114
_cell_formula_units_Z   2
loop_
 _symmetry_equiv_pos_site_id
 _symmetry_equiv_pos_as_xyz
  1  'x, y, z'
loop_
 _atom_site_type_symbol
 _atom_site_label
 _atom_site_symmetry_multiplicity
 _atom_site_fract_x
 _atom_site_fract_y
 _atom_site_fract_z
 _atom_site_occupancy
  Y  Y0  1  1.00153941  -1.00153941  0.67324906  1.0
  Y  Y1  1  -0.00153941  0.00153941  0.32675094  1.0
  Y  Y2  1  0.81612175  0.18387825  0.88887073  1.0
  Y  Y3  1  1.18387825  -0.18387825  0.11112927  1.0
  Ge  Ge4  1  0.64614176  0.35385824  0.56510815  1.0
  Ge  Ge5  1  1.35385824  -0.35385824  0.43489185  1.0
  Ge  Ge6  1  0.51154454  0.48845546  0.87508345  1.0
  Ge  Ge7  1  1.48845546  -0.48845546  0.12491655  1.0
  Ru  Ru8  1  0.72858074  -0.72858074  0.37166555  1.0
  Ru  Ru9  1  0.27141926  -0.27141926  0.62833445  1.0
