# generated using pymatgen
data_Hf9Re4Si
_symmetry_space_group_name_H-M   'P 1'
_cell_length_a   8.56257196
_cell_length_b   8.56257196
_cell_length_c   8.66438292
_cell_angle_alpha   90.00000000
_cell_angle_beta   90.00000000
_cell_angle_gamma   120.00000000
_symmetry_Int_Tables_number   1
_chemical_formula_structural   Hf9Re4Si
_chemical_formula_sum   'Hf18 Re8 Si2'
_cell_volume   550.14445225
_cell_formula_units_Z   2
loop_
 _symmetry_equiv_pos_site_id
 _symmetry_equiv_pos_as_xyz
  1  'x, y, z'
loop_
 _atom_site_type_symbol
 _atom_site_label
 _atom_site_symmetry_multiplicity
 _atom_site_fract_x
 _atom_site_fract_y
 _atom_site_fract_z
 _atom_site_occupancy
  Hf  Hf0  1  0.19519408  0.80480592  0.45224575  1.0
  Hf  Hf1  1  0.19519408  0.39038815  0.45224575  1.0
  Hf  Hf2  1  0.60961185  0.80480592  0.45224575  1.0
  Hf  Hf3  1  0.80480592  0.19519408  0.54775425  1.0
  Hf  Hf4  1  0.80480592  0.60961185  0.54775425  1.0
  Hf  Hf5  1  0.39038815  0.19519408  0.54775425  1.0
  Hf  Hf6  1  0.80480592  0.19519408  0.95224575  1.0
  Hf  Hf7  1  0.80480592  0.60961185  0.95224575  1.0
  Hf  Hf8  1  0.39038815  0.19519408  0.95224575  1.0
  Hf  Hf9  1  0.19519408  0.80480592  0.04775425  1.0
  Hf  Hf10  1  0.19519408  0.39038815  0.04775425  1.0
  Hf  Hf11  1  0.60961185  0.80480592  0.04775425  1.0
  Hf  Hf12  1  0.53943645  0.46056355  0.25000000  1.0
  Hf  Hf13  1  0.53943645  0.07887289  0.25000000  1.0
  Hf  Hf14  1  0.92112711  0.46056355  0.25000000  1.0
  Hf  Hf15  1  0.46056355  0.53943645  0.75000000  1.0
  Hf  Hf16  1  0.46056355  0.92112711  0.75000000  1.0
  Hf  Hf17  1  0.07887289  0.53943645  0.75000000  1.0
  Re  Re18  1  0.89104365  0.10895635  0.25000000  1.0
  Re  Re19  1  0.89104365  0.78208730  0.25000000  1.0
  Re  Re20  1  0.21791270  0.10895635  0.25000000  1.0
  Re  Re21  1  0.10895635  0.89104365  0.75000000  1.0
  Re  Re22  1  0.10895635  0.21791270  0.75000000  1.0
  Re  Re23  1  0.78208730  0.89104365  0.75000000  1.0
  Re  Re24  1  0.00000000  0.00000000  0.50000000  1.0
  Re  Re25  1  0.00000000  0.00000000  0.00000000  1.0
  Si  Si26  1  0.33333333  0.66666667  0.25000000  1.0
  Si  Si27  1  0.66666667  0.33333333  0.75000000  1.0
