# generated using pymatgen
data_CuSiH8(O2F3)2
_symmetry_space_group_name_H-M   'P 1'
_cell_length_a   5.53161186
_cell_length_b   9.59741568
_cell_length_c   7.39545069
_cell_angle_alpha   90.00000000
_cell_angle_beta   101.51548736
_cell_angle_gamma   90.00000000
_symmetry_Int_Tables_number   1
_chemical_formula_structural   CuSiH8(O2F3)2
_chemical_formula_sum   'Cu2 Si2 H16 O8 F12'
_cell_volume   384.71529843
_cell_formula_units_Z   2
loop_
 _symmetry_equiv_pos_site_id
 _symmetry_equiv_pos_as_xyz
  1  'x, y, z'
loop_
 _atom_site_type_symbol
 _atom_site_label
 _atom_site_symmetry_multiplicity
 _atom_site_fract_x
 _atom_site_fract_y
 _atom_site_fract_z
 _atom_site_occupancy
  Cu  Cu0  1  0.50000000  0.50000000  0.00000000  1.0
  Cu  Cu1  1  0.50000000  0.00000000  0.50000000  1.0
  Si  Si2  1  0.00000000  0.50000000  0.50000000  1.0
  Si  Si3  1  0.00000000  0.00000000  0.00000000  1.0
  H  H4  1  0.73906694  0.77807610  0.45869567  1.0
  H  H5  1  0.73906694  0.72192390  0.95869567  1.0
  H  H6  1  0.26093306  0.27807610  0.04130433  1.0
  H  H7  1  0.26093306  0.22192390  0.54130433  1.0
  H  H8  1  0.72041427  0.23149278  0.46806942  1.0
  H  H9  1  0.72041427  0.26850722  0.96806942  1.0
  H  H10  1  0.27958573  0.73149278  0.03193058  1.0
  H  H11  1  0.27958573  0.76850722  0.53193058  1.0
  H  H12  1  0.72695396  0.14202001  0.28946890  1.0
  H  H13  1  0.72695396  0.35797999  0.78946890  1.0
  H  H14  1  0.27304604  0.64202001  0.21053110  1.0
  H  H15  1  0.27304604  0.85797999  0.71053110  1.0
  H  H16  1  0.74063710  0.87363955  0.28215141  1.0
  H  H17  1  0.74063710  0.62636045  0.78215141  1.0
  H  H18  1  0.25936290  0.37363955  0.21784859  1.0
  H  H19  1  0.25936290  0.12636045  0.71784859  1.0
  O  O20  1  0.73733149  0.87561977  0.41539051  1.0
  O  O21  1  0.73733149  0.62438023  0.91539051  1.0
  O  O22  1  0.26266851  0.37561977  0.08460949  1.0
  O  O23  1  0.26266851  0.12438023  0.58460949  1.0
  O  O24  1  0.62544982  0.16282386  0.38222063  1.0
  O  O25  1  0.62544982  0.33717614  0.88222063  1.0
  O  O26  1  0.37455018  0.66282386  0.11777937  1.0
  O  O27  1  0.37455018  0.83717614  0.61777937  1.0
  F  F28  1  0.87113930  0.13586488  0.10584554  1.0
  F  F29  1  0.87113930  0.36413512  0.60584554  1.0
  F  F30  1  0.12886070  0.63586488  0.39415446  1.0
  F  F31  1  0.12886070  0.86413512  0.89415446  1.0
  F  F32  1  0.80686831  0.46342977  0.29925220  1.0
  F  F33  1  0.80686831  0.03657023  0.79925220  1.0
  F  F34  1  0.19313169  0.96342977  0.20074780  1.0
  F  F35  1  0.19313169  0.53657023  0.70074780  1.0
  F  F36  1  0.21536218  0.38465874  0.44198429  1.0
  F  F37  1  0.21536218  0.11534126  0.94198429  1.0
  F  F38  1  0.78463782  0.88465874  0.05801571  1.0
  F  F39  1  0.78463782  0.61534126  0.55801571  1.0
