# generated using pymatgen
data_NbCo3
_symmetry_space_group_name_H-M   'P 1'
_cell_length_a   4.71386703
_cell_length_b   4.71386703
_cell_length_c   15.45869038
_cell_angle_alpha   90.00000000
_cell_angle_beta   90.00000000
_cell_angle_gamma   120.00000000
_symmetry_Int_Tables_number   1
_chemical_formula_structural   NbCo3
_chemical_formula_sum   'Nb6 Co18'
_cell_volume   297.48014555
_cell_formula_units_Z   6
loop_
 _symmetry_equiv_pos_site_id
 _symmetry_equiv_pos_as_xyz
  1  'x, y, z'
loop_
 _atom_site_type_symbol
 _atom_site_label
 _atom_site_symmetry_multiplicity
 _atom_site_fract_x
 _atom_site_fract_y
 _atom_site_fract_z
 _atom_site_occupancy
  Nb  Nb0  1  0.00000000  0.00000000  0.58936109  1.0
  Nb  Nb1  1  0.00000000  0.00000000  0.08936109  1.0
  Nb  Nb2  1  0.33333333  0.66666667  0.66828261  1.0
  Nb  Nb3  1  0.66666667  0.33333333  0.16828261  1.0
  Nb  Nb4  1  0.00000000  0.00000000  0.40032773  1.0
  Nb  Nb5  1  0.00000000  0.00000000  0.90032773  1.0
  Co  Co6  1  0.66666667  0.33333333  0.34872857  1.0
  Co  Co7  1  0.33333333  0.66666667  0.84872857  1.0
  Co  Co8  1  0.83577127  0.16422873  0.75049083  1.0
  Co  Co9  1  0.83577127  0.67154254  0.75049083  1.0
  Co  Co10  1  0.32845746  0.16422873  0.75049083  1.0
  Co  Co11  1  0.16422873  0.83577127  0.25049083  1.0
  Co  Co12  1  0.16422873  0.32845746  0.25049083  1.0
  Co  Co13  1  0.67154254  0.83577127  0.25049083  1.0
  Co  Co14  1  0.33333333  0.66666667  0.37205548  1.0
  Co  Co15  1  0.66666667  0.33333333  0.87205548  1.0
  Co  Co16  1  0.66666667  0.33333333  0.62380018  1.0
  Co  Co17  1  0.33333333  0.66666667  0.12380018  1.0
  Co  Co18  1  0.50017856  0.49982144  0.49865728  1.0
  Co  Co19  1  0.50017856  0.00035711  0.49865728  1.0
  Co  Co20  1  0.99964289  0.49982144  0.49865728  1.0
  Co  Co21  1  0.49982144  0.50017856  -0.00134272  1.0
  Co  Co22  1  0.49982144  0.99964289  -0.00134272  1.0
  Co  Co23  1  0.00035711  0.50017856  -0.00134272  1.0
