# generated using pymatgen
data_Hg4OF6
_symmetry_space_group_name_H-M   'P 1'
_cell_length_a   7.89400743
_cell_length_b   7.89400743
_cell_length_c   6.14748805
_cell_angle_alpha   90.00000000
_cell_angle_beta   90.00000000
_cell_angle_gamma   120.00000000
_symmetry_Int_Tables_number   1
_chemical_formula_structural   Hg4OF6
_chemical_formula_sum   'Hg8 O2 F12'
_cell_volume   331.75951387
_cell_formula_units_Z   2
loop_
 _symmetry_equiv_pos_site_id
 _symmetry_equiv_pos_as_xyz
  1  'x, y, z'
loop_
 _atom_site_type_symbol
 _atom_site_label
 _atom_site_symmetry_multiplicity
 _atom_site_fract_x
 _atom_site_fract_y
 _atom_site_fract_z
 _atom_site_occupancy
  Hg  Hg0  1  0.63538961  0.81769480  0.48098603  1.0
  Hg  Hg1  1  0.81769480  0.63538961  0.98098603  1.0
  Hg  Hg2  1  0.81769480  0.18230520  0.98098603  1.0
  Hg  Hg3  1  0.18230520  0.81769480  0.48098603  1.0
  Hg  Hg4  1  0.18230520  0.36461039  0.48098603  1.0
  Hg  Hg5  1  0.36461039  0.18230520  0.98098603  1.0
  Hg  Hg6  1  0.33333333  0.66666667  0.00649210  1.0
  Hg  Hg7  1  0.66666667  0.33333333  0.50649210  1.0
  O  O8  1  0.33333333  0.66666667  0.35410845  1.0
  O  O9  1  0.66666667  0.33333333  0.85410845  1.0
  F  F10  1  0.74643968  0.87321984  0.08633974  1.0
  F  F11  1  0.87321984  0.74643968  0.58633974  1.0
  F  F12  1  0.87321984  0.12678016  0.58633974  1.0
  F  F13  1  0.12678016  0.87321984  0.08633974  1.0
  F  F14  1  0.12678016  0.25356032  0.08633974  1.0
  F  F15  1  0.25356032  0.12678016  0.58633974  1.0
  F  F16  1  0.91986122  0.45993061  0.25580738  1.0
  F  F17  1  0.45993061  0.91986122  0.75580738  1.0
  F  F18  1  0.45993061  0.54006939  0.75580738  1.0
  F  F19  1  0.54006939  0.45993061  0.25580738  1.0
  F  F20  1  0.54006939  0.08013878  0.25580738  1.0
  F  F21  1  0.08013878  0.54006939  0.75580738  1.0
