# generated using pymatgen
data_CaAl4Si2(HO6)2
_symmetry_space_group_name_H-M   'P 1'
_cell_length_a   5.15466590
_cell_length_b   5.15466590
_cell_length_c   19.41244177
_cell_angle_alpha   87.21177124
_cell_angle_beta   92.78822876
_cell_angle_gamma   59.98643015
_symmetry_Int_Tables_number   1
_chemical_formula_structural   CaAl4Si2(HO6)2
_chemical_formula_sum   'Ca2 Al8 Si4 H4 O24'
_cell_volume   444.51504299
_cell_formula_units_Z   2
loop_
 _symmetry_equiv_pos_site_id
 _symmetry_equiv_pos_as_xyz
  1  'x, y, z'
loop_
 _atom_site_type_symbol
 _atom_site_label
 _atom_site_symmetry_multiplicity
 _atom_site_fract_x
 _atom_site_fract_y
 _atom_site_fract_z
 _atom_site_occupancy
  Ca  Ca0  1  0.90538783  -0.09443300  0.25083744  1.0
  Ca  Ca1  1  1.09443300  0.09461217  0.75083744  1.0
  Al  Al2  1  0.33333740  -0.16826247  0.50093887  1.0
  Al  Al3  1  1.16826247  0.66666260  0.00093887  1.0
  Al  Al4  1  1.66565644  0.16551385  0.50081151  1.0
  Al  Al5  1  0.83448615  -0.66565644  0.00081151  1.0
  Al  Al6  1  0.60698511  -0.46722859  0.35928884  1.0
  Al  Al7  1  1.46722859  0.39301489  0.85928884  1.0
  Al  Al8  1  0.70959969  -0.19289380  0.64247548  1.0
  Al  Al9  1  1.19289380  0.29040031  0.14247548  1.0
  Si  Si10  1  1.39228547  0.46408465  0.64581502  1.0
  Si  Si11  1  0.53591535  -0.39228547  0.14581502  1.0
  Si  Si12  1  1.28744138  0.19374367  0.35595882  1.0
  Si  Si13  1  0.80625633  -0.28744138  0.85595882  1.0
  H  H14  1  0.97679168  -0.29442857  0.44090957  1.0
  H  H15  1  1.29442857  0.02320832  0.94090957  1.0
  H  H16  1  1.01973618  0.29315318  0.56069240  1.0
  H  H17  1  0.70684682  -0.01973618  0.06069240  1.0
  O  O18  1  0.59019910  -0.48547568  0.44854527  1.0
  O  O19  1  1.48547568  0.40980090  0.94854527  1.0
  O  O20  1  1.39689619  0.48445273  0.56142371  1.0
  O  O21  1  0.51554727  -0.39689619  0.06142371  1.0
  O  O22  1  1.35214012  0.13697230  0.44036960  1.0
  O  O23  1  0.86302770  -0.35214012  0.94036960  1.0
  O  O24  1  0.62894943  -0.12688880  0.55318307  1.0
  O  O25  1  1.12688880  0.37105057  0.05318307  1.0
  O  O26  1  1.53819274  0.26130840  0.32219915  1.0
  O  O27  1  0.73869160  -0.53819274  0.82219915  1.0
  O  O28  1  0.44499347  -0.27627390  0.67927703  1.0
  O  O29  1  1.27627390  0.55500653  0.17927703  1.0
  O  O30  1  0.95179320  -0.51302985  0.33184423  1.0
  O  O31  1  1.51302985  0.04820680  0.83184423  1.0
  O  O32  1  1.07424883  0.49804971  0.66996793  1.0
  O  O33  1  0.50195029  -0.07424883  0.16996793  1.0
  O  O34  1  0.31772021  -0.10571080  0.32132087  1.0
  O  O35  1  1.10571080  0.68227979  0.82132087  1.0
  O  O36  1  1.66545598  0.13324827  0.68075217  1.0
  O  O37  1  0.86675173  -0.66545598  0.18075217  1.0
  O  O38  1  0.97917935  -0.11146846  0.44923392  1.0
  O  O39  1  1.11146846  0.02082065  0.94923392  1.0
  O  O40  1  1.01649496  0.11045190  0.55255511  1.0
  O  O41  1  0.88954810  -0.01649496  0.05255511  1.0
