# generated using pymatgen
data_Sr3Au2
_symmetry_space_group_name_H-M   'P 1'
_cell_length_a   8.35469030
_cell_length_b   8.35469030
_cell_length_c   8.35469030
_cell_angle_alpha   70.87153399
_cell_angle_beta   70.87153399
_cell_angle_gamma   70.87153399
_symmetry_Int_Tables_number   1
_chemical_formula_structural   Sr3Au2
_chemical_formula_sum   'Sr9 Au6'
_cell_volume   504.44115624
_cell_formula_units_Z   3
loop_
 _symmetry_equiv_pos_site_id
 _symmetry_equiv_pos_as_xyz
  1  'x, y, z'
loop_
 _atom_site_type_symbol
 _atom_site_label
 _atom_site_symmetry_multiplicity
 _atom_site_fract_x
 _atom_site_fract_y
 _atom_site_fract_z
 _atom_site_occupancy
  Sr  Sr0  1  0.84345995  0.60329634  -0.66793241  1.0
  Sr  Sr1  1  0.39670366  0.66793241  -0.84345995  1.0
  Sr  Sr2  1  0.66793241  0.15654005  -0.60329634  1.0
  Sr  Sr3  1  0.15654005  0.39670366  -0.33206759  1.0
  Sr  Sr4  1  0.60329634  0.33206759  -0.15654005  1.0
  Sr  Sr5  1  0.33206759  0.84345995  -0.39670366  1.0
  Sr  Sr6  1  0.79972163  0.79972163  -0.20027837  1.0
  Sr  Sr7  1  1.20027837  1.20027837  0.20027837  1.0
  Sr  Sr8  1  -0.00000000  -0.00000000  0.00000000  1.0
  Au  Au9  1  0.59124825  -0.04467809  0.15782820  1.0
  Au  Au10  1  1.04467809  -0.15782820  -0.59124825  1.0
  Au  Au11  1  0.84217180  -0.59124825  0.04467809  1.0
  Au  Au12  1  0.40875175  0.04467809  -0.15782820  1.0
  Au  Au13  1  0.95532191  0.15782820  -0.40875175  1.0
  Au  Au14  1  1.15782820  -0.40875175  -0.04467809  1.0
