# generated using pymatgen
data_Mg2SiS4
_symmetry_space_group_name_H-M   'P 1'
_cell_length_a   12.79095504
_cell_length_b   7.47890357
_cell_length_c   5.95672468
_cell_angle_alpha   90.00000000
_cell_angle_beta   90.00000000
_cell_angle_gamma   90.00000000
_symmetry_Int_Tables_number   1
_chemical_formula_structural   Mg2SiS4
_chemical_formula_sum   'Mg8 Si4 S16'
_cell_volume   569.83409878
_cell_formula_units_Z   4
loop_
 _symmetry_equiv_pos_site_id
 _symmetry_equiv_pos_as_xyz
  1  'x, y, z'
loop_
 _atom_site_type_symbol
 _atom_site_label
 _atom_site_symmetry_multiplicity
 _atom_site_fract_x
 _atom_site_fract_y
 _atom_site_fract_z
 _atom_site_occupancy
  Mg  Mg0  1  0.00000000  0.50000000  0.00000000  1.0
  Mg  Mg1  1  0.50000000  0.00000000  0.50000000  1.0
  Mg  Mg2  1  0.00000000  0.00000000  0.00000000  1.0
  Mg  Mg3  1  0.50000000  0.50000000  0.50000000  1.0
  Mg  Mg4  1  0.23170121  0.75000000  0.49220600  1.0
  Mg  Mg5  1  0.73170121  0.75000000  0.00779400  1.0
  Mg  Mg6  1  0.76829879  0.25000000  0.50779400  1.0
  Mg  Mg7  1  0.26829879  0.25000000  0.99220600  1.0
  Si  Si8  1  0.41058339  0.75000000  0.90704803  1.0
  Si  Si9  1  0.91058339  0.75000000  0.59295197  1.0
  Si  Si10  1  0.58941661  0.25000000  0.09295197  1.0
  Si  Si11  1  0.08941661  0.25000000  0.40704803  1.0
  S  S12  1  0.40765542  0.75000000  0.26302845  1.0
  S  S13  1  0.90765542  0.75000000  0.23697155  1.0
  S  S14  1  0.59234458  0.25000000  0.73697155  1.0
  S  S15  1  0.09234458  0.25000000  0.76302845  1.0
  S  S16  1  0.56534155  0.75000000  0.76145668  1.0
  S  S17  1  0.06534155  0.75000000  0.73854332  1.0
  S  S18  1  0.43465845  0.25000000  0.23854332  1.0
  S  S19  1  0.93465845  0.25000000  0.26145668  1.0
  S  S20  1  0.33387588  0.52457900  0.75305024  1.0
  S  S21  1  0.83387588  0.97542100  0.74694976  1.0
  S  S22  1  0.66612412  0.02457900  0.24694976  1.0
  S  S23  1  0.16612412  0.47542100  0.25305024  1.0
  S  S24  1  0.66612412  0.47542100  0.24694976  1.0
  S  S25  1  0.16612412  0.02457900  0.25305024  1.0
  S  S26  1  0.33387588  0.97542100  0.75305024  1.0
  S  S27  1  0.83387588  0.52457900  0.74694976  1.0
