# generated using pymatgen
data_FeCu2SnSe4
_symmetry_space_group_name_H-M   'P 1'
_cell_length_a   6.98125475
_cell_length_b   6.98125475
_cell_length_c   6.98125475
_cell_angle_alpha   131.20121530
_cell_angle_beta   131.20121530
_cell_angle_gamma   71.49358455
_symmetry_Int_Tables_number   1
_chemical_formula_structural   FeCu2SnSe4
_chemical_formula_sum   'Fe1 Cu2 Sn1 Se4'
_cell_volume   188.49744309
_cell_formula_units_Z   1
loop_
 _symmetry_equiv_pos_site_id
 _symmetry_equiv_pos_as_xyz
  1  'x, y, z'
loop_
 _atom_site_type_symbol
 _atom_site_label
 _atom_site_symmetry_multiplicity
 _atom_site_fract_x
 _atom_site_fract_y
 _atom_site_fract_z
 _atom_site_occupancy
  Fe  Fe0  1  -0.00000000  -0.00000000  -0.00000000  1.0
  Cu  Cu1  1  0.25000000  0.75000000  0.50000000  1.0
  Cu  Cu2  1  0.75000000  0.25000000  0.50000000  1.0
  Sn  Sn3  1  0.50000000  0.50000000  1.00000000  1.0
  Se  Se4  1  0.36418593  0.90341201  1.00000000  1.0
  Se  Se5  1  1.09658799  1.09658799  1.46077392  1.0
  Se  Se6  1  0.63581407  0.63581407  0.53922608  1.0
  Se  Se7  1  0.90341201  0.36418593  1.00000000  1.0
