# generated using pymatgen
data_RbZnPO4
_symmetry_space_group_name_H-M   'P 1'
_cell_length_a   8.99950809
_cell_length_b   5.50202679
_cell_length_c   9.06276405
_cell_angle_alpha   90.00000000
_cell_angle_beta   90.14215905
_cell_angle_gamma   90.00000000
_symmetry_Int_Tables_number   1
_chemical_formula_structural   RbZnPO4
_chemical_formula_sum   'Rb4 Zn4 P4 O16'
_cell_volume   448.74622616
_cell_formula_units_Z   4
loop_
 _symmetry_equiv_pos_site_id
 _symmetry_equiv_pos_as_xyz
  1  'x, y, z'
loop_
 _atom_site_type_symbol
 _atom_site_label
 _atom_site_symmetry_multiplicity
 _atom_site_fract_x
 _atom_site_fract_y
 _atom_site_fract_z
 _atom_site_occupancy
  Rb  Rb0  1  0.00305056  0.49366418  0.81372006  1.0
  Rb  Rb1  1  0.99694944  -0.00633582  0.18627994  1.0
  Rb  Rb2  1  0.50861731  0.47156073  0.69634341  1.0
  Rb  Rb3  1  0.49138269  0.97156073  0.30365659  1.0
  Zn  Zn4  1  0.17099634  0.50557075  0.40764422  1.0
  Zn  Zn5  1  0.82900366  0.00557075  0.59235578  1.0
  Zn  Zn6  1  0.32563849  0.96589339  0.92385130  1.0
  Zn  Zn7  1  0.67436151  0.46589339  0.07614870  1.0
  P  P8  1  0.19112170  0.00330556  0.59834449  1.0
  P  P9  1  0.80887830  0.50330556  0.40165551  1.0
  P  P10  1  0.69343778  0.96955606  0.92218738  1.0
  P  P11  1  0.30656222  0.46955606  0.07781262  1.0
  O  O12  1  0.03320653  0.97220568  0.66656510  1.0
  O  O13  1  0.96679347  0.47220568  0.33343490  1.0
  O  O14  1  0.20687422  0.85508648  0.45191687  1.0
  O  O15  1  0.79312578  0.35508648  0.54808313  1.0
  O  O16  1  0.22163279  0.25558549  1.00057547  1.0
  O  O17  1  0.77836721  0.75558549  -0.00057547  1.0
  O  O18  1  0.22435778  0.27825924  0.56757183  1.0
  O  O19  1  0.77564222  0.77825924  0.43242817  1.0
  O  O20  1  0.30873001  0.90718707  0.71103039  1.0
  O  O21  1  0.69126999  0.40718707  0.28896961  1.0
  O  O22  1  0.31129365  0.42858168  0.24816389  1.0
  O  O23  1  0.68870635  0.92858168  0.75183611  1.0
  O  O24  1  0.46637317  0.48517573  0.01579065  1.0
  O  O25  1  0.53362683  0.98517573  0.98420935  1.0
  O  O26  1  0.77808529  0.21026796  0.96011506  1.0
  O  O27  1  0.22191471  0.71026796  0.03988494  1.0
