# generated using pymatgen
data_NaPH6C2(NO)4
_symmetry_space_group_name_H-M   'P 1'
_cell_length_a   7.53712720
_cell_length_b   7.53712720
_cell_length_c   7.19653993
_cell_angle_alpha   82.50003413
_cell_angle_beta   97.49996587
_cell_angle_gamma   70.11245992
_symmetry_Int_Tables_number   1
_chemical_formula_structural   NaPH6C2(NO)4
_chemical_formula_sum   'Na2 P2 H12 C4 N8 O8'
_cell_volume   374.38375612
_cell_formula_units_Z   2
loop_
 _symmetry_equiv_pos_site_id
 _symmetry_equiv_pos_as_xyz
  1  'x, y, z'
loop_
 _atom_site_type_symbol
 _atom_site_label
 _atom_site_symmetry_multiplicity
 _atom_site_fract_x
 _atom_site_fract_y
 _atom_site_fract_z
 _atom_site_occupancy
  Na  Na0  1  0.00000000  -0.00000000  0.50000000  1.0
  Na  Na1  1  0.00000000  0.00000000  0.00000000  1.0
  P  P2  1  0.75191445  -0.24808555  0.25000000  1.0
  P  P3  1  1.24808555  0.24808555  0.75000000  1.0
  H  H4  1  0.90032195  -0.57448090  0.40435150  1.0
  H  H5  1  0.42551910  -0.09967805  0.09564850  1.0
  H  H6  1  1.09967805  0.57448090  0.59564850  1.0
  H  H7  1  1.57448090  0.09967805  0.90435150  1.0
  H  H8  1  0.76444982  -0.38090510  0.92306378  1.0
  H  H9  1  0.61909490  -0.23555018  0.57693622  1.0
  H  H10  1  1.23555018  0.38090510  0.07693622  1.0
  H  H11  1  1.38090510  0.23555018  0.42306378  1.0
  H  H12  1  0.75027304  -0.59332300  0.85343202  1.0
  H  H13  1  0.40667700  -0.24972696  0.64656798  1.0
  H  H14  1  1.24972696  0.59332300  0.14656798  1.0
  H  H15  1  1.59332300  0.24972696  0.35343202  1.0
  C  C16  1  0.80474388  -0.60143192  0.13932296  1.0
  C  C17  1  0.39856808  -0.19525612  0.36067704  1.0
  C  C18  1  1.19525612  0.60143192  0.86067704  1.0
  C  C19  1  1.60143192  0.19525612  0.63932296  1.0
  N  N20  1  0.82758681  -0.49246183  0.27376588  1.0
  N  N21  1  0.50753817  -0.17241319  0.22623412  1.0
  N  N22  1  1.17241319  0.49246183  0.72623412  1.0
  N  N23  1  1.49246183  0.17241319  0.77376588  1.0
  N  N24  1  0.75134319  -0.51128411  0.95496990  1.0
  N  N25  1  0.48871589  -0.24865681  0.54503010  1.0
  N  N26  1  1.24865681  0.51128411  0.04503010  1.0
  N  N27  1  1.51128411  0.24865681  0.45496990  1.0
  O  O28  1  0.83713402  -0.21660592  0.43921711  1.0
  O  O29  1  0.78339408  -0.16286598  0.06078289  1.0
  O  O30  1  1.16286598  0.21660592  0.56078289  1.0
  O  O31  1  1.21660592  0.16286598  0.93921711  1.0
  O  O32  1  0.83115450  -0.77605355  0.18998762  1.0
  O  O33  1  0.22394645  -0.16884550  0.31001238  1.0
  O  O34  1  1.16884550  0.77605355  0.81001238  1.0
  O  O35  1  1.77605355  0.16884550  0.68998762  1.0
