# generated using pymatgen
data_Ba2SnO4
_symmetry_space_group_name_H-M   'P 1'
_cell_length_a   7.32106886
_cell_length_b   7.32106886
_cell_length_c   7.32106886
_cell_angle_alpha   146.52184223
_cell_angle_beta   146.52184223
_cell_angle_gamma   48.07229838
_symmetry_Int_Tables_number   1
_chemical_formula_structural   Ba2SnO4
_chemical_formula_sum   'Ba2 Sn1 O4'
_cell_volume   118.90988122
_cell_formula_units_Z   1
loop_
 _symmetry_equiv_pos_site_id
 _symmetry_equiv_pos_as_xyz
  1  'x, y, z'
loop_
 _atom_site_type_symbol
 _atom_site_label
 _atom_site_symmetry_multiplicity
 _atom_site_fract_x
 _atom_site_fract_y
 _atom_site_fract_z
 _atom_site_occupancy
  Ba  Ba0  1  0.64558879  0.64558879  1.00000000  1.0
  Ba  Ba1  1  0.35441121  0.35441121  -0.00000000  1.0
  Sn  Sn2  1  0.00000000  0.00000000  0.00000000  1.0
  O  O3  1  0.84362639  0.84362639  1.00000000  1.0
  O  O4  1  0.15637361  0.15637361  -0.00000000  1.0
  O  O5  1  0.50000000  0.00000000  0.50000000  1.0
  O  O6  1  -0.00000000  0.50000000  0.50000000  1.0
