# generated using pymatgen
data_CS3(Br2N)2
_symmetry_space_group_name_H-M   'P 1'
_cell_length_a   8.29890250
_cell_length_b   12.15495538
_cell_length_c   11.16110367
_cell_angle_alpha   90.00000000
_cell_angle_beta   90.00000000
_cell_angle_gamma   90.00000000
_symmetry_Int_Tables_number   1
_chemical_formula_structural   CS3(Br2N)2
_chemical_formula_sum   'C4 S12 Br16 N8'
_cell_volume   1125.85166131
_cell_formula_units_Z   4
loop_
 _symmetry_equiv_pos_site_id
 _symmetry_equiv_pos_as_xyz
  1  'x, y, z'
loop_
 _atom_site_type_symbol
 _atom_site_label
 _atom_site_symmetry_multiplicity
 _atom_site_fract_x
 _atom_site_fract_y
 _atom_site_fract_z
 _atom_site_occupancy
  C  C0  1  0.06351245  0.49303947  0.94604972  1.0
  C  C1  1  0.93648755  0.50696053  0.44604972  1.0
  C  C2  1  0.43648755  -0.00696053  0.44604972  1.0
  C  C3  1  0.56351245  1.00696053  0.94604972  1.0
  S  S4  1  0.04276472  0.61674379  0.85985756  1.0
  S  S5  1  0.95723528  0.38325621  0.35985756  1.0
  S  S6  1  0.45723528  0.11674379  0.35985756  1.0
  S  S7  1  0.54276472  0.88325621  0.85985756  1.0
  S  S8  1  0.80965535  0.57288124  0.02063487  1.0
  S  S9  1  0.19034465  0.42711876  0.52063487  1.0
  S  S10  1  0.69034465  0.07288124  0.52063487  1.0
  S  S11  1  0.30965535  0.92711876  0.02063487  1.0
  S  S12  1  0.22560051  0.40677617  0.92605460  1.0
  S  S13  1  0.77439949  0.59322383  0.42605460  1.0
  S  S14  1  0.27439949  0.90677617  0.42605460  1.0
  S  S15  1  0.72560051  0.09322383  0.92605460  1.0
  Br  Br16  1  0.37570695  0.57769663  0.74314444  1.0
  Br  Br17  1  0.62429305  0.42230337  0.24314444  1.0
  Br  Br18  1  0.12429305  0.07769663  0.24314444  1.0
  Br  Br19  1  0.87570695  0.92230337  0.74314444  1.0
  Br  Br20  1  0.62012696  0.43097464  0.71894831  1.0
  Br  Br21  1  0.37987304  0.56902536  0.21894831  1.0
  Br  Br22  1  0.87987304  0.93097464  0.21894831  1.0
  Br  Br23  1  0.12012696  0.06902536  0.71894831  1.0
  Br  Br24  1  0.84635738  0.29924280  0.69629312  1.0
  Br  Br25  1  0.15364262  0.70075720  0.19629312  1.0
  Br  Br26  1  0.65364262  0.79924280  0.19629312  1.0
  Br  Br27  1  0.34635738  0.20075720  0.69629312  1.0
  Br  Br28  1  0.16835130  0.27005527  0.05519800  1.0
  Br  Br29  1  0.83164870  0.72994473  0.55519800  1.0
  Br  Br30  1  0.33164870  0.77005527  0.55519800  1.0
  Br  Br31  1  0.66835130  0.22994473  0.05519800  1.0
  N  N32  1  0.87341070  0.65511912  0.92027125  1.0
  N  N33  1  0.12658930  0.34488088  0.42027125  1.0
  N  N34  1  0.62658930  0.15511912  0.42027125  1.0
  N  N35  1  0.37341070  0.84488088  0.92027125  1.0
  N  N36  1  0.94364819  0.47673008  0.02214813  1.0
  N  N37  1  0.05635181  0.52326992  0.52214813  1.0
  N  N38  1  0.55635181  0.97673008  0.52214813  1.0
  N  N39  1  0.44364819  0.02326992  0.02214813  1.0
