# generated using pymatgen
data_LiSi2B
_symmetry_space_group_name_H-M   'P 1'
_cell_length_a   6.83487667
_cell_length_b   6.83487667
_cell_length_c   8.85092248
_cell_angle_alpha   90.00000000
_cell_angle_beta   90.00000000
_cell_angle_gamma   90.00000000
_symmetry_Int_Tables_number   1
_chemical_formula_structural   LiSi2B
_chemical_formula_sum   'Li8 Si16 B8'
_cell_volume   413.47561482
_cell_formula_units_Z   8
loop_
 _symmetry_equiv_pos_site_id
 _symmetry_equiv_pos_as_xyz
  1  'x, y, z'
loop_
 _atom_site_type_symbol
 _atom_site_label
 _atom_site_symmetry_multiplicity
 _atom_site_fract_x
 _atom_site_fract_y
 _atom_site_fract_z
 _atom_site_occupancy
  Li  Li0  1  0.25383229  0.50000000  0.17349533  1.0
  Li  Li1  1  0.74616771  0.50000000  0.17349533  1.0
  Li  Li2  1  0.00000000  0.75383229  0.67349533  1.0
  Li  Li3  1  0.00000000  0.24616771  0.67349533  1.0
  Li  Li4  1  0.24616771  0.00000000  0.32650467  1.0
  Li  Li5  1  0.75383229  0.00000000  0.32650467  1.0
  Li  Li6  1  0.50000000  0.74616771  0.82650467  1.0
  Li  Li7  1  0.50000000  0.25383229  0.82650467  1.0
  Si  Si8  1  0.81917447  0.50000000  0.88642262  1.0
  Si  Si9  1  0.18082553  0.50000000  0.88642262  1.0
  Si  Si10  1  0.00000000  0.31917447  0.38642262  1.0
  Si  Si11  1  0.00000000  0.68082553  0.38642262  1.0
  Si  Si12  1  0.68082553  0.00000000  0.61357738  1.0
  Si  Si13  1  0.31917447  0.00000000  0.61357738  1.0
  Si  Si14  1  0.50000000  0.18082553  0.11357738  1.0
  Si  Si15  1  0.50000000  0.81917447  0.11357738  1.0
  Si  Si16  1  0.31626888  0.50000000  0.62933756  1.0
  Si  Si17  1  0.68373112  0.50000000  0.62933756  1.0
  Si  Si18  1  0.00000000  0.81626888  0.12933756  1.0
  Si  Si19  1  0.00000000  0.18373112  0.12933756  1.0
  Si  Si20  1  0.18373112  0.00000000  0.87066244  1.0
  Si  Si21  1  0.81626888  0.00000000  0.87066244  1.0
  Si  Si22  1  0.50000000  0.68373112  0.37066244  1.0
  Si  Si23  1  0.50000000  0.31626888  0.37066244  1.0
  B  B24  1  0.24202147  0.75797853  0.00000000  1.0
  B  B25  1  0.75797853  0.75797853  0.00000000  1.0
  B  B26  1  0.24202147  0.24202147  0.00000000  1.0
  B  B27  1  0.75797853  0.24202147  0.00000000  1.0
  B  B28  1  0.25797853  0.74202147  0.50000000  1.0
  B  B29  1  0.74202147  0.74202147  0.50000000  1.0
  B  B30  1  0.25797853  0.25797853  0.50000000  1.0
  B  B31  1  0.74202147  0.25797853  0.50000000  1.0
