# generated using pymatgen
data_NiS
_symmetry_space_group_name_H-M   'P 1'
_cell_length_a   5.62502402
_cell_length_b   5.62502402
_cell_length_c   5.62502402
_cell_angle_alpha   116.61031916
_cell_angle_beta   116.61031916
_cell_angle_gamma   116.61031916
_symmetry_Int_Tables_number   1
_chemical_formula_structural   NiS
_chemical_formula_sum   'Ni3 S3'
_cell_volume   83.17019663
_cell_formula_units_Z   3
loop_
 _symmetry_equiv_pos_site_id
 _symmetry_equiv_pos_as_xyz
  1  'x, y, z'
loop_
 _atom_site_type_symbol
 _atom_site_label
 _atom_site_symmetry_multiplicity
 _atom_site_fract_x
 _atom_site_fract_y
 _atom_site_fract_z
 _atom_site_occupancy
  Ni  Ni0  1  0.27193950  0.27193950  0.00789398  1.0
  Ni  Ni1  1  0.27193950  1.00789398  -0.72806050  1.0
  Ni  Ni2  1  1.00789398  0.27193950  0.27193950  1.0
  S  S3  1  0.54817828  0.54817828  -0.11552952  1.0
  S  S4  1  0.54817828  0.88447048  -0.45182172  1.0
  S  S5  1  0.88447048  0.54817828  0.54817828  1.0
