# generated using pymatgen
data_TiCdO3
_symmetry_space_group_name_H-M   'P 1'
_cell_length_a   5.87911743
_cell_length_b   5.87911743
_cell_length_c   5.87911743
_cell_angle_alpha   53.49546125
_cell_angle_beta   53.49546125
_cell_angle_gamma   53.49546125
_symmetry_Int_Tables_number   1
_chemical_formula_structural   TiCdO3
_chemical_formula_sum   'Ti2 Cd2 O6'
_cell_volume   121.81834675
_cell_formula_units_Z   2
loop_
 _symmetry_equiv_pos_site_id
 _symmetry_equiv_pos_as_xyz
  1  'x, y, z'
loop_
 _atom_site_type_symbol
 _atom_site_label
 _atom_site_symmetry_multiplicity
 _atom_site_fract_x
 _atom_site_fract_y
 _atom_site_fract_z
 _atom_site_occupancy
  Ti  Ti0  1  0.35095632  0.35095632  -0.64904368  1.0
  Ti  Ti1  1  0.64904368  0.64904368  -0.35095632  1.0
  Cd  Cd2  1  0.13655453  0.13655453  0.13655453  1.0
  Cd  Cd3  1  0.86344547  -0.13655453  -0.13655453  1.0
  O  O4  1  0.46287874  0.06319322  -0.30541378  1.0
  O  O5  1  1.30541378  -0.46287874  -0.06319322  1.0
  O  O6  1  0.93680678  0.30541378  -0.46287874  1.0
  O  O7  1  0.53712126  -0.06319322  0.30541378  1.0
  O  O8  1  0.69458622  -0.53712126  0.06319322  1.0
  O  O9  1  1.06319322  -0.30541378  -0.53712126  1.0
