# generated using pymatgen
data_Ca10Si3Pt7
_symmetry_space_group_name_H-M   'P 1'
_cell_length_a   8.80741036
_cell_length_b   8.80741036
_cell_length_c   13.91550047
_cell_angle_alpha   90.00000000
_cell_angle_beta   90.00000000
_cell_angle_gamma   120.00000000
_symmetry_Int_Tables_number   1
_chemical_formula_structural   Ca10Si3Pt7
_chemical_formula_sum   'Ca20 Si6 Pt14'
_cell_volume   934.81554560
_cell_formula_units_Z   2
loop_
 _symmetry_equiv_pos_site_id
 _symmetry_equiv_pos_as_xyz
  1  'x, y, z'
loop_
 _atom_site_type_symbol
 _atom_site_label
 _atom_site_symmetry_multiplicity
 _atom_site_fract_x
 _atom_site_fract_y
 _atom_site_fract_z
 _atom_site_occupancy
  Ca  Ca0  1  0.74036077  0.74036077  0.89277650  1.0
  Ca  Ca1  1  0.74036077  0.74036077  0.60722350  1.0
  Ca  Ca2  1  0.74036077  0.00000000  0.39277650  1.0
  Ca  Ca3  1  0.74036077  0.00000000  0.10722350  1.0
  Ca  Ca4  1  0.00000000  0.74036077  0.39277650  1.0
  Ca  Ca5  1  0.00000000  0.74036077  0.10722350  1.0
  Ca  Ca6  1  0.00000000  0.25963923  0.89277650  1.0
  Ca  Ca7  1  0.00000000  0.25963923  0.60722350  1.0
  Ca  Ca8  1  0.25963923  0.25963923  0.39277650  1.0
  Ca  Ca9  1  0.25963923  0.25963923  0.10722350  1.0
  Ca  Ca10  1  0.25963923  -0.00000000  0.89277650  1.0
  Ca  Ca11  1  0.25963923  -0.00000000  0.60722350  1.0
  Ca  Ca12  1  0.33333333  0.66666667  0.50000000  1.0
  Ca  Ca13  1  0.33333333  0.66666667  -0.00000000  1.0
  Ca  Ca14  1  0.66666667  0.33333333  0.50000000  1.0
  Ca  Ca15  1  0.66666667  0.33333333  -0.00000000  1.0
  Ca  Ca16  1  0.33333333  0.66666667  0.25000000  1.0
  Ca  Ca17  1  0.33333333  0.66666667  0.75000000  1.0
  Ca  Ca18  1  0.66666667  0.33333333  0.25000000  1.0
  Ca  Ca19  1  0.66666667  0.33333333  0.75000000  1.0
  Si  Si20  1  0.71547545  0.71547545  0.25000000  1.0
  Si  Si21  1  0.71547545  0.00000000  0.75000000  1.0
  Si  Si22  1  -0.00000000  0.71547545  0.75000000  1.0
  Si  Si23  1  0.00000000  0.28452455  0.25000000  1.0
  Si  Si24  1  0.28452455  0.28452455  0.75000000  1.0
  Si  Si25  1  0.28452455  -0.00000000  0.25000000  1.0
  Pt  Pt26  1  0.59285400  0.59285400  0.40229899  1.0
  Pt  Pt27  1  0.59285400  0.59285400  0.09770101  1.0
  Pt  Pt28  1  0.59285400  0.00000000  0.90229899  1.0
  Pt  Pt29  1  0.59285400  0.00000000  0.59770101  1.0
  Pt  Pt30  1  -0.00000000  0.59285400  0.90229899  1.0
  Pt  Pt31  1  -0.00000000  0.59285400  0.59770101  1.0
  Pt  Pt32  1  0.00000000  0.40714600  0.40229899  1.0
  Pt  Pt33  1  0.00000000  0.40714600  0.09770101  1.0
  Pt  Pt34  1  0.40714600  0.40714600  0.90229899  1.0
  Pt  Pt35  1  0.40714600  0.40714600  0.59770101  1.0
  Pt  Pt36  1  0.40714600  -0.00000000  0.40229899  1.0
  Pt  Pt37  1  0.40714600  -0.00000000  0.09770101  1.0
  Pt  Pt38  1  -0.00000000  -0.00000000  0.25000000  1.0
  Pt  Pt39  1  0.00000000  0.00000000  0.75000000  1.0
