# generated using pymatgen
data_V2P4S13
_symmetry_space_group_name_H-M   'P 1'
_cell_length_a   12.24185692
_cell_length_b   9.92733293
_cell_length_c   9.68506002
_cell_angle_alpha   70.28684456
_cell_angle_beta   75.42588275
_cell_angle_gamma   72.85864544
_symmetry_Int_Tables_number   1
_chemical_formula_structural   V2P4S13
_chemical_formula_sum   'V4 P8 S26'
_cell_volume   1043.54816331
_cell_formula_units_Z   2
loop_
 _symmetry_equiv_pos_site_id
 _symmetry_equiv_pos_as_xyz
  1  'x, y, z'
loop_
 _atom_site_type_symbol
 _atom_site_label
 _atom_site_symmetry_multiplicity
 _atom_site_fract_x
 _atom_site_fract_y
 _atom_site_fract_z
 _atom_site_occupancy
  V  V0  1  -0.89676471  -0.49406395  -0.89161480  1.0
  V  V1  1  -0.10323529  -0.50593605  -0.10838520  1.0
  V  V2  1  -0.39140745  -0.99286381  -0.39956075  1.0
  V  V3  1  -0.60859255  -0.00713619  -0.60043925  1.0
  P  P4  1  -0.97461303  -0.76535997  -0.87367769  1.0
  P  P5  1  -0.02538697  -0.23464003  -0.12632231  1.0
  P  P6  1  -0.75409322  -0.06835431  -0.76596863  1.0
  P  P7  1  -0.24590678  -0.93164569  -0.23403137  1.0
  P  P8  1  -0.73517751  -0.42996630  -0.75028352  1.0
  P  P9  1  -0.26482249  -0.57003370  -0.24971648  1.0
  P  P10  1  -0.60490572  -0.74605161  -0.50431304  1.0
  P  P11  1  -0.39509428  -0.25394839  -0.49568696  1.0
  S  S12  1  -0.66832535  -0.23787723  -0.87465278  1.0
  S  S13  1  -0.33167465  -0.76212277  -0.12534722  1.0
  S  S14  1  -0.69051993  -0.55137305  -0.89618974  1.0
  S  S15  1  -0.30948007  -0.44862695  -0.10381026  1.0
  S  S16  1  -0.13931049  -0.72836762  -0.90144456  1.0
  S  S17  1  -0.86068951  -0.27163238  -0.09855544  1.0
  S  S18  1  -0.64895759  -0.92486770  -0.85005676  1.0
  S  S19  1  -0.35104241  -0.07513230  -0.14994324  1.0
  S  S20  1  -0.91490132  -0.99571519  -0.84957030  1.0
  S  S21  1  -0.08509868  -0.00428481  -0.15042970  1.0
  S  S22  1  -0.95287923  -0.69753973  -0.70714981  1.0
  S  S23  1  -0.04712077  -0.30246027  -0.29285019  1.0
  S  S24  1  -0.90725272  -0.39253844  -0.68494328  1.0
  S  S25  1  -0.09274728  -0.60746156  -0.31505672  1.0
  S  S26  1  -0.47128933  -0.84865853  -0.64151248  1.0
  S  S27  1  -0.52871067  -0.15134147  -0.35848752  1.0
  S  S28  1  -0.63579151  -0.51169986  -0.57285550  1.0
  S  S29  1  -0.36420849  -0.48830014  -0.42714450  1.0
  S  S30  1  -0.74180602  -0.83004298  -0.49267919  1.0
  S  S31  1  -0.25819398  -0.16995702  -0.50732081  1.0
  S  S32  1  -0.23042499  -0.86687876  -0.45591582  1.0
  S  S33  1  -0.76957501  -0.13312124  -0.54408418  1.0
  S  S34  1  -0.54684284  -0.79733230  -0.31221827  1.0
  S  S35  1  -0.45315716  -0.20266770  -0.68778173  1.0
  S  S36  1  -0.89512172  -0.63287895  -0.06528951  1.0
  S  S37  1  -0.10487828  -0.36712105  -0.93471049  1.0
