# generated using pymatgen
data_Li3In2
_symmetry_space_group_name_H-M   'P 1'
_cell_length_a   5.61304756
_cell_length_b   5.61304756
_cell_length_c   5.61304756
_cell_angle_alpha   50.26725921
_cell_angle_beta   50.26725921
_cell_angle_gamma   50.26725921
_symmetry_Int_Tables_number   1
_chemical_formula_structural   Li3In2
_chemical_formula_sum   'Li3 In2'
_cell_volume   96.30973974
_cell_formula_units_Z   1
loop_
 _symmetry_equiv_pos_site_id
 _symmetry_equiv_pos_as_xyz
  1  'x, y, z'
loop_
 _atom_site_type_symbol
 _atom_site_label
 _atom_site_symmetry_multiplicity
 _atom_site_fract_x
 _atom_site_fract_y
 _atom_site_fract_z
 _atom_site_occupancy
  Li  Li0  1  1.59572098  0.59572098  0.59572098  1.0
  Li  Li1  1  1.40427902  0.40427902  0.40427902  1.0
  Li  Li2  1  0.00000000  0.00000000  0.00000000  1.0
  In  In3  1  0.79163071  0.79163071  0.79163071  1.0
  In  In4  1  1.20836929  1.20836929  0.20836929  1.0
