# generated using pymatgen
data_Co2BrO3
_symmetry_space_group_name_H-M   'P 1'
_cell_length_a   5.67852533
_cell_length_b   5.67852533
_cell_length_c   5.67852533
_cell_angle_alpha   66.53153215
_cell_angle_beta   66.53153215
_cell_angle_gamma   66.53153215
_symmetry_Int_Tables_number   1
_chemical_formula_structural   Co2BrO3
_chemical_formula_sum   'Co4 Br2 O6'
_cell_volume   147.68593644
_cell_formula_units_Z   2
loop_
 _symmetry_equiv_pos_site_id
 _symmetry_equiv_pos_as_xyz
  1  'x, y, z'
loop_
 _atom_site_type_symbol
 _atom_site_label
 _atom_site_symmetry_multiplicity
 _atom_site_fract_x
 _atom_site_fract_y
 _atom_site_fract_z
 _atom_site_occupancy
  Co  Co0  1  1.00000000  1.50000000  0.00000000  1.0
  Co  Co1  1  1.00000000  -0.00000000  -0.50000000  1.0
  Co  Co2  1  0.50000000  -0.00000000  0.00000000  1.0
  Co  Co3  1  0.00000000  0.00000000  -0.00000000  1.0
  Br  Br4  1  0.71027902  0.71027902  -0.28972098  1.0
  Br  Br5  1  1.28972098  1.28972098  0.28972098  1.0
  O  O6  1  0.22684934  0.22684934  -0.16673311  1.0
  O  O7  1  0.22684934  0.83326689  -0.77315066  1.0
  O  O8  1  1.16673311  -0.22684934  -0.22684934  1.0
  O  O9  1  0.77315066  0.16673311  -0.22684934  1.0
  O  O10  1  0.77315066  -0.22684934  0.16673311  1.0
  O  O11  1  0.83326689  0.22684934  -0.77315066  1.0
