# generated using pymatgen
data_Al2Si2O9
_symmetry_space_group_name_H-M   'P 1'
_cell_length_a   5.21175458
_cell_length_b   5.21175458
_cell_length_c   16.29033043
_cell_angle_alpha   82.77460722
_cell_angle_beta   97.22539278
_cell_angle_gamma   120.18733567
_symmetry_Int_Tables_number   1
_chemical_formula_structural   Al2Si2O9
_chemical_formula_sum   'Al4 Si4 O18'
_cell_volume   378.42978563
_cell_formula_units_Z   2
loop_
 _symmetry_equiv_pos_site_id
 _symmetry_equiv_pos_as_xyz
  1  'x, y, z'
loop_
 _atom_site_type_symbol
 _atom_site_label
 _atom_site_symmetry_multiplicity
 _atom_site_fract_x
 _atom_site_fract_y
 _atom_site_fract_z
 _atom_site_occupancy
  O  O0  1  0.70705579  -0.18097280  0.35076797  1.0
  O  O1  1  1.18097280  0.29294421  0.85076797  1.0
  O  O2  1  0.43847544  -0.07850085  0.21135492  1.0
  O  O3  1  1.07850085  0.56152456  0.71135492  1.0
  O  O4  1  1.32661460  0.05743904  0.35074436  1.0
  O  O5  1  0.94256096  -0.32661460  0.85074436  1.0
  O  O6  1  1.54900632  0.47207717  0.22263131  1.0
  O  O7  1  0.52792283  -0.54900632  0.72263131  1.0
  O  O8  1  0.99189055  -0.97202650  0.21115783  1.0
  O  O9  1  1.97202650  0.00810945  0.71115783  1.0
  O  O10  1  1.37421578  0.40559447  0.47718011  1.0
  O  O11  1  0.59440554  -0.37421578  -0.02281989  1.0
  O  O12  1  1.14410634  0.78685993  0.48672450  1.0
  O  O13  1  0.21314007  -0.14410634  0.98672450  1.0
  O  O14  1  1.09697906  0.43078182  0.37752483  1.0
  O  O15  1  0.56921818  -0.09697906  0.87752483  1.0
  O  O16  1  1.76051219  0.01852386  0.48674126  1.0
  O  O17  1  0.98147614  -0.76051219  0.98674126  1.0
  Al  Al18  1  0.41374225  -0.21661396  0.42057893  1.0
  Al  Al19  1  1.21661396  0.58625775  0.92057893  1.0
  Al  Al20  1  1.05111955  0.05674180  0.42060479  1.0
  Al  Al21  1  0.94325820  -0.05111955  0.92060479  1.0
  Si  Si22  1  0.67071784  -0.19340531  0.24850811  1.0
  Si  Si23  1  1.19340531  0.32928216  0.74850811  1.0
  Si  Si24  1  1.32973939  0.12347644  0.24848108  1.0
  Si  Si25  1  0.87652356  -0.32973939  0.74848108  1.0
