# generated using pymatgen
data_Y2B5Pd14
_symmetry_space_group_name_H-M   'P 1'
_cell_length_a   10.38201975
_cell_length_b   10.38201975
_cell_length_c   10.38201975
_cell_angle_alpha   133.03016599
_cell_angle_beta   133.03016599
_cell_angle_gamma   68.60677794
_symmetry_Int_Tables_number   1
_chemical_formula_structural   Y2B5Pd14
_chemical_formula_sum   'Y4 B10 Pd28'
_cell_volume   587.20946966
_cell_formula_units_Z   2
loop_
 _symmetry_equiv_pos_site_id
 _symmetry_equiv_pos_as_xyz
  1  'x, y, z'
loop_
 _atom_site_type_symbol
 _atom_site_label
 _atom_site_symmetry_multiplicity
 _atom_site_fract_x
 _atom_site_fract_y
 _atom_site_fract_z
 _atom_site_occupancy
  Y  Y0  1  1.28414944  1.28414944  1.00000000  1.0
  Y  Y1  1  0.03414944  0.53414944  0.50000000  1.0
  Y  Y2  1  1.46585056  0.96585056  0.50000000  1.0
  Y  Y3  1  0.71585056  0.71585056  -0.00000000  1.0
  B  B4  1  1.58599928  1.12500000  0.96099928  1.0
  B  B5  1  1.16400072  1.12500000  0.53900072  1.0
  B  B6  1  0.87500000  0.83599928  0.46099928  1.0
  B  B7  1  1.37500000  0.83599928  0.96099928  1.0
  B  B8  1  1.58599928  1.62500000  1.46099928  1.0
  B  B9  1  1.16400072  1.62500000  1.03900072  1.0
  B  B10  1  0.87500000  1.41400072  1.03900072  1.0
  B  B11  1  1.37500000  1.41400072  1.53900072  1.0
  B  B12  1  -0.00000000  -0.00000000  -0.00000000  1.0
  B  B13  1  0.75000000  1.25000000  0.50000000  1.0
  Pd  Pd14  1  1.30750455  1.63853590  1.33103135  1.0
  Pd  Pd15  1  0.38853590  0.55750455  0.83103135  1.0
  Pd  Pd16  1  0.72647320  0.55750455  1.16896865  1.0
  Pd  Pd17  1  1.30750455  0.97647320  0.66896865  1.0
  Pd  Pd18  1  1.44249545  1.61146410  1.16896865  1.0
  Pd  Pd19  1  1.36146410  0.69249545  0.66896865  1.0
  Pd  Pd20  1  1.02352680  0.69249545  0.33103135  1.0
  Pd  Pd21  1  1.44249545  1.27352680  0.83103135  1.0
  Pd  Pd22  1  1.14446445  0.93056710  0.78610265  1.0
  Pd  Pd23  1  1.68056710  1.39446445  1.28610265  1.0
  Pd  Pd24  1  1.10836181  1.39446445  0.71389735  1.0
  Pd  Pd25  1  1.14446445  1.35836181  1.21389735  1.0
  Pd  Pd26  1  0.60553555  0.31943290  0.71389735  1.0
  Pd  Pd27  1  1.06943290  0.85553555  0.21389735  1.0
  Pd  Pd28  1  1.64163819  0.85553555  0.78610265  1.0
  Pd  Pd29  1  0.60553555  0.89163819  1.28610265  1.0
  Pd  Pd30  1  0.81268312  0.81268312  1.62536624  1.0
  Pd  Pd31  1  0.18731688  0.81268312  1.00000000  1.0
  Pd  Pd32  1  1.56268312  1.06268312  1.12536624  1.0
  Pd  Pd33  1  0.93731688  1.06268312  0.50000000  1.0
  Pd  Pd34  1  0.81268312  0.18731688  1.00000000  1.0
  Pd  Pd35  1  0.18731688  0.18731688  0.37463376  1.0
  Pd  Pd36  1  1.56268312  1.43731688  1.50000000  1.0
  Pd  Pd37  1  0.93731688  1.43731688  0.87463376  1.0
  Pd  Pd38  1  0.87500000  1.62500000  0.75000000  1.0
  Pd  Pd39  1  1.37500000  1.12500000  1.25000000  1.0
  Pd  Pd40  1  0.87500000  1.12500000  0.75000000  1.0
  Pd  Pd41  1  0.87500000  1.12500000  0.25000000  1.0
