# generated using pymatgen
data_Ba3Sc4O9
_symmetry_space_group_name_H-M   'P 1'
_cell_length_a   8.68535657
_cell_length_b   8.68535657
_cell_length_c   8.68535657
_cell_angle_alpha   39.26184236
_cell_angle_beta   39.26184236
_cell_angle_gamma   39.26184236
_symmetry_Int_Tables_number   1
_chemical_formula_structural   Ba3Sc4O9
_chemical_formula_sum   'Ba3 Sc4 O9'
_cell_volume   236.10884096
_cell_formula_units_Z   1
loop_
 _symmetry_equiv_pos_site_id
 _symmetry_equiv_pos_as_xyz
  1  'x, y, z'
loop_
 _atom_site_type_symbol
 _atom_site_label
 _atom_site_symmetry_multiplicity
 _atom_site_fract_x
 _atom_site_fract_y
 _atom_site_fract_z
 _atom_site_occupancy
  Ba  Ba0  1  1.57933555  0.57933555  0.57933555  1.0
  Ba  Ba1  1  1.42066445  0.42066445  0.42066445  1.0
  Ba  Ba2  1  0.00000000  0.00000000  0.00000000  1.0
  Sc  Sc3  1  0.84270422  0.84270422  0.84270422  1.0
  Sc  Sc4  1  1.15729578  1.15729578  0.15729578  1.0
  Sc  Sc5  1  0.71804760  0.71804760  0.71804760  1.0
  Sc  Sc6  1  1.28195240  1.28195240  0.28195240  1.0
  O  O7  1  1.06163617  1.06163617  0.54604304  1.0
  O  O8  1  1.06163617  1.54604304  0.06163617  1.0
  O  O9  1  1.45395696  0.93836383  -0.06163617  1.0
  O  O10  1  0.93836383  1.45395696  -0.06163617  1.0
  O  O11  1  0.93836383  0.93836383  0.45395696  1.0
  O  O12  1  1.54604304  1.06163617  0.06163617  1.0
  O  O13  1  0.50000000  -0.00000000  -0.50000000  1.0
  O  O14  1  0.50000000  -0.50000000  0.00000000  1.0
  O  O15  1  -0.00000000  0.50000000  -0.50000000  1.0
