# generated using pymatgen
data_Ca2NiWO6
_symmetry_space_group_name_H-M   'P 1'
_cell_length_a   5.42227761
_cell_length_b   5.59792293
_cell_length_c   9.40169366
_cell_angle_alpha   90.00000000
_cell_angle_beta   124.80746766
_cell_angle_gamma   90.00000000
_symmetry_Int_Tables_number   1
_chemical_formula_structural   Ca2NiWO6
_chemical_formula_sum   'Ca4 Ni2 W2 O12'
_cell_volume   234.31359794
_cell_formula_units_Z   2
loop_
 _symmetry_equiv_pos_site_id
 _symmetry_equiv_pos_as_xyz
  1  'x, y, z'
loop_
 _atom_site_type_symbol
 _atom_site_label
 _atom_site_symmetry_multiplicity
 _atom_site_fract_x
 _atom_site_fract_y
 _atom_site_fract_z
 _atom_site_occupancy
  Ca  Ca0  1  0.73434553  0.05431232  0.24728778  1.0
  Ca  Ca1  1  0.73434553  0.44568768  0.74728778  1.0
  Ca  Ca2  1  0.26565447  0.55431232  0.25271222  1.0
  Ca  Ca3  1  0.26565447  0.94568768  0.75271222  1.0
  Ni  Ni4  1  0.50000000  0.50000000  -0.00000000  1.0
  Ni  Ni5  1  0.50000000  0.00000000  0.50000000  1.0
  W  W6  1  0.00000000  0.50000000  0.50000000  1.0
  W  W7  1  0.00000000  0.00000000  0.00000000  1.0
  O  O8  1  0.84938282  0.47159739  0.25783850  1.0
  O  O9  1  0.84938282  0.02840261  0.75783850  1.0
  O  O10  1  0.15061718  0.97159739  0.24216150  1.0
  O  O11  1  0.15061718  0.52840261  0.74216150  1.0
  O  O12  1  0.75899409  0.78505911  0.44967545  1.0
  O  O13  1  0.75899409  0.71494089  0.94967545  1.0
  O  O14  1  0.24100591  0.28505911  0.05032455  1.0
  O  O15  1  0.24100591  0.21494089  0.55032455  1.0
  O  O16  1  0.66678454  0.30560381  0.45587490  1.0
  O  O17  1  0.66678454  0.19439619  0.95587490  1.0
  O  O18  1  0.33321546  0.80560381  0.04412510  1.0
  O  O19  1  0.33321546  0.69439619  0.54412510  1.0
