# generated using pymatgen
data_P3Pb5BrO12
_symmetry_space_group_name_H-M   'P 1'
_cell_length_a   10.32118104
_cell_length_b   10.32118104
_cell_length_c   7.38997033
_cell_angle_alpha   90.00000000
_cell_angle_beta   90.00000000
_cell_angle_gamma   120.00000000
_symmetry_Int_Tables_number   1
_chemical_formula_structural   P3Pb5BrO12
_chemical_formula_sum   'P6 Pb10 Br2 O24'
_cell_volume   681.76094394
_cell_formula_units_Z   2
loop_
 _symmetry_equiv_pos_site_id
 _symmetry_equiv_pos_as_xyz
  1  'x, y, z'
loop_
 _atom_site_type_symbol
 _atom_site_label
 _atom_site_symmetry_multiplicity
 _atom_site_fract_x
 _atom_site_fract_y
 _atom_site_fract_z
 _atom_site_occupancy
  P  P0  1  0.37779838  0.96371398  0.25000000  1.0
  P  P1  1  0.96371398  0.58591560  0.75000000  1.0
  P  P2  1  0.58591560  0.62220162  0.25000000  1.0
  P  P3  1  0.03628602  0.41408440  0.25000000  1.0
  P  P4  1  0.62220162  0.03628602  0.75000000  1.0
  P  P5  1  0.41408440  0.37779838  0.75000000  1.0
  Pb  Pb6  1  0.33333333  0.66666667  0.50601088  1.0
  Pb  Pb7  1  0.33333333  0.66666667  -0.00601088  1.0
  Pb  Pb8  1  0.66666667  0.33333333  0.00601088  1.0
  Pb  Pb9  1  0.66666667  0.33333333  0.49398912  1.0
  Pb  Pb10  1  0.02042227  0.75273831  0.25000000  1.0
  Pb  Pb11  1  0.75273831  0.73231605  0.75000000  1.0
  Pb  Pb12  1  0.73231605  0.97957773  0.25000000  1.0
  Pb  Pb13  1  0.24726169  0.26768395  0.25000000  1.0
  Pb  Pb14  1  0.97957773  0.24726169  0.75000000  1.0
  Pb  Pb15  1  0.26768395  0.02042227  0.75000000  1.0
  Br  Br16  1  0.00000000  0.00000000  0.50000000  1.0
  Br  Br17  1  0.00000000  0.00000000  0.00000000  1.0
  O  O18  1  0.27363116  0.90990130  0.42056842  1.0
  O  O19  1  0.27363116  0.90990130  0.07943158  1.0
  O  O20  1  0.90990130  0.63627015  0.92056842  1.0
  O  O21  1  0.90990130  0.63627015  0.57943158  1.0
  O  O22  1  0.63627015  0.72636884  0.42056842  1.0
  O  O23  1  0.63627015  0.72636884  0.07943158  1.0
  O  O24  1  0.09009870  0.36372985  0.42056842  1.0
  O  O25  1  0.09009870  0.36372985  0.07943158  1.0
  O  O26  1  0.72636884  0.09009870  0.92056842  1.0
  O  O27  1  0.72636884  0.09009870  0.57943158  1.0
  O  O28  1  0.36372985  0.27363116  0.92056842  1.0
  O  O29  1  0.36372985  0.27363116  0.57943158  1.0
  O  O30  1  0.46512845  0.87300414  0.25000000  1.0
  O  O31  1  0.87300414  0.40787569  0.75000000  1.0
  O  O32  1  0.40787569  0.53487155  0.25000000  1.0
  O  O33  1  0.12699586  0.59212431  0.25000000  1.0
  O  O34  1  0.53487155  0.12699586  0.75000000  1.0
  O  O35  1  0.59212431  0.46512845  0.75000000  1.0
  O  O36  1  0.64464735  0.51037996  0.25000000  1.0
  O  O37  1  0.51037996  0.86573261  0.75000000  1.0
  O  O38  1  0.86573261  0.35535265  0.25000000  1.0
  O  O39  1  0.48962004  0.13426739  0.25000000  1.0
  O  O40  1  0.35535265  0.48962004  0.75000000  1.0
  O  O41  1  0.13426739  0.64464735  0.75000000  1.0
