# generated using pymatgen
data_NaLaP2O7
_symmetry_space_group_name_H-M   'P 1'
_cell_length_a   8.79835395
_cell_length_b   5.37147118
_cell_length_c   12.89174574
_cell_angle_alpha   90.00000000
_cell_angle_beta   90.00000000
_cell_angle_gamma   90.00000000
_symmetry_Int_Tables_number   1
_chemical_formula_structural   NaLaP2O7
_chemical_formula_sum   'Na4 La4 P8 O28'
_cell_volume   609.26525293
_cell_formula_units_Z   4
loop_
 _symmetry_equiv_pos_site_id
 _symmetry_equiv_pos_as_xyz
  1  'x, y, z'
loop_
 _atom_site_type_symbol
 _atom_site_label
 _atom_site_symmetry_multiplicity
 _atom_site_fract_x
 _atom_site_fract_y
 _atom_site_fract_z
 _atom_site_occupancy
  Na  Na0  1  0.87667564  0.75000000  0.42295560  1.0
  Na  Na1  1  0.37667564  0.75000000  0.07704440  1.0
  Na  Na2  1  0.12332436  0.25000000  0.57704440  1.0
  Na  Na3  1  0.62332436  0.25000000  0.92295560  1.0
  La  La4  1  0.81403601  0.75000000  0.73632786  1.0
  La  La5  1  0.31403601  0.75000000  0.76367214  1.0
  La  La6  1  0.18596399  0.25000000  0.26367214  1.0
  La  La7  1  0.68596399  0.25000000  0.23632786  1.0
  P  P8  1  0.98553694  0.75000000  0.18396281  1.0
  P  P9  1  0.48553694  0.75000000  0.31603719  1.0
  P  P10  1  0.01446306  0.25000000  0.81603719  1.0
  P  P11  1  0.51446306  0.25000000  0.68396281  1.0
  P  P12  1  0.73839134  0.75000000  0.03458495  1.0
  P  P13  1  0.23839134  0.75000000  0.46541505  1.0
  P  P14  1  0.26160866  0.25000000  0.96541505  1.0
  P  P15  1  0.76160866  0.25000000  0.53458495  1.0
  O  O16  1  0.93023864  0.99214301  0.23713643  1.0
  O  O17  1  0.93023864  0.50785699  0.23713643  1.0
  O  O18  1  0.43023864  0.99214301  0.26286357  1.0
  O  O19  1  0.43023864  0.50785699  0.26286357  1.0
  O  O20  1  0.06976136  0.49214301  0.76286357  1.0
  O  O21  1  0.06976136  0.00785699  0.76286357  1.0
  O  O22  1  0.56976136  0.49214301  0.73713643  1.0
  O  O23  1  0.56976136  0.00785699  0.73713643  1.0
  O  O24  1  0.66445663  0.98647086  0.07942391  1.0
  O  O25  1  0.66445663  0.51352914  0.07942391  1.0
  O  O26  1  0.16445663  0.98647086  0.42057609  1.0
  O  O27  1  0.16445663  0.51352914  0.42057609  1.0
  O  O28  1  0.33554337  0.48647086  0.92057609  1.0
  O  O29  1  0.33554337  0.01352914  0.92057609  1.0
  O  O30  1  0.83554337  0.48647086  0.57942391  1.0
  O  O31  1  0.83554337  0.01352914  0.57942391  1.0
  O  O32  1  0.91859711  0.75000000  0.06668442  1.0
  O  O33  1  0.41859711  0.75000000  0.43331558  1.0
  O  O34  1  0.08140289  0.25000000  0.93331558  1.0
  O  O35  1  0.58140289  0.25000000  0.56668442  1.0
  O  O36  1  0.65845327  0.75000000  0.32176494  1.0
  O  O37  1  0.15845327  0.75000000  0.17823506  1.0
  O  O38  1  0.34154673  0.25000000  0.67823506  1.0
  O  O39  1  0.84154673  0.25000000  0.82176494  1.0
  O  O40  1  0.23933236  0.75000000  0.58383507  1.0
  O  O41  1  0.73933236  0.75000000  0.91616493  1.0
  O  O42  1  0.76066764  0.25000000  0.41616493  1.0
  O  O43  1  0.26066764  0.25000000  0.08383507  1.0
