# generated using pymatgen
data_Pb2CCl2O3
_symmetry_space_group_name_H-M   'P 1'
_cell_length_a   8.93338668
_cell_length_b   8.93338668
_cell_length_c   7.95918489
_cell_angle_alpha   90.00000000
_cell_angle_beta   90.00000000
_cell_angle_gamma   90.00000000
_symmetry_Int_Tables_number   1
_chemical_formula_structural   Pb2CCl2O3
_chemical_formula_sum   'Pb8 C4 Cl8 O12'
_cell_volume   635.18591408
_cell_formula_units_Z   4
loop_
 _symmetry_equiv_pos_site_id
 _symmetry_equiv_pos_as_xyz
  1  'x, y, z'
loop_
 _atom_site_type_symbol
 _atom_site_label
 _atom_site_symmetry_multiplicity
 _atom_site_fract_x
 _atom_site_fract_y
 _atom_site_fract_z
 _atom_site_occupancy
  C  C0  1  0.30807446  0.19192554  -0.00000000  1.0
  C  C1  1  0.80807446  0.30807446  0.00000000  1.0
  C  C2  1  0.69192554  0.80807446  -0.00000000  1.0
  C  C3  1  0.19192554  0.69192554  0.00000000  1.0
  O  O4  1  0.33390824  0.65830103  -0.00000000  1.0
  O  O5  1  0.83390824  0.84169897  -0.00000000  1.0
  O  O6  1  0.34169897  0.33390824  -0.00000000  1.0
  O  O7  1  0.84169897  0.16609176  -0.00000000  1.0
  O  O8  1  0.66609176  0.34169897  -0.00000000  1.0
  O  O9  1  0.16609176  0.15830103  -0.00000000  1.0
  O  O10  1  0.65830103  0.66609176  -0.00000000  1.0
  O  O11  1  0.15830103  0.83390824  -0.00000000  1.0
  O  O12  1  0.40940861  0.09059139  -0.00000000  1.0
  O  O13  1  0.90940861  0.40940861  0.00000000  1.0
  O  O14  1  0.59059139  0.90940861  -0.00000000  1.0
  O  O15  1  0.09059139  0.59059139  0.00000000  1.0
  Cl  Cl16  1  0.35463270  0.14536730  0.50000000  1.0
  Cl  Cl17  1  0.85463270  0.35463270  0.50000000  1.0
  Cl  Cl18  1  0.64536730  0.85463270  0.50000000  1.0
  Cl  Cl19  1  0.14536730  0.64536730  0.50000000  1.0
  Cl  Cl20  1  0.50000000  0.50000000  0.70426919  1.0
  Cl  Cl21  1  0.50000000  0.50000000  0.29573081  1.0
  Cl  Cl22  1  0.00000000  0.00000000  0.70426919  1.0
  Cl  Cl23  1  0.00000000  0.00000000  0.29573081  1.0
  Pb  Pb24  1  0.84532951  0.65467049  0.76362305  1.0
  Pb  Pb25  1  0.84532951  0.65467049  0.23637695  1.0
  Pb  Pb26  1  0.34532951  0.84532951  0.76362305  1.0
  Pb  Pb27  1  0.34532951  0.84532951  0.23637695  1.0
  Pb  Pb28  1  0.15467049  0.34532951  0.76362305  1.0
  Pb  Pb29  1  0.15467049  0.34532951  0.23637695  1.0
  Pb  Pb30  1  0.65467049  0.15467049  0.76362305  1.0
  Pb  Pb31  1  0.65467049  0.15467049  0.23637695  1.0
