# generated using pymatgen
data_CrN3O8
_symmetry_space_group_name_H-M   'P 1'
_cell_length_a   6.68437363
_cell_length_b   6.68437363
_cell_length_c   6.68437363
_cell_angle_alpha   115.58589332
_cell_angle_beta   115.58589332
_cell_angle_gamma   97.83221492
_symmetry_Int_Tables_number   1
_chemical_formula_structural   CrN3O8
_chemical_formula_sum   'Cr1 N3 O8'
_cell_volume   223.01703438
_cell_formula_units_Z   1
loop_
 _symmetry_equiv_pos_site_id
 _symmetry_equiv_pos_as_xyz
  1  'x, y, z'
loop_
 _atom_site_type_symbol
 _atom_site_label
 _atom_site_symmetry_multiplicity
 _atom_site_fract_x
 _atom_site_fract_y
 _atom_site_fract_z
 _atom_site_occupancy
  Cr  Cr0  1  0.00000000  0.00000000  0.00000000  1.0
  N  N1  1  0.75000000  1.25000000  0.50000000  1.0
  N  N2  1  1.25000000  0.75000000  0.50000000  1.0
  N  N3  1  0.50000000  0.50000000  -0.00000000  1.0
  O  O4  1  0.98776868  0.98776868  0.69811043  1.0
  O  O5  1  1.01223132  1.71034176  1.00000000  1.0
  O  O6  1  1.71034176  1.01223132  1.00000000  1.0
  O  O7  1  0.28965824  0.28965824  0.30188957  1.0
  O  O8  1  0.80543240  0.80543240  0.62292916  1.0
  O  O9  1  1.19456760  0.81749676  1.00000000  1.0
  O  O10  1  0.81749676  1.19456760  1.00000000  1.0
  O  O11  1  0.18250324  0.18250324  0.37707084  1.0
