# generated using pymatgen
data_Na3RuO4
_symmetry_space_group_name_H-M   'P 1'
_cell_length_a   8.55997878
_cell_length_b   8.55997878
_cell_length_c   5.77862490
_cell_angle_alpha   77.20189856
_cell_angle_beta   102.79810144
_cell_angle_gamma   81.30001719
_symmetry_Int_Tables_number   1
_chemical_formula_structural   Na3RuO4
_chemical_formula_sum   'Na12 Ru4 O16'
_cell_volume   393.60549356
_cell_formula_units_Z   4
loop_
 _symmetry_equiv_pos_site_id
 _symmetry_equiv_pos_as_xyz
  1  'x, y, z'
loop_
 _atom_site_type_symbol
 _atom_site_label
 _atom_site_symmetry_multiplicity
 _atom_site_fract_x
 _atom_site_fract_y
 _atom_site_fract_z
 _atom_site_occupancy
  Ru  Ru0  1  0.87395600  -0.12604400  -0.00000000  1.0
  Ru  Ru1  1  1.12604400  0.12604400  -0.00000000  1.0
  Ru  Ru2  1  0.74698770  -0.74698770  0.97397987  1.0
  Ru  Ru3  1  0.25301230  -0.25301230  0.02602013  1.0
  O  O4  1  0.88862319  -0.88862319  0.79805773  1.0
  O  O5  1  0.11137681  -0.11137681  0.20194227  1.0
  O  O6  1  0.34303972  -0.34303972  0.80186408  1.0
  O  O7  1  0.65696028  -0.65696028  0.19813592  1.0
  O  O8  1  0.67422539  -0.12398162  0.77756577  1.0
  O  O9  1  1.12398162  0.32577461  0.77756577  1.0
  O  O10  1  0.87601838  -0.32577461  0.22243423  1.0
  O  O11  1  1.32577461  0.12398162  0.22243423  1.0
  O  O12  1  1.54073243  0.24605683  0.76877264  1.0
  O  O13  1  0.75394317  -0.54073243  0.76877264  1.0
  O  O14  1  1.24605683  0.54073243  0.23122736  1.0
  O  O15  1  0.45926757  -0.24605683  0.23122736  1.0
  O  O16  1  0.23245466  -0.01053991  0.81380860  1.0
  O  O17  1  1.01053991  0.76754534  0.81380860  1.0
  O  O18  1  0.98946009  -0.76754534  0.18619140  1.0
  O  O19  1  1.76754534  0.01053991  0.18619140  1.0
  Na  Na20  1  1.63189576  0.12075207  0.48308517  1.0
  Na  Na21  1  0.87924793  -0.63189576  0.48308517  1.0
  Na  Na22  1  1.12075207  0.63189576  0.51691483  1.0
  Na  Na23  1  0.36810424  -0.12075207  0.51691483  1.0
  Na  Na24  1  0.74336581  -0.25663419  0.50000000  1.0
  Na  Na25  1  1.25663419  0.25663419  0.50000000  1.0
  Na  Na26  1  0.62458856  -0.37541144  -0.00000000  1.0
  Na  Na27  1  1.37541144  0.37541144  -0.00000000  1.0
  Na  Na28  1  1.50000000  -0.00000000  -0.00000000  1.0
  Na  Na29  1  1.00000000  -0.50000000  -0.00000000  1.0
  Na  Na30  1  0.50000000  -0.50000000  0.50000000  1.0
  Na  Na31  1  0.00000000  -0.00000000  0.50000000  1.0
