# generated using pymatgen
data_Mn(AgO)2
_symmetry_space_group_name_H-M   'P 1'
_cell_length_a   9.08640677
_cell_length_b   9.08640677
_cell_length_c   9.08640677
_cell_angle_alpha   18.37912274
_cell_angle_beta   18.37912274
_cell_angle_gamma   18.37912274
_symmetry_Int_Tables_number   1
_chemical_formula_structural   Mn(AgO)2
_chemical_formula_sum   'Mn1 Ag2 O2'
_cell_volume   65.14355837
_cell_formula_units_Z   1
loop_
 _symmetry_equiv_pos_site_id
 _symmetry_equiv_pos_as_xyz
  1  'x, y, z'
loop_
 _atom_site_type_symbol
 _atom_site_label
 _atom_site_symmetry_multiplicity
 _atom_site_fract_x
 _atom_site_fract_y
 _atom_site_fract_z
 _atom_site_occupancy
  Mn  Mn0  1  0.00000000  0.00000000  0.00000000  1.0
  Ag  Ag1  1  0.79056286  0.79056286  0.79056286  1.0
  Ag  Ag2  1  1.20943714  1.20943714  0.20943714  1.0
  O  O3  1  0.70383573  0.70383573  0.70383573  1.0
  O  O4  1  1.29616427  1.29616427  0.29616427  1.0
