# generated using pymatgen
data_Ta3NiS6
_symmetry_space_group_name_H-M   'P 1'
_cell_length_a   5.76922209
_cell_length_b   5.76922209
_cell_length_c   11.90774339
_cell_angle_alpha   90.00000000
_cell_angle_beta   90.00000000
_cell_angle_gamma   120.00000000
_symmetry_Int_Tables_number   1
_chemical_formula_structural   Ta3NiS6
_chemical_formula_sum   'Ta6 Ni2 S12'
_cell_volume   343.23740837
_cell_formula_units_Z   2
loop_
 _symmetry_equiv_pos_site_id
 _symmetry_equiv_pos_as_xyz
  1  'x, y, z'
loop_
 _atom_site_type_symbol
 _atom_site_label
 _atom_site_symmetry_multiplicity
 _atom_site_fract_x
 _atom_site_fract_y
 _atom_site_fract_z
 _atom_site_occupancy
  Ta  Ta0  1  0.33333333  0.66666667  0.50270772  1.0
  Ta  Ta1  1  0.33333333  0.66666667  0.99729228  1.0
  Ta  Ta2  1  0.66666667  0.33333333  0.49729228  1.0
  Ta  Ta3  1  0.66666667  0.33333333  0.00270772  1.0
  Ta  Ta4  1  0.00000000  0.00000000  0.00000000  1.0
  Ta  Ta5  1  0.00000000  0.00000000  0.50000000  1.0
  Ni  Ni6  1  0.33333333  0.66666667  0.25000000  1.0
  Ni  Ni7  1  0.66666667  0.33333333  0.75000000  1.0
  S  S8  1  0.66815650  0.66726442  0.13182242  1.0
  S  S9  1  0.66815650  0.00089208  0.36817758  1.0
  S  S10  1  0.66726442  0.66815650  0.86817758  1.0
  S  S11  1  0.66726442  -0.00089208  0.63182242  1.0
  S  S12  1  -0.00089208  0.66726442  0.36817758  1.0
  S  S13  1  -0.00089208  0.33184350  0.13182242  1.0
  S  S14  1  0.33273558  0.33184350  0.36817758  1.0
  S  S15  1  0.33273558  0.00089208  0.13182242  1.0
  S  S16  1  0.33184350  -0.00089208  0.86817758  1.0
  S  S17  1  0.33184350  0.33273558  0.63182242  1.0
  S  S18  1  0.00089208  0.66815650  0.63182242  1.0
  S  S19  1  0.00089208  0.33273558  0.86817758  1.0
