# generated using pymatgen
data_RbMoPO3
_symmetry_space_group_name_H-M   'P 1'
_cell_length_a   11.39400276
_cell_length_b   11.60435455
_cell_length_c   11.02792061
_cell_angle_alpha   60.39191035
_cell_angle_beta   62.31017741
_cell_angle_gamma   57.29791225
_symmetry_Int_Tables_number   1
_chemical_formula_structural   RbMoPO3
_chemical_formula_sum   'Rb8 Mo8 P8 O24'
_cell_volume   1027.06482624
_cell_formula_units_Z   8
loop_
 _symmetry_equiv_pos_site_id
 _symmetry_equiv_pos_as_xyz
  1  'x, y, z'
loop_
 _atom_site_type_symbol
 _atom_site_label
 _atom_site_symmetry_multiplicity
 _atom_site_fract_x
 _atom_site_fract_y
 _atom_site_fract_z
 _atom_site_occupancy
  Rb  Rb0  1  0.44046484  -0.21072417  1.29142163  1.0
  Rb  Rb1  1  0.47883771  0.29142163  -0.21072417  1.0
  Rb  Rb2  1  -0.53927583  0.80953516  0.77116229  1.0
  Rb  Rb3  1  -0.04142163  0.77116229  0.80953516  1.0
  Rb  Rb4  1  0.29142163  0.47883771  1.44046484  1.0
  Rb  Rb5  1  -0.21072417  0.44046484  0.47883771  1.0
  Rb  Rb6  1  -0.22883771  0.95857837  0.46072417  1.0
  Rb  Rb7  1  -0.19046484  0.46072417  0.95857837  1.0
  Mo  Mo8  1  0.05836019  0.14522017  0.28662550  1.0
  Mo  Mo9  1  0.50979414  0.28662550  1.14522017  1.0
  Mo  Mo10  1  0.10477983  0.19163981  0.74020586  1.0
  Mo  Mo11  1  -0.03662550  0.74020586  0.19163981  1.0
  Mo  Mo12  1  0.28662550  0.50979414  0.05836019  1.0
  Mo  Mo13  1  0.14522017  0.05836019  1.50979414  1.0
  Mo  Mo14  1  -0.25979414  0.96337450  1.10477983  1.0
  Mo  Mo15  1  -0.80836019  1.10477983  0.96337450  1.0
  P  P16  1  0.29207606  0.17432218  1.45766022  1.0
  P  P17  1  0.07594154  0.45766022  0.17432218  1.0
  P  P18  1  0.07567782  0.95792394  0.17405846  1.0
  P  P19  1  -0.20766022  0.17405846  0.95792394  1.0
  P  P20  1  0.45766022  0.07594154  1.29207606  1.0
  P  P21  1  0.17432218  0.29207606  0.07594154  1.0
  P  P22  1  -0.82594154  0.79233978  1.07567782  1.0
  P  P23  1  -0.04207606  1.07567782  0.79233978  1.0
  O  O24  1  0.06530478  0.63955625  1.61211254  1.0
  O  O25  1  -0.31697357  0.61211254  0.63955625  1.0
  O  O26  1  -0.38955625  1.18469522  0.56697357  1.0
  O  O27  1  0.63788746  -0.43302643  1.18469522  1.0
  O  O28  1  0.61211254  -0.31697357  1.06530478  1.0
  O  O29  1  0.63955625  0.06530478  -0.31697357  1.0
  O  O30  1  -0.43302643  0.63788746  0.61044375  1.0
  O  O31  1  1.18469522  -0.38955625  0.63788746  1.0
  O  O32  1  -0.12400370  0.24709579  0.32845144  1.0
  O  O33  1  0.54845647  0.32845144  1.24709579  1.0
  O  O34  1  0.00290421  0.37400370  0.70154353  1.0
  O  O35  1  -0.07845144  0.70154353  0.37400370  1.0
  O  O36  1  0.32845144  0.54845647  -0.12400370  1.0
  O  O37  1  0.24709579  -0.12400370  1.54845647  1.0
  O  O38  1  -0.29845647  0.92154856  1.00290421  1.0
  O  O39  1  -0.62599630  1.00290421  0.92154856  1.0
  O  O40  1  -0.05828975  0.08139855  1.64874229  1.0
  O  O41  1  0.32814891  0.64874229  0.08139855  1.0
  O  O42  1  0.16860145  0.30828975  0.92185109  1.0
  O  O43  1  0.60125771  -0.07814891  1.30828975  1.0
  O  O44  1  0.64874229  0.32814891  0.94171025  1.0
  O  O45  1  0.08139855  -0.05828975  0.32814891  1.0
  O  O46  1  -0.07814891  0.60125771  1.16860145  1.0
  O  O47  1  0.30828975  0.16860145  1.60125771  1.0
