# generated using pymatgen
data_MoW11O36
_symmetry_space_group_name_H-M   'P 1'
_cell_length_a   3.83109083
_cell_length_b   7.45356629
_cell_length_c   25.80887341
_cell_angle_alpha   90.00000000
_cell_angle_beta   90.00000000
_cell_angle_gamma   90.00000000
_symmetry_Int_Tables_number   1
_chemical_formula_structural   MoW11O36
_chemical_formula_sum   'Mo1 W11 O36'
_cell_volume   736.97984963
_cell_formula_units_Z   1
loop_
 _symmetry_equiv_pos_site_id
 _symmetry_equiv_pos_as_xyz
  1  'x, y, z'
loop_
 _atom_site_type_symbol
 _atom_site_label
 _atom_site_symmetry_multiplicity
 _atom_site_fract_x
 _atom_site_fract_y
 _atom_site_fract_z
 _atom_site_occupancy
  O  O0  1  0.50000000  0.74998350  0.87491091  1.0
  O  O1  1  0.50000000  0.74998350  0.12508909  1.0
  O  O2  1  0.50000000  0.25001650  0.87491091  1.0
  O  O3  1  0.50000000  0.25001650  0.12508909  1.0
  O  O4  1  0.50000000  0.74992221  0.62469424  1.0
  O  O5  1  0.50000000  0.74992221  0.37530576  1.0
  O  O6  1  0.50000000  0.25007779  0.62469424  1.0
  O  O7  1  0.50000000  0.25007779  0.37530576  1.0
  O  O8  1  0.00000000  0.82266236  0.55354667  1.0
  O  O9  1  0.00000000  0.82266236  0.44645333  1.0
  O  O10  1  0.00000000  0.17733764  0.55354667  1.0
  O  O11  1  0.00000000  0.17733764  0.44645333  1.0
  O  O12  1  0.00000000  0.67826789  0.80350723  1.0
  O  O13  1  0.00000000  0.67826789  0.19649277  1.0
  O  O14  1  0.00000000  0.32173211  0.80350723  1.0
  O  O15  1  0.00000000  0.32173211  0.19649277  1.0
  O  O16  1  0.00000000  0.67842714  0.69625197  1.0
  O  O17  1  0.00000000  0.67842714  0.30374803  1.0
  O  O18  1  0.00000000  0.32157286  0.69625197  1.0
  O  O19  1  0.00000000  0.32157286  0.30374803  1.0
  O  O20  1  0.50000000  0.50000000  0.74979895  1.0
  O  O21  1  0.50000000  0.50000000  0.25020105  1.0
  O  O22  1  0.00000000  0.50000000  0.89271756  1.0
  O  O23  1  0.00000000  0.50000000  0.10728244  1.0
  O  O24  1  0.00000000  0.50000000  0.60694442  1.0
  O  O25  1  0.00000000  0.50000000  0.39305558  1.0
  O  O26  1  0.00000000  0.00000000  0.85716206  1.0
  O  O27  1  0.00000000  0.00000000  0.14283794  1.0
  O  O28  1  0.00000000  0.00000000  0.64258492  1.0
  O  O29  1  0.00000000  0.00000000  0.35741508  1.0
  O  O30  1  0.50000000  0.00000000  0.50000000  1.0
  O  O31  1  0.50000000  0.00000000  0.00000000  1.0
  O  O32  1  0.00000000  0.82167043  0.94635754  1.0
  O  O33  1  0.00000000  0.82167043  0.05364246  1.0
  O  O34  1  0.00000000  0.17832957  0.94635754  1.0
  O  O35  1  0.00000000  0.17832957  0.05364246  1.0
  W  W36  1  0.00000000  0.75002046  0.87496278  1.0
  W  W37  1  0.00000000  0.75002046  0.12503722  1.0
  W  W38  1  0.00000000  0.24997954  0.87496278  1.0
  W  W39  1  0.00000000  0.24997954  0.12503722  1.0
  W  W40  1  0.00000000  0.74993454  0.62481932  1.0
  W  W41  1  0.00000000  0.74993454  0.37518068  1.0
  W  W42  1  0.00000000  0.25006546  0.62481932  1.0
  W  W43  1  0.00000000  0.25006546  0.37518068  1.0
  W  W44  1  0.00000000  0.50000000  0.74992527  1.0
  W  W45  1  0.00000000  0.50000000  0.25007473  1.0
  W  W46  1  0.00000000  0.00000000  0.00000000  1.0
  Mo  Mo47  1  0.00000000  0.00000000  0.50000000  1.0
