# generated using pymatgen
data_RbSc(SO4)2
_symmetry_space_group_name_H-M   'P 1'
_cell_length_a   5.31157830
_cell_length_b   5.31157830
_cell_length_c   8.30052048
_cell_angle_alpha   90.00000000
_cell_angle_beta   90.00000000
_cell_angle_gamma   120.00000000
_symmetry_Int_Tables_number   1
_chemical_formula_structural   RbSc(SO4)2
_chemical_formula_sum   'Rb1 Sc1 S2 O8'
_cell_volume   202.80708985
_cell_formula_units_Z   1
loop_
 _symmetry_equiv_pos_site_id
 _symmetry_equiv_pos_as_xyz
  1  'x, y, z'
loop_
 _atom_site_type_symbol
 _atom_site_label
 _atom_site_symmetry_multiplicity
 _atom_site_fract_x
 _atom_site_fract_y
 _atom_site_fract_z
 _atom_site_occupancy
  Rb  Rb0  1  -0.00000000  -0.00000000  0.50000000  1.0
  Sc  Sc1  1  0.00000000  0.00000000  0.00000000  1.0
  S  S2  1  0.33333333  0.66666667  0.21503559  1.0
  S  S3  1  0.66666667  0.33333333  0.78496441  1.0
  O  O4  1  0.33333333  0.66666667  0.39128960  1.0
  O  O5  1  0.66666667  0.33333333  0.60871040  1.0
  O  O6  1  0.18068963  0.81935124  0.15211981  1.0
  O  O7  1  0.81935124  0.18068963  0.84788019  1.0
  O  O8  1  0.63866162  0.81931037  0.15211981  1.0
  O  O9  1  0.18064876  0.36133838  0.15211981  1.0
  O  O10  1  0.81931037  0.63866162  0.84788019  1.0
  O  O11  1  0.36133838  0.18064876  0.84788019  1.0
