# generated using pymatgen
data_ZnS
_symmetry_space_group_name_H-M   'P 1'
_cell_length_a   3.84992168
_cell_length_b   3.84992168
_cell_length_c   44.03812506
_cell_angle_alpha   90.00000000
_cell_angle_beta   90.00000000
_cell_angle_gamma   120.00000000
_symmetry_Int_Tables_number   1
_chemical_formula_structural   ZnS
_chemical_formula_sum   'Zn14 S14'
_cell_volume   565.27950827
_cell_formula_units_Z   14
loop_
 _symmetry_equiv_pos_site_id
 _symmetry_equiv_pos_as_xyz
  1  'x, y, z'
loop_
 _atom_site_type_symbol
 _atom_site_label
 _atom_site_symmetry_multiplicity
 _atom_site_fract_x
 _atom_site_fract_y
 _atom_site_fract_z
 _atom_site_occupancy
  Zn  Zn0  1  0.33333333  0.66666667  0.07143882  1.0
  Zn  Zn1  1  0.66666667  0.33333333  0.57143882  1.0
  Zn  Zn2  1  0.33333333  0.66666667  0.28565316  1.0
  Zn  Zn3  1  0.66666667  0.33333333  0.78565316  1.0
  Zn  Zn4  1  0.33333333  0.66666667  0.42865449  1.0
  Zn  Zn5  1  0.66666667  0.33333333  0.92865449  1.0
  Zn  Zn6  1  0.33333333  0.66666667  0.64285664  1.0
  Zn  Zn7  1  0.66666667  0.33333333  0.14285664  1.0
  Zn  Zn8  1  0.33333333  0.66666667  0.85714811  1.0
  Zn  Zn9  1  0.66666667  0.33333333  0.35714811  1.0
  Zn  Zn10  1  0.00000000  0.00000000  0.00003550  1.0
  Zn  Zn11  1  0.00000000  0.00000000  0.50003550  1.0
  Zn  Zn12  1  0.00000000  0.00000000  0.21425252  1.0
  Zn  Zn13  1  0.00000000  0.00000000  0.71425252  1.0
  S  S14  1  0.33333333  0.66666667  0.12499509  1.0
  S  S15  1  0.66666667  0.33333333  0.62499509  1.0
  S  S16  1  0.33333333  0.66666667  0.33919883  1.0
  S  S17  1  0.66666667  0.33333333  0.83919883  1.0
  S  S18  1  0.33333333  0.66666667  0.48218649  1.0
  S  S19  1  0.66666667  0.33333333  0.98218649  1.0
  S  S20  1  0.33333333  0.66666667  0.69640386  1.0
  S  S21  1  0.66666667  0.33333333  0.19640386  1.0
  S  S22  1  0.33333333  0.66666667  0.91078767  1.0
  S  S23  1  0.66666667  0.33333333  0.41078767  1.0
  S  S24  1  0.00000000  0.00000000  0.05358590  1.0
  S  S25  1  0.00000000  0.00000000  0.55358590  1.0
  S  S26  1  0.00000000  0.00000000  0.26780292  1.0
  S  S27  1  0.00000000  0.00000000  0.76780292  1.0
