# generated using pymatgen
data_Rb2ZnGeO4
_symmetry_space_group_name_H-M   'P 1'
_cell_length_a   11.51021182
_cell_length_b   5.73155986
_cell_length_c   16.54959280
_cell_angle_alpha   90.00000000
_cell_angle_beta   90.00000000
_cell_angle_gamma   90.00000000
_symmetry_Int_Tables_number   1
_chemical_formula_structural   Rb2ZnGeO4
_chemical_formula_sum   'Rb16 Zn8 Ge8 O32'
_cell_volume   1091.80093358
_cell_formula_units_Z   8
loop_
 _symmetry_equiv_pos_site_id
 _symmetry_equiv_pos_as_xyz
  1  'x, y, z'
loop_
 _atom_site_type_symbol
 _atom_site_label
 _atom_site_symmetry_multiplicity
 _atom_site_fract_x
 _atom_site_fract_y
 _atom_site_fract_z
 _atom_site_occupancy
  Rb  Rb0  1  0.01357092  0.00472775  0.24705293  1.0
  Rb  Rb1  1  0.51357092  0.99527225  0.24705293  1.0
  Rb  Rb2  1  0.98642908  0.99527225  0.74705293  1.0
  Rb  Rb3  1  0.48642908  0.00472775  0.74705293  1.0
  Rb  Rb4  1  0.48410848  0.50375356  0.12200581  1.0
  Rb  Rb5  1  0.98410848  0.49624644  0.12200581  1.0
  Rb  Rb6  1  0.51589152  0.49624644  0.62200581  1.0
  Rb  Rb7  1  0.01589152  0.50375356  0.62200581  1.0
  Rb  Rb8  1  0.26309087  0.05181444  0.37076462  1.0
  Rb  Rb9  1  0.76309087  0.94818556  0.37076462  1.0
  Rb  Rb10  1  0.73690913  0.94818556  0.87076462  1.0
  Rb  Rb11  1  0.23690913  0.05181444  0.87076462  1.0
  Rb  Rb12  1  0.23854871  0.55185662  0.00032549  1.0
  Rb  Rb13  1  0.73854871  0.44814338  0.00032549  1.0
  Rb  Rb14  1  0.76145129  0.44814338  0.50032549  1.0
  Rb  Rb15  1  0.26145129  0.55185662  0.50032549  1.0
  Zn  Zn16  1  0.49291523  0.00721490  -0.00344317  1.0
  Zn  Zn17  1  0.99291523  0.99278510  -0.00344317  1.0
  Zn  Zn18  1  0.50708477  0.99278510  0.49655683  1.0
  Zn  Zn19  1  0.00708477  0.00721490  0.49655683  1.0
  Zn  Zn20  1  0.25807318  0.53504370  0.24829965  1.0
  Zn  Zn21  1  0.75807318  0.46495630  0.24829965  1.0
  Zn  Zn22  1  0.74192682  0.46495630  0.74829965  1.0
  Zn  Zn23  1  0.24192682  0.53504370  0.74829965  1.0
  Ge  Ge24  1  0.23748688  0.03380704  0.12083845  1.0
  Ge  Ge25  1  0.73748688  0.96619296  0.12083845  1.0
  Ge  Ge26  1  0.76251312  0.96619296  0.62083845  1.0
  Ge  Ge27  1  0.26251312  0.03380704  0.62083845  1.0
  Ge  Ge28  1  0.00678691  0.50851469  0.37321190  1.0
  Ge  Ge29  1  0.50678691  0.49148531  0.37321190  1.0
  Ge  Ge30  1  0.99321309  0.49148531  0.87321190  1.0
  Ge  Ge31  1  0.49321309  0.50851469  0.87321190  1.0
  O  O32  1  0.47609828  0.31806865  0.46056935  1.0
  O  O33  1  0.97609828  0.68193135  0.46056935  1.0
  O  O34  1  0.52390172  0.68193135  0.96056935  1.0
  O  O35  1  0.02390172  0.31806865  0.96056935  1.0
  O  O36  1  0.41125956  0.42220064  0.29141043  1.0
  O  O37  1  0.91125956  0.57779936  0.29141043  1.0
  O  O38  1  0.58874044  0.57779936  0.79141043  1.0
  O  O39  1  0.08874044  0.42220064  0.79141043  1.0
  O  O40  1  0.33230869  0.06693763  0.03633740  1.0
  O  O41  1  0.83230869  0.93306237  0.03633740  1.0
  O  O42  1  0.66769131  0.93306237  0.53633740  1.0
  O  O43  1  0.16769131  0.06693763  0.53633740  1.0
  O  O44  1  0.20699753  0.31418034  0.16322760  1.0
  O  O45  1  0.70699753  0.68581966  0.16322760  1.0
  O  O46  1  0.79300247  0.68581966  0.66322760  1.0
  O  O47  1  0.29300247  0.31418034  0.66322760  1.0
  O  O48  1  0.15289831  0.56893026  0.34230186  1.0
  O  O49  1  0.65289831  0.43106974  0.34230186  1.0
  O  O50  1  0.84710169  0.43106974  0.84230186  1.0
  O  O51  1  0.34710169  0.56893026  0.84230186  1.0
  O  O52  1  0.98563182  0.20950570  0.39983873  1.0
  O  O53  1  0.48563182  0.79049430  0.39983873  1.0
  O  O54  1  0.01436818  0.79049430  0.89983873  1.0
  O  O55  1  0.51436818  0.20950570  0.89983873  1.0
  O  O56  1  0.89717234  0.08507643  0.58537366  1.0
  O  O57  1  0.39717234  0.91492357  0.58537366  1.0
  O  O58  1  0.10282766  0.91492357  0.08537366  1.0
  O  O59  1  0.60282766  0.08507643  0.08537366  1.0
  O  O60  1  0.79375670  0.15720148  0.19658528  1.0
  O  O61  1  0.29375670  0.84279852  0.19658528  1.0
  O  O62  1  0.20624330  0.84279852  0.69658528  1.0
  O  O63  1  0.70624330  0.15720148  0.69658528  1.0
