# generated using pymatgen
data_BaV2(P2O7)2
_symmetry_space_group_name_H-M   'P 1'
_cell_length_a   7.57197282
_cell_length_b   7.57197282
_cell_length_c   9.91926961
_cell_angle_alpha   80.67803584
_cell_angle_beta   99.32196416
_cell_angle_gamma   90.26910574
_symmetry_Int_Tables_number   1
_chemical_formula_structural   BaV2(P2O7)2
_chemical_formula_sum   'Ba2 V4 P8 O28'
_cell_volume   553.66137294
_cell_formula_units_Z   2
loop_
 _symmetry_equiv_pos_site_id
 _symmetry_equiv_pos_as_xyz
  1  'x, y, z'
loop_
 _atom_site_type_symbol
 _atom_site_label
 _atom_site_symmetry_multiplicity
 _atom_site_fract_x
 _atom_site_fract_y
 _atom_site_fract_z
 _atom_site_occupancy
  Ba  Ba0  1  1.50000000  -0.00000000  0.00000000  1.0
  Ba  Ba1  1  1.00000000  0.50000000  0.50000000  1.0
  V  V2  1  0.54501547  0.54501547  0.75000000  1.0
  V  V3  1  0.45498453  0.45498453  0.25000000  1.0
  V  V4  1  0.00000000  0.00000000  0.00000000  1.0
  V  V5  1  -0.00000000  0.00000000  0.50000000  1.0
  P  P6  1  0.74217721  0.17939329  0.70295406  1.0
  P  P7  1  0.82060671  0.25782279  0.20295406  1.0
  P  P8  1  1.17939329  -0.25782279  0.79704594  1.0
  P  P9  1  1.25782279  -0.17939329  0.29704594  1.0
  P  P10  1  1.25098985  -0.62339909  0.94560980  1.0
  P  P11  1  1.62339909  -0.25098985  0.44560980  1.0
  P  P12  1  0.37660091  0.25098985  0.55439020  1.0
  P  P13  1  0.74901015  0.62339909  0.05439020  1.0
  O  O14  1  1.79426175  -0.14870949  0.42658741  1.0
  O  O15  1  1.14870949  -0.79426175  0.92658741  1.0
  O  O16  1  0.85129051  0.79426175  0.07341259  1.0
  O  O17  1  0.20573825  0.14870949  0.57341259  1.0
  O  O18  1  1.58798524  -0.27571332  0.59543936  1.0
  O  O19  1  1.27571332  -0.58798524  0.09543936  1.0
  O  O20  1  0.72428668  0.58798524  0.90456064  1.0
  O  O21  1  0.41201476  0.27571332  0.40456064  1.0
  O  O22  1  0.78788765  0.05662399  0.84357124  1.0
  O  O23  1  0.94337601  0.21211235  0.34357124  1.0
  O  O24  1  1.05662399  -0.21211235  0.65642876  1.0
  O  O25  1  1.21211235  -0.05662399  0.15642876  1.0
  O  O26  1  0.85729750  0.14318122  0.59695226  1.0
  O  O27  1  0.85681878  0.14270250  0.09695226  1.0
  O  O28  1  1.14318122  -0.14270250  0.90304774  1.0
  O  O29  1  1.14270250  -0.14318122  0.40304774  1.0
  O  O30  1  1.38119294  -0.26067852  0.79316524  1.0
  O  O31  1  1.26067852  -0.38119294  0.29316524  1.0
  O  O32  1  0.73932148  0.38119294  0.70683476  1.0
  O  O33  1  0.61880706  0.26067852  0.20683476  1.0
  O  O34  1  0.53523481  0.12535072  0.65293288  1.0
  O  O35  1  0.87464928  0.46476519  0.15293288  1.0
  O  O36  1  1.12535072  -0.46476519  0.84706712  1.0
  O  O37  1  1.46476519  -0.12535072  0.34706712  1.0
  O  O38  1  0.43016534  0.36724623  0.88991474  1.0
  O  O39  1  0.63275377  0.56983466  0.38991474  1.0
  O  O40  1  1.36724623  -0.56983466  0.61008526  1.0
  O  O41  1  1.56983466  -0.36724623  0.11008526  1.0
