# generated using pymatgen
data_Zr9V4S
_symmetry_space_group_name_H-M   'P 1'
_cell_length_a   8.62490840
_cell_length_b   8.62490840
_cell_length_c   8.53636759
_cell_angle_alpha   90.00000000
_cell_angle_beta   90.00000000
_cell_angle_gamma   120.00000000
_symmetry_Int_Tables_number   1
_chemical_formula_structural   Zr9V4S
_chemical_formula_sum   'Zr18 V8 S2'
_cell_volume   549.93672455
_cell_formula_units_Z   2
loop_
 _symmetry_equiv_pos_site_id
 _symmetry_equiv_pos_as_xyz
  1  'x, y, z'
loop_
 _atom_site_type_symbol
 _atom_site_label
 _atom_site_symmetry_multiplicity
 _atom_site_fract_x
 _atom_site_fract_y
 _atom_site_fract_z
 _atom_site_occupancy
  Zr  Zr0  1  0.19569231  0.80430769  0.44897411  1.0
  Zr  Zr1  1  0.19569231  0.80430769  0.05102589  1.0
  Zr  Zr2  1  0.19569231  0.39138462  0.44897411  1.0
  Zr  Zr3  1  0.19569231  0.39138462  0.05102589  1.0
  Zr  Zr4  1  0.80430769  0.19569231  0.94897411  1.0
  Zr  Zr5  1  0.80430769  0.19569231  0.55102589  1.0
  Zr  Zr6  1  0.80430769  0.60861538  0.94897411  1.0
  Zr  Zr7  1  0.80430769  0.60861538  0.55102589  1.0
  Zr  Zr8  1  0.60861538  0.80430769  0.44897411  1.0
  Zr  Zr9  1  0.60861538  0.80430769  0.05102589  1.0
  Zr  Zr10  1  0.39138462  0.19569231  0.94897411  1.0
  Zr  Zr11  1  0.39138462  0.19569231  0.55102589  1.0
  Zr  Zr12  1  0.54162530  0.45837470  0.25000000  1.0
  Zr  Zr13  1  0.54162530  0.08325060  0.25000000  1.0
  Zr  Zr14  1  0.45837470  0.54162530  0.75000000  1.0
  Zr  Zr15  1  0.45837470  0.91674940  0.75000000  1.0
  Zr  Zr16  1  0.91674940  0.45837470  0.25000000  1.0
  Zr  Zr17  1  0.08325060  0.54162530  0.75000000  1.0
  V  V18  1  0.89618359  0.10381641  0.25000000  1.0
  V  V19  1  0.89618359  0.79236718  0.25000000  1.0
  V  V20  1  0.10381641  0.89618359  0.75000000  1.0
  V  V21  1  0.10381641  0.20763282  0.75000000  1.0
  V  V22  1  0.20763282  0.10381641  0.25000000  1.0
  V  V23  1  0.79236718  0.89618359  0.75000000  1.0
  V  V24  1  0.00000000  0.00000000  0.50000000  1.0
  V  V25  1  0.00000000  0.00000000  0.00000000  1.0
  S  S26  1  0.33333333  0.66666667  0.25000000  1.0
  S  S27  1  0.66666667  0.33333333  0.75000000  1.0
