# generated using pymatgen
data_K4HgP2
_symmetry_space_group_name_H-M   'P 1'
_cell_length_a   9.66770008
_cell_length_b   9.66770008
_cell_length_c   9.66770008
_cell_angle_alpha   34.27050867
_cell_angle_beta   34.27050867
_cell_angle_gamma   34.27050867
_symmetry_Int_Tables_number   1
_chemical_formula_structural   K4HgP2
_chemical_formula_sum   'K4 Hg1 P2'
_cell_volume   255.50474351
_cell_formula_units_Z   1
loop_
 _symmetry_equiv_pos_site_id
 _symmetry_equiv_pos_as_xyz
  1  'x, y, z'
loop_
 _atom_site_type_symbol
 _atom_site_label
 _atom_site_symmetry_multiplicity
 _atom_site_fract_x
 _atom_site_fract_y
 _atom_site_fract_z
 _atom_site_occupancy
  K  K0  1  0.79272956  0.79272956  0.79272956  1.0
  K  K1  1  1.20727044  1.20727044  0.20727044  1.0
  K  K2  1  1.60876444  0.60876444  0.60876444  1.0
  K  K3  1  1.39123556  0.39123556  0.39123556  1.0
  Hg  Hg4  1  0.00000000  0.00000000  0.00000000  1.0
  P  P5  1  0.91150560  0.91150560  0.91150560  1.0
  P  P6  1  1.08849440  1.08849440  0.08849440  1.0
