# generated using pymatgen
data_Gd3CuSiSe7
_symmetry_space_group_name_H-M   'P 1'
_cell_length_a   10.45302126
_cell_length_b   10.45302126
_cell_length_c   6.03693585
_cell_angle_alpha   90.00000000
_cell_angle_beta   90.00000000
_cell_angle_gamma   120.00000000
_symmetry_Int_Tables_number   1
_chemical_formula_structural   Gd3CuSiSe7
_chemical_formula_sum   'Gd6 Cu2 Si2 Se14'
_cell_volume   571.25611194
_cell_formula_units_Z   2
loop_
 _symmetry_equiv_pos_site_id
 _symmetry_equiv_pos_as_xyz
  1  'x, y, z'
loop_
 _atom_site_type_symbol
 _atom_site_label
 _atom_site_symmetry_multiplicity
 _atom_site_fract_x
 _atom_site_fract_y
 _atom_site_fract_z
 _atom_site_occupancy
  Gd  Gd0  1  0.22575837  0.87034679  0.01316613  1.0
  Gd  Gd1  1  0.87034679  0.64458842  0.51316613  1.0
  Gd  Gd2  1  0.64458842  0.77424163  0.01316613  1.0
  Gd  Gd3  1  0.12965321  0.35541158  0.01316613  1.0
  Gd  Gd4  1  0.77424163  0.12965321  0.51316613  1.0
  Gd  Gd5  1  0.35541158  0.22575837  0.51316613  1.0
  Cu  Cu6  1  0.00000000  0.00000000  -0.02429756  1.0
  Cu  Cu7  1  0.00000000  0.00000000  0.47570244  1.0
  Si  Si8  1  0.33333333  0.66666667  0.60278613  1.0
  Si  Si9  1  0.66666667  0.33333333  0.10278613  1.0
  Se  Se10  1  0.90472389  0.74119467  0.99006926  1.0
  Se  Se11  1  0.74119467  0.83647077  0.49006926  1.0
  Se  Se12  1  0.83647077  0.09527611  0.99006926  1.0
  Se  Se13  1  0.25880533  0.16352923  0.99006926  1.0
  Se  Se14  1  0.09527611  0.25880533  0.49006926  1.0
  Se  Se15  1  0.16352923  0.90472389  0.49006926  1.0
  Se  Se16  1  0.58140865  0.47907376  0.25570248  1.0
  Se  Se17  1  0.47907376  0.89766511  0.75570248  1.0
  Se  Se18  1  0.89766511  0.41859135  0.25570248  1.0
  Se  Se19  1  0.52092624  0.10233489  0.25570248  1.0
  Se  Se20  1  0.41859135  0.52092624  0.75570248  1.0
  Se  Se21  1  0.10233489  0.58140865  0.75570248  1.0
  Se  Se22  1  0.33333333  0.66666667  0.22669783  1.0
  Se  Se23  1  0.66666667  0.33333333  0.72669783  1.0
