# generated using pymatgen
data_La3Pt2
_symmetry_space_group_name_H-M   'P 1'
_cell_length_a   7.85446722
_cell_length_b   7.85446722
_cell_length_c   7.85446722
_cell_angle_alpha   71.33779531
_cell_angle_beta   71.33779531
_cell_angle_gamma   71.33779531
_symmetry_Int_Tables_number   1
_chemical_formula_structural   La3Pt2
_chemical_formula_sum   'La9 Pt6'
_cell_volume   421.97379659
_cell_formula_units_Z   3
loop_
 _symmetry_equiv_pos_site_id
 _symmetry_equiv_pos_as_xyz
  1  'x, y, z'
loop_
 _atom_site_type_symbol
 _atom_site_label
 _atom_site_symmetry_multiplicity
 _atom_site_fract_x
 _atom_site_fract_y
 _atom_site_fract_z
 _atom_site_occupancy
  La  La0  1  0.83818979  0.60601072  -0.66937587  1.0
  La  La1  1  0.39398928  0.66937587  -0.83818979  1.0
  La  La2  1  0.66937587  0.16181021  -0.60601072  1.0
  La  La3  1  0.16181021  0.39398928  -0.33062413  1.0
  La  La4  1  0.60601072  0.33062413  -0.16181021  1.0
  La  La5  1  0.33062413  0.83818979  -0.39398928  1.0
  La  La6  1  0.79995339  0.79995339  -0.20004661  1.0
  La  La7  1  1.20004661  1.20004661  0.20004661  1.0
  La  La8  1  0.00000000  0.00000000  0.00000000  1.0
  Pt  Pt9  1  0.58934559  -0.04300528  0.16694470  1.0
  Pt  Pt10  1  1.04300528  -0.16694470  -0.58934559  1.0
  Pt  Pt11  1  0.83305530  -0.58934559  0.04300528  1.0
  Pt  Pt12  1  0.41065441  0.04300528  -0.16694470  1.0
  Pt  Pt13  1  0.95699472  0.16694470  -0.41065441  1.0
  Pt  Pt14  1  1.16694470  -0.41065441  -0.04300528  1.0
