# generated using pymatgen
data_NaPH4O5
_symmetry_space_group_name_H-M   'P 1'
_cell_length_a   7.67971801
_cell_length_b   7.87609163
_cell_length_c   7.58962558
_cell_angle_alpha   90.00000000
_cell_angle_beta   90.00000000
_cell_angle_gamma   90.00000000
_symmetry_Int_Tables_number   1
_chemical_formula_structural   NaPH4O5
_chemical_formula_sum   'Na4 P4 H16 O20'
_cell_volume   459.06732754
_cell_formula_units_Z   4
loop_
 _symmetry_equiv_pos_site_id
 _symmetry_equiv_pos_as_xyz
  1  'x, y, z'
loop_
 _atom_site_type_symbol
 _atom_site_label
 _atom_site_symmetry_multiplicity
 _atom_site_fract_x
 _atom_site_fract_y
 _atom_site_fract_z
 _atom_site_occupancy
  Na  Na0  1  0.49534196  0.51593491  0.49420460  1.0
  Na  Na1  1  0.99534196  0.98406509  0.49420460  1.0
  Na  Na2  1  0.50465804  0.48406509  -0.00579540  1.0
  Na  Na3  1  0.00465804  0.01593491  -0.00579540  1.0
  P  P4  1  0.37983609  0.88063276  0.76049796  1.0
  P  P5  1  0.87983609  0.61936724  0.76049796  1.0
  P  P6  1  0.62016391  0.11936724  0.26049796  1.0
  P  P7  1  0.12016391  0.38063276  0.26049796  1.0
  H  H8  1  0.44621999  0.89919284  0.47964528  1.0
  H  H9  1  0.94621999  0.60080716  0.47964528  1.0
  H  H10  1  0.55378001  0.10080716  0.97964528  1.0
  H  H11  1  0.05378001  0.39919284  0.97964528  1.0
  H  H12  1  0.30760048  0.23298805  0.72555599  1.0
  H  H13  1  0.80760048  0.26701195  0.72555599  1.0
  H  H14  1  0.69239952  0.76701195  0.22555599  1.0
  H  H15  1  0.19239952  0.73298805  0.22555599  1.0
  H  H16  1  0.27619716  0.91048874  0.24157327  1.0
  H  H17  1  0.77619716  0.58951126  0.24157327  1.0
  H  H18  1  0.72380284  0.08951126  0.74157327  1.0
  H  H19  1  0.22380284  0.41048874  0.74157327  1.0
  H  H20  1  0.21550695  0.66321441  0.85571278  1.0
  H  H21  1  0.71550695  0.83678559  0.85571278  1.0
  H  H22  1  0.78449305  0.33678559  0.35571278  1.0
  H  H23  1  0.28449305  0.16321441  0.35571278  1.0
  O  O24  1  0.42740115  0.80493035  0.57028729  1.0
  O  O25  1  0.92740115  0.69506965  0.57028729  1.0
  O  O26  1  0.57259885  0.19506965  0.07028729  1.0
  O  O27  1  0.07259885  0.30493035  0.07028729  1.0
  O  O28  1  0.33699214  0.71403672  0.87131387  1.0
  O  O29  1  0.83699214  0.78596328  0.87131387  1.0
  O  O30  1  0.66300786  0.28596328  0.37131387  1.0
  O  O31  1  0.16300786  0.21403672  0.37131387  1.0
  O  O32  1  0.22787036  1.00299164  0.75158878  1.0
  O  O33  1  0.72787036  0.49700836  0.75158878  1.0
  O  O34  1  0.77212964  -0.00299164  0.25158878  1.0
  O  O35  1  0.27212964  0.50299164  0.25158878  1.0
  O  O36  1  0.16276866  0.85495602  0.22569216  1.0
  O  O37  1  0.66276866  0.64504398  0.22569216  1.0
  O  O38  1  0.83723134  0.14504398  0.72569216  1.0
  O  O39  1  0.33723134  0.35495602  0.72569216  1.0
  O  O40  1  0.04878766  0.54668265  0.84152803  1.0
  O  O41  1  0.54878766  0.95331735  0.84152803  1.0
  O  O42  1  0.95121234  0.45331735  0.34152803  1.0
  O  O43  1  0.45121234  0.04668265  0.34152803  1.0
