# generated using pymatgen
data_YbSiPd2
_symmetry_space_group_name_H-M   'P 1'
_cell_length_a   7.36349368
_cell_length_b   6.99497322
_cell_length_c   5.47945836
_cell_angle_alpha   90.00000000
_cell_angle_beta   90.00000000
_cell_angle_gamma   90.00000000
_symmetry_Int_Tables_number   1
_chemical_formula_structural   YbSiPd2
_chemical_formula_sum   'Yb4 Si4 Pd8'
_cell_volume   282.23287873
_cell_formula_units_Z   4
loop_
 _symmetry_equiv_pos_site_id
 _symmetry_equiv_pos_as_xyz
  1  'x, y, z'
loop_
 _atom_site_type_symbol
 _atom_site_label
 _atom_site_symmetry_multiplicity
 _atom_site_fract_x
 _atom_site_fract_y
 _atom_site_fract_z
 _atom_site_occupancy
  Yb  Yb0  1  0.97514508  0.25000000  0.62952771  1.0
  Yb  Yb1  1  0.47514508  0.25000000  0.87047229  1.0
  Yb  Yb2  1  0.02485492  0.75000000  0.37047229  1.0
  Yb  Yb3  1  0.52485492  0.75000000  0.12952771  1.0
  Si  Si4  1  0.62273505  0.25000000  0.36823325  1.0
  Si  Si5  1  0.12273505  0.25000000  0.13176675  1.0
  Si  Si6  1  0.37726495  0.75000000  0.63176675  1.0
  Si  Si7  1  0.87726495  0.75000000  0.86823325  1.0
  Pd  Pd8  1  0.82626248  0.44698885  0.10023815  1.0
  Pd  Pd9  1  0.82626248  0.05301115  0.10023815  1.0
  Pd  Pd10  1  0.32626248  0.44698885  0.39976185  1.0
  Pd  Pd11  1  0.32626248  0.05301115  0.39976185  1.0
  Pd  Pd12  1  0.17373752  0.94698885  0.89976185  1.0
  Pd  Pd13  1  0.17373752  0.55301115  0.89976185  1.0
  Pd  Pd14  1  0.67373752  0.94698885  0.60023815  1.0
  Pd  Pd15  1  0.67373752  0.55301115  0.60023815  1.0
