# generated using pymatgen
data_BC7
_symmetry_space_group_name_H-M   'P 1'
_cell_length_a   8.63190935
_cell_length_b   8.63190935
_cell_length_c   8.63190935
_cell_angle_alpha   16.90181753
_cell_angle_beta   16.90181753
_cell_angle_gamma   16.90181753
_symmetry_Int_Tables_number   1
_chemical_formula_structural   BC7
_chemical_formula_sum   'B1 C7'
_cell_volume   47.42159097
_cell_formula_units_Z   1
loop_
 _symmetry_equiv_pos_site_id
 _symmetry_equiv_pos_as_xyz
  1  'x, y, z'
loop_
 _atom_site_type_symbol
 _atom_site_label
 _atom_site_symmetry_multiplicity
 _atom_site_fract_x
 _atom_site_fract_y
 _atom_site_fract_z
 _atom_site_occupancy
  B  B0  1  0.19756106  0.19756106  0.19756106  1.0
  C  C1  1  0.08925979  0.08925979  0.08925979  1.0
  C  C2  1  0.26086124  0.26086124  0.26086124  1.0
  C  C3  1  0.44373372  0.44373372  -0.55626628  1.0
  C  C4  1  0.50280104  0.50280104  -0.49719896  1.0
  C  C5  1  0.61451342  0.61451342  -0.38548658  1.0
  C  C6  1  0.67527598  -0.32472402  -0.32472402  1.0
  C  C7  1  0.02881375  0.02881375  0.02881375  1.0
