# generated using pymatgen
data_CaNb2P2O11
_symmetry_space_group_name_H-M   'P 1'
_cell_length_a   9.31766602
_cell_length_b   9.31766602
_cell_length_c   5.28885888
_cell_angle_alpha   87.17179693
_cell_angle_beta   92.82820307
_cell_angle_gamma   108.06788778
_symmetry_Int_Tables_number   1
_chemical_formula_structural   CaNb2P2O11
_chemical_formula_sum   'Ca2 Nb4 P4 O22'
_cell_volume   435.71902027
_cell_formula_units_Z   2
loop_
 _symmetry_equiv_pos_site_id
 _symmetry_equiv_pos_as_xyz
  1  'x, y, z'
loop_
 _atom_site_type_symbol
 _atom_site_label
 _atom_site_symmetry_multiplicity
 _atom_site_fract_x
 _atom_site_fract_y
 _atom_site_fract_z
 _atom_site_occupancy
  Ca  Ca0  1  0.60586609  -0.39413391  0.25000000  1.0
  Ca  Ca1  1  1.39413391  0.39413391  0.75000000  1.0
  Nb  Nb2  1  1.75533217  0.00573477  0.25865034  1.0
  Nb  Nb3  1  0.99426523  -0.75533217  0.75865034  1.0
  Nb  Nb4  1  1.00573477  0.75533217  0.24134966  1.0
  Nb  Nb5  1  0.24466783  -0.00573477  0.74134966  1.0
  P  P6  1  1.47933183  0.18543841  0.24465080  1.0
  P  P7  1  0.81456159  -0.47933183  0.74465080  1.0
  P  P8  1  1.18543841  0.47933183  0.25534920  1.0
  P  P9  1  0.52066817  -0.18543841  0.75534920  1.0
  O  O10  1  0.59675801  -0.16668278  0.49455354  1.0
  O  O11  1  1.16668278  0.40324199  0.99455354  1.0
  O  O12  1  0.83331722  -0.40324199  0.00544646  1.0
  O  O13  1  1.40324199  0.16668278  0.50544646  1.0
  O  O14  1  0.62671980  -0.07654280  0.94958049  1.0
  O  O15  1  1.07654280  0.37328020  0.44958049  1.0
  O  O16  1  0.92345720  -0.37328020  0.55041951  1.0
  O  O17  1  1.37328020  0.07654280  0.05041951  1.0
  O  O18  1  1.62670770  0.13928624  0.28495206  1.0
  O  O19  1  0.86071376  -0.62670770  0.78495206  1.0
  O  O20  1  1.13928624  0.62670770  0.21504794  1.0
  O  O21  1  0.37329230  -0.13928624  0.71504794  1.0
  O  O22  1  0.13677197  -0.09098268  0.43319260  1.0
  O  O23  1  1.09098268  0.86322803  0.93319260  1.0
  O  O24  1  0.90901732  -0.86322803  0.06680740  1.0
  O  O25  1  1.86322803  0.09098268  0.56680740  1.0
  O  O26  1  1.51443979  0.34715036  0.13415962  1.0
  O  O27  1  0.65284964  -0.51443979  0.63415962  1.0
  O  O28  1  1.34715036  0.51443979  0.36584038  1.0
  O  O29  1  0.48556021  -0.34715036  0.86584038  1.0
  O  O30  1  0.83554222  -0.16445778  0.25000000  1.0
  O  O31  1  1.16445778  0.16445778  0.75000000  1.0
