# generated using pymatgen
data_CaPHO4
_symmetry_space_group_name_H-M   'P 1'
_cell_length_a   6.68627952
_cell_length_b   7.02651316
_cell_length_c   7.00979343
_cell_angle_alpha   76.01722481
_cell_angle_beta   83.81442138
_cell_angle_gamma   88.03106017
_symmetry_Int_Tables_number   1
_chemical_formula_structural   CaPHO4
_chemical_formula_sum   'Ca4 P4 H4 O16'
_cell_volume   317.69786867
_cell_formula_units_Z   4
loop_
 _symmetry_equiv_pos_site_id
 _symmetry_equiv_pos_as_xyz
  1  'x, y, z'
loop_
 _atom_site_type_symbol
 _atom_site_label
 _atom_site_symmetry_multiplicity
 _atom_site_fract_x
 _atom_site_fract_y
 _atom_site_fract_z
 _atom_site_occupancy
  Ca  Ca0  1  0.06677728  0.92093918  0.67967667  1.0
  Ca  Ca1  1  0.39264820  0.56187250  0.99682683  1.0
  Ca  Ca2  1  0.64587746  0.02000638  0.05615668  1.0
  Ca  Ca3  1  0.81265076  0.44190755  0.61997783  1.0
  P  P4  1  0.15498395  0.01708430  0.13625142  1.0
  P  P5  1  0.30168296  0.43317589  0.54317246  1.0
  P  P6  1  0.61525154  0.94332388  0.61090709  1.0
  P  P7  1  0.84651102  0.52246190  0.06013821  1.0
  H  H8  1  0.22244228  0.71807215  0.35965895  1.0
  H  H9  1  0.24731508  0.23151731  0.86776011  1.0
  H  H10  1  0.49421145  0.19336139  0.38069608  1.0
  H  H11  1  0.97065761  0.27685989  0.29076290  1.0
  O  O12  1  -0.00748079  -0.00665755  0.00704623  1.0
  O  O13  1  0.04488578  0.59358638  0.93324110  1.0
  O  O14  1  0.07481148  0.07179579  0.32962420  1.0
  O  O15  1  0.14905775  0.27440931  0.66198416  1.0
  O  O16  1  0.16423556  0.62915113  0.49573955  1.0
  O  O17  1  0.30392859  0.84030021  0.17179889  1.0
  O  O18  1  0.29691631  0.19753574  0.00579941  1.0
  O  O19  1  0.39108726  0.39191709  0.34472608  1.0
  O  O20  1  0.41514886  0.87392922  0.73569184  1.0
  O  O21  1  0.46242272  0.46358900  0.67294376  1.0
  O  O22  1  0.56862492  0.05849228  0.39072343  1.0
  O  O23  1  0.69639323  0.68735209  0.08443177  1.0
  O  O24  1  0.72399353  0.08933696  0.70103030  1.0
  O  O25  1  0.73589422  0.37474114  0.97423875  1.0
  O  O26  1  0.76502150  0.77802181  0.58791034  1.0
  O  O27  1  0.89674945  0.41021710  0.28058498  1.0
