# generated using pymatgen
data_Ba2CoSe2(ClO3)2
_symmetry_space_group_name_H-M   'P 1'
_cell_length_a   6.88195839
_cell_length_b   12.83337946
_cell_length_c   5.41638233
_cell_angle_alpha   90.00000000
_cell_angle_beta   90.00000000
_cell_angle_gamma   90.00000000
_symmetry_Int_Tables_number   1
_chemical_formula_structural   Ba2CoSe2(ClO3)2
_chemical_formula_sum   'Ba4 Co2 Se4 Cl4 O12'
_cell_volume   478.36829870
_cell_formula_units_Z   2
loop_
 _symmetry_equiv_pos_site_id
 _symmetry_equiv_pos_as_xyz
  1  'x, y, z'
loop_
 _atom_site_type_symbol
 _atom_site_label
 _atom_site_symmetry_multiplicity
 _atom_site_fract_x
 _atom_site_fract_y
 _atom_site_fract_z
 _atom_site_occupancy
  Ba  Ba0  1  0.79572242  0.76919725  0.50000000  1.0
  Ba  Ba1  1  0.29572242  0.73080275  0.00000000  1.0
  Ba  Ba2  1  0.20427758  0.23080275  0.50000000  1.0
  Ba  Ba3  1  0.70427758  0.26919725  0.00000000  1.0
  Co  Co4  1  0.50000000  0.50000000  0.50000000  1.0
  Co  Co5  1  0.00000000  0.00000000  0.00000000  1.0
  Se  Se6  1  0.25282697  0.92763663  0.50000000  1.0
  Se  Se7  1  0.75282697  0.57236337  0.00000000  1.0
  Se  Se8  1  0.74717303  0.07236337  0.50000000  1.0
  Se  Se9  1  0.24717303  0.42763663  0.00000000  1.0
  Cl  Cl10  1  0.18216224  0.60208992  0.50000000  1.0
  Cl  Cl11  1  0.68216224  0.89791008  0.00000000  1.0
  Cl  Cl12  1  0.81783776  0.39791008  0.50000000  1.0
  Cl  Cl13  1  0.31783776  0.10208992  0.00000000  1.0
  O  O14  1  0.09867543  0.89157561  0.25748695  1.0
  O  O15  1  0.09867543  0.89157561  0.74251305  1.0
  O  O16  1  0.59867543  0.60842439  0.75748695  1.0
  O  O17  1  0.59867543  0.60842439  0.24251305  1.0
  O  O18  1  0.90132457  0.10842439  0.25748695  1.0
  O  O19  1  0.90132457  0.10842439  0.74251305  1.0
  O  O20  1  0.40132457  0.39157561  0.75748695  1.0
  O  O21  1  0.40132457  0.39157561  0.24251305  1.0
  O  O22  1  0.41105360  0.82606218  0.50000000  1.0
  O  O23  1  0.91105360  0.67393782  0.00000000  1.0
  O  O24  1  0.58894640  0.17393782  0.50000000  1.0
  O  O25  1  0.08894640  0.32606218  0.00000000  1.0
