# generated using pymatgen
data_NaMnFeF6
_symmetry_space_group_name_H-M   'P 1'
_cell_length_a   9.17156433
_cell_length_b   9.17156433
_cell_length_c   5.06343197
_cell_angle_alpha   90.00000000
_cell_angle_beta   90.00000000
_cell_angle_gamma   120.00000000
_symmetry_Int_Tables_number   1
_chemical_formula_structural   NaMnFeF6
_chemical_formula_sum   'Na3 Mn3 Fe3 F18'
_cell_volume   368.86074915
_cell_formula_units_Z   3
loop_
 _symmetry_equiv_pos_site_id
 _symmetry_equiv_pos_as_xyz
  1  'x, y, z'
loop_
 _atom_site_type_symbol
 _atom_site_label
 _atom_site_symmetry_multiplicity
 _atom_site_fract_x
 _atom_site_fract_y
 _atom_site_fract_z
 _atom_site_occupancy
  Na  Na0  1  0.37164952  0.37164952  0.00000000  1.0
  Na  Na1  1  -0.00000000  0.62835048  0.00000000  1.0
  Na  Na2  1  0.62835048  0.00000000  0.00000000  1.0
  Mn  Mn3  1  0.69964836  0.69964836  0.50000000  1.0
  Mn  Mn4  1  0.00000000  0.30035164  0.50000000  1.0
  Mn  Mn5  1  0.30035164  0.00000000  0.50000000  1.0
  Fe  Fe6  1  0.00000000  0.00000000  0.00000000  1.0
  Fe  Fe7  1  0.33333333  0.66666667  0.50497348  1.0
  Fe  Fe8  1  0.66666667  0.33333333  0.49502652  1.0
  F  F9  1  0.40235518  0.87296762  0.28906800  1.0
  F  F10  1  0.87296762  0.40235518  0.71093200  1.0
  F  F11  1  0.47061244  0.59764482  0.28906800  1.0
  F  F12  1  0.12703238  0.52938756  0.28906800  1.0
  F  F13  1  0.59764482  0.47061244  0.71093200  1.0
  F  F14  1  0.52938756  0.12703238  0.71093200  1.0
  F  F15  1  0.10481297  0.90152275  0.23031168  1.0
  F  F16  1  0.90152275  0.10481297  0.76968832  1.0
  F  F17  1  0.79670978  0.89518703  0.23031168  1.0
  F  F18  1  0.09847725  0.20329022  0.23031168  1.0
  F  F19  1  0.89518703  0.79670978  0.76968832  1.0
  F  F20  1  0.20329022  0.09847725  0.76968832  1.0
  F  F21  1  0.77396560  0.54340508  0.28525541  1.0
  F  F22  1  0.54340508  0.77396560  0.71474459  1.0
  F  F23  1  0.76943948  0.22603440  0.28525541  1.0
  F  F24  1  0.45659492  0.23056052  0.28525541  1.0
  F  F25  1  0.22603440  0.76943948  0.71474459  1.0
  F  F26  1  0.23056052  0.45659492  0.71474459  1.0
