# generated using pymatgen
data_LiP3PbO9
_symmetry_space_group_name_H-M   'P 1'
_cell_length_a   7.64014445
_cell_length_b   7.40388603
_cell_length_c   6.88094113
_cell_angle_alpha   81.56221447
_cell_angle_beta   80.82512583
_cell_angle_gamma   82.78687298
_symmetry_Int_Tables_number   1
_chemical_formula_structural   LiP3PbO9
_chemical_formula_sum   'Li2 P6 Pb2 O18'
_cell_volume   378.00770743
_cell_formula_units_Z   2
loop_
 _symmetry_equiv_pos_site_id
 _symmetry_equiv_pos_as_xyz
  1  'x, y, z'
loop_
 _atom_site_type_symbol
 _atom_site_label
 _atom_site_symmetry_multiplicity
 _atom_site_fract_x
 _atom_site_fract_y
 _atom_site_fract_z
 _atom_site_occupancy
  Li  Li0  1  -0.80708682  -0.31432272  -0.47238312  1.0
  Li  Li1  1  -0.19291318  -0.68567728  -0.52761688  1.0
  P  P2  1  -0.77485450  -0.77912349  -0.85001930  1.0
  P  P3  1  -0.22514550  -0.22087651  -0.14998070  1.0
  P  P4  1  -0.43247260  -0.33980532  -0.77146993  1.0
  P  P5  1  -0.56752740  -0.66019468  -0.22853007  1.0
  P  P6  1  -0.78881752  -0.88385153  -0.41411399  1.0
  P  P7  1  -0.21118248  -0.11614847  -0.58588601  1.0
  Pb  Pb8  1  -0.85033996  -0.26904744  -0.97782091  1.0
  Pb  Pb9  1  -0.14966004  -0.73095256  -0.02217909  1.0
  O  O10  1  -0.58874262  -0.73081998  -0.98841999  1.0
  O  O11  1  -0.41125738  -0.26918002  -0.01158001  1.0
  O  O12  1  -0.84633623  -0.93113089  -0.92942229  1.0
  O  O13  1  -0.15366377  -0.06886911  -0.07057771  1.0
  O  O14  1  -0.90608920  -0.60851823  -0.83524697  1.0
  O  O15  1  -0.09391080  -0.39148177  -0.16475303  1.0
  O  O16  1  -0.30848605  -0.51158063  -0.73440755  1.0
  O  O17  1  -0.69151395  -0.48841937  -0.26559245  1.0
  O  O18  1  -0.63135852  -0.34132040  -0.71287244  1.0
  O  O19  1  -0.36864148  -0.65867960  -0.28712756  1.0
  O  O20  1  -0.69743330  -0.84800497  -0.64648489  1.0
  O  O21  1  -0.30256670  -0.15199503  -0.35351511  1.0
  O  O22  1  -0.20447810  -0.91253247  -0.64142991  1.0
  O  O23  1  -0.79552190  -0.08746753  -0.35857009  1.0
  O  O24  1  -0.95655481  -0.75412882  -0.37693010  1.0
  O  O25  1  -0.04344519  -0.24587118  -0.62306990  1.0
  O  O26  1  -0.62587318  -0.83054835  -0.31619565  1.0
  O  O27  1  -0.37412682  -0.16945165  -0.68380435  1.0
