# generated using pymatgen
data_Hf3In4
_symmetry_space_group_name_H-M   'P 1'
_cell_length_a   10.30796339
_cell_length_b   10.30796339
_cell_length_c   3.12203733
_cell_angle_alpha   90.00000000
_cell_angle_beta   90.00000000
_cell_angle_gamma   90.00000000
_symmetry_Int_Tables_number   1
_chemical_formula_structural   Hf3In4
_chemical_formula_sum   'Hf6 In8'
_cell_volume   331.72929556
_cell_formula_units_Z   2
loop_
 _symmetry_equiv_pos_site_id
 _symmetry_equiv_pos_as_xyz
  1  'x, y, z'
loop_
 _atom_site_type_symbol
 _atom_site_label
 _atom_site_symmetry_multiplicity
 _atom_site_fract_x
 _atom_site_fract_y
 _atom_site_fract_z
 _atom_site_occupancy
  Hf  Hf0  1  0.31264359  0.18735641  0.50000000  1.0
  Hf  Hf1  1  0.81264359  0.31264359  0.50000000  1.0
  Hf  Hf2  1  0.68735641  0.81264359  0.50000000  1.0
  Hf  Hf3  1  0.18735641  0.68735641  0.50000000  1.0
  Hf  Hf4  1  0.50000000  0.00000000  0.00000000  1.0
  Hf  Hf5  1  0.00000000  0.50000000  0.00000000  1.0
  In  In6  1  0.44924619  0.70692383  0.00000000  1.0
  In  In7  1  0.94924619  0.79307617  0.00000000  1.0
  In  In8  1  0.29307617  0.44924619  0.00000000  1.0
  In  In9  1  0.79307617  0.05075381  0.00000000  1.0
  In  In10  1  0.55075381  0.29307617  0.00000000  1.0
  In  In11  1  0.05075381  0.20692383  0.00000000  1.0
  In  In12  1  0.70692383  0.55075381  0.00000000  1.0
  In  In13  1  0.20692383  0.94924619  0.00000000  1.0
