# generated using pymatgen
data_Hf2Zn25Ni
_symmetry_space_group_name_H-M   'P 1'
_cell_length_a   11.75557116
_cell_length_b   11.75557116
_cell_length_c   11.75557116
_cell_angle_alpha   60.00000000
_cell_angle_beta   60.00000000
_cell_angle_gamma   60.00000000
_symmetry_Int_Tables_number   1
_chemical_formula_structural   Hf2Zn25Ni
_chemical_formula_sum   'Hf4 Zn50 Ni2'
_cell_volume   1148.72535252
_cell_formula_units_Z   2
loop_
 _symmetry_equiv_pos_site_id
 _symmetry_equiv_pos_as_xyz
  1  'x, y, z'
loop_
 _atom_site_type_symbol
 _atom_site_label
 _atom_site_symmetry_multiplicity
 _atom_site_fract_x
 _atom_site_fract_y
 _atom_site_fract_z
 _atom_site_occupancy
  Hf  Hf0  1  0.62500000  -0.37500000  1.12500000  1.0
  Hf  Hf1  1  0.62500000  0.12500000  0.62500000  1.0
  Hf  Hf2  1  0.62500000  -0.37500000  0.62500000  1.0
  Hf  Hf3  1  1.12500000  -0.37500000  0.62500000  1.0
  Zn  Zn4  1  0.50000000  0.50000000  -0.50000000  1.0
  Zn  Zn5  1  0.75000000  -0.25000000  0.75000000  1.0
  Zn  Zn6  1  0.78092490  -0.21907510  1.01209491  1.0
  Zn  Zn7  1  -0.57394471  0.78092490  1.01209491  1.0
  Zn  Zn8  1  -0.57394471  1.01209491  0.78092490  1.0
  Zn  Zn9  1  0.78092490  0.01209491  0.78092490  1.0
  Zn  Zn10  1  0.46907510  0.46907510  -0.17605529  1.0
  Zn  Zn11  1  0.46907510  -0.17605529  0.46907510  1.0
  Zn  Zn12  1  0.23790509  -0.17605529  0.46907510  1.0
  Zn  Zn13  1  0.23790509  0.46907510  -0.17605529  1.0
  Zn  Zn14  1  0.78092490  -0.57394471  1.01209491  1.0
  Zn  Zn15  1  -0.21907510  1.01209491  0.42605529  1.0
  Zn  Zn16  1  -0.17605529  0.46907510  0.46907510  1.0
  Zn  Zn17  1  0.23790509  0.46907510  0.46907510  1.0
  Zn  Zn18  1  1.01209491  -0.57394471  0.78092490  1.0
  Zn  Zn19  1  0.01209491  0.78092490  0.42605529  1.0
  Zn  Zn20  1  -0.21907510  0.78092490  0.42605529  1.0
  Zn  Zn21  1  0.78092490  -0.57394471  0.78092490  1.0
  Zn  Zn22  1  -0.17605529  0.23790509  0.46907510  1.0
  Zn  Zn23  1  0.46907510  0.23790509  0.46907510  1.0
  Zn  Zn24  1  0.46907510  0.46907510  0.23790509  1.0
  Zn  Zn25  1  -0.17605529  0.46907510  0.23790509  1.0
  Zn  Zn26  1  1.01209491  -0.21907510  0.78092490  1.0
  Zn  Zn27  1  -0.57394471  0.78092490  0.78092490  1.0
  Zn  Zn28  1  0.46907510  0.23790509  -0.17605529  1.0
  Zn  Zn29  1  0.46907510  -0.17605529  0.23790509  1.0
  Zn  Zn30  1  1.00878964  -0.77708252  0.75950324  1.0
  Zn  Zn31  1  0.00878964  0.75950324  0.22291748  1.0
  Zn  Zn32  1  0.02708252  0.24121036  0.24121036  1.0
  Zn  Zn33  1  0.49049676  0.24121036  0.24121036  1.0
  Zn  Zn34  1  -0.77708252  1.00878964  0.75950324  1.0
  Zn  Zn35  1  1.00878964  0.00878964  0.75950324  1.0
  Zn  Zn36  1  1.00878964  -0.24049676  1.00878964  1.0
  Zn  Zn37  1  -0.77708252  0.75950324  1.00878964  1.0
  Zn  Zn38  1  0.24121036  0.02708252  0.24121036  1.0
  Zn  Zn39  1  0.24121036  0.24121036  0.02708252  1.0
  Zn  Zn40  1  0.49049676  0.24121036  0.02708252  1.0
  Zn  Zn41  1  0.49049676  0.02708252  0.24121036  1.0
  Zn  Zn42  1  0.75950324  0.00878964  1.00878964  1.0
  Zn  Zn43  1  -0.77708252  1.00878964  1.00878964  1.0
  Zn  Zn44  1  0.24121036  0.49049676  0.02708252  1.0
  Zn  Zn45  1  0.24121036  0.02708252  0.49049676  1.0
  Zn  Zn46  1  -0.24049676  1.00878964  0.22291748  1.0
  Zn  Zn47  1  0.75950324  -0.77708252  1.00878964  1.0
  Zn  Zn48  1  1.00878964  -0.77708252  1.00878964  1.0
  Zn  Zn49  1  0.00878964  1.00878964  0.22291748  1.0
  Zn  Zn50  1  0.24121036  0.49049676  0.24121036  1.0
  Zn  Zn51  1  0.02708252  0.49049676  0.24121036  1.0
  Zn  Zn52  1  0.02708252  0.24121036  0.49049676  1.0
  Zn  Zn53  1  0.24121036  0.24121036  0.49049676  1.0
  Ni  Ni54  1  -0.00000000  1.00000000  0.00000000  1.0
  Ni  Ni55  1  0.25000000  0.25000000  0.25000000  1.0
