# generated using pymatgen
data_Sr7Ge6
_symmetry_space_group_name_H-M   'P 1'
_cell_length_a   7.84621643
_cell_length_b   23.77790955
_cell_length_c   8.58198592
_cell_angle_alpha   90.00000000
_cell_angle_beta   90.00000000
_cell_angle_gamma   90.00000000
_symmetry_Int_Tables_number   1
_chemical_formula_structural   Sr7Ge6
_chemical_formula_sum   'Sr28 Ge24'
_cell_volume   1601.11214510
_cell_formula_units_Z   4
loop_
 _symmetry_equiv_pos_site_id
 _symmetry_equiv_pos_as_xyz
  1  'x, y, z'
loop_
 _atom_site_type_symbol
 _atom_site_label
 _atom_site_symmetry_multiplicity
 _atom_site_fract_x
 _atom_site_fract_y
 _atom_site_fract_z
 _atom_site_occupancy
  Sr  Sr0  1  0.52949455  0.33826749  0.32118296  1.0
  Sr  Sr1  1  0.52949455  0.16173251  0.32118296  1.0
  Sr  Sr2  1  0.02949455  0.33826749  0.17881704  1.0
  Sr  Sr3  1  0.02949455  0.16173251  0.17881704  1.0
  Sr  Sr4  1  0.47050545  0.83826749  0.67881704  1.0
  Sr  Sr5  1  0.47050545  0.66173251  0.67881704  1.0
  Sr  Sr6  1  0.97050545  0.83826749  0.82118296  1.0
  Sr  Sr7  1  0.97050545  0.66173251  0.82118296  1.0
  Sr  Sr8  1  0.36892634  0.35791713  0.81670996  1.0
  Sr  Sr9  1  0.36892634  0.14208287  0.81670996  1.0
  Sr  Sr10  1  0.86892634  0.35791713  0.68329004  1.0
  Sr  Sr11  1  0.86892634  0.14208287  0.68329004  1.0
  Sr  Sr12  1  0.63107366  0.85791713  0.18329004  1.0
  Sr  Sr13  1  0.63107366  0.64208287  0.18329004  1.0
  Sr  Sr14  1  0.13107366  0.85791713  0.31670996  1.0
  Sr  Sr15  1  0.13107366  0.64208287  0.31670996  1.0
  Sr  Sr16  1  0.16384729  0.98239559  0.67936015  1.0
  Sr  Sr17  1  0.16384729  0.51760441  0.67936015  1.0
  Sr  Sr18  1  0.66384729  0.98239559  0.82063985  1.0
  Sr  Sr19  1  0.66384729  0.51760441  0.82063985  1.0
  Sr  Sr20  1  0.83615271  0.48239559  0.32063985  1.0
  Sr  Sr21  1  0.83615271  0.01760441  0.32063985  1.0
  Sr  Sr22  1  0.33615271  0.48239559  0.17936015  1.0
  Sr  Sr23  1  0.33615271  0.01760441  0.17936015  1.0
  Sr  Sr24  1  0.19872438  0.25000000  0.52326097  1.0
  Sr  Sr25  1  0.69872438  0.25000000  0.97673903  1.0
  Sr  Sr26  1  0.80127562  0.75000000  0.47673903  1.0
  Sr  Sr27  1  0.30127562  0.75000000  0.02326097  1.0
  Ge  Ge28  1  0.49482685  0.44775720  0.53751149  1.0
  Ge  Ge29  1  0.49482685  0.05224280  0.53751149  1.0
  Ge  Ge30  1  0.99482685  0.44775720  0.96248851  1.0
  Ge  Ge31  1  0.99482685  0.05224280  0.96248851  1.0
  Ge  Ge32  1  0.50517315  0.94775720  0.46248851  1.0
  Ge  Ge33  1  0.50517315  0.55224280  0.46248851  1.0
  Ge  Ge34  1  0.00517315  0.94775720  0.03751149  1.0
  Ge  Ge35  1  0.00517315  0.55224280  0.03751149  1.0
  Ge  Ge36  1  0.30159948  0.90343996  0.97299486  1.0
  Ge  Ge37  1  0.30159948  0.59656004  0.97299486  1.0
  Ge  Ge38  1  0.80159948  0.90343996  0.52700514  1.0
  Ge  Ge39  1  0.80159948  0.59656004  0.52700514  1.0
  Ge  Ge40  1  0.69840052  0.40343996  0.02700514  1.0
  Ge  Ge41  1  0.69840052  0.09656004  0.02700514  1.0
  Ge  Ge42  1  0.19840052  0.40343996  0.47299486  1.0
  Ge  Ge43  1  0.19840052  0.09656004  0.47299486  1.0
  Ge  Ge44  1  0.32172996  0.25000000  0.09646386  1.0
  Ge  Ge45  1  0.82172996  0.25000000  0.40353614  1.0
  Ge  Ge46  1  0.67827004  0.75000000  0.90353614  1.0
  Ge  Ge47  1  0.17827004  0.75000000  0.59646386  1.0
  Ge  Ge48  1  0.09575894  0.25000000  0.88126510  1.0
  Ge  Ge49  1  0.59575894  0.25000000  0.61873490  1.0
  Ge  Ge50  1  0.90424106  0.75000000  0.11873490  1.0
  Ge  Ge51  1  0.40424106  0.75000000  0.38126510  1.0
