# generated using pymatgen
data_KHS2O7
_symmetry_space_group_name_H-M   'P 1'
_cell_length_a   7.54809541
_cell_length_b   10.84144276
_cell_length_c   8.64839257
_cell_angle_alpha   90.00000000
_cell_angle_beta   110.73158462
_cell_angle_gamma   90.00000000
_symmetry_Int_Tables_number   1
_chemical_formula_structural   KHS2O7
_chemical_formula_sum   'K4 H4 S8 O28'
_cell_volume   661.89198941
_cell_formula_units_Z   4
loop_
 _symmetry_equiv_pos_site_id
 _symmetry_equiv_pos_as_xyz
  1  'x, y, z'
loop_
 _atom_site_type_symbol
 _atom_site_label
 _atom_site_symmetry_multiplicity
 _atom_site_fract_x
 _atom_site_fract_y
 _atom_site_fract_z
 _atom_site_occupancy
  K  K0  1  0.85426507  0.70809489  0.45613576  1.0
  K  K1  1  0.85426507  0.79190511  0.95613576  1.0
  K  K2  1  0.14573493  0.20809489  0.04386424  1.0
  K  K3  1  0.14573493  0.29190511  0.54386424  1.0
  H  H4  1  0.59805092  0.05555599  0.29540951  1.0
  H  H5  1  0.59805092  0.44444401  0.79540951  1.0
  H  H6  1  0.40194908  0.55555599  0.20459049  1.0
  H  H7  1  0.40194908  0.94444401  0.70459049  1.0
  S  S8  1  0.83189416  0.44583658  0.11757612  1.0
  S  S9  1  0.83189416  0.05416342  0.61757612  1.0
  S  S10  1  0.16810584  0.94583658  0.38242388  1.0
  S  S11  1  0.16810584  0.55416342  0.88242388  1.0
  S  S12  1  0.59716265  0.40663722  0.32023941  1.0
  S  S13  1  0.59716265  0.09336278  0.82023941  1.0
  S  S14  1  0.40283735  0.90663722  0.17976059  1.0
  S  S15  1  0.40283735  0.59336278  0.67976059  1.0
  O  O16  1  0.99137203  0.37351287  0.22231849  1.0
  O  O17  1  0.99137203  0.12648713  0.72231849  1.0
  O  O18  1  0.00862797  0.87351287  0.27768151  1.0
  O  O19  1  0.00862797  0.62648713  0.77768151  1.0
  O  O20  1  0.77945947  0.08382601  0.44127228  1.0
  O  O21  1  0.77945947  0.41617399  0.94127228  1.0
  O  O22  1  0.22054053  0.58382601  0.05872772  1.0
  O  O23  1  0.22054053  0.91617399  0.55872772  1.0
  O  O24  1  0.77282379  0.40493740  0.45950322  1.0
  O  O25  1  0.77282379  0.09506260  0.95950322  1.0
  O  O26  1  0.22717621  0.90493740  0.04049678  1.0
  O  O27  1  0.22717621  0.59506260  0.54049678  1.0
  O  O28  1  0.63595340  0.38375160  0.15044177  1.0
  O  O29  1  0.63595340  0.11624840  0.65044177  1.0
  O  O30  1  0.36404660  0.88375160  0.34955823  1.0
  O  O31  1  0.36404660  0.61624840  0.84955823  1.0
  O  O32  1  0.47546787  0.04261949  0.19423992  1.0
  O  O33  1  0.47546787  0.45738051  0.69423992  1.0
  O  O34  1  0.52453213  0.54261949  0.30576008  1.0
  O  O35  1  0.52453213  0.95738051  0.80576008  1.0
  O  O36  1  0.44742462  0.32069430  0.30937011  1.0
  O  O37  1  0.44742462  0.17930570  0.80937011  1.0
  O  O38  1  0.55257538  0.82069430  0.19062989  1.0
  O  O39  1  0.55257538  0.67930570  0.69062989  1.0
  O  O40  1  0.16996139  0.07615017  0.34327599  1.0
  O  O41  1  0.16996139  0.42384983  0.84327599  1.0
  O  O42  1  0.83003861  0.57615017  0.15672401  1.0
  O  O43  1  0.83003861  0.92384983  0.65672401  1.0
