# generated using pymatgen
data_La2NCl3
_symmetry_space_group_name_H-M   'P 1'
_cell_length_a   8.37727108
_cell_length_b   8.37727108
_cell_length_c   8.37727108
_cell_angle_alpha   130.62788551
_cell_angle_beta   67.83718153
_cell_angle_gamma   136.56011527
_symmetry_Int_Tables_number   1
_chemical_formula_structural   La2NCl3
_chemical_formula_sum   'La4 N2 Cl6'
_cell_volume   301.61284286
_cell_formula_units_Z   2
loop_
 _symmetry_equiv_pos_site_id
 _symmetry_equiv_pos_as_xyz
  1  'x, y, z'
loop_
 _atom_site_type_symbol
 _atom_site_label
 _atom_site_symmetry_multiplicity
 _atom_site_fract_x
 _atom_site_fract_y
 _atom_site_fract_z
 _atom_site_occupancy
  La  La0  1  0.40655802  0.32383351  0.73039152  1.0
  La  La1  1  0.09344198  0.82383351  0.91727549  1.0
  La  La2  1  0.90655802  1.17616649  1.08272451  1.0
  La  La3  1  0.59344198  0.67616649  0.26960848  1.0
  N  N4  1  0.25000000  0.25000000  0.00000000  1.0
  N  N5  1  0.75000000  0.75000000  0.00000000  1.0
  Cl  Cl6  1  0.25000000  0.75000000  0.50000000  1.0
  Cl  Cl7  1  0.75000000  1.25000000  0.50000000  1.0
  Cl  Cl8  1  0.19910544  0.18143229  0.38053774  1.0
  Cl  Cl9  1  0.30089456  0.68143229  0.98232685  1.0
  Cl  Cl10  1  0.69910544  1.31856771  1.01767315  1.0
  Cl  Cl11  1  0.80089456  0.81856771  0.61946226  1.0
