# generated using pymatgen
data_TiCo2
_symmetry_space_group_name_H-M   'P 1'
_cell_length_a   4.71538200
_cell_length_b   4.71538200
_cell_length_c   15.31654115
_cell_angle_alpha   90.00000000
_cell_angle_beta   90.00000000
_cell_angle_gamma   120.00000000
_symmetry_Int_Tables_number   1
_chemical_formula_structural   TiCo2
_chemical_formula_sum   'Ti8 Co16'
_cell_volume   294.93417362
_cell_formula_units_Z   8
loop_
 _symmetry_equiv_pos_site_id
 _symmetry_equiv_pos_as_xyz
  1  'x, y, z'
loop_
 _atom_site_type_symbol
 _atom_site_label
 _atom_site_symmetry_multiplicity
 _atom_site_fract_x
 _atom_site_fract_y
 _atom_site_fract_z
 _atom_site_occupancy
  Ti  Ti0  1  0.33333333  0.66666667  0.84396697  1.0
  Ti  Ti1  1  0.33333333  0.66666667  0.65603303  1.0
  Ti  Ti2  1  0.66666667  0.33333333  0.34396697  1.0
  Ti  Ti3  1  0.66666667  0.33333333  0.15603303  1.0
  Ti  Ti4  1  0.00000000  0.00000000  0.40820736  1.0
  Ti  Ti5  1  0.00000000  0.00000000  0.09179264  1.0
  Ti  Ti6  1  0.00000000  0.00000000  0.90820736  1.0
  Ti  Ti7  1  0.00000000  0.00000000  0.59179264  1.0
  Co  Co8  1  0.16290395  0.83709605  0.25000000  1.0
  Co  Co9  1  0.16290395  0.32580791  0.25000000  1.0
  Co  Co10  1  0.83709605  0.16290395  0.75000000  1.0
  Co  Co11  1  0.83709605  0.67419209  0.75000000  1.0
  Co  Co12  1  0.67419209  0.83709605  0.25000000  1.0
  Co  Co13  1  0.32580791  0.16290395  0.75000000  1.0
  Co  Co14  1  0.50000000  0.50000000  0.50000000  1.0
  Co  Co15  1  0.50000000  0.50000000  0.00000000  1.0
  Co  Co16  1  0.50000000  0.00000000  0.50000000  1.0
  Co  Co17  1  0.50000000  0.00000000  0.00000000  1.0
  Co  Co18  1  0.00000000  0.50000000  0.50000000  1.0
  Co  Co19  1  0.00000000  0.50000000  0.00000000  1.0
  Co  Co20  1  0.33333333  0.66666667  0.37368780  1.0
  Co  Co21  1  0.33333333  0.66666667  0.12631220  1.0
  Co  Co22  1  0.66666667  0.33333333  0.87368780  1.0
  Co  Co23  1  0.66666667  0.33333333  0.62631220  1.0
