# generated using pymatgen
data_Cs3Na2SnP3
_symmetry_space_group_name_H-M   'P 1'
_cell_length_a   10.87582838
_cell_length_b   10.87582838
_cell_length_c   16.51434089
_cell_angle_alpha   90.00000000
_cell_angle_beta   90.00000000
_cell_angle_gamma   37.17278825
_symmetry_Int_Tables_number   1
_chemical_formula_structural   Cs3Na2SnP3
_chemical_formula_sum   'Cs12 Na8 Sn4 P12'
_cell_volume   1180.27054840
_cell_formula_units_Z   4
loop_
 _symmetry_equiv_pos_site_id
 _symmetry_equiv_pos_as_xyz
  1  'x, y, z'
loop_
 _atom_site_type_symbol
 _atom_site_label
 _atom_site_symmetry_multiplicity
 _atom_site_fract_x
 _atom_site_fract_y
 _atom_site_fract_z
 _atom_site_occupancy
  Cs  Cs0  1  0.10702398  0.55947049  0.82711805  1.0
  Cs  Cs1  1  -0.39297602  1.05947049  0.67288195  1.0
  Cs  Cs2  1  -0.44052951  1.10702398  0.17288195  1.0
  Cs  Cs3  1  0.05947049  0.60702398  0.32711805  1.0
  Cs  Cs4  1  -0.55947049  0.89297602  0.82711805  1.0
  Cs  Cs5  1  -0.05947049  0.39297602  0.67288195  1.0
  Cs  Cs6  1  -0.10702398  0.44052951  0.17288195  1.0
  Cs  Cs7  1  -0.60702398  0.94052951  0.32711805  1.0
  Cs  Cs8  1  -0.76666895  0.76666895  0.67783120  1.0
  Cs  Cs9  1  -0.26666895  0.26666895  0.82216880  1.0
  Cs  Cs10  1  -0.23333105  0.23333105  0.32216880  1.0
  Cs  Cs11  1  -0.73333105  0.73333105  0.17783120  1.0
  Na  Na12  1  -0.25447199  0.74552801  0.00000000  1.0
  Na  Na13  1  0.24552801  0.24552801  0.50000000  1.0
  Na  Na14  1  0.25447199  0.25447199  0.00000000  1.0
  Na  Na15  1  -0.24552801  0.75447199  0.50000000  1.0
  Na  Na16  1  -0.41933165  0.58066835  0.00000000  1.0
  Na  Na17  1  0.08066835  0.08066835  0.50000000  1.0
  Na  Na18  1  0.41933165  0.41933165  0.00000000  1.0
  Na  Na19  1  -0.08066835  0.91933165  0.50000000  1.0
  Sn  Sn20  1  -0.08727509  0.91272491  0.00000000  1.0
  Sn  Sn21  1  0.41272491  0.41272491  0.50000000  1.0
  Sn  Sn22  1  0.08727509  0.08727509  0.00000000  1.0
  Sn  Sn23  1  -0.41272491  0.58727509  0.50000000  1.0
  P  P24  1  -0.06035775  0.37495521  0.90845376  1.0
  P  P25  1  -0.56035775  0.87495521  0.59154624  1.0
  P  P26  1  -0.62504479  0.93964225  0.09154624  1.0
  P  P27  1  -0.12504479  0.43964225  0.40845376  1.0
  P  P28  1  -0.37495521  1.06035775  0.90845376  1.0
  P  P29  1  0.12504479  0.56035775  0.59154624  1.0
  P  P30  1  0.06035775  0.62504479  0.09154624  1.0
  P  P31  1  -0.43964225  1.12504479  0.40845376  1.0
  P  P32  1  -0.79919199  0.79919199  0.91717529  1.0
  P  P33  1  -0.29919199  0.29919199  0.58282471  1.0
  P  P34  1  -0.20080801  0.20080801  0.08282471  1.0
  P  P35  1  -0.70080801  0.70080801  0.41717529  1.0
