# generated using pymatgen
data_Be12V
_symmetry_space_group_name_H-M   'P 1'
_cell_length_a   5.50733471
_cell_length_b   5.50733471
_cell_length_c   5.50733471
_cell_angle_alpha   98.13271536
_cell_angle_beta   98.13271536
_cell_angle_gamma   135.81285387
_symmetry_Int_Tables_number   1
_chemical_formula_structural   Be12V
_chemical_formula_sum   'Be12 V1'
_cell_volume   107.87938578
_cell_formula_units_Z   1
loop_
 _symmetry_equiv_pos_site_id
 _symmetry_equiv_pos_as_xyz
  1  'x, y, z'
loop_
 _atom_site_type_symbol
 _atom_site_label
 _atom_site_symmetry_multiplicity
 _atom_site_fract_x
 _atom_site_fract_y
 _atom_site_fract_z
 _atom_site_occupancy
  Be  Be0  1  0.50000000  0.71195956  0.21195956  1.0
  Be  Be1  1  0.71195956  0.50000000  1.21195956  1.0
  Be  Be2  1  0.28804044  0.50000000  0.78804044  1.0
  Be  Be3  1  0.50000000  1.28804044  0.78804044  1.0
  Be  Be4  1  0.00000000  0.65100530  0.65100530  1.0
  Be  Be5  1  0.65100530  1.00000000  0.65100530  1.0
  Be  Be6  1  1.34899470  1.00000000  1.34899470  1.0
  Be  Be7  1  0.00000000  0.34899470  0.34899470  1.0
  Be  Be8  1  0.50000000  0.50000000  0.50000000  1.0
  Be  Be9  1  1.00000000  1.00000000  0.50000000  1.0
  Be  Be10  1  1.00000000  0.50000000  1.00000000  1.0
  Be  Be11  1  1.50000000  1.00000000  1.00000000  1.0
  V  V12  1  0.00000000  -0.00000000  0.00000000  1.0
