# generated using pymatgen
data_Cs2MnSO4F3
_symmetry_space_group_name_H-M   'P 1'
_cell_length_a   7.58856884
_cell_length_b   11.83743331
_cell_length_c   9.36112932
_cell_angle_alpha   90.00000000
_cell_angle_beta   93.47716362
_cell_angle_gamma   90.00000000
_symmetry_Int_Tables_number   1
_chemical_formula_structural   Cs2MnSO4F3
_chemical_formula_sum   'Cs8 Mn4 S4 O16 F12'
_cell_volume   839.35448890
_cell_formula_units_Z   4
loop_
 _symmetry_equiv_pos_site_id
 _symmetry_equiv_pos_as_xyz
  1  'x, y, z'
loop_
 _atom_site_type_symbol
 _atom_site_label
 _atom_site_symmetry_multiplicity
 _atom_site_fract_x
 _atom_site_fract_y
 _atom_site_fract_z
 _atom_site_occupancy
  Cs  Cs0  1  0.78963840  0.81097096  0.32727753  1.0
  Cs  Cs1  1  0.78963840  0.68902904  0.82727753  1.0
  Cs  Cs2  1  0.21036160  0.31097096  0.17272247  1.0
  Cs  Cs3  1  0.21036160  0.18902904  0.67272247  1.0
  Cs  Cs4  1  0.70123610  0.18770631  0.33273122  1.0
  Cs  Cs5  1  0.70123610  0.31229369  0.83273122  1.0
  Cs  Cs6  1  0.29876390  0.68770631  0.16726878  1.0
  Cs  Cs7  1  0.29876390  0.81229369  0.66726878  1.0
  Mn  Mn8  1  0.50000000  0.50000000  0.50000000  1.0
  Mn  Mn9  1  0.50000000  0.00000000  0.00000000  1.0
  Mn  Mn10  1  -0.00000000  0.50000000  0.50000000  1.0
  Mn  Mn11  1  0.00000000  0.00000000  0.00000000  1.0
  S  S12  1  0.75400927  0.49801282  0.20768758  1.0
  S  S13  1  0.75400927  0.00198718  0.70768758  1.0
  S  S14  1  0.24599073  0.99801282  0.29231242  1.0
  S  S15  1  0.24599073  0.50198718  0.79231242  1.0
  O  O16  1  0.89729113  0.95121650  0.81452945  1.0
  O  O17  1  0.89729113  0.54878350  0.31452945  1.0
  O  O18  1  0.10270887  0.45121650  0.68547055  1.0
  O  O19  1  0.10270887  0.04878350  0.18547055  1.0
  O  O20  1  0.83411031  0.40776844  0.12392472  1.0
  O  O21  1  0.83411031  0.09223156  0.62392472  1.0
  O  O22  1  0.16588969  0.90776844  0.37607528  1.0
  O  O23  1  0.16588969  0.59223156  0.87607528  1.0
  O  O24  1  0.60872002  0.44955604  0.29073662  1.0
  O  O25  1  0.60872002  0.05044396  0.79073662  1.0
  O  O26  1  0.39127998  0.94955604  0.20926338  1.0
  O  O27  1  0.39127998  0.55044396  0.70926338  1.0
  O  O28  1  0.30995997  0.09437467  0.38153118  1.0
  O  O29  1  0.30995997  0.40562533  0.88153118  1.0
  O  O30  1  0.69004003  0.59437467  0.11846882  1.0
  O  O31  1  0.69004003  0.90562533  0.61846882  1.0
  F  F32  1  0.98079542  0.34943625  0.45114740  1.0
  F  F33  1  0.98079542  0.15056375  0.95114740  1.0
  F  F34  1  0.01920458  0.84943625  0.04885260  1.0
  F  F35  1  0.01920458  0.65056375  0.54885260  1.0
  F  F36  1  0.73238092  0.00164040  0.09020500  1.0
  F  F37  1  0.73238092  0.49835960  0.59020500  1.0
  F  F38  1  0.26761908  0.50164040  0.40979500  1.0
  F  F39  1  0.26761908  0.99835960  0.90979500  1.0
  F  F40  1  0.47946927  0.15261531  0.03875405  1.0
  F  F41  1  0.47946927  0.34738469  0.53875405  1.0
  F  F42  1  0.52053073  0.65261531  0.46124595  1.0
  F  F43  1  0.52053073  0.84738469  0.96124595  1.0
