# generated using pymatgen
data_Li2Cr2H4O9
_symmetry_space_group_name_H-M   'P 1'
_cell_length_a   5.43018541
_cell_length_b   5.43018541
_cell_length_c   13.04315102
_cell_angle_alpha   85.90064537
_cell_angle_beta   94.09935463
_cell_angle_gamma   88.45377150
_symmetry_Int_Tables_number   1
_chemical_formula_structural   Li2Cr2H4O9
_chemical_formula_sum   'Li4 Cr4 H8 O18'
_cell_volume   382.43770106
_cell_formula_units_Z   2
loop_
 _symmetry_equiv_pos_site_id
 _symmetry_equiv_pos_as_xyz
  1  'x, y, z'
loop_
 _atom_site_type_symbol
 _atom_site_label
 _atom_site_symmetry_multiplicity
 _atom_site_fract_x
 _atom_site_fract_y
 _atom_site_fract_z
 _atom_site_occupancy
  Li  Li0  1  1.23463630  0.23463630  0.25000000  1.0
  Li  Li1  1  0.76536370  -0.23463630  0.75000000  1.0
  Li  Li2  1  1.50000000  0.00000000  0.50000000  1.0
  Li  Li3  1  1.00000000  -0.50000000  -0.00000000  1.0
  Cr  Cr4  1  0.74589416  -0.01084913  0.14129596  1.0
  Cr  Cr5  1  1.01084913  0.25410584  0.64129596  1.0
  Cr  Cr6  1  0.98915087  -0.25410584  0.35870404  1.0
  Cr  Cr7  1  1.25410584  0.01084913  0.85870404  1.0
  H  H8  1  1.64476160  0.32935775  0.35179209  1.0
  H  H9  1  0.67064225  -0.64476160  0.85179209  1.0
  H  H10  1  1.32935775  0.64476160  0.14820791  1.0
  H  H11  1  0.35523840  -0.32935775  0.64820791  1.0
  H  H12  1  1.41488979  0.44293335  0.39674066  1.0
  H  H13  1  0.55706665  -0.41488979  0.89674066  1.0
  H  H14  1  1.44293335  0.41488979  0.10325934  1.0
  H  H15  1  0.58511021  -0.44293335  0.60325934  1.0
  O  O16  1  0.78843578  -0.18018063  0.43687682  1.0
  O  O17  1  1.18018063  0.21156422  0.93687682  1.0
  O  O18  1  0.81981937  -0.21156422  0.06312318  1.0
  O  O19  1  1.21156422  0.18018063  0.56312318  1.0
  O  O20  1  0.47219213  -0.06084415  0.18034505  1.0
  O  O21  1  1.06084415  0.52780787  0.68034505  1.0
  O  O22  1  0.93915585  -0.52780787  0.31965495  1.0
  O  O23  1  1.52780787  0.06084415  0.81965495  1.0
  O  O24  1  0.26677505  -0.24884027  0.41332970  1.0
  O  O25  1  1.24884027  0.73322495  0.91332970  1.0
  O  O26  1  0.75115973  -0.73322495  0.08667030  1.0
  O  O27  1  1.73322495  0.24884027  0.58667030  1.0
  O  O28  1  1.47592678  0.28903813  0.36972781  1.0
  O  O29  1  0.71096187  -0.47592678  0.86972781  1.0
  O  O30  1  1.28903813  0.47592678  0.13027219  1.0
  O  O31  1  0.52407322  -0.28903813  0.63027219  1.0
  O  O32  1  0.96982861  -0.03017139  0.25000000  1.0
  O  O33  1  1.03017139  0.03017139  0.75000000  1.0
