# generated using pymatgen
data_FeP4
_symmetry_space_group_name_H-M   'P 1'
_cell_length_a   5.70278106
_cell_length_b   5.70278106
_cell_length_c   5.54036444
_cell_angle_alpha   90.00000000
_cell_angle_beta   90.00000000
_cell_angle_gamma   127.84118691
_symmetry_Int_Tables_number   1
_chemical_formula_structural   FeP4
_chemical_formula_sum   'Fe2 P8'
_cell_volume   142.29239527
_cell_formula_units_Z   2
loop_
 _symmetry_equiv_pos_site_id
 _symmetry_equiv_pos_as_xyz
  1  'x, y, z'
loop_
 _atom_site_type_symbol
 _atom_site_label
 _atom_site_symmetry_multiplicity
 _atom_site_fract_x
 _atom_site_fract_y
 _atom_site_fract_z
 _atom_site_occupancy
  Fe  Fe0  1  -0.82581756  0.82581756  0.25000000  1.0
  Fe  Fe1  1  -0.17418244  1.17418244  0.75000000  1.0
  P  P2  1  -0.26938493  1.69383257  0.19845730  1.0
  P  P3  1  -0.30616743  0.73061507  0.80154270  1.0
  P  P4  1  -0.69383257  1.26938493  0.30154270  1.0
  P  P5  1  0.26938493  1.30616743  0.69845730  1.0
  P  P6  1  -0.00326890  1.36341236  0.13217112  1.0
  P  P7  1  -0.63658764  0.99673110  0.86782888  1.0
  P  P8  1  -0.36341236  1.00326890  0.36782888  1.0
  P  P9  1  0.00326890  1.63658764  0.63217112  1.0
