# generated using pymatgen
data_La2MgMnO6
_symmetry_space_group_name_H-M   'P 1'
_cell_length_a   5.48346968
_cell_length_b   5.48346968
_cell_length_c   5.48346968
_cell_angle_alpha   60.91538506
_cell_angle_beta   60.91538506
_cell_angle_gamma   60.91538506
_symmetry_Int_Tables_number   1
_chemical_formula_structural   La2MgMnO6
_chemical_formula_sum   'La2 Mg1 Mn1 O6'
_cell_volume   118.99260552
_cell_formula_units_Z   1
loop_
 _symmetry_equiv_pos_site_id
 _symmetry_equiv_pos_as_xyz
  1  'x, y, z'
loop_
 _atom_site_type_symbol
 _atom_site_label
 _atom_site_symmetry_multiplicity
 _atom_site_fract_x
 _atom_site_fract_y
 _atom_site_fract_z
 _atom_site_occupancy
  La  La0  1  0.75099734  0.75099734  -0.24900266  1.0
  La  La1  1  1.24900266  1.24900266  0.24900266  1.0
  Mg  Mg2  1  0.50000000  0.50000000  -0.50000000  1.0
  Mn  Mn3  1  0.00000000  0.00000000  0.00000000  1.0
  O  O4  1  0.82220374  0.69647335  -0.76274467  1.0
  O  O5  1  0.30352665  0.76274467  -0.82220374  1.0
  O  O6  1  0.76274467  0.17779626  -0.69647335  1.0
  O  O7  1  0.17779626  0.30352665  -0.23725533  1.0
  O  O8  1  0.69647335  0.23725533  -0.17779626  1.0
  O  O9  1  0.23725533  0.82220374  -0.30352665  1.0
