# generated using pymatgen
data_Tl3BSe3
_symmetry_space_group_name_H-M   'P 1'
_cell_length_a   6.04726370
_cell_length_b   10.44307029
_cell_length_c   6.84432853
_cell_angle_alpha   90.00000000
_cell_angle_beta   94.47564533
_cell_angle_gamma   90.00000000
_symmetry_Int_Tables_number   1
_chemical_formula_structural   Tl3BSe3
_chemical_formula_sum   'Tl6 B2 Se6'
_cell_volume   430.91498046
_cell_formula_units_Z   2
loop_
 _symmetry_equiv_pos_site_id
 _symmetry_equiv_pos_as_xyz
  1  'x, y, z'
loop_
 _atom_site_type_symbol
 _atom_site_label
 _atom_site_symmetry_multiplicity
 _atom_site_fract_x
 _atom_site_fract_y
 _atom_site_fract_z
 _atom_site_occupancy
  Tl  Tl0  1  0.70283531  0.95339877  0.81951077  1.0
  Tl  Tl1  1  0.70283531  0.54660123  0.81951077  1.0
  Tl  Tl2  1  0.29716469  0.45339877  0.18048923  1.0
  Tl  Tl3  1  0.29716469  0.04660123  0.18048923  1.0
  Tl  Tl4  1  0.83933207  0.25000000  0.50217519  1.0
  Tl  Tl5  1  0.16066793  0.75000000  0.49782481  1.0
  B  B6  1  0.36432264  0.25000000  0.76906337  1.0
  B  B7  1  0.63567736  0.75000000  0.23093663  1.0
  Se  Se8  1  0.22671816  0.41490259  0.69120687  1.0
  Se  Se9  1  0.22671816  0.08509741  0.69120687  1.0
  Se  Se10  1  0.77328184  0.91490259  0.30879313  1.0
  Se  Se11  1  0.77328184  0.58509741  0.30879313  1.0
  Se  Se12  1  0.64641375  0.25000000  0.93395086  1.0
  Se  Se13  1  0.35358625  0.75000000  0.06604914  1.0
