# generated using pymatgen
data_Tl2HgGeSe4
_symmetry_space_group_name_H-M   'P 1'
_cell_length_a   6.74198684
_cell_length_b   6.74198684
_cell_length_c   6.74198684
_cell_angle_alpha   105.29881185
_cell_angle_beta   105.29881185
_cell_angle_gamma   118.18330215
_symmetry_Int_Tables_number   1
_chemical_formula_structural   Tl2HgGeSe4
_chemical_formula_sum   'Tl2 Hg1 Ge1 Se4'
_cell_volume   231.76042226
_cell_formula_units_Z   1
loop_
 _symmetry_equiv_pos_site_id
 _symmetry_equiv_pos_as_xyz
  1  'x, y, z'
loop_
 _atom_site_type_symbol
 _atom_site_label
 _atom_site_symmetry_multiplicity
 _atom_site_fract_x
 _atom_site_fract_y
 _atom_site_fract_z
 _atom_site_occupancy
  Tl  Tl0  1  0.50000000  0.00000000  0.50000000  1.0
  Tl  Tl1  1  -0.00000000  0.50000000  0.50000000  1.0
  Hg  Hg2  1  0.50000000  0.50000000  0.00000000  1.0
  Ge  Ge3  1  0.00000000  0.00000000  0.00000000  1.0
  Se  Se4  1  1.04991229  1.04991229  0.67148267  1.0
  Se  Se5  1  0.95008771  1.62157038  1.00000000  1.0
  Se  Se6  1  1.62157038  0.95008771  1.00000000  1.0
  Se  Se7  1  0.37842962  0.37842962  0.32851733  1.0
