# generated using pymatgen
data_FeCu2SiSe4
_symmetry_space_group_name_H-M   'P 1'
_cell_length_a   6.78377312
_cell_length_b   6.78377312
_cell_length_c   6.78377312
_cell_angle_alpha   131.40141645
_cell_angle_beta   131.40141645
_cell_angle_gamma   71.17608354
_symmetry_Int_Tables_number   1
_chemical_formula_structural   FeCu2SiSe4
_chemical_formula_sum   'Fe1 Cu2 Si1 Se4'
_cell_volume   171.96077305
_cell_formula_units_Z   1
loop_
 _symmetry_equiv_pos_site_id
 _symmetry_equiv_pos_as_xyz
  1  'x, y, z'
loop_
 _atom_site_type_symbol
 _atom_site_label
 _atom_site_symmetry_multiplicity
 _atom_site_fract_x
 _atom_site_fract_y
 _atom_site_fract_z
 _atom_site_occupancy
  Fe  Fe0  1  -0.00000000  -0.00000000  -0.00000000  1.0
  Cu  Cu1  1  0.25000000  0.75000000  0.50000000  1.0
  Cu  Cu2  1  0.75000000  0.25000000  0.50000000  1.0
  Si  Si3  1  0.50000000  0.50000000  1.00000000  1.0
  Se  Se4  1  0.38149269  0.86593725  1.00000000  1.0
  Se  Se5  1  1.13406275  1.13406275  1.51555544  1.0
  Se  Se6  1  0.61850731  0.61850731  0.48444456  1.0
  Se  Se7  1  0.86593725  0.38149269  1.00000000  1.0
