# generated using pymatgen
data_Cs3Bi2Cl9
_symmetry_space_group_name_H-M   'P 1'
_cell_length_a   7.89102932
_cell_length_b   7.89102932
_cell_length_c   9.66035568
_cell_angle_alpha   90.00000000
_cell_angle_beta   90.00000000
_cell_angle_gamma   120.00000000
_symmetry_Int_Tables_number   1
_chemical_formula_structural   Cs3Bi2Cl9
_chemical_formula_sum   'Cs3 Bi2 Cl9'
_cell_volume   520.94402612
_cell_formula_units_Z   1
loop_
 _symmetry_equiv_pos_site_id
 _symmetry_equiv_pos_as_xyz
  1  'x, y, z'
loop_
 _atom_site_type_symbol
 _atom_site_label
 _atom_site_symmetry_multiplicity
 _atom_site_fract_x
 _atom_site_fract_y
 _atom_site_fract_z
 _atom_site_occupancy
  Cs  Cs0  1  0.33333333  0.66666667  0.65333545  1.0
  Cs  Cs1  1  0.66666667  0.33333333  0.34666455  1.0
  Cs  Cs2  1  0.00000000  0.00000000  -0.00000000  1.0
  Bi  Bi3  1  0.33333333  0.66666667  0.17942494  1.0
  Bi  Bi4  1  0.66666667  0.33333333  0.82057506  1.0
  Cl  Cl5  1  0.15039759  0.80055899  0.32841735  1.0
  Cl  Cl6  1  0.80055899  0.15039759  0.67158265  1.0
  Cl  Cl7  1  0.65016140  0.84960241  0.32841735  1.0
  Cl  Cl8  1  0.19944101  0.34983860  0.32841735  1.0
  Cl  Cl9  1  0.84960241  0.65016140  0.67158265  1.0
  Cl  Cl10  1  0.34983860  0.19944101  0.67158265  1.0
  Cl  Cl11  1  0.53809093  0.53809093  -0.00000000  1.0
  Cl  Cl12  1  0.00000000  0.46190907  0.00000000  1.0
  Cl  Cl13  1  0.46190907  0.00000000  -0.00000000  1.0
