# generated using pymatgen
data_SrLiC3(NO)3
_symmetry_space_group_name_H-M   'P 1'
_cell_length_a   6.80371998
_cell_length_b   6.80371998
_cell_length_c   12.70069360
_cell_angle_alpha   78.63378872
_cell_angle_beta   101.36621128
_cell_angle_gamma   119.47370009
_symmetry_Int_Tables_number   1
_chemical_formula_structural   SrLiC3(NO)3
_chemical_formula_sum   'Sr4 Li4 C12 N12 O12'
_cell_volume   498.33266759
_cell_formula_units_Z   4
loop_
 _symmetry_equiv_pos_site_id
 _symmetry_equiv_pos_as_xyz
  1  'x, y, z'
loop_
 _atom_site_type_symbol
 _atom_site_label
 _atom_site_symmetry_multiplicity
 _atom_site_fract_x
 _atom_site_fract_y
 _atom_site_fract_z
 _atom_site_occupancy
  Sr  Sr0  1  0.27282515  -0.06669229  0.34404671  1.0
  Sr  Sr1  1  1.06669229  0.72717485  0.84404671  1.0
  Sr  Sr2  1  0.93330771  -0.72717485  0.15595329  1.0
  Sr  Sr3  1  1.72717485  0.06669229  0.65595329  1.0
  Li  Li4  1  1.72236076  0.01522421  0.92702573  1.0
  Li  Li5  1  0.98477579  -0.72236076  0.42702573  1.0
  Li  Li6  1  1.01522421  0.72236076  0.57297427  1.0
  Li  Li7  1  0.27763924  -0.01522421  0.07297427  1.0
  C  C8  1  0.76573913  -0.19428587  0.37316661  1.0
  C  C9  1  1.19428587  0.23426087  0.87316661  1.0
  C  C10  1  0.80571413  -0.23426087  0.12683339  1.0
  C  C11  1  1.23426087  0.19428587  0.62683339  1.0
  C  C12  1  0.42083993  -0.34523578  0.08506396  1.0
  C  C13  1  1.34523578  0.57916007  0.58506396  1.0
  C  C14  1  0.65476422  -0.57916007  0.41493604  1.0
  C  C15  1  1.57916007  0.34523578  0.91493604  1.0
  C  C16  1  1.54338555  0.38768521  0.15172393  1.0
  C  C17  1  0.61231479  -0.54338555  0.65172393  1.0
  C  C18  1  1.38768521  0.54338555  0.34827607  1.0
  C  C19  1  0.45661445  -0.38768521  0.84827607  1.0
  N  N20  1  0.63947644  -0.17404891  0.08434179  1.0
  N  N21  1  1.17404891  0.36052356  0.58434179  1.0
  N  N22  1  0.82595109  -0.36052356  0.41565821  1.0
  N  N23  1  1.36052356  0.17404891  0.91565821  1.0
  N  N24  1  0.54886647  -0.23565302  0.34305196  1.0
  N  N25  1  1.23565302  0.45113353  0.84305196  1.0
  N  N26  1  0.76434698  -0.45113353  0.15694804  1.0
  N  N27  1  1.45113353  0.23565302  0.65694804  1.0
  N  N28  1  1.43444365  0.36749111  0.37991542  1.0
  N  N29  1  0.63250889  -0.43444365  0.87991542  1.0
  N  N30  1  1.36749111  0.43444365  0.12008458  1.0
  N  N31  1  0.56555635  -0.36749111  0.62008458  1.0
  O  O32  1  1.92900367  0.01227582  0.36065298  1.0
  O  O33  1  0.98772418  -0.92900367  0.86065298  1.0
  O  O34  1  1.01227582  0.92900367  0.13934702  1.0
  O  O35  1  0.07099633  -0.01227582  0.63934702  1.0
  O  O36  1  1.69837748  0.25226415  0.44780522  1.0
  O  O37  1  0.74773585  -0.69837748  0.94780522  1.0
  O  O38  1  1.25226415  0.69837748  0.05219478  1.0
  O  O39  1  0.30162252  -0.25226415  0.55219478  1.0
  O  O40  1  1.50522905  0.17843470  0.17834086  1.0
  O  O41  1  0.82156530  -0.50522905  0.67834086  1.0
  O  O42  1  1.17843470  0.50522905  0.32165914  1.0
  O  O43  1  0.49477095  -0.17843470  0.82165914  1.0
