# generated using pymatgen
data_Rb2Hg3Se4
_symmetry_space_group_name_H-M   'P 1'
_cell_length_a   10.06048385
_cell_length_b   10.06048385
_cell_length_c   10.06048385
_cell_angle_alpha   141.24633342
_cell_angle_beta   106.98049253
_cell_angle_gamma   85.87742025
_symmetry_Int_Tables_number   1
_chemical_formula_structural   Rb2Hg3Se4
_chemical_formula_sum   'Rb4 Hg6 Se8'
_cell_volume   588.59172383
_cell_formula_units_Z   2
loop_
 _symmetry_equiv_pos_site_id
 _symmetry_equiv_pos_as_xyz
  1  'x, y, z'
loop_
 _atom_site_type_symbol
 _atom_site_label
 _atom_site_symmetry_multiplicity
 _atom_site_fract_x
 _atom_site_fract_y
 _atom_site_fract_z
 _atom_site_occupancy
  Rb  Rb0  1  0.61973312  1.27511515  0.89484827  1.0
  Rb  Rb1  1  1.38026688  0.72488485  1.10515173  1.0
  Rb  Rb2  1  1.11973312  1.22488485  1.34461797  1.0
  Rb  Rb3  1  0.88026688  0.77511515  0.65538203  1.0
  Hg  Hg4  1  0.75000000  0.25000000  0.50000000  1.0
  Hg  Hg5  1  1.25000000  0.75000000  0.50000000  1.0
  Hg  Hg6  1  1.41280423  1.25000000  1.16280423  1.0
  Hg  Hg7  1  1.08719577  1.25000000  0.83719577  1.0
  Hg  Hg8  1  0.58719577  0.75000000  0.83719577  1.0
  Hg  Hg9  1  0.91280423  0.75000000  1.16280423  1.0
  Se  Se10  1  0.73202770  1.13882162  1.14378472  1.0
  Se  Se11  1  0.99503690  0.58824298  0.85621528  1.0
  Se  Se12  1  0.50496310  0.36117838  0.59320608  1.0
  Se  Se13  1  0.76797230  0.91175702  1.40679392  1.0
  Se  Se14  1  1.26797230  0.86117838  0.85621528  1.0
  Se  Se15  1  1.00496310  1.41175702  1.14378472  1.0
  Se  Se16  1  1.49503690  1.63882162  1.40679392  1.0
  Se  Se17  1  1.23202770  1.08824298  0.59320608  1.0
