# generated using pymatgen
data_Sr(PO3)2
_symmetry_space_group_name_H-M   'P 1'
_cell_length_a   4.57533603
_cell_length_b   11.09481404
_cell_length_c   10.52877990
_cell_angle_alpha   90.00000000
_cell_angle_beta   91.43029959
_cell_angle_gamma   90.00000000
_symmetry_Int_Tables_number   1
_chemical_formula_structural   Sr(PO3)2
_chemical_formula_sum   'Sr4 P8 O24'
_cell_volume   534.30069153
_cell_formula_units_Z   4
loop_
 _symmetry_equiv_pos_site_id
 _symmetry_equiv_pos_as_xyz
  1  'x, y, z'
loop_
 _atom_site_type_symbol
 _atom_site_label
 _atom_site_symmetry_multiplicity
 _atom_site_fract_x
 _atom_site_fract_y
 _atom_site_fract_z
 _atom_site_occupancy
  Sr  Sr0  1  0.96962959  0.69268871  0.48469014  1.0
  Sr  Sr1  1  0.96962959  0.80731129  0.98469014  1.0
  Sr  Sr2  1  0.03037041  0.19268871  0.01530986  1.0
  Sr  Sr3  1  0.03037041  0.30731129  0.51530986  1.0
  P  P4  1  0.93634694  0.48519119  0.21794025  1.0
  P  P5  1  0.93634694  0.01480881  0.71794025  1.0
  P  P6  1  0.06365306  0.98519119  0.28205975  1.0
  P  P7  1  0.06365306  0.51480881  0.78205975  1.0
  P  P8  1  0.55825352  0.14875383  0.29380669  1.0
  P  P9  1  0.55825352  0.35124617  0.79380669  1.0
  P  P10  1  0.44174648  0.64875383  0.20619331  1.0
  P  P11  1  0.44174648  0.85124617  0.70619331  1.0
  O  O12  1  0.97973516  0.87542732  0.35384010  1.0
  O  O13  1  0.97973516  0.62457268  0.85384010  1.0
  O  O14  1  0.02026484  0.37542732  0.14615990  1.0
  O  O15  1  0.02026484  0.12457268  0.64615990  1.0
  O  O16  1  0.96247561  0.48494780  0.36175729  1.0
  O  O17  1  0.96247561  0.01505220  0.86175729  1.0
  O  O18  1  0.03752439  0.98494780  0.13824271  1.0
  O  O19  1  0.03752439  0.51505220  0.63824271  1.0
  O  O20  1  0.89044625  0.10649670  0.33181527  1.0
  O  O21  1  0.89044625  0.39350330  0.83181527  1.0
  O  O22  1  0.10955375  0.60649670  0.16818473  1.0
  O  O23  1  0.10955375  0.89350330  0.66818473  1.0
  O  O24  1  0.52790008  0.17109590  0.15286079  1.0
  O  O25  1  0.52790008  0.32890410  0.65286079  1.0
  O  O26  1  0.47209992  0.67109590  0.34713921  1.0
  O  O27  1  0.47209992  0.82890410  0.84713921  1.0
  O  O28  1  0.49459526  0.24737268  0.38779541  1.0
  O  O29  1  0.49459526  0.25262732  0.88779541  1.0
  O  O30  1  0.50540474  0.74737268  0.11220459  1.0
  O  O31  1  0.50540474  0.75262732  0.61220459  1.0
  O  O32  1  0.38642985  0.02551160  0.33068803  1.0
  O  O33  1  0.38642985  0.47448840  0.83068803  1.0
  O  O34  1  0.61357015  0.52551160  0.16931197  1.0
  O  O35  1  0.61357015  0.97448840  0.66931197  1.0
