# generated using pymatgen
data_Hg2As3Br
_symmetry_space_group_name_H-M   'P 1'
_cell_length_a   6.29399417
_cell_length_b   6.29399417
_cell_length_c   8.38245435
_cell_angle_alpha   84.58194508
_cell_angle_beta   95.41805492
_cell_angle_gamma   82.69503606
_symmetry_Int_Tables_number   1
_chemical_formula_structural   Hg2As3Br
_chemical_formula_sum   'Hg4 As6 Br2'
_cell_volume   325.98871530
_cell_formula_units_Z   2
loop_
 _symmetry_equiv_pos_site_id
 _symmetry_equiv_pos_as_xyz
  1  'x, y, z'
loop_
 _atom_site_type_symbol
 _atom_site_label
 _atom_site_symmetry_multiplicity
 _atom_site_fract_x
 _atom_site_fract_y
 _atom_site_fract_z
 _atom_site_occupancy
  Hg  Hg0  1  0.35339743  -0.09293273  0.15676075  1.0
  Hg  Hg1  1  1.09293273  0.64660257  0.65676075  1.0
  Hg  Hg2  1  0.90706727  -0.64660257  0.34323925  1.0
  Hg  Hg3  1  1.64660257  0.09293273  0.84323925  1.0
  As  As4  1  1.56386494  0.31073162  0.48357941  1.0
  As  As5  1  0.68926838  -0.56386494  0.98357941  1.0
  As  As6  1  1.31073162  0.56386494  0.01642059  1.0
  As  As7  1  0.43613506  -0.31073162  0.51642059  1.0
  As  As8  1  1.29434455  0.29434455  0.25000000  1.0
  As  As9  1  0.70565545  -0.29434455  0.75000000  1.0
  Br  Br10  1  0.86452115  -0.13547885  0.25000000  1.0
  Br  Br11  1  1.13547885  0.13547885  0.75000000  1.0
