# generated using pymatgen
data_Nb3B4
_symmetry_space_group_name_H-M   'P 1'
_cell_length_a   7.41849115
_cell_length_b   7.41849115
_cell_length_c   7.41849115
_cell_angle_alpha   155.50631344
_cell_angle_beta   154.23628948
_cell_angle_gamma   35.84528669
_symmetry_Int_Tables_number   1
_chemical_formula_structural   Nb3B4
_chemical_formula_sum   'Nb3 B4'
_cell_volume   73.48240399
_cell_formula_units_Z   1
loop_
 _symmetry_equiv_pos_site_id
 _symmetry_equiv_pos_as_xyz
  1  'x, y, z'
loop_
 _atom_site_type_symbol
 _atom_site_label
 _atom_site_symmetry_multiplicity
 _atom_site_fract_x
 _atom_site_fract_y
 _atom_site_fract_z
 _atom_site_occupancy
  Nb  Nb0  1  0.81502898  0.31502898  0.50000000  1.0
  Nb  Nb1  1  0.18497102  0.68497102  0.50000000  1.0
  Nb  Nb2  1  0.00000000  0.00000000  0.00000000  1.0
  B  B3  1  0.63214218  0.13214218  0.50000000  1.0
  B  B4  1  0.36785782  0.86785782  0.50000000  1.0
  B  B5  1  0.56424080  0.56424080  1.00000000  1.0
  B  B6  1  0.43575920  0.43575920  0.00000000  1.0
