# generated using pymatgen
data_LiYTiO4
_symmetry_space_group_name_H-M   'P 1'
_cell_length_a   11.27098612
_cell_length_b   5.43748851
_cell_length_c   5.32296279
_cell_angle_alpha   90.00000000
_cell_angle_beta   90.00000000
_cell_angle_gamma   90.00000000
_symmetry_Int_Tables_number   1
_chemical_formula_structural   LiYTiO4
_chemical_formula_sum   'Li4 Y4 Ti4 O16'
_cell_volume   326.22233882
_cell_formula_units_Z   4
loop_
 _symmetry_equiv_pos_site_id
 _symmetry_equiv_pos_as_xyz
  1  'x, y, z'
loop_
 _atom_site_type_symbol
 _atom_site_label
 _atom_site_symmetry_multiplicity
 _atom_site_fract_x
 _atom_site_fract_y
 _atom_site_fract_z
 _atom_site_occupancy
  Li  Li0  1  0.01857268  0.25000000  0.00000000  1.0
  Li  Li1  1  0.01857268  0.25000000  0.50000000  1.0
  Li  Li2  1  0.98142732  0.75000000  0.00000000  1.0
  Li  Li3  1  0.98142732  0.75000000  0.50000000  1.0
  Y  Y4  1  0.38311179  0.47392798  0.75000000  1.0
  Y  Y5  1  0.38311179  0.02607202  0.25000000  1.0
  Y  Y6  1  0.61688821  0.97392798  0.75000000  1.0
  Y  Y7  1  0.61688821  0.52607202  0.25000000  1.0
  Ti  Ti8  1  0.78318217  0.49060802  0.75000000  1.0
  Ti  Ti9  1  0.78318217  0.00939198  0.25000000  1.0
  Ti  Ti10  1  0.21681783  0.99060802  0.75000000  1.0
  Ti  Ti11  1  0.21681783  0.50939198  0.25000000  1.0
  O  O12  1  0.93986721  0.46527161  0.75000000  1.0
  O  O13  1  0.93986721  0.03472839  0.25000000  1.0
  O  O14  1  0.06013279  0.96527161  0.75000000  1.0
  O  O15  1  0.06013279  0.53472839  0.25000000  1.0
  O  O16  1  0.42991240  0.07338555  0.75000000  1.0
  O  O17  1  0.42991240  0.42661445  0.25000000  1.0
  O  O18  1  0.57008760  0.57338555  0.75000000  1.0
  O  O19  1  0.57008760  0.92661445  0.25000000  1.0
  O  O20  1  0.72729959  0.25000000  0.00000000  1.0
  O  O21  1  0.72729959  0.25000000  0.50000000  1.0
  O  O22  1  0.27270041  0.75000000  0.00000000  1.0
  O  O23  1  0.27270041  0.75000000  0.50000000  1.0
  O  O24  1  0.23491690  0.25000000  0.00000000  1.0
  O  O25  1  0.23491690  0.25000000  0.50000000  1.0
  O  O26  1  0.76508310  0.75000000  0.00000000  1.0
  O  O27  1  0.76508310  0.75000000  0.50000000  1.0
