# generated using pymatgen
data_RbY(TeO3)2
_symmetry_space_group_name_H-M   'P 1'
_cell_length_a   13.86311241
_cell_length_b   6.16639271
_cell_length_c   9.25659781
_cell_angle_alpha   90.00000000
_cell_angle_beta   90.00000000
_cell_angle_gamma   90.00000000
_symmetry_Int_Tables_number   1
_chemical_formula_structural   RbY(TeO3)2
_chemical_formula_sum   'Rb4 Y4 Te8 O24'
_cell_volume   791.30392266
_cell_formula_units_Z   4
loop_
 _symmetry_equiv_pos_site_id
 _symmetry_equiv_pos_as_xyz
  1  'x, y, z'
loop_
 _atom_site_type_symbol
 _atom_site_label
 _atom_site_symmetry_multiplicity
 _atom_site_fract_x
 _atom_site_fract_y
 _atom_site_fract_z
 _atom_site_occupancy
  Rb  Rb0  1  0.12367387  0.75000000  -0.00224942  1.0
  Rb  Rb1  1  0.62367387  0.75000000  0.50224942  1.0
  Rb  Rb2  1  0.87632613  0.25000000  1.00224942  1.0
  Rb  Rb3  1  0.37632613  0.25000000  0.49775058  1.0
  Y  Y4  1  0.40163887  0.75000000  0.79841606  1.0
  Y  Y5  1  0.90163887  0.75000000  0.70158394  1.0
  Y  Y6  1  0.59836113  0.25000000  0.20158394  1.0
  Y  Y7  1  0.09836113  0.25000000  0.29841606  1.0
  Te  Te8  1  0.42908923  0.75000000  0.20322867  1.0
  Te  Te9  1  0.92908923  0.75000000  0.29677133  1.0
  Te  Te10  1  0.57091077  0.25000000  0.79677133  1.0
  Te  Te11  1  0.07091077  0.25000000  0.70322867  1.0
  Te  Te12  1  0.19337263  0.75000000  0.51583293  1.0
  Te  Te13  1  0.69337263  0.75000000  0.98416707  1.0
  Te  Te14  1  0.80662737  0.25000000  0.48416707  1.0
  Te  Te15  1  0.30662737  0.25000000  0.01583293  1.0
  O  O16  1  0.50356768  0.49157240  0.70965164  1.0
  O  O17  1  0.50356768  0.00842760  0.70965164  1.0
  O  O18  1  0.00356768  0.49157240  0.79034836  1.0
  O  O19  1  0.00356768  0.00842760  0.79034836  1.0
  O  O20  1  0.49643232  0.99157240  0.29034836  1.0
  O  O21  1  0.49643232  0.50842760  0.29034836  1.0
  O  O22  1  0.99643232  0.99157240  0.20965164  1.0
  O  O23  1  0.99643232  0.50842760  0.20965164  1.0
  O  O24  1  0.29831120  0.49532938  0.88588008  1.0
  O  O25  1  0.29831120  0.00467062  0.88588008  1.0
  O  O26  1  0.79831120  0.49532938  0.61411992  1.0
  O  O27  1  0.79831120  0.00467062  0.61411992  1.0
  O  O28  1  0.70168880  0.99532938  0.11411992  1.0
  O  O29  1  0.70168880  0.50467062  0.11411992  1.0
  O  O30  1  0.20168880  0.99532938  0.38588008  1.0
  O  O31  1  0.20168880  0.50467062  0.38588008  1.0
  O  O32  1  0.48516246  0.75000000  0.01224207  1.0
  O  O33  1  0.98516246  0.75000000  0.48775793  1.0
  O  O34  1  0.51483754  0.25000000  0.98775793  1.0
  O  O35  1  0.01483754  0.25000000  0.51224207  1.0
  O  O36  1  0.32675098  0.75000000  0.58137292  1.0
  O  O37  1  0.82675098  0.75000000  0.91862708  1.0
  O  O38  1  0.67324902  0.25000000  0.41862708  1.0
  O  O39  1  0.17324902  0.25000000  0.08137292  1.0
