# generated using pymatgen
data_Li(YGe)4
_symmetry_space_group_name_H-M   'P 1'
_cell_length_a   7.16196527
_cell_length_b   14.74050996
_cell_length_c   7.73398084
_cell_angle_alpha   90.00000000
_cell_angle_beta   90.00000000
_cell_angle_gamma   90.00000000
_symmetry_Int_Tables_number   1
_chemical_formula_structural   Li(YGe)4
_chemical_formula_sum   'Li4 Y16 Ge16'
_cell_volume   816.48424957
_cell_formula_units_Z   4
loop_
 _symmetry_equiv_pos_site_id
 _symmetry_equiv_pos_as_xyz
  1  'x, y, z'
loop_
 _atom_site_type_symbol
 _atom_site_label
 _atom_site_symmetry_multiplicity
 _atom_site_fract_x
 _atom_site_fract_y
 _atom_site_fract_z
 _atom_site_occupancy
  Li  Li0  1  0.33921145  0.25000000  0.02619227  1.0
  Li  Li1  1  0.83921145  0.25000000  0.47380773  1.0
  Li  Li2  1  0.66078855  0.75000000  0.97380773  1.0
  Li  Li3  1  0.16078855  0.75000000  0.52619227  1.0
  Y  Y4  1  0.48315459  0.90199040  0.68707070  1.0
  Y  Y5  1  0.48315459  0.59800960  0.68707070  1.0
  Y  Y6  1  0.98315459  0.90199040  0.81292930  1.0
  Y  Y7  1  0.98315459  0.59800960  0.81292930  1.0
  Y  Y8  1  0.51684541  0.40199040  0.31292930  1.0
  Y  Y9  1  0.51684541  0.09800960  0.31292930  1.0
  Y  Y10  1  0.01684541  0.40199040  0.18707070  1.0
  Y  Y11  1  0.01684541  0.09800960  0.18707070  1.0
  Y  Y12  1  0.17200290  0.37214279  0.67653307  1.0
  Y  Y13  1  0.17200290  0.12785721  0.67653307  1.0
  Y  Y14  1  0.67200290  0.37214279  0.82346693  1.0
  Y  Y15  1  0.67200290  0.12785721  0.82346693  1.0
  Y  Y16  1  0.82799710  0.87214279  0.32346693  1.0
  Y  Y17  1  0.82799710  0.62785721  0.32346693  1.0
  Y  Y18  1  0.32799710  0.87214279  0.17653307  1.0
  Y  Y19  1  0.32799710  0.62785721  0.17653307  1.0
  Ge  Ge20  1  0.33414248  0.46342297  0.96622380  1.0
  Ge  Ge21  1  0.33414248  0.03657703  0.96622380  1.0
  Ge  Ge22  1  0.83414248  0.46342297  0.53377620  1.0
  Ge  Ge23  1  0.83414248  0.03657703  0.53377620  1.0
  Ge  Ge24  1  0.66585752  0.96342297  0.03377620  1.0
  Ge  Ge25  1  0.66585752  0.53657703  0.03377620  1.0
  Ge  Ge26  1  0.16585752  0.96342297  0.46622380  1.0
  Ge  Ge27  1  0.16585752  0.53657703  0.46622380  1.0
  Ge  Ge28  1  0.48322297  0.25000000  0.58498589  1.0
  Ge  Ge29  1  0.98322297  0.25000000  0.91501411  1.0
  Ge  Ge30  1  0.51677703  0.75000000  0.41501411  1.0
  Ge  Ge31  1  0.01677703  0.75000000  0.08498589  1.0
  Ge  Ge32  1  0.21804627  0.25000000  0.36345393  1.0
  Ge  Ge33  1  0.71804627  0.25000000  0.13654607  1.0
  Ge  Ge34  1  0.78195373  0.75000000  0.63654607  1.0
  Ge  Ge35  1  0.28195373  0.75000000  0.86345393  1.0
