# generated using pymatgen
data_RbVP2O7
_symmetry_space_group_name_H-M   'P 1'
_cell_length_a   7.65305164
_cell_length_b   10.18996653
_cell_length_c   8.35239540
_cell_angle_alpha   90.00000000
_cell_angle_beta   106.03423422
_cell_angle_gamma   90.00000000
_symmetry_Int_Tables_number   1
_chemical_formula_structural   RbVP2O7
_chemical_formula_sum   'Rb4 V4 P8 O28'
_cell_volume   626.01622943
_cell_formula_units_Z   4
loop_
 _symmetry_equiv_pos_site_id
 _symmetry_equiv_pos_as_xyz
  1  'x, y, z'
loop_
 _atom_site_type_symbol
 _atom_site_label
 _atom_site_symmetry_multiplicity
 _atom_site_fract_x
 _atom_site_fract_y
 _atom_site_fract_z
 _atom_site_occupancy
  Rb  Rb0  1  0.81275995  0.81540841  0.44769988  1.0
  Rb  Rb1  1  0.81275995  0.68459159  0.94769988  1.0
  Rb  Rb2  1  0.18724005  0.31540841  0.05230012  1.0
  Rb  Rb3  1  0.18724005  0.18459159  0.55230012  1.0
  V  V4  1  0.76137788  0.39866091  0.24006517  1.0
  V  V5  1  0.76137788  0.10133909  0.74006517  1.0
  V  V6  1  0.23862212  0.89866091  0.25993483  1.0
  V  V7  1  0.23862212  0.60133909  0.75993483  1.0
  P  P8  1  0.86795020  0.09722414  0.16841994  1.0
  P  P9  1  0.86795020  0.40277586  0.66841994  1.0
  P  P10  1  0.13204980  0.59722414  0.33158006  1.0
  P  P11  1  0.13204980  0.90277586  0.83158006  1.0
  P  P12  1  0.56577787  0.13222114  0.31247429  1.0
  P  P13  1  0.56577787  0.36777886  0.81247429  1.0
  P  P14  1  0.43422213  0.63222114  0.18752571  1.0
  P  P15  1  0.43422213  0.86777886  0.68752571  1.0
  O  O16  1  0.99220288  0.50116556  0.22746485  1.0
  O  O17  1  0.99220288  -0.00116556  0.72746485  1.0
  O  O18  1  0.00779712  1.00116556  0.27253515  1.0
  O  O19  1  0.00779712  0.49883444  0.77253515  1.0
  O  O20  1  0.91173629  0.23805613  0.23721438  1.0
  O  O21  1  0.91173629  0.26194387  0.73721438  1.0
  O  O22  1  0.08826371  0.73805613  0.26278562  1.0
  O  O23  1  0.08826371  0.76194387  0.76278562  1.0
  O  O24  1  0.84818289  0.41045365  0.48234687  1.0
  O  O25  1  0.84818289  0.08954635  0.98234687  1.0
  O  O26  1  0.15181711  0.91045365  0.01765313  1.0
  O  O27  1  0.15181711  0.58954635  0.51765313  1.0
  O  O28  1  0.67792469  0.10393572  0.49187873  1.0
  O  O29  1  0.67792469  0.39606428  0.99187873  1.0
  O  O30  1  0.32207531  0.60393572  0.00812127  1.0
  O  O31  1  0.32207531  0.89606428  0.50812127  1.0
  O  O32  1  0.67228599  0.05426175  0.19468513  1.0
  O  O33  1  0.67228599  0.44573825  0.69468513  1.0
  O  O34  1  0.32771401  0.55426175  0.30531487  1.0
  O  O35  1  0.32771401  0.94573825  0.80531487  1.0
  O  O36  1  0.55492356  0.27787706  0.26193484  1.0
  O  O37  1  0.55492356  0.22212294  0.76193484  1.0
  O  O38  1  0.44507644  0.77787706  0.23806516  1.0
  O  O39  1  0.44507644  0.72212294  0.73806516  1.0
  O  O40  1  0.37405060  0.07291598  0.26785197  1.0
  O  O41  1  0.37405060  0.42708402  0.76785197  1.0
  O  O42  1  0.62594940  0.57291598  0.23214803  1.0
  O  O43  1  0.62594940  0.92708402  0.73214803  1.0
