# generated using pymatgen
data_Cs2ZnBi2S5
_symmetry_space_group_name_H-M   'P 1'
_cell_length_a   15.99443132
_cell_length_b   4.15317528
_cell_length_c   18.41012106
_cell_angle_alpha   90.00000000
_cell_angle_beta   90.00000000
_cell_angle_gamma   90.00000000
_symmetry_Int_Tables_number   1
_chemical_formula_structural   Cs2ZnBi2S5
_chemical_formula_sum   'Cs8 Zn4 Bi8 S20'
_cell_volume   1222.94157036
_cell_formula_units_Z   4
loop_
 _symmetry_equiv_pos_site_id
 _symmetry_equiv_pos_as_xyz
  1  'x, y, z'
loop_
 _atom_site_type_symbol
 _atom_site_label
 _atom_site_symmetry_multiplicity
 _atom_site_fract_x
 _atom_site_fract_y
 _atom_site_fract_z
 _atom_site_occupancy
  Cs  Cs0  1  0.99482409  0.75000000  0.62198710  1.0
  Cs  Cs1  1  0.49482409  0.75000000  0.87801290  1.0
  Cs  Cs2  1  0.00517591  0.25000000  0.37801290  1.0
  Cs  Cs3  1  0.50517591  0.25000000  0.12198710  1.0
  Cs  Cs4  1  0.53741754  0.75000000  0.38067325  1.0
  Cs  Cs5  1  0.03741754  0.75000000  0.11932675  1.0
  Cs  Cs6  1  0.46258246  0.25000000  0.61932675  1.0
  Cs  Cs7  1  0.96258246  0.25000000  0.88067325  1.0
  Zn  Zn8  1  0.79331596  0.75000000  0.35652909  1.0
  Zn  Zn9  1  0.29331596  0.75000000  0.14347091  1.0
  Zn  Zn10  1  0.20668404  0.25000000  0.64347091  1.0
  Zn  Zn11  1  0.70668404  0.25000000  0.85652909  1.0
  Bi  Bi12  1  0.74869808  0.75000000  0.01752860  1.0
  Bi  Bi13  1  0.24869808  0.75000000  0.48247140  1.0
  Bi  Bi14  1  0.25130192  0.25000000  0.98247140  1.0
  Bi  Bi15  1  0.75130192  0.25000000  0.51752860  1.0
  Bi  Bi16  1  0.71014367  0.75000000  0.69910116  1.0
  Bi  Bi17  1  0.21014367  0.75000000  0.80089884  1.0
  Bi  Bi18  1  0.28985633  0.25000000  0.30089884  1.0
  Bi  Bi19  1  0.78985633  0.25000000  0.19910116  1.0
  S  S20  1  0.88989652  0.75000000  0.25763874  1.0
  S  S21  1  0.38989652  0.75000000  0.24236126  1.0
  S  S22  1  0.11010348  0.25000000  0.74236126  1.0
  S  S23  1  0.61010348  0.25000000  0.75763874  1.0
  S  S24  1  0.85834011  0.75000000  0.47164205  1.0
  S  S25  1  0.35834011  0.75000000  0.02835795  1.0
  S  S26  1  0.14165989  0.25000000  0.52835795  1.0
  S  S27  1  0.64165989  0.25000000  0.97164205  1.0
  S  S28  1  0.78649989  0.75000000  0.84585126  1.0
  S  S29  1  0.28649989  0.75000000  0.65414874  1.0
  S  S30  1  0.21350011  0.25000000  0.15414874  1.0
  S  S31  1  0.71350011  0.25000000  0.34585126  1.0
  S  S32  1  0.68006848  0.75000000  0.14876668  1.0
  S  S33  1  0.18006848  0.75000000  0.35123332  1.0
  S  S34  1  0.31993152  0.25000000  0.85123332  1.0
  S  S35  1  0.81993152  0.25000000  0.64876668  1.0
  S  S36  1  0.63470189  0.75000000  0.56339700  1.0
  S  S37  1  0.13470189  0.75000000  0.93660300  1.0
  S  S38  1  0.36529811  0.25000000  0.43660300  1.0
  S  S39  1  0.86529811  0.25000000  0.06339700  1.0
