# generated using pymatgen
data_MgH2
_symmetry_space_group_name_H-M   'P 1'
_cell_length_a   5.43301602
_cell_length_b   4.50004977
_cell_length_c   4.92328444
_cell_angle_alpha   90.00000000
_cell_angle_beta   90.00000000
_cell_angle_gamma   90.00000000
_symmetry_Int_Tables_number   1
_chemical_formula_structural   MgH2
_chemical_formula_sum   'Mg4 H8'
_cell_volume   120.36860588
_cell_formula_units_Z   4
loop_
 _symmetry_equiv_pos_site_id
 _symmetry_equiv_pos_as_xyz
  1  'x, y, z'
loop_
 _atom_site_type_symbol
 _atom_site_label
 _atom_site_symmetry_multiplicity
 _atom_site_fract_x
 _atom_site_fract_y
 _atom_site_fract_z
 _atom_site_occupancy
  Mg  Mg0  1  0.41688883  0.25003125  0.85419349  1.0
  Mg  Mg1  1  0.91688883  0.74996875  0.85419349  1.0
  Mg  Mg2  1  0.58311117  0.74996875  0.35419349  1.0
  Mg  Mg3  1  0.08311117  0.25003125  0.35419349  1.0
  H  H4  1  0.35972955  0.02208805  0.52365935  1.0
  H  H5  1  0.85972955  0.97791195  0.52365935  1.0
  H  H6  1  0.64027045  0.97791195  0.02365935  1.0
  H  H7  1  0.14027045  0.02208805  0.02365935  1.0
  H  H8  1  0.14020733  0.47788053  0.68474715  1.0
  H  H9  1  0.64020733  0.52211947  0.68474715  1.0
  H  H10  1  0.85979267  0.52211947  0.18474715  1.0
  H  H11  1  0.35979267  0.47788053  0.18474715  1.0
