# generated using pymatgen
data_K2LiAlF6
_symmetry_space_group_name_H-M   'P 1'
_cell_length_a   5.69333012
_cell_length_b   5.69333012
_cell_length_c   13.93269732
_cell_angle_alpha   90.00000000
_cell_angle_beta   90.00000000
_cell_angle_gamma   120.00000000
_symmetry_Int_Tables_number   1
_chemical_formula_structural   K2LiAlF6
_chemical_formula_sum   'K6 Li3 Al3 F18'
_cell_volume   391.10968265
_cell_formula_units_Z   3
loop_
 _symmetry_equiv_pos_site_id
 _symmetry_equiv_pos_as_xyz
  1  'x, y, z'
loop_
 _atom_site_type_symbol
 _atom_site_label
 _atom_site_symmetry_multiplicity
 _atom_site_fract_x
 _atom_site_fract_y
 _atom_site_fract_z
 _atom_site_occupancy
  K  K0  1  0.00000000  0.00000000  0.33220226  1.0
  K  K1  1  0.00000000  0.00000000  0.82713266  1.0
  K  K2  1  0.66666667  0.33333333  0.18659381  1.0
  K  K3  1  0.66666667  0.33333333  0.49107943  1.0
  K  K4  1  0.33333333  0.66666667  -0.02723922  1.0
  K  K5  1  0.33333333  0.66666667  0.66826028  1.0
  Li  Li6  1  0.00000000  0.00000000  0.57967177  1.0
  Li  Li7  1  0.66666667  0.33333333  0.93750596  1.0
  Li  Li8  1  0.33333333  0.66666667  0.22182437  1.0
  Al  Al9  1  0.00000000  0.00000000  0.07966381  1.0
  Al  Al10  1  0.66666667  0.33333333  0.74111218  1.0
  Al  Al11  1  0.33333333  0.66666667  0.41821882  1.0
  F  F12  1  0.03747234  0.51873617  0.33744783  1.0
  F  F13  1  0.48126383  0.51873617  0.33744783  1.0
  F  F14  1  0.48126383  0.96252766  0.33744783  1.0
  F  F15  1  0.96252499  0.48126249  0.82188341  1.0
  F  F16  1  0.51873751  0.48126249  0.82188341  1.0
  F  F17  1  0.51873751  0.03747501  0.82188341  1.0
  F  F18  1  0.35879986  0.17939993  0.66671288  1.0
  F  F19  1  0.82060007  0.17939993  0.66671288  1.0
  F  F20  1  0.82060007  0.64120014  0.66671288  1.0
  F  F21  1  0.30697231  0.15348615  0.00375523  1.0
  F  F22  1  0.84651385  0.15348615  0.00375523  1.0
  F  F23  1  0.84651385  0.69302769  0.00375523  1.0
  F  F24  1  0.69303361  0.84651681  0.15557473  1.0
  F  F25  1  0.15348319  0.84651681  0.15557473  1.0
  F  F26  1  0.15348319  0.30696639  0.15557473  1.0
  F  F27  1  0.64119542  0.82059771  0.49261721  1.0
  F  F28  1  0.17940229  0.82059771  0.49261721  1.0
  F  F29  1  0.17940229  0.35880458  0.49261721  1.0
