# generated using pymatgen
data_BaNb2V2O11
_symmetry_space_group_name_H-M   'P 1'
_cell_length_a   10.04935506
_cell_length_b   10.04935506
_cell_length_c   10.04935506
_cell_angle_alpha   32.35614840
_cell_angle_beta   32.35614840
_cell_angle_gamma   32.35614840
_symmetry_Int_Tables_number   1
_chemical_formula_structural   BaNb2V2O11
_chemical_formula_sum   'Ba1 Nb2 V2 O11'
_cell_volume   258.41289175
_cell_formula_units_Z   1
loop_
 _symmetry_equiv_pos_site_id
 _symmetry_equiv_pos_as_xyz
  1  'x, y, z'
loop_
 _atom_site_type_symbol
 _atom_site_label
 _atom_site_symmetry_multiplicity
 _atom_site_fract_x
 _atom_site_fract_y
 _atom_site_fract_z
 _atom_site_occupancy
  Ba  Ba0  1  0.00000000  -0.00000000  0.00000000  1.0
  Nb  Nb1  1  0.86925097  0.86925097  0.86925097  1.0
  Nb  Nb2  1  1.13074903  1.13074903  0.13074903  1.0
  V  V3  1  1.60121677  0.60121677  0.60121677  1.0
  V  V4  1  1.39878323  0.39878323  0.39878323  1.0
  O  O5  1  1.65912474  0.65912474  0.65912474  1.0
  O  O6  1  1.34087526  0.34087526  0.34087526  1.0
  O  O7  1  1.24515845  1.24515845  -0.23974834  1.0
  O  O8  1  1.24515845  0.76025166  0.24515845  1.0
  O  O9  1  1.23974834  0.75484155  0.75484155  1.0
  O  O10  1  1.75484155  0.23974834  0.75484155  1.0
  O  O11  1  1.75484155  0.75484155  0.23974834  1.0
  O  O12  1  0.76025166  1.24515845  0.24515845  1.0
  O  O13  1  1.00000000  1.50000000  0.00000000  1.0
  O  O14  1  1.00000000  1.00000000  0.50000000  1.0
  O  O15  1  1.50000000  1.00000000  0.00000000  1.0
