# generated using pymatgen
data_ZnHOF
_symmetry_space_group_name_H-M   'P 1'
_cell_length_a   10.49061089
_cell_length_b   3.18781328
_cell_length_c   4.74882070
_cell_angle_alpha   90.00000000
_cell_angle_beta   90.00000000
_cell_angle_gamma   90.00000000
_symmetry_Int_Tables_number   1
_chemical_formula_structural   ZnHOF
_chemical_formula_sum   'Zn4 H4 O4 F4'
_cell_volume   158.81057792
_cell_formula_units_Z   4
loop_
 _symmetry_equiv_pos_site_id
 _symmetry_equiv_pos_as_xyz
  1  'x, y, z'
loop_
 _atom_site_type_symbol
 _atom_site_label
 _atom_site_symmetry_multiplicity
 _atom_site_fract_x
 _atom_site_fract_y
 _atom_site_fract_z
 _atom_site_occupancy
  Zn  Zn0  1  0.12746487  0.75000000  0.52785924  1.0
  Zn  Zn1  1  0.62746487  0.75000000  0.97214076  1.0
  Zn  Zn2  1  0.87253513  0.25000000  0.47214076  1.0
  Zn  Zn3  1  0.37253513  0.25000000  0.02785924  1.0
  H  H4  1  0.41147703  0.75000000  0.60695071  1.0
  H  H5  1  0.91147703  0.75000000  0.89304929  1.0
  H  H6  1  0.58852297  0.25000000  0.39304929  1.0
  H  H7  1  0.08852297  0.25000000  0.10695071  1.0
  O  O8  1  0.44014073  0.75000000  0.80368279  1.0
  O  O9  1  0.94014073  0.75000000  0.69631721  1.0
  O  O10  1  0.55985927  0.25000000  0.19631721  1.0
  O  O11  1  0.05985927  0.25000000  0.30368279  1.0
  F  F12  1  0.30588639  0.75000000  0.30289435  1.0
  F  F13  1  0.80588639  0.75000000  0.19710565  1.0
  F  F14  1  0.69411361  0.25000000  0.69710565  1.0
  F  F15  1  0.19411361  0.25000000  0.80289435  1.0
