# generated using pymatgen
data_ScCoSn
_symmetry_space_group_name_H-M   'P 1'
_cell_length_a   6.84503679
_cell_length_b   4.42851505
_cell_length_c   7.25289426
_cell_angle_alpha   90.00000000
_cell_angle_beta   90.00000000
_cell_angle_gamma   90.00000000
_symmetry_Int_Tables_number   1
_chemical_formula_structural   ScCoSn
_chemical_formula_sum   'Sc4 Co4 Sn4'
_cell_volume   219.85951061
_cell_formula_units_Z   4
loop_
 _symmetry_equiv_pos_site_id
 _symmetry_equiv_pos_as_xyz
  1  'x, y, z'
loop_
 _atom_site_type_symbol
 _atom_site_label
 _atom_site_symmetry_multiplicity
 _atom_site_fract_x
 _atom_site_fract_y
 _atom_site_fract_z
 _atom_site_occupancy
  Sc  Sc0  1  0.01521205  0.75000000  0.71815196  1.0
  Sc  Sc1  1  0.51521205  0.75000000  0.78184804  1.0
  Sc  Sc2  1  0.98478795  0.25000000  0.28184804  1.0
  Sc  Sc3  1  0.48478795  0.25000000  0.21815196  1.0
  Co  Co4  1  0.85120061  0.75000000  0.05262126  1.0
  Co  Co5  1  0.35120061  0.75000000  0.44737874  1.0
  Co  Co6  1  0.14879939  0.25000000  0.94737874  1.0
  Co  Co7  1  0.64879939  0.25000000  0.55262126  1.0
  Sn  Sn8  1  0.72368663  0.75000000  0.39107641  1.0
  Sn  Sn9  1  0.22368663  0.75000000  0.10892359  1.0
  Sn  Sn10  1  0.27631337  0.25000000  0.60892359  1.0
  Sn  Sn11  1  0.77631337  0.25000000  0.89107641  1.0
