# generated using pymatgen
data_Li(LuGe)4
_symmetry_space_group_name_H-M   'P 1'
_cell_length_a   6.98023686
_cell_length_b   14.38431339
_cell_length_c   7.56142729
_cell_angle_alpha   90.00000000
_cell_angle_beta   90.00000000
_cell_angle_gamma   90.00000000
_symmetry_Int_Tables_number   1
_chemical_formula_structural   Li(LuGe)4
_chemical_formula_sum   'Li4 Lu16 Ge16'
_cell_volume   759.21202213
_cell_formula_units_Z   4
loop_
 _symmetry_equiv_pos_site_id
 _symmetry_equiv_pos_as_xyz
  1  'x, y, z'
loop_
 _atom_site_type_symbol
 _atom_site_label
 _atom_site_symmetry_multiplicity
 _atom_site_fract_x
 _atom_site_fract_y
 _atom_site_fract_z
 _atom_site_occupancy
  Li  Li0  1  0.33847152  0.25000000  0.02237237  1.0
  Li  Li1  1  0.83847152  0.25000000  0.47762763  1.0
  Li  Li2  1  0.66152848  0.75000000  0.97762763  1.0
  Li  Li3  1  0.16152848  0.75000000  0.52237237  1.0
  Lu  Lu4  1  0.48904496  0.90413696  0.68628601  1.0
  Lu  Lu5  1  0.48904496  0.59586304  0.68628601  1.0
  Lu  Lu6  1  0.98904496  0.90413696  0.81371399  1.0
  Lu  Lu7  1  0.98904496  0.59586304  0.81371399  1.0
  Lu  Lu8  1  0.51095504  0.40413696  0.31371399  1.0
  Lu  Lu9  1  0.51095504  0.09586304  0.31371399  1.0
  Lu  Lu10  1  0.01095504  0.40413696  0.18628601  1.0
  Lu  Lu11  1  0.01095504  0.09586304  0.18628601  1.0
  Lu  Lu12  1  0.17001763  0.37210104  0.67433750  1.0
  Lu  Lu13  1  0.17001763  0.12789896  0.67433750  1.0
  Lu  Lu14  1  0.67001763  0.37210104  0.82566250  1.0
  Lu  Lu15  1  0.67001763  0.12789896  0.82566250  1.0
  Lu  Lu16  1  0.82998237  0.87210104  0.32566250  1.0
  Lu  Lu17  1  0.82998237  0.62789896  0.32566250  1.0
  Lu  Lu18  1  0.32998237  0.87210104  0.17433750  1.0
  Lu  Lu19  1  0.32998237  0.62789896  0.17433750  1.0
  Ge  Ge20  1  0.32849488  0.46281587  0.96548101  1.0
  Ge  Ge21  1  0.32849488  0.03718413  0.96548101  1.0
  Ge  Ge22  1  0.82849488  0.46281587  0.53451899  1.0
  Ge  Ge23  1  0.82849488  0.03718413  0.53451899  1.0
  Ge  Ge24  1  0.67150512  0.96281587  0.03451899  1.0
  Ge  Ge25  1  0.67150512  0.53718413  0.03451899  1.0
  Ge  Ge26  1  0.17150512  0.96281587  0.46548101  1.0
  Ge  Ge27  1  0.17150512  0.53718413  0.46548101  1.0
  Ge  Ge28  1  0.48245322  0.25000000  0.58745567  1.0
  Ge  Ge29  1  0.98245322  0.25000000  0.91254433  1.0
  Ge  Ge30  1  0.51754678  0.75000000  0.41254433  1.0
  Ge  Ge31  1  0.01754678  0.75000000  0.08745567  1.0
  Ge  Ge32  1  0.21097449  0.25000000  0.35956640  1.0
  Ge  Ge33  1  0.71097449  0.25000000  0.14043360  1.0
  Ge  Ge34  1  0.78902551  0.75000000  0.64043360  1.0
  Ge  Ge35  1  0.28902551  0.75000000  0.85956640  1.0
