# generated using pymatgen
data_Ta5Sb4
_symmetry_space_group_name_H-M   'P 1'
_cell_length_a   7.54080268
_cell_length_b   7.54080268
_cell_length_c   7.54080268
_cell_angle_alpha   92.92399025
_cell_angle_beta   92.92399025
_cell_angle_gamma   153.89351599
_symmetry_Int_Tables_number   1
_chemical_formula_structural   Ta5Sb4
_chemical_formula_sum   'Ta5 Sb4'
_cell_volume   183.81300497
_cell_formula_units_Z   1
loop_
 _symmetry_equiv_pos_site_id
 _symmetry_equiv_pos_as_xyz
  1  'x, y, z'
loop_
 _atom_site_type_symbol
 _atom_site_label
 _atom_site_symmetry_multiplicity
 _atom_site_fract_x
 _atom_site_fract_y
 _atom_site_fract_z
 _atom_site_occupancy
  Ta  Ta0  1  0.00000000  0.00000000  0.00000000  1.0
  Ta  Ta1  1  0.65041325  0.04523769  0.69565093  1.0
  Ta  Ta2  1  0.34958675  0.95476231  1.30434907  1.0
  Ta  Ta3  1  1.04523769  1.34958675  1.39482444  1.0
  Ta  Ta4  1  0.95476231  0.65041325  0.60517556  1.0
  Sb  Sb5  1  0.63650606  0.32331801  0.95982407  1.0
  Sb  Sb6  1  0.36349394  0.67668199  1.04017593  1.0
  Sb  Sb7  1  1.32331801  1.36349394  1.68681195  1.0
  Sb  Sb8  1  0.67668199  0.63650606  0.31318805  1.0
