# generated using pymatgen
data_CsV2S2O
_symmetry_space_group_name_H-M   'P 1'
_cell_length_a   3.93900137
_cell_length_b   3.93900137
_cell_length_c   7.60297201
_cell_angle_alpha   90.00000000
_cell_angle_beta   90.00000000
_cell_angle_gamma   90.00000000
_symmetry_Int_Tables_number   1
_chemical_formula_structural   CsV2S2O
_chemical_formula_sum   'Cs1 V2 S2 O1'
_cell_volume   117.96567452
_cell_formula_units_Z   1
loop_
 _symmetry_equiv_pos_site_id
 _symmetry_equiv_pos_as_xyz
  1  'x, y, z'
loop_
 _atom_site_type_symbol
 _atom_site_label
 _atom_site_symmetry_multiplicity
 _atom_site_fract_x
 _atom_site_fract_y
 _atom_site_fract_z
 _atom_site_occupancy
  Cs  Cs0  1  0.00000000  0.00000000  0.50000000  1.0
  V  V1  1  0.00000000  0.50000000  0.00000000  1.0
  V  V2  1  0.50000000  0.00000000  0.00000000  1.0
  S  S3  1  0.50000000  0.50000000  0.79404539  1.0
  S  S4  1  0.50000000  0.50000000  0.20595461  1.0
  O  O5  1  0.00000000  0.00000000  0.00000000  1.0
