# generated using pymatgen
data_BaH10C2N8O5
_symmetry_space_group_name_H-M   'P 1'
_cell_length_a   8.33488083
_cell_length_b   7.56604379
_cell_length_c   9.31361313
_cell_angle_alpha   75.89770246
_cell_angle_beta   84.76687826
_cell_angle_gamma   89.91500769
_symmetry_Int_Tables_number   1
_chemical_formula_structural   BaH10C2N8O5
_chemical_formula_sum   'Ba2 H20 C4 N16 O10'
_cell_volume   567.12963975
_cell_formula_units_Z   2
loop_
 _symmetry_equiv_pos_site_id
 _symmetry_equiv_pos_as_xyz
  1  'x, y, z'
loop_
 _atom_site_type_symbol
 _atom_site_label
 _atom_site_symmetry_multiplicity
 _atom_site_fract_x
 _atom_site_fract_y
 _atom_site_fract_z
 _atom_site_occupancy
  Ba  Ba0  1  -0.93294836  -0.21281680  -0.62597171  1.0
  Ba  Ba1  1  -0.06705164  -0.78718320  -0.37402829  1.0
  H  H2  1  -0.89018107  -1.00601164  -0.08768429  1.0
  H  H3  1  -0.10981893  0.00601164  -0.91231571  1.0
  H  H4  1  -0.44545957  -0.97961328  -0.20585793  1.0
  H  H5  1  -0.55454043  -0.02038672  -0.79414207  1.0
  H  H6  1  -0.70883009  -0.91119547  -0.47489484  1.0
  H  H7  1  -0.29116991  -0.08880453  -0.52510516  1.0
  H  H8  1  -0.24591980  -0.90142273  -0.63287374  1.0
  H  H9  1  -0.75408020  -0.09857727  -0.36712626  1.0
  H  H10  1  -0.86485528  -0.81553854  -0.05347177  1.0
  H  H11  1  -0.13514472  -0.18446146  -0.94652823  1.0
  H  H12  1  -0.50114512  -0.77626082  -0.40163681  1.0
  H  H13  1  -0.49885488  -0.22373918  -0.59836319  1.0
  H  H14  1  -0.49585304  -0.73301231  -0.58019338  1.0
  H  H15  1  -0.50414696  -0.26698769  -0.41980662  1.0
  H  H16  1  -0.71199181  -0.58577193  -0.45547126  1.0
  H  H17  1  -0.28800819  -0.41422807  -0.54452874  1.0
  H  H18  1  -0.78216590  -0.50180006  -0.32398104  1.0
  H  H19  1  -0.21783410  -0.49819994  -0.67601896  1.0
  H  H20  1  -0.60263764  -0.19966194  -0.83923696  1.0
  H  H21  1  -0.39736236  -0.80033806  -0.16076304  1.0
  C  C22  1  -0.28227272  -0.58286732  -0.97725634  1.0
  C  C23  1  -0.71772728  -0.41713268  -0.02274366  1.0
  C  C24  1  -0.80229182  -0.55133548  -0.90088826  1.0
  C  C25  1  -0.19770818  -0.44866452  -0.09911174  1.0
  N  N26  1  -0.90779475  -0.80296139  -0.77200649  1.0
  N  N27  1  -0.09220525  -0.19703861  -0.22799351  1.0
  N  N28  1  -0.43121413  -0.81046577  -0.85967517  1.0
  N  N29  1  -0.56878587  -0.18953423  -0.14032483  1.0
  N  N30  1  -0.83996904  -0.72155195  -0.90761600  1.0
  N  N31  1  -0.16003096  -0.27844805  -0.09238400  1.0
  N  N32  1  -0.38277000  -0.72531789  -0.76248934  1.0
  N  N33  1  -0.61723000  -0.27468211  -0.23751066  1.0
  N  N34  1  -0.91190805  -0.68623775  -0.68696376  1.0
  N  N35  1  -0.08809195  -0.31376225  -0.31303624  1.0
  N  N36  1  -0.28879314  -0.58108239  -0.83288375  1.0
  N  N37  1  -0.71120686  -0.41891761  -0.16711625  1.0
  N  N38  1  -0.84660763  -0.52572836  -0.76474828  1.0
  N  N39  1  -0.15339237  -0.47427164  -0.23525172  1.0
  N  N40  1  -0.63000979  -0.27564284  -1.00425674  1.0
  N  N41  1  -0.36999021  -0.72435716  0.00425674  1.0
  O  O42  1  -0.20361534  -0.99233022  -0.55168582  1.0
  O  O43  1  -0.79638466  -0.00766978  -0.44831418  1.0
  O  O44  1  -0.89919137  -0.87643275  -0.13120249  1.0
  O  O45  1  -0.10080863  -0.12356725  -0.86879751  1.0
  O  O46  1  -0.56842991  -0.74506796  -0.48737859  1.0
  O  O47  1  -0.43157009  -0.25493204  -0.51262141  1.0
  O  O48  1  -0.80610642  -0.51977410  -0.42228768  1.0
  O  O49  1  -0.19389358  -0.48022590  -0.57771232  1.0
  O  O50  1  -0.60827495  -0.14236270  -0.75259917  1.0
  O  O51  1  -0.39172505  -0.85763730  -0.24740083  1.0
