# generated using pymatgen
data_Ba(LuS2)2
_symmetry_space_group_name_H-M   'P 1'
_cell_length_a   12.20280452
_cell_length_b   3.97883871
_cell_length_c   14.35567298
_cell_angle_alpha   90.00000000
_cell_angle_beta   90.00000000
_cell_angle_gamma   90.00000000
_symmetry_Int_Tables_number   1
_chemical_formula_structural   Ba(LuS2)2
_chemical_formula_sum   'Ba4 Lu8 S16'
_cell_volume   697.01086056
_cell_formula_units_Z   4
loop_
 _symmetry_equiv_pos_site_id
 _symmetry_equiv_pos_as_xyz
  1  'x, y, z'
loop_
 _atom_site_type_symbol
 _atom_site_label
 _atom_site_symmetry_multiplicity
 _atom_site_fract_x
 _atom_site_fract_y
 _atom_site_fract_z
 _atom_site_occupancy
  Ba  Ba0  1  0.75901755  0.75000000  0.66302267  1.0
  Ba  Ba1  1  0.25901755  0.75000000  0.83697733  1.0
  Ba  Ba2  1  0.24098245  0.25000000  0.33697733  1.0
  Ba  Ba3  1  0.74098245  0.25000000  0.16302267  1.0
  Lu  Lu4  1  0.92086205  0.75000000  0.39930845  1.0
  Lu  Lu5  1  0.42086205  0.75000000  0.10069155  1.0
  Lu  Lu6  1  0.07913795  0.25000000  0.60069155  1.0
  Lu  Lu7  1  0.57913795  0.25000000  0.89930845  1.0
  Lu  Lu8  1  0.43570753  0.75000000  0.60856047  1.0
  Lu  Lu9  1  0.93570753  0.75000000  0.89143953  1.0
  Lu  Lu10  1  0.56429247  0.25000000  0.39143953  1.0
  Lu  Lu11  1  0.06429247  0.25000000  0.10856047  1.0
  S  S12  1  0.91811939  0.75000000  0.07587650  1.0
  S  S13  1  0.41811939  0.75000000  0.42412350  1.0
  S  S14  1  0.08188061  0.25000000  0.92412350  1.0
  S  S15  1  0.58188061  0.25000000  0.57587650  1.0
  S  S16  1  0.70595828  0.75000000  0.34178770  1.0
  S  S17  1  0.20595828  0.75000000  0.15821230  1.0
  S  S18  1  0.29404172  0.25000000  0.65821230  1.0
  S  S19  1  0.79404172  0.25000000  0.84178770  1.0
  S  S20  1  0.62175729  0.75000000  0.02354042  1.0
  S  S21  1  0.12175729  0.75000000  0.47645958  1.0
  S  S22  1  0.37824271  0.25000000  0.97645958  1.0
  S  S23  1  0.87824271  0.25000000  0.52354042  1.0
  S  S24  1  0.52436785  0.75000000  0.78330239  1.0
  S  S25  1  0.02436785  0.75000000  0.71669761  1.0
  S  S26  1  0.47563215  0.25000000  0.21669761  1.0
  S  S27  1  0.97563215  0.25000000  0.28330239  1.0
