# generated using pymatgen
data_Y3Ge13Pt4
_symmetry_space_group_name_H-M   'P 1'
_cell_length_a   9.11092578
_cell_length_b   9.11092578
_cell_length_c   9.11163657
_cell_angle_alpha   89.75453839
_cell_angle_beta   90.24546161
_cell_angle_gamma   90.24645491
_symmetry_Int_Tables_number   1
_chemical_formula_structural   Y3Ge13Pt4
_chemical_formula_sum   'Y6 Ge26 Pt8'
_cell_volume   756.32673415
_cell_formula_units_Z   2
loop_
 _symmetry_equiv_pos_site_id
 _symmetry_equiv_pos_as_xyz
  1  'x, y, z'
loop_
 _atom_site_type_symbol
 _atom_site_label
 _atom_site_symmetry_multiplicity
 _atom_site_fract_x
 _atom_site_fract_y
 _atom_site_fract_z
 _atom_site_occupancy
  Y  Y0  1  1.75160829  0.24842113  0.24677348  1.0
  Y  Y1  1  0.75157887  -0.75160829  0.74677348  1.0
  Y  Y2  1  0.25160527  -0.00017961  0.49536228  1.0
  Y  Y3  1  1.00017961  0.74839473  0.99536228  1.0
  Y  Y4  1  1.25161785  0.49991998  0.49530070  1.0
  Y  Y5  1  0.50008002  -0.25161785  0.99530070  1.0
  Ge  Ge6  1  0.75526963  -0.25525396  0.49168749  1.0
  Ge  Ge7  1  1.25525396  0.24473037  -0.00831251  1.0
  Ge  Ge8  1  0.86082513  0.00532946  0.49586879  1.0
  Ge  Ge9  1  0.99467054  0.13917487  0.99586879  1.0
  Ge  Ge10  1  0.74878405  -0.07810656  0.13953881  1.0
  Ge  Ge11  1  1.07810656  0.25121595  0.63953881  1.0
  Ge  Ge12  1  0.75225320  -0.08456160  0.84303809  1.0
  Ge  Ge13  1  1.08456160  0.24774680  0.34303809  1.0
  Ge  Ge14  1  0.49473959  -0.25111220  0.38606489  1.0
  Ge  Ge15  1  1.25111220  0.50526041  0.88606489  1.0
  Ge  Ge16  1  1.25228064  0.59603653  0.16235718  1.0
  Ge  Ge17  1  0.40396347  -0.25228064  0.66235718  1.0
  Ge  Ge18  1  1.58455918  0.09600733  0.49464090  1.0
  Ge  Ge19  1  0.90399267  -0.58455918  0.99464090  1.0
  Ge  Ge20  1  1.53404547  0.12945869  0.99538816  1.0
  Ge  Ge21  1  0.87054131  -0.53404547  0.49538816  1.0
  Ge  Ge22  1  0.24877969  -0.10738489  0.16888092  1.0
  Ge  Ge23  1  1.10738489  0.75122031  0.66888092  1.0
  Ge  Ge24  1  1.03433502  0.74851017  0.37628592  1.0
  Ge  Ge25  1  0.25148983  -0.03433502  0.87628592  1.0
  Ge  Ge26  1  1.57806512  0.39253872  0.49808642  1.0
  Ge  Ge27  1  0.60746128  -0.57806512  0.99808642  1.0
  Ge  Ge28  1  1.37061771  0.24846853  0.71258223  1.0
  Ge  Ge29  1  0.75153147  -0.37061771  0.21258223  1.0
  Ge  Ge30  1  1.36080052  0.24890356  0.25226348  1.0
  Ge  Ge31  1  0.75109644  -0.36080052  0.75226348  1.0
  Pt  Pt32  1  1.49979494  0.49682757  0.25024621  1.0
  Pt  Pt33  1  0.50317243  -0.49979494  0.75024621  1.0
  Pt  Pt34  1  1.99661900  0.00024319  0.24380825  1.0
  Pt  Pt35  1  0.99975681  -0.99661900  0.74380825  1.0
  Pt  Pt36  1  1.00182525  -0.50181958  0.24511157  1.0
  Pt  Pt37  1  1.50181958  -0.00182525  0.74511157  1.0
  Pt  Pt38  1  1.49665082  -0.00317008  0.24711423  1.0
  Pt  Pt39  1  1.00317008  -0.49665082  0.74711423  1.0
