# generated using pymatgen
data_LuNiGe3
_symmetry_space_group_name_H-M   'P 1'
_cell_length_a   10.98432780
_cell_length_b   10.98432780
_cell_length_c   4.03773428
_cell_angle_alpha   90.00000000
_cell_angle_beta   90.00000000
_cell_angle_gamma   158.53009294
_symmetry_Int_Tables_number   1
_chemical_formula_structural   LuNiGe3
_chemical_formula_sum   'Lu2 Ni2 Ge6'
_cell_volume   178.31202178
_cell_formula_units_Z   2
loop_
 _symmetry_equiv_pos_site_id
 _symmetry_equiv_pos_as_xyz
  1  'x, y, z'
loop_
 _atom_site_type_symbol
 _atom_site_label
 _atom_site_symmetry_multiplicity
 _atom_site_fract_x
 _atom_site_fract_y
 _atom_site_fract_z
 _atom_site_occupancy
  Lu  Lu0  1  0.33074275  0.66925725  0.50000000  1.0
  Lu  Lu1  1  -0.33074275  0.33074275  0.50000000  1.0
  Ni  Ni2  1  0.11190507  0.88809493  0.00000000  1.0
  Ni  Ni3  1  -0.11190507  0.11190507  0.00000000  1.0
  Ge  Ge4  1  0.44204266  0.55795734  0.00000000  1.0
  Ge  Ge5  1  -0.44204266  0.44204266  0.00000000  1.0
  Ge  Ge6  1  0.05758031  0.94241969  0.50000000  1.0
  Ge  Ge7  1  -0.05758031  0.05758031  0.50000000  1.0
  Ge  Ge8  1  0.21728215  0.78271785  0.00000000  1.0
  Ge  Ge9  1  -0.21728215  0.21728215  0.00000000  1.0
