# generated using pymatgen
data_Cs2Mo3SeO12
_symmetry_space_group_name_H-M   'P 1'
_cell_length_a   7.40131049
_cell_length_b   7.40131049
_cell_length_c   12.98951551
_cell_angle_alpha   90.00000000
_cell_angle_beta   90.00000000
_cell_angle_gamma   120.00000000
_symmetry_Int_Tables_number   1
_chemical_formula_structural   Cs2Mo3SeO12
_chemical_formula_sum   'Cs4 Mo6 Se2 O24'
_cell_volume   616.22715358
_cell_formula_units_Z   2
loop_
 _symmetry_equiv_pos_site_id
 _symmetry_equiv_pos_as_xyz
  1  'x, y, z'
loop_
 _atom_site_type_symbol
 _atom_site_label
 _atom_site_symmetry_multiplicity
 _atom_site_fract_x
 _atom_site_fract_y
 _atom_site_fract_z
 _atom_site_occupancy
  Cs  Cs0  1  0.33333333  0.66666667  0.05641663  1.0
  Cs  Cs1  1  0.66666667  0.33333333  0.55641663  1.0
  Cs  Cs2  1  0.33333333  0.66666667  0.43389647  1.0
  Cs  Cs3  1  0.66666667  0.33333333  0.93389647  1.0
  Mo  Mo4  1  0.79620371  0.66134828  0.22786265  1.0
  Mo  Mo5  1  0.66134828  0.86514457  0.72786265  1.0
  Mo  Mo6  1  0.86514457  0.20379629  0.22786265  1.0
  Mo  Mo7  1  0.33865172  0.13485543  0.22786265  1.0
  Mo  Mo8  1  0.20379629  0.33865172  0.72786265  1.0
  Mo  Mo9  1  0.13485543  0.79620371  0.72786265  1.0
  Se  Se10  1  0.00000000  0.00000000  0.01086541  1.0
  Se  Se11  1  0.00000000  0.00000000  0.51086541  1.0
  O  O12  1  0.12264928  0.87256104  0.23704487  1.0
  O  O13  1  0.87256104  0.74991176  0.73704487  1.0
  O  O14  1  0.74991176  0.87735072  0.23704487  1.0
  O  O15  1  0.12743896  0.25008824  0.23704487  1.0
  O  O16  1  0.87735072  0.12743896  0.73704487  1.0
  O  O17  1  0.25008824  0.12264928  0.73704487  1.0
  O  O18  1  0.88252601  0.75282531  0.06564341  1.0
  O  O19  1  0.75282531  0.87029930  0.56564341  1.0
  O  O20  1  0.87029930  0.11747399  0.06564341  1.0
  O  O21  1  0.24717469  0.12970070  0.06564341  1.0
  O  O22  1  0.11747399  0.24717469  0.56564341  1.0
  O  O23  1  0.12970070  0.88252601  0.56564341  1.0
  O  O24  1  0.80113509  0.60290608  0.35608456  1.0
  O  O25  1  0.60290608  0.80177099  0.85608456  1.0
  O  O26  1  0.80177099  0.19886491  0.35608456  1.0
  O  O27  1  0.39709392  0.19822901  0.35608456  1.0
  O  O28  1  0.19886491  0.39709392  0.85608456  1.0
  O  O29  1  0.19822901  0.80113509  0.85608456  1.0
  O  O30  1  0.54192713  0.45343262  0.18667168  1.0
  O  O31  1  0.45343262  0.91150549  0.68667168  1.0
  O  O32  1  0.91150549  0.45807287  0.18667168  1.0
  O  O33  1  0.54656738  0.08849451  0.18667168  1.0
  O  O34  1  0.45807287  0.54656738  0.68667168  1.0
  O  O35  1  0.08849451  0.54192713  0.68667168  1.0
