# generated using pymatgen
data_KH3CN2O
_symmetry_space_group_name_H-M   'P 1'
_cell_length_a   7.54492329
_cell_length_b   7.42844824
_cell_length_c   13.33262267
_cell_angle_alpha   90.00000000
_cell_angle_beta   90.00000000
_cell_angle_gamma   90.00000000
_symmetry_Int_Tables_number   1
_chemical_formula_structural   KH3CN2O
_chemical_formula_sum   'K8 H24 C8 N16 O8'
_cell_volume   747.25446532
_cell_formula_units_Z   8
loop_
 _symmetry_equiv_pos_site_id
 _symmetry_equiv_pos_as_xyz
  1  'x, y, z'
loop_
 _atom_site_type_symbol
 _atom_site_label
 _atom_site_symmetry_multiplicity
 _atom_site_fract_x
 _atom_site_fract_y
 _atom_site_fract_z
 _atom_site_occupancy
  K  K0  1  0.37663607  0.95169731  0.70249970  1.0
  K  K1  1  0.37663607  0.54830269  0.20249970  1.0
  K  K2  1  0.87663607  0.95169731  0.79750030  1.0
  K  K3  1  0.87663607  0.54830269  0.29750030  1.0
  K  K4  1  0.62336393  0.45169731  0.79750030  1.0
  K  K5  1  0.62336393  0.04830269  0.29750030  1.0
  K  K6  1  0.12336393  0.45169731  0.70249970  1.0
  K  K7  1  0.12336393  0.04830269  0.20249970  1.0
  H  H8  1  0.40416146  0.58997722  0.54538469  1.0
  H  H9  1  0.40416146  0.91002278  0.04538469  1.0
  H  H10  1  0.90416146  0.58997722  0.95461531  1.0
  H  H11  1  0.90416146  0.91002278  0.45461531  1.0
  H  H12  1  0.59583854  0.08997722  0.95461531  1.0
  H  H13  1  0.59583854  0.41002278  0.45461531  1.0
  H  H14  1  0.09583854  0.08997722  0.54538469  1.0
  H  H15  1  0.09583854  0.41002278  0.04538469  1.0
  H  H16  1  0.24218832  0.75293269  0.53325420  1.0
  H  H17  1  0.24218832  0.74706731  0.03325420  1.0
  H  H18  1  0.74218832  0.75293269  0.96674580  1.0
  H  H19  1  0.74218832  0.74706731  0.46674580  1.0
  H  H20  1  0.75781168  0.25293269  0.96674580  1.0
  H  H21  1  0.75781168  0.24706731  0.46674580  1.0
  H  H22  1  0.25781168  0.25293269  0.53325420  1.0
  H  H23  1  0.25781168  0.24706731  0.03325420  1.0
  H  H24  1  0.21568752  0.61229029  0.88829413  1.0
  H  H25  1  0.21568752  0.88770971  0.38829413  1.0
  H  H26  1  0.71568752  0.61229029  0.61170587  1.0
  H  H27  1  0.71568752  0.88770971  0.11170587  1.0
  H  H28  1  0.78431248  0.11229029  0.61170587  1.0
  H  H29  1  0.78431248  0.38770971  0.11170587  1.0
  H  H30  1  0.28431248  0.11229029  0.88829413  1.0
  H  H31  1  0.28431248  0.38770971  0.38829413  1.0
  C  C32  1  0.41104986  0.77193543  0.91169485  1.0
  C  C33  1  0.41104986  0.72806457  0.41169485  1.0
  C  C34  1  0.91104986  0.77193543  0.58830515  1.0
  C  C35  1  0.91104986  0.72806457  0.08830515  1.0
  C  C36  1  0.58895014  0.27193543  0.58830515  1.0
  C  C37  1  0.58895014  0.22806457  0.08830515  1.0
  C  C38  1  0.08895014  0.27193543  0.91169485  1.0
  C  C39  1  0.08895014  0.22806457  0.41169485  1.0
  N  N40  1  0.36573038  0.70900854  0.51256736  1.0
  N  N41  1  0.36573038  0.79099146  0.01256736  1.0
  N  N42  1  0.86573038  0.70900854  0.98743264  1.0
  N  N43  1  0.86573038  0.79099146  0.48743264  1.0
  N  N44  1  0.63426962  0.20900854  0.98743264  1.0
  N  N45  1  0.63426962  0.29099146  0.48743264  1.0
  N  N46  1  0.13426962  0.20900854  0.51256736  1.0
  N  N47  1  0.13426962  0.29099146  0.01256736  1.0
  N  N48  1  0.32112952  0.66569106  0.85000682  1.0
  N  N49  1  0.32112952  0.83430894  0.35000682  1.0
  N  N50  1  0.82112952  0.66569106  0.64999318  1.0
  N  N51  1  0.82112952  0.83430894  0.14999318  1.0
  N  N52  1  0.67887048  0.16569106  0.64999318  1.0
  N  N53  1  0.67887048  0.33430894  0.14999318  1.0
  N  N54  1  0.17887048  0.16569106  0.85000682  1.0
  N  N55  1  0.17887048  0.33430894  0.35000682  1.0
  O  O56  1  0.05031410  0.85990042  0.61822189  1.0
  O  O57  1  0.05031410  0.64009958  0.11822189  1.0
  O  O58  1  0.55031410  0.85990042  0.88177811  1.0
  O  O59  1  0.55031410  0.64009958  0.38177811  1.0
  O  O60  1  0.94968590  0.35990042  0.88177811  1.0
  O  O61  1  0.94968590  0.14009958  0.38177811  1.0
  O  O62  1  0.44968590  0.35990042  0.61822189  1.0
  O  O63  1  0.44968590  0.14009958  0.11822189  1.0
