# generated using pymatgen
data_ZnS
_symmetry_space_group_name_H-M   'P 1'
_cell_length_a   25.26942540
_cell_length_b   25.26942540
_cell_length_c   25.26942540
_cell_angle_alpha   8.73675914
_cell_angle_beta   8.73675914
_cell_angle_gamma   8.73675914
_symmetry_Int_Tables_number   1
_chemical_formula_structural   ZnS
_chemical_formula_sum   'Zn8 S8'
_cell_volume   323.03102281
_cell_formula_units_Z   8
loop_
 _symmetry_equiv_pos_site_id
 _symmetry_equiv_pos_as_xyz
  1  'x, y, z'
loop_
 _atom_site_type_symbol
 _atom_site_label
 _atom_site_symmetry_multiplicity
 _atom_site_fract_x
 _atom_site_fract_y
 _atom_site_fract_z
 _atom_site_occupancy
  Zn  Zn0  1  0.54166794  0.54166794  -0.45833206  1.0
  Zn  Zn1  1  0.41666484  0.41666484  -0.58333516  1.0
  Zn  Zn2  1  0.29167370  0.29167370  0.29167370  1.0
  Zn  Zn3  1  0.00003006  0.00003006  0.00003006  1.0
  Zn  Zn4  1  0.91664110  -0.08335890  -0.08335890  1.0
  Zn  Zn5  1  0.79169880  -0.20830120  -0.20830120  1.0
  Zn  Zn6  1  0.16667524  0.16667524  0.16667524  1.0
  Zn  Zn7  1  0.70830988  -0.29169012  -0.29169012  1.0
  S  S8  1  0.13544168  0.13544168  0.13544168  1.0
  S  S9  1  0.67709499  -0.32290501  -0.32290501  1.0
  S  S10  1  0.51043035  0.51043035  -0.48956965  1.0
  S  S11  1  0.38538532  0.38538532  -0.61461468  1.0
  S  S12  1  0.26039193  0.26039193  0.26039193  1.0
  S  S13  1  0.96880609  -0.03119391  -0.03119391  1.0
  S  S14  1  0.88541765  -0.11458235  -0.11458235  1.0
  S  S15  1  0.76047043  -0.23952957  -0.23952957  1.0
