# generated using pymatgen
data_NbSeI
_symmetry_space_group_name_H-M   'P 1'
_cell_length_a   7.71937225
_cell_length_b   7.71937225
_cell_length_c   7.71937225
_cell_angle_alpha   60.00000000
_cell_angle_beta   60.00000000
_cell_angle_gamma   60.00000000
_symmetry_Int_Tables_number   1
_chemical_formula_structural   NbSeI
_chemical_formula_sum   'Nb4 Se4 I4'
_cell_volume   325.26022306
_cell_formula_units_Z   4
loop_
 _symmetry_equiv_pos_site_id
 _symmetry_equiv_pos_as_xyz
  1  'x, y, z'
loop_
 _atom_site_type_symbol
 _atom_site_label
 _atom_site_symmetry_multiplicity
 _atom_site_fract_x
 _atom_site_fract_y
 _atom_site_fract_z
 _atom_site_occupancy
  Nb  Nb0  1  -0.34799722  0.65200278  0.65200278  1.0
  Nb  Nb1  1  1.04399167  0.65200278  -0.34799722  1.0
  Nb  Nb2  1  -0.34799722  0.65200278  1.04399167  1.0
  Nb  Nb3  1  0.65200278  1.04399167  -0.34799722  1.0
  Se  Se4  1  0.88104873  0.88104873  -0.11895127  1.0
  Se  Se5  1  0.35685381  0.88104873  -0.11895127  1.0
  Se  Se6  1  0.88104873  0.88104873  -0.64314619  1.0
  Se  Se7  1  0.88104873  0.35685381  -0.11895127  1.0
  I  I8  1  0.37766821  1.37766821  0.37766821  1.0
  I  I9  1  -0.13300463  0.37766821  0.37766821  1.0
  I  I10  1  0.37766821  1.37766821  -0.13300463  1.0
  I  I11  1  0.37766821  -0.13300463  0.37766821  1.0
