# generated using pymatgen
data_ZnS
_symmetry_space_group_name_H-M   'P 1'
_cell_length_a   3.84935773
_cell_length_b   3.84935773
_cell_length_c   62.94115074
_cell_angle_alpha   90.00000000
_cell_angle_beta   90.00000000
_cell_angle_gamma   120.00000000
_symmetry_Int_Tables_number   1
_chemical_formula_structural   ZnS
_chemical_formula_sum   'Zn20 S20'
_cell_volume   807.68469983
_cell_formula_units_Z   20
loop_
 _symmetry_equiv_pos_site_id
 _symmetry_equiv_pos_as_xyz
  1  'x, y, z'
loop_
 _atom_site_type_symbol
 _atom_site_label
 _atom_site_symmetry_multiplicity
 _atom_site_fract_x
 _atom_site_fract_y
 _atom_site_fract_z
 _atom_site_occupancy
  Zn  Zn0  1  0.00000000  0.00000000  0.01248337  1.0
  Zn  Zn1  1  0.00000000  0.00000000  0.21253195  1.0
  Zn  Zn2  1  0.00000000  0.00000000  0.36248211  1.0
  Zn  Zn3  1  0.00000000  0.00000000  0.56253242  1.0
  Zn  Zn4  1  0.00000000  0.00000000  0.71250533  1.0
  Zn  Zn5  1  0.00000000  0.00000000  0.86250088  1.0
  Zn  Zn6  1  0.66666667  0.33333333  0.11250449  1.0
  Zn  Zn7  1  0.66666667  0.33333333  0.31252566  1.0
  Zn  Zn8  1  0.66666667  0.33333333  0.46247929  1.0
  Zn  Zn9  1  0.66666667  0.33333333  0.66253120  1.0
  Zn  Zn10  1  0.66666667  0.33333333  0.81245481  1.0
  Zn  Zn11  1  0.66666667  0.33333333  0.91253503  1.0
  Zn  Zn12  1  0.33333333  0.66666667  0.06250766  1.0
  Zn  Zn13  1  0.33333333  0.66666667  0.16251912  1.0
  Zn  Zn14  1  0.33333333  0.66666667  0.26256970  1.0
  Zn  Zn15  1  0.33333333  0.66666667  0.41244881  1.0
  Zn  Zn16  1  0.33333333  0.66666667  0.51251500  1.0
  Zn  Zn17  1  0.33333333  0.66666667  0.61256909  1.0
  Zn  Zn18  1  0.33333333  0.66666667  0.76247728  1.0
  Zn  Zn19  1  0.33333333  0.66666667  0.96247341  1.0
  S  S20  1  0.00000000  0.00000000  0.05001157  1.0
  S  S21  1  0.00000000  0.00000000  0.25006513  1.0
  S  S22  1  0.00000000  0.00000000  0.39995430  1.0
  S  S23  1  0.00000000  0.00000000  0.60006586  1.0
  S  S24  1  0.00000000  0.00000000  0.74998080  1.0
  S  S25  1  0.00000000  0.00000000  0.90003509  1.0
  S  S26  1  0.66666667  0.33333333  0.15002902  1.0
  S  S27  1  0.66666667  0.33333333  0.34999457  1.0
  S  S28  1  0.66666667  0.33333333  0.50001302  1.0
  S  S29  1  0.66666667  0.33333333  0.70000623  1.0
  S  S30  1  0.66666667  0.33333333  0.84992996  1.0
  S  S31  1  0.66666667  0.33333333  0.94999189  1.0
  S  S32  1  0.33333333  0.66666667  -0.00006666  1.0
  S  S33  1  0.33333333  0.66666667  0.09995756  1.0
  S  S34  1  0.33333333  0.66666667  0.19997416  1.0
  S  S35  1  0.33333333  0.66666667  0.30003227  1.0
  S  S36  1  0.33333333  0.66666667  0.44991751  1.0
  S  S37  1  0.33333333  0.66666667  0.54997339  1.0
  S  S38  1  0.33333333  0.66666667  0.65003329  1.0
  S  S39  1  0.33333333  0.66666667  0.79995441  1.0
