# generated using pymatgen
data_KGaAs2O7
_symmetry_space_group_name_H-M   'P 1'
_cell_length_a   8.39624224
_cell_length_b   6.49540260
_cell_length_c   6.40813452
_cell_angle_alpha   103.53404896
_cell_angle_beta   103.83811011
_cell_angle_gamma   96.55231733
_symmetry_Int_Tables_number   1
_chemical_formula_structural   KGaAs2O7
_chemical_formula_sum   'K2 Ga2 As4 O14'
_cell_volume   324.51475114
_cell_formula_units_Z   2
loop_
 _symmetry_equiv_pos_site_id
 _symmetry_equiv_pos_as_xyz
  1  'x, y, z'
loop_
 _atom_site_type_symbol
 _atom_site_label
 _atom_site_symmetry_multiplicity
 _atom_site_fract_x
 _atom_site_fract_y
 _atom_site_fract_z
 _atom_site_occupancy
  K  K0  1  -0.50000000  -0.00000000  -0.00000000  1.0
  K  K1  1  0.00000000  0.00000000  0.00000000  1.0
  Ga  Ga2  1  -0.72603855  -0.68924339  -0.37418370  1.0
  Ga  Ga3  1  -0.27396145  -0.31075661  -0.62581630  1.0
  As  As4  1  -0.68985105  -0.53267071  -0.82467527  1.0
  As  As5  1  -0.31014895  -0.46732929  -0.17532473  1.0
  As  As6  1  -0.83417143  -0.24279467  -0.48194418  1.0
  As  As7  1  -0.16582857  -0.75720533  -0.51805582  1.0
  O  O8  1  -0.51826653  -0.34693960  -0.79208055  1.0
  O  O9  1  -0.48173347  -0.65306040  -0.20791945  1.0
  O  O10  1  -0.85220628  -0.37817890  -0.77085588  1.0
  O  O11  1  -0.14779372  -0.62182110  -0.22914412  1.0
  O  O12  1  -0.27880499  -0.62476662  -0.69065709  1.0
  O  O13  1  -0.72119501  -0.37523338  -0.30934291  1.0
  O  O14  1  -0.67332839  -0.71357307  -0.66530496  1.0
  O  O15  1  -0.32667161  -0.28642693  -0.33469504  1.0
  O  O16  1  -0.97072299  -0.76577366  -0.55508365  1.0
  O  O17  1  -0.02927701  -0.23422634  -0.44491635  1.0
  O  O18  1  -0.70925826  0.00297861  -0.41951075  1.0
  O  O19  1  -0.29074174  -1.00297861  -0.58048925  1.0
  O  O20  1  -0.78248891  -0.69637247  -0.09120423  1.0
  O  O21  1  -0.21751109  -0.30362753  -0.90879577  1.0
