# generated using pymatgen
data_Eu(NO3)3
_symmetry_space_group_name_H-M   'P 1'
_cell_length_a   11.42238665
_cell_length_b   6.42216669
_cell_length_c   10.17694228
_cell_angle_alpha   90.00000000
_cell_angle_beta   92.37266600
_cell_angle_gamma   90.00000000
_symmetry_Int_Tables_number   1
_chemical_formula_structural   Eu(NO3)3
_chemical_formula_sum   'Eu4 N12 O36'
_cell_volume   745.90455474
_cell_formula_units_Z   4
loop_
 _symmetry_equiv_pos_site_id
 _symmetry_equiv_pos_as_xyz
  1  'x, y, z'
loop_
 _atom_site_type_symbol
 _atom_site_label
 _atom_site_symmetry_multiplicity
 _atom_site_fract_x
 _atom_site_fract_y
 _atom_site_fract_z
 _atom_site_occupancy
  Eu  Eu0  1  0.73701915  0.30761567  0.71047400  1.0
  Eu  Eu1  1  0.26298085  0.80761567  0.78952600  1.0
  Eu  Eu2  1  0.26298085  0.69238433  0.28952600  1.0
  Eu  Eu3  1  0.73701915  0.19238433  0.21047400  1.0
  N  N4  1  0.49394972  0.60870605  0.82456309  1.0
  N  N5  1  0.50605028  0.10870605  0.67543691  1.0
  N  N6  1  0.50605028  0.39129395  0.17543691  1.0
  N  N7  1  0.49394972  0.89129395  0.32456309  1.0
  N  N8  1  0.21585610  0.25697608  0.80944495  1.0
  N  N9  1  0.78414390  0.75697608  0.69055505  1.0
  N  N10  1  0.78414390  0.74302392  0.19055505  1.0
  N  N11  1  0.21585610  0.24302392  0.30944495  1.0
  N  N12  1  0.87488165  0.28117887  0.46445584  1.0
  N  N13  1  0.12511835  0.78117887  0.03554416  1.0
  N  N14  1  0.12511835  0.71882113  0.53554416  1.0
  N  N15  1  0.87488165  0.21882113  0.96445584  1.0
  O  O16  1  0.42917708  0.57504302  0.72212636  1.0
  O  O17  1  0.57082292  0.07504302  0.77787364  1.0
  O  O18  1  0.57082292  0.42495698  0.27787364  1.0
  O  O19  1  0.42917708  0.92495698  0.22212636  1.0
  O  O20  1  0.45361278  0.72422721  0.91247688  1.0
  O  O21  1  0.54638722  0.22422721  0.58752312  1.0
  O  O22  1  0.54638722  0.27577279  0.08752312  1.0
  O  O23  1  0.45361278  0.77577279  0.41247688  1.0
  O  O24  1  0.59368580  0.53193883  0.83850548  1.0
  O  O25  1  0.40631420  0.03193883  0.66149452  1.0
  O  O26  1  0.40631420  0.46806117  0.16149452  1.0
  O  O27  1  0.59368580  0.96806117  0.33850548  1.0
  O  O28  1  0.27808845  0.16377672  0.89686396  1.0
  O  O29  1  0.72191155  0.66377672  0.60313604  1.0
  O  O30  1  0.72191155  0.83622328  0.10313604  1.0
  O  O31  1  0.27808845  0.33622328  0.39686396  1.0
  O  O32  1  0.19798100  0.44878474  0.81735384  1.0
  O  O33  1  0.80201900  0.94878474  0.68264616  1.0
  O  O34  1  0.80201900  0.55121526  0.18264616  1.0
  O  O35  1  0.19798100  0.05121526  0.31735384  1.0
  O  O36  1  0.17141233  0.15274210  0.71516740  1.0
  O  O37  1  0.82858767  0.65274210  0.78483260  1.0
  O  O38  1  0.82858767  0.84725790  0.28483260  1.0
  O  O39  1  0.17141233  0.34725790  0.21516740  1.0
  O  O40  1  0.76144294  0.26603479  0.45824876  1.0
  O  O41  1  0.23855706  0.76603479  0.04175124  1.0
  O  O42  1  0.23855706  0.73396521  0.54175124  1.0
  O  O43  1  0.76144294  0.23396521  0.95824876  1.0
  O  O44  1  0.92355276  0.32273492  0.57319622  1.0
  O  O45  1  0.07644724  0.82273492  0.92680378  1.0
  O  O46  1  0.07644724  0.67726508  0.42680378  1.0
  O  O47  1  0.92355276  0.17726508  0.07319622  1.0
  O  O48  1  0.92807224  0.25251051  0.36195711  1.0
  O  O49  1  0.07192776  0.75251051  0.13804289  1.0
  O  O50  1  0.07192776  0.74748949  0.63804289  1.0
  O  O51  1  0.92807224  0.24748949  0.86195711  1.0
