# generated using pymatgen
data_Y3ReO7
_symmetry_space_group_name_H-M   'P 1'
_cell_length_a   6.46485943
_cell_length_b   6.46485943
_cell_length_c   7.40902637
_cell_angle_alpha   90.00000000
_cell_angle_beta   90.00000000
_cell_angle_gamma   108.70810653
_symmetry_Int_Tables_number   1
_chemical_formula_structural   Y3ReO7
_chemical_formula_sum   'Y6 Re2 O14'
_cell_volume   293.29517018
_cell_formula_units_Z   2
loop_
 _symmetry_equiv_pos_site_id
 _symmetry_equiv_pos_as_xyz
  1  'x, y, z'
loop_
 _atom_site_type_symbol
 _atom_site_label
 _atom_site_symmetry_multiplicity
 _atom_site_fract_x
 _atom_site_fract_y
 _atom_site_fract_z
 _atom_site_occupancy
  Y  Y0  1  -0.53341664  0.46658336  0.50000000  1.0
  Y  Y1  1  0.53341664  1.53341664  0.00000000  1.0
  Y  Y2  1  0.00014794  0.53377324  0.74406690  1.0
  Y  Y3  1  -0.00014794  1.46622676  0.24406690  1.0
  Y  Y4  1  -0.46622676  1.00014794  0.25593310  1.0
  Y  Y5  1  0.46622676  0.99985206  0.75593310  1.0
  Re  Re6  1  -0.00078224  -0.00078224  0.50000000  1.0
  Re  Re7  1  0.00078224  0.00078224  0.00000000  1.0
  O  O8  1  -0.05348625  0.69138133  0.46378881  1.0
  O  O9  1  0.05348625  1.30861867  0.96378881  1.0
  O  O10  1  -0.30861867  0.94651375  0.53621119  1.0
  O  O11  1  0.30861867  1.05348625  0.03621119  1.0
  O  O12  1  0.32523754  1.08091151  0.47579119  1.0
  O  O13  1  -0.32523754  0.91908849  0.97579119  1.0
  O  O14  1  0.08091151  1.32523754  0.52420881  1.0
  O  O15  1  -0.08091151  0.67476246  0.02420881  1.0
  O  O16  1  -0.36983284  0.36983284  0.75000000  1.0
  O  O17  1  -0.63016716  0.63016716  0.25000000  1.0
  O  O18  1  -0.36185984  0.36185984  0.25000000  1.0
  O  O19  1  -0.63814016  0.63814016  0.75000000  1.0
  O  O20  1  -0.93071632  0.93071632  0.75000000  1.0
  O  O21  1  -0.06928368  0.06928368  0.25000000  1.0
