# generated using pymatgen
data_Cu3NiH6(ClO3)2
_symmetry_space_group_name_H-M   'P 1'
_cell_length_a   6.07871020
_cell_length_b   6.07871020
_cell_length_c   6.07871020
_cell_angle_alpha   71.04462589
_cell_angle_beta   71.04462589
_cell_angle_gamma   71.04462589
_symmetry_Int_Tables_number   1
_chemical_formula_structural   Cu3NiH6(ClO3)2
_chemical_formula_sum   'Cu3 Ni1 H6 Cl2 O6'
_cell_volume   194.77986513
_cell_formula_units_Z   1
loop_
 _symmetry_equiv_pos_site_id
 _symmetry_equiv_pos_as_xyz
  1  'x, y, z'
loop_
 _atom_site_type_symbol
 _atom_site_label
 _atom_site_symmetry_multiplicity
 _atom_site_fract_x
 _atom_site_fract_y
 _atom_site_fract_z
 _atom_site_occupancy
  Cu  Cu0  1  1.00000000  1.50000000  0.00000000  1.0
  Cu  Cu1  1  1.00000000  -0.00000000  -0.50000000  1.0
  Cu  Cu2  1  0.50000000  0.00000000  0.00000000  1.0
  Ni  Ni3  1  0.00000000  -0.00000000  0.00000000  1.0
  H  H4  1  0.27066406  0.27066406  -0.31606189  1.0
  H  H5  1  0.27066406  0.68393811  -0.72933594  1.0
  H  H6  1  0.31606189  0.72933594  -0.27066406  1.0
  H  H7  1  0.72933594  0.31606189  -0.27066406  1.0
  H  H8  1  0.72933594  0.72933594  -0.68393811  1.0
  H  H9  1  0.68393811  0.27066406  -0.72933594  1.0
  Cl  Cl10  1  0.67574635  0.67574635  -0.32425365  1.0
  Cl  Cl11  1  1.32425365  1.32425365  0.32425365  1.0
  O  O12  1  0.22732524  0.22732524  -0.13700300  1.0
  O  O13  1  0.22732524  0.86299700  -0.77267476  1.0
  O  O14  1  1.13700300  -0.22732524  -0.22732524  1.0
  O  O15  1  0.77267476  0.13700300  -0.22732524  1.0
  O  O16  1  0.77267476  -0.22732524  0.13700300  1.0
  O  O17  1  0.86299700  0.22732524  -0.77267476  1.0
