# generated using pymatgen
data_Ba3Ta2MnO9
_symmetry_space_group_name_H-M   'P 1'
_cell_length_a   5.86249458
_cell_length_b   5.86249458
_cell_length_c   7.21906658
_cell_angle_alpha   90.00000000
_cell_angle_beta   90.00000000
_cell_angle_gamma   120.00000000
_symmetry_Int_Tables_number   1
_chemical_formula_structural   Ba3Ta2MnO9
_chemical_formula_sum   'Ba3 Ta2 Mn1 O9'
_cell_volume   214.87039769
_cell_formula_units_Z   1
loop_
 _symmetry_equiv_pos_site_id
 _symmetry_equiv_pos_as_xyz
  1  'x, y, z'
loop_
 _atom_site_type_symbol
 _atom_site_label
 _atom_site_symmetry_multiplicity
 _atom_site_fract_x
 _atom_site_fract_y
 _atom_site_fract_z
 _atom_site_occupancy
  Ba  Ba0  1  0.33333333  0.66666667  0.66240089  1.0
  Ba  Ba1  1  0.66666667  0.33333333  0.33759911  1.0
  Ba  Ba2  1  0.00000000  0.00000000  0.00000000  1.0
  Ta  Ta3  1  0.33333333  0.66666667  0.17292882  1.0
  Ta  Ta4  1  0.66666667  0.33333333  0.82707118  1.0
  Mn  Mn5  1  0.00000000  0.00000000  0.50000000  1.0
  O  O6  1  0.65277752  0.82638876  0.32064133  1.0
  O  O7  1  0.82638876  0.65277752  0.67935867  1.0
  O  O8  1  0.82638876  0.17361124  0.67935867  1.0
  O  O9  1  0.17361124  0.82638876  0.32064133  1.0
  O  O10  1  0.17361124  0.34722248  0.32064133  1.0
  O  O11  1  0.34722248  0.17361124  0.67935867  1.0
  O  O12  1  0.50000000  0.50000000  0.00000000  1.0
  O  O13  1  0.50000000  0.00000000  0.00000000  1.0
  O  O14  1  -0.00000000  0.50000000  0.00000000  1.0
