# generated using pymatgen
data_YBr3
_symmetry_space_group_name_H-M   'P 1'
_cell_length_a   8.30607576
_cell_length_b   8.30607576
_cell_length_c   8.30607576
_cell_angle_alpha   51.77824175
_cell_angle_beta   51.77824175
_cell_angle_gamma   51.77824175
_symmetry_Int_Tables_number   1
_chemical_formula_structural   YBr3
_chemical_formula_sum   'Y2 Br6'
_cell_volume   326.82846794
_cell_formula_units_Z   2
loop_
 _symmetry_equiv_pos_site_id
 _symmetry_equiv_pos_as_xyz
  1  'x, y, z'
loop_
 _atom_site_type_symbol
 _atom_site_label
 _atom_site_symmetry_multiplicity
 _atom_site_fract_x
 _atom_site_fract_y
 _atom_site_fract_z
 _atom_site_occupancy
  Y  Y0  1  0.16674131  0.16674131  0.16674131  1.0
  Y  Y1  1  0.83325869  -0.16674131  -0.16674131  1.0
  Br  Br2  1  0.42484231  0.05807582  -0.20809487  1.0
  Br  Br3  1  0.20809487  0.57515769  -0.05807582  1.0
  Br  Br4  1  0.94192418  0.20809487  -0.42484231  1.0
  Br  Br5  1  0.57515769  0.94192418  -0.79190513  1.0
  Br  Br6  1  0.79190513  -0.57515769  0.05807582  1.0
  Br  Br7  1  1.05807582  -0.20809487  -0.57515769  1.0
