# generated using pymatgen
data_Pb2SeN2O9
_symmetry_space_group_name_H-M   'P 1'
_cell_length_a   5.55428354
_cell_length_b   10.62868299
_cell_length_c   7.54817623
_cell_angle_alpha   90.00000000
_cell_angle_beta   90.00000000
_cell_angle_gamma   90.00000000
_symmetry_Int_Tables_number   1
_chemical_formula_structural   Pb2SeN2O9
_chemical_formula_sum   'Pb4 Se2 N4 O18'
_cell_volume   445.60446255
_cell_formula_units_Z   2
loop_
 _symmetry_equiv_pos_site_id
 _symmetry_equiv_pos_as_xyz
  1  'x, y, z'
loop_
 _atom_site_type_symbol
 _atom_site_label
 _atom_site_symmetry_multiplicity
 _atom_site_fract_x
 _atom_site_fract_y
 _atom_site_fract_z
 _atom_site_occupancy
  Pb  Pb0  1  0.50000000  0.51871038  0.70916951  1.0
  Pb  Pb1  1  0.00000000  0.48128962  0.20916951  1.0
  Pb  Pb2  1  0.50000000  0.15494123  0.87929952  1.0
  Pb  Pb3  1  0.00000000  0.84505877  0.37929952  1.0
  Se  Se4  1  0.50000000  0.68154239  0.12847732  1.0
  Se  Se5  1  0.00000000  0.31845761  0.62847732  1.0
  N  N6  1  0.50000000  -0.00489101  0.51798766  1.0
  N  N7  1  0.00000000  1.00489101  0.01798766  1.0
  N  N8  1  0.50000000  0.29188439  0.24621444  1.0
  N  N9  1  0.00000000  0.70811561  0.74621444  1.0
  O  O10  1  0.69710264  0.25633822  0.17681444  1.0
  O  O11  1  0.19710264  0.74366178  0.67681444  1.0
  O  O12  1  0.30289736  0.25633822  0.17681444  1.0
  O  O13  1  0.80289736  0.74366178  0.67681444  1.0
  O  O14  1  0.74307677  0.66292776  0.27075960  1.0
  O  O15  1  0.24307677  0.33707224  0.77075960  1.0
  O  O16  1  0.25692323  0.66292776  0.27075960  1.0
  O  O17  1  0.75692323  0.33707224  0.77075960  1.0
  O  O18  1  0.80256824  0.96161691  0.07546241  1.0
  O  O19  1  0.30256824  0.03838309  0.57546241  1.0
  O  O20  1  0.19743176  0.96161691  0.07546241  1.0
  O  O21  1  0.69743176  0.03838309  0.57546241  1.0
  O  O22  1  0.50000000  0.90782723  0.40484240  1.0
  O  O23  1  0.00000000  0.09217277  0.90484240  1.0
  O  O24  1  0.50000000  0.53569886  0.02774632  1.0
  O  O25  1  0.00000000  0.46430114  0.52774632  1.0
  O  O26  1  0.50000000  0.36279206  0.37808994  1.0
  O  O27  1  0.00000000  0.63720794  0.87808994  1.0
