# generated using pymatgen
data_Ag3SbS3
_symmetry_space_group_name_H-M   'P 1'
_cell_length_a   7.08129458
_cell_length_b   7.08129458
_cell_length_c   7.08129458
_cell_angle_alpha   101.29618124
_cell_angle_beta   101.29618124
_cell_angle_gamma   101.29618124
_symmetry_Int_Tables_number   1
_chemical_formula_structural   Ag3SbS3
_chemical_formula_sum   'Ag6 Sb2 S6'
_cell_volume   331.17900687
_cell_formula_units_Z   2
loop_
 _symmetry_equiv_pos_site_id
 _symmetry_equiv_pos_as_xyz
  1  'x, y, z'
loop_
 _atom_site_type_symbol
 _atom_site_label
 _atom_site_symmetry_multiplicity
 _atom_site_fract_x
 _atom_site_fract_y
 _atom_site_fract_z
 _atom_site_occupancy
  Ag  Ag0  1  0.55479715  0.10125745  -0.11659369  1.0
  Ag  Ag1  1  1.05479715  0.38340631  -0.39874255  1.0
  Ag  Ag2  1  0.88340631  -0.44520285  0.10125745  1.0
  Ag  Ag3  1  0.60125745  1.05479715  -0.61659369  1.0
  Ag  Ag4  1  1.10125745  -0.11659369  -0.44520285  1.0
  Ag  Ag5  1  0.38340631  0.60125745  0.05479715  1.0
  Sb  Sb6  1  0.64484589  0.64484589  0.64484589  1.0
  Sb  Sb7  1  0.14484589  0.14484589  0.14484589  1.0
  S  S8  1  0.39625293  0.74143774  0.40270253  1.0
  S  S9  1  0.89625293  -0.09729747  0.24143774  1.0
  S  S10  1  1.40270253  0.39625293  -0.25856226  1.0
  S  S11  1  1.24143774  -0.10374707  -0.09729747  1.0
  S  S12  1  0.74143774  0.40270253  0.39625293  1.0
  S  S13  1  0.90270253  0.24143774  -0.10374707  1.0
