# generated using pymatgen
data_NaAuO2
_symmetry_space_group_name_H-M   'P 1'
_cell_length_a   3.74961994
_cell_length_b   3.74961994
_cell_length_c   6.24768713
_cell_angle_alpha   63.32353679
_cell_angle_beta   116.67646321
_cell_angle_gamma   131.98379859
_symmetry_Int_Tables_number   1
_chemical_formula_structural   NaAuO2
_chemical_formula_sum   'Na1 Au1 O2'
_cell_volume   56.86477274
_cell_formula_units_Z   1
loop_
 _symmetry_equiv_pos_site_id
 _symmetry_equiv_pos_as_xyz
  1  'x, y, z'
loop_
 _atom_site_type_symbol
 _atom_site_label
 _atom_site_symmetry_multiplicity
 _atom_site_fract_x
 _atom_site_fract_y
 _atom_site_fract_z
 _atom_site_occupancy
  Na  Na0  1  0.50000000  0.50000000  0.50000000  1.0
  Au  Au1  1  0.50000000  0.50000000  -0.00000000  1.0
  O  O2  1  0.90816382  -0.90816382  0.75445141  1.0
  O  O3  1  0.09183618  -0.09183618  0.24554859  1.0
