# generated using pymatgen
data_Si2N2O
_symmetry_space_group_name_H-M   'P 1'
_cell_length_a   5.49208693
_cell_length_b   5.49208693
_cell_length_c   13.47783330
_cell_angle_alpha   90.00000000
_cell_angle_beta   90.00000000
_cell_angle_gamma   120.00000000
_symmetry_Int_Tables_number   1
_chemical_formula_structural   Si2N2O
_chemical_formula_sum   'Si16 N16 O8'
_cell_volume   352.06716060
_cell_formula_units_Z   8
loop_
 _symmetry_equiv_pos_site_id
 _symmetry_equiv_pos_as_xyz
  1  'x, y, z'
loop_
 _atom_site_type_symbol
 _atom_site_label
 _atom_site_symmetry_multiplicity
 _atom_site_fract_x
 _atom_site_fract_y
 _atom_site_fract_z
 _atom_site_occupancy
  Si  Si0  1  0.33333333  0.66666667  0.95519462  1.0
  Si  Si1  1  0.66666667  0.33333333  0.04480538  1.0
  Si  Si2  1  0.00000000  0.00000000  0.62889984  1.0
  Si  Si3  1  0.00000000  0.00000000  0.37110016  1.0
  Si  Si4  1  0.66666667  0.33333333  0.66988628  1.0
  Si  Si5  1  0.33333333  0.66666667  0.33011372  1.0
  Si  Si6  1  0.00000000  0.00000000  0.00000000  1.0
  Si  Si7  1  -0.00000000  0.50000000  0.50000000  1.0
  Si  Si8  1  0.50000000  0.50000000  0.50000000  1.0
  Si  Si9  1  0.50000000  0.00000000  0.50000000  1.0
  Si  Si10  1  0.33689060  0.16844530  0.83467287  1.0
  Si  Si11  1  0.66310940  0.83155470  0.16532713  1.0
  Si  Si12  1  0.83155470  0.16844530  0.83467287  1.0
  Si  Si13  1  0.83155470  0.66310940  0.83467287  1.0
  Si  Si14  1  0.16844530  0.83155470  0.16532713  1.0
  Si  Si15  1  0.16844530  0.33689060  0.16532713  1.0
  N  N16  1  0.66666667  0.33333333  0.91338058  1.0
  N  N17  1  0.33333333  0.66666667  0.08661942  1.0
  N  N18  1  0.68593766  0.84296883  0.91271773  1.0
  N  N19  1  0.31406234  0.15703117  0.08728227  1.0
  N  N20  1  0.15703117  0.84296883  0.91271773  1.0
  N  N21  1  0.15703117  0.31406234  0.91271773  1.0
  N  N22  1  0.84296883  0.15703117  0.08728227  1.0
  N  N23  1  0.84296883  0.68593766  0.08728227  1.0
  N  N24  1  0.00000000  0.00000000  0.75931003  1.0
  N  N25  1  0.00000000  0.00000000  0.24068997  1.0
  N  N26  1  0.82380752  0.17619248  0.58407106  1.0
  N  N27  1  0.82380752  0.64761505  0.58407106  1.0
  N  N28  1  0.17619248  0.82380752  0.41592894  1.0
  N  N29  1  0.17619248  0.35238495  0.41592894  1.0
  N  N30  1  0.35238495  0.17619248  0.58407106  1.0
  N  N31  1  0.64761505  0.82380752  0.41592894  1.0
  O  O32  1  0.33333333  0.66666667  0.56325697  1.0
  O  O33  1  0.66666667  0.33333333  0.43674303  1.0
  O  O34  1  0.52135584  0.04271168  0.75768945  1.0
  O  O35  1  0.52135584  0.47864416  0.75768945  1.0
  O  O36  1  0.47864416  0.95728832  0.24231055  1.0
  O  O37  1  0.47864416  0.52135584  0.24231055  1.0
  O  O38  1  0.95728832  0.47864416  0.75768945  1.0
  O  O39  1  0.04271168  0.52135584  0.24231055  1.0
