# generated using pymatgen
data_Li7OsO6
_symmetry_space_group_name_H-M   'P 1'
_cell_length_a   5.78996204
_cell_length_b   5.78996204
_cell_length_c   5.78996204
_cell_angle_alpha   57.39343052
_cell_angle_beta   57.39343052
_cell_angle_gamma   57.39343052
_symmetry_Int_Tables_number   1
_chemical_formula_structural   Li7OsO6
_chemical_formula_sum   'Li7 Os1 O6'
_cell_volume   129.01733004
_cell_formula_units_Z   1
loop_
 _symmetry_equiv_pos_site_id
 _symmetry_equiv_pos_as_xyz
  1  'x, y, z'
loop_
 _atom_site_type_symbol
 _atom_site_label
 _atom_site_symmetry_multiplicity
 _atom_site_fract_x
 _atom_site_fract_y
 _atom_site_fract_z
 _atom_site_occupancy
  Li  Li0  1  0.93769428  -0.50486400  0.23406116  1.0
  Li  Li1  1  1.23406116  -0.06230572  -0.50486400  1.0
  Li  Li2  1  0.49513600  0.23406116  -0.06230572  1.0
  Li  Li3  1  0.65361933  -0.34638067  -0.34638067  1.0
  Li  Li4  1  0.49222029  0.72471072  -0.87898144  1.0
  Li  Li5  1  0.12101856  0.49222029  -0.27528928  1.0
  Li  Li6  1  0.72471072  0.12101856  -0.50777971  1.0
  Os  Os7  1  0.00185529  0.00185529  0.00185529  1.0
  O  O8  1  0.64227965  -0.11366120  0.23398324  1.0
  O  O9  1  1.23398324  -0.35772035  -0.11366120  1.0
  O  O10  1  0.88633880  0.23398324  -0.35772035  1.0
  O  O11  1  0.79760474  -0.62611029  0.07758822  1.0
  O  O12  1  1.07758822  -0.20239526  -0.62611029  1.0
  O  O13  1  0.37388971  0.07758822  -0.20239526  1.0
