# generated using pymatgen
data_Si2NCl5
_symmetry_space_group_name_H-M   'P 1'
_cell_length_a   7.02150543
_cell_length_b   13.73339697
_cell_length_c   11.88467983
_cell_angle_alpha   90.00000000
_cell_angle_beta   111.38757484
_cell_angle_gamma   90.00000000
_symmetry_Int_Tables_number   1
_chemical_formula_structural   Si2NCl5
_chemical_formula_sum   'Si8 N4 Cl20'
_cell_volume   1067.10784112
_cell_formula_units_Z   4
loop_
 _symmetry_equiv_pos_site_id
 _symmetry_equiv_pos_as_xyz
  1  'x, y, z'
loop_
 _atom_site_type_symbol
 _atom_site_label
 _atom_site_symmetry_multiplicity
 _atom_site_fract_x
 _atom_site_fract_y
 _atom_site_fract_z
 _atom_site_occupancy
  Si  Si0  1  0.76098263  0.50093108  0.25732114  1.0
  Si  Si1  1  0.76098263  -0.00093108  0.75732114  1.0
  Si  Si2  1  0.23901737  1.00093108  0.24267886  1.0
  Si  Si3  1  0.23901737  0.49906892  0.74267886  1.0
  Si  Si4  1  0.54617883  0.91329521  0.49171187  1.0
  Si  Si5  1  0.54617883  0.58670479  0.99171187  1.0
  Si  Si6  1  0.45382117  0.41329521  0.00828813  1.0
  Si  Si7  1  0.45382117  0.08670479  0.50828813  1.0
  N  N8  1  0.61779283  0.49845585  0.10563949  1.0
  N  N9  1  0.61779283  0.00154415  0.60563949  1.0
  N  N10  1  0.38220717  0.99845585  0.39436051  1.0
  N  N11  1  0.38220717  0.50154415  0.89436051  1.0
  Cl  Cl12  1  1.02153558  0.10703099  0.21015785  1.0
  Cl  Cl13  1  1.02153558  0.39296901  0.71015785  1.0
  Cl  Cl14  1  -0.02153558  0.60703099  0.28984215  1.0
  Cl  Cl15  1  -0.02153558  0.89296901  0.78984215  1.0
  Cl  Cl16  1  0.89723263  0.36851014  0.31004808  1.0
  Cl  Cl17  1  0.89723263  0.13148986  0.81004808  1.0
  Cl  Cl18  1  0.10276737  0.86851014  0.18995192  1.0
  Cl  Cl19  1  0.10276737  0.63148986  0.68995192  1.0
  Cl  Cl20  1  0.77302887  0.86536810  0.43715713  1.0
  Cl  Cl21  1  0.77302887  0.63463190  0.93715713  1.0
  Cl  Cl22  1  0.22697113  0.36536810  0.06284287  1.0
  Cl  Cl23  1  0.22697113  0.13463190  0.56284287  1.0
  Cl  Cl24  1  0.59306370  0.20552169  0.47019040  1.0
  Cl  Cl25  1  0.59306370  0.29447831  0.97019040  1.0
  Cl  Cl26  1  0.40693630  0.70552169  0.02980960  1.0
  Cl  Cl27  1  0.40693630  0.79447831  0.52980960  1.0
  Cl  Cl28  1  0.41464818  0.03025391  0.14227542  1.0
  Cl  Cl29  1  0.41464818  0.46974609  0.64227542  1.0
  Cl  Cl30  1  0.58535182  0.53025391  0.35772458  1.0
  Cl  Cl31  1  0.58535182  0.96974609  0.85772458  1.0
