# generated using pymatgen
data_LaP3(HO)6
_symmetry_space_group_name_H-M   'P 1'
_cell_length_a   9.02102933
_cell_length_b   7.18910991
_cell_length_c   6.88449584
_cell_angle_alpha   71.80007495
_cell_angle_beta   74.56995936
_cell_angle_gamma   83.06969237
_symmetry_Int_Tables_number   1
_chemical_formula_structural   LaP3(HO)6
_chemical_formula_sum   'La2 P6 H12 O12'
_cell_volume   408.51305597
_cell_formula_units_Z   2
loop_
 _symmetry_equiv_pos_site_id
 _symmetry_equiv_pos_as_xyz
  1  'x, y, z'
loop_
 _atom_site_type_symbol
 _atom_site_label
 _atom_site_symmetry_multiplicity
 _atom_site_fract_x
 _atom_site_fract_y
 _atom_site_fract_z
 _atom_site_occupancy
  La  La0  1  -0.64432572  -0.42203041  -0.72891133  1.0
  La  La1  1  -0.35567428  -0.57796959  -0.27108867  1.0
  P  P2  1  -0.67645595  -0.86793371  -0.89313370  1.0
  P  P3  1  -0.32354405  -0.13206629  -0.10686630  1.0
  P  P4  1  -0.69687986  -0.23541183  -0.27551099  1.0
  P  P5  1  -0.30312014  -0.76458817  -0.72448901  1.0
  P  P6  1  -0.94117097  -0.72217747  -0.32388247  1.0
  P  P7  1  -0.05882903  -0.27782253  -0.67611753  1.0
  H  H8  1  -0.82901149  -0.83415127  -0.78289829  1.0
  H  H9  1  -0.17098851  -0.16584873  -0.21710171  1.0
  H  H10  1  -0.69038005  -0.86436459  -0.09456578  1.0
  H  H11  1  -0.30961995  -0.13563541  -0.90543422  1.0
  H  H12  1  -0.60576272  -0.06976211  -0.34039059  1.0
  H  H13  1  -0.39423728  -0.93023789  -0.65960941  1.0
  H  H14  1  -0.82361523  -0.17120545  -0.36793933  1.0
  H  H15  1  -0.17638477  -0.82879455  -0.63206067  1.0
  H  H16  1  -0.94262436  -0.91063375  -0.17368443  1.0
  H  H17  1  -0.05737564  -0.08936625  -0.82631557  1.0
  H  H18  1  -0.94543208  -0.59269128  -0.20319888  1.0
  H  H19  1  -0.05456792  -0.40730872  -0.79680112  1.0
  O  O20  1  -0.58177328  -0.69044892  -0.92521853  1.0
  O  O21  1  -0.41822672  -0.30955108  -0.07478147  1.0
  O  O22  1  -0.61621392  -0.07016903  -0.78191731  1.0
  O  O23  1  -0.38378608  -0.92983097  -0.21808269  1.0
  O  O24  1  -0.60384628  -0.39317301  -0.37529172  1.0
  O  O25  1  -0.39615372  -0.60682699  -0.62470828  1.0
  O  O26  1  -0.75707272  -0.29787007  -0.03583071  1.0
  O  O27  1  -0.24292728  -0.70212993  -0.96416929  1.0
  O  O28  1  -0.78614249  -0.70877467  -0.48684307  1.0
  O  O29  1  -0.21385751  -0.29122533  -0.51315693  1.0
  O  O30  1  -0.08768893  -0.69290935  -0.40348074  1.0
  O  O31  1  -0.91231107  -0.30709065  -0.59651926  1.0
