# generated using pymatgen
data_OsN
_symmetry_space_group_name_H-M   'P 1'
_cell_length_a   6.46537158
_cell_length_b   6.46537158
_cell_length_c   4.82358636
_cell_angle_alpha   90.00000000
_cell_angle_beta   90.00000000
_cell_angle_gamma   155.32140043
_symmetry_Int_Tables_number   1
_chemical_formula_structural   OsN
_chemical_formula_sum   'Os4 N4'
_cell_volume   84.18647824
_cell_formula_units_Z   4
loop_
 _symmetry_equiv_pos_site_id
 _symmetry_equiv_pos_as_xyz
  1  'x, y, z'
loop_
 _atom_site_type_symbol
 _atom_site_label
 _atom_site_symmetry_multiplicity
 _atom_site_fract_x
 _atom_site_fract_y
 _atom_site_fract_z
 _atom_site_occupancy
  Os  Os0  1  -0.53705749  0.53705749  0.67633224  1.0
  Os  Os1  1  -0.46294251  1.46294251  0.17633224  1.0
  Os  Os2  1  -0.84565336  0.84565336  0.57678692  1.0
  Os  Os3  1  -0.15434664  1.15434664  0.07678692  1.0
  N  N4  1  -0.13814964  1.13814964  0.50388103  1.0
  N  N5  1  -0.86185036  0.86185036  0.00388103  1.0
  N  N6  1  -0.22965503  1.22965503  0.67299981  1.0
  N  N7  1  -0.77034497  0.77034497  0.17299981  1.0
