# generated using pymatgen
data_V2(PO4)3
_symmetry_space_group_name_H-M   'P 1'
_cell_length_a   8.75802385
_cell_length_b   8.75802385
_cell_length_c   8.75802385
_cell_angle_alpha   57.92856081
_cell_angle_beta   57.92856081
_cell_angle_gamma   57.92856081
_symmetry_Int_Tables_number   1
_chemical_formula_structural   V2(PO4)3
_chemical_formula_sum   'V4 P6 O24'
_cell_volume   452.43119363
_cell_formula_units_Z   2
loop_
 _symmetry_equiv_pos_site_id
 _symmetry_equiv_pos_as_xyz
  1  'x, y, z'
loop_
 _atom_site_type_symbol
 _atom_site_label
 _atom_site_symmetry_multiplicity
 _atom_site_fract_x
 _atom_site_fract_y
 _atom_site_fract_z
 _atom_site_occupancy
  V  V0  1  0.85879450  -0.14120550  -0.14120550  1.0
  V  V1  1  0.35879450  0.35879450  0.35879450  1.0
  V  V2  1  0.64120550  0.64120550  -0.35879450  1.0
  V  V3  1  1.14120550  0.14120550  0.14120550  1.0
  P  P4  1  0.46921559  0.75000000  0.03078441  1.0
  P  P5  1  0.96921559  -0.46921559  0.25000000  1.0
  P  P6  1  0.25000000  0.96921559  -0.46921559  1.0
  P  P7  1  0.75000000  1.03078441  -0.53078441  1.0
  P  P8  1  0.53078441  0.25000000  -0.03078441  1.0
  P  P9  1  1.03078441  0.46921559  -0.25000000  1.0
  O  O10  1  0.77175045  1.00522672  -0.35438315  1.0
  O  O11  1  1.27175045  0.14561685  -0.49477328  1.0
  O  O12  1  0.85438315  0.49477328  -0.27175045  1.0
  O  O13  1  0.35438315  0.22824955  -0.00522672  1.0
  O  O14  1  0.99477328  0.35438315  -0.77175045  1.0
  O  O15  1  0.49477328  0.72824955  -0.14561685  1.0
  O  O16  1  0.22824955  0.99477328  -0.64561685  1.0
  O  O17  1  0.72824955  0.85438315  -0.50522672  1.0
  O  O18  1  0.64561685  0.77175045  0.00522672  1.0
  O  O19  1  1.14561685  -0.49477328  0.27175045  1.0
  O  O20  1  0.50522672  0.27175045  0.14561685  1.0
  O  O21  1  1.00522672  0.64561685  -0.22824955  1.0
  O  O22  1  0.71241467  0.07120108  -0.06134093  1.0
  O  O23  1  1.21241467  0.43865907  -0.42879892  1.0
  O  O24  1  0.56134093  0.42879892  -0.21241467  1.0
  O  O25  1  1.06134093  0.28758533  -0.07120108  1.0
  O  O26  1  0.92879892  0.06134093  0.28758533  1.0
  O  O27  1  0.42879892  0.78758533  -0.43865907  1.0
  O  O28  1  1.28758533  -0.07120108  0.06134093  1.0
  O  O29  1  0.78758533  0.56134093  -0.57120108  1.0
  O  O30  1  0.93865907  -0.28758533  0.07120108  1.0
  O  O31  1  0.43865907  0.57120108  0.21241467  1.0
  O  O32  1  0.57120108  1.21241467  -0.56134093  1.0
  O  O33  1  1.07120108  -0.06134093  -0.28758533  1.0
