# generated using pymatgen
data_CaPdF4
_symmetry_space_group_name_H-M   'P 1'
_cell_length_a   6.63645482
_cell_length_b   6.63645482
_cell_length_c   6.63645482
_cell_angle_alpha   129.82445672
_cell_angle_beta   129.82445672
_cell_angle_gamma   73.68755570
_symmetry_Int_Tables_number   1
_chemical_formula_structural   CaPdF4
_chemical_formula_sum   'Ca2 Pd2 F8'
_cell_volume   168.20973146
_cell_formula_units_Z   2
loop_
 _symmetry_equiv_pos_site_id
 _symmetry_equiv_pos_as_xyz
  1  'x, y, z'
loop_
 _atom_site_type_symbol
 _atom_site_label
 _atom_site_symmetry_multiplicity
 _atom_site_fract_x
 _atom_site_fract_y
 _atom_site_fract_z
 _atom_site_occupancy
  Ca  Ca0  1  0.75000000  0.75000000  1.00000000  1.0
  Ca  Ca1  1  0.25000000  0.25000000  -0.00000000  1.0
  Pd  Pd2  1  0.50000000  0.00000000  0.50000000  1.0
  Pd  Pd3  1  0.00000000  0.50000000  0.50000000  1.0
  F  F4  1  1.18819416  0.68819416  1.14864806  1.0
  F  F5  1  0.46045391  0.96045391  1.14864806  1.0
  F  F6  1  1.03954609  1.18819416  1.50000000  1.0
  F  F7  1  0.31180584  0.46045391  0.50000000  1.0
  F  F8  1  0.68819416  0.53954609  0.50000000  1.0
  F  F9  1  0.96045391  0.81180584  1.50000000  1.0
  F  F10  1  0.53954609  1.03954609  0.85135194  1.0
  F  F11  1  0.81180584  0.31180584  0.85135194  1.0
