# generated using pymatgen
data_CaCoGeO4
_symmetry_space_group_name_H-M   'P 1'
_cell_length_a   11.38089011
_cell_length_b   6.39496594
_cell_length_c   5.06517113
_cell_angle_alpha   90.00000000
_cell_angle_beta   90.00000000
_cell_angle_gamma   90.00000000
_symmetry_Int_Tables_number   1
_chemical_formula_structural   CaCoGeO4
_chemical_formula_sum   'Ca4 Co4 Ge4 O16'
_cell_volume   368.64520445
_cell_formula_units_Z   4
loop_
 _symmetry_equiv_pos_site_id
 _symmetry_equiv_pos_as_xyz
  1  'x, y, z'
loop_
 _atom_site_type_symbol
 _atom_site_label
 _atom_site_symmetry_multiplicity
 _atom_site_fract_x
 _atom_site_fract_y
 _atom_site_fract_z
 _atom_site_occupancy
  Ca  Ca0  1  0.77260864  0.25000000  0.50861427  1.0
  Ca  Ca1  1  0.27260864  0.25000000  0.99138573  1.0
  Ca  Ca2  1  0.22739136  0.75000000  0.49138573  1.0
  Ca  Ca3  1  0.72739136  0.75000000  0.00861427  1.0
  Co  Co4  1  0.00000000  0.50000000  0.00000000  1.0
  Co  Co5  1  0.00000000  0.00000000  0.00000000  1.0
  Co  Co6  1  0.50000000  0.50000000  0.50000000  1.0
  Co  Co7  1  0.50000000  0.00000000  0.50000000  1.0
  O  O8  1  0.64799165  0.46932247  0.23007239  1.0
  O  O9  1  0.64799165  0.03067753  0.23007239  1.0
  O  O10  1  0.14799165  0.46932247  0.26992761  1.0
  O  O11  1  0.14799165  0.03067753  0.26992761  1.0
  O  O12  1  0.35200835  0.96932247  0.76992761  1.0
  O  O13  1  0.35200835  0.53067753  0.76992761  1.0
  O  O14  1  0.85200835  0.96932247  0.73007239  1.0
  O  O15  1  0.85200835  0.53067753  0.73007239  1.0
  O  O16  1  0.94094501  0.25000000  0.24950748  1.0
  O  O17  1  0.44094501  0.25000000  0.25049252  1.0
  O  O18  1  0.05905499  0.75000000  0.75049252  1.0
  O  O19  1  0.55905499  0.75000000  0.74950748  1.0
  O  O20  1  0.57933856  0.25000000  0.72429212  1.0
  O  O21  1  0.07933856  0.25000000  0.77570788  1.0
  O  O22  1  0.42066144  0.75000000  0.27570788  1.0
  O  O23  1  0.92066144  0.75000000  0.22429212  1.0
  Ge  Ge24  1  0.57880523  0.25000000  0.07552146  1.0
  Ge  Ge25  1  0.07880523  0.25000000  0.42447854  1.0
  Ge  Ge26  1  0.42119477  0.75000000  0.92447854  1.0
  Ge  Ge27  1  0.92119477  0.75000000  0.57552146  1.0
