# generated using pymatgen
data_La2Si(IO2)2
_symmetry_space_group_name_H-M   'P 1'
_cell_length_a   8.48102496
_cell_length_b   8.73352427
_cell_length_c   12.79990817
_cell_angle_alpha   107.67980011
_cell_angle_beta   98.74833429
_cell_angle_gamma   90.03340438
_symmetry_Int_Tables_number   1
_chemical_formula_structural   La2Si(IO2)2
_chemical_formula_sum   'La8 Si4 I8 O16'
_cell_volume   891.68926957
_cell_formula_units_Z   4
loop_
 _symmetry_equiv_pos_site_id
 _symmetry_equiv_pos_as_xyz
  1  'x, y, z'
loop_
 _atom_site_type_symbol
 _atom_site_label
 _atom_site_symmetry_multiplicity
 _atom_site_fract_x
 _atom_site_fract_y
 _atom_site_fract_z
 _atom_site_occupancy
  La  La0  1  -0.15505448  -0.94377740  -0.87680432  1.0
  La  La1  1  -0.84494552  -0.05622260  -0.12319568  1.0
  La  La2  1  -0.63761806  -0.79317857  -0.82304015  1.0
  La  La3  1  -0.36238194  -0.20682143  -0.17695985  1.0
  La  La4  1  -0.28827388  -0.44457280  -0.87743682  1.0
  La  La5  1  -0.71172612  -0.55542720  -0.12256318  1.0
  La  La6  1  -0.78140231  -0.29306602  -0.82290453  1.0
  La  La7  1  -0.21859769  -0.70693398  -0.17709547  1.0
  Si  Si8  1  -0.93230761  -0.69551481  -0.97739044  1.0
  Si  Si9  1  -0.06769239  -0.30448519  -0.02260956  1.0
  Si  Si10  1  -0.55693761  -0.19510197  -0.97702552  1.0
  Si  Si11  1  -0.44306239  -0.80489803  -0.02297448  1.0
  I  I12  1  -0.35283081  -0.94738465  -0.67652797  1.0
  I  I13  1  -0.64716919  -0.05261535  -0.32347203  1.0
  I  I14  1  -0.85245810  -0.91876677  -0.66295470  1.0
  I  I15  1  -0.14754190  -0.08123323  -0.33704530  1.0
  I  I16  1  -0.99852403  -0.45041853  -0.67776739  1.0
  I  I17  1  -0.00147597  -0.54958147  -0.32223261  1.0
  I  I18  1  -0.49244076  -0.41837451  -0.66307749  1.0
  I  I19  1  -0.50755924  -0.58162549  -0.33692251  1.0
  O  O20  1  -0.91725666  -0.85567930  -0.93436438  1.0
  O  O21  1  -0.08274334  -0.14432070  -0.06563562  1.0
  O  O22  1  -0.62225571  -0.87792081  -0.03015181  1.0
  O  O23  1  -0.37774429  -0.12207919  -0.96984819  1.0
  O  O24  1  -0.92430648  -0.75723152  -0.11285720  1.0
  O  O25  1  -0.07569352  -0.24276848  -0.88714280  1.0
  O  O26  1  -0.37273637  -0.74310848  -0.88750654  1.0
  O  O27  1  -0.62726363  -0.25689152  -0.11249346  1.0
  O  O28  1  -0.10830707  -0.62284439  -0.97036245  1.0
  O  O29  1  -0.89169293  -0.37715561  -0.02963755  1.0
  O  O30  1  -0.77336016  -0.58172299  -0.90943700  1.0
  O  O31  1  -0.22663984  -0.41827701  -0.09056300  1.0
  O  O32  1  -0.55236019  -0.35548325  -0.93419752  1.0
  O  O33  1  -0.44763981  -0.64451675  -0.06580248  1.0
  O  O34  1  -0.68440275  -0.08155725  -0.90878080  1.0
  O  O35  1  -0.31559725  -0.91844275  -0.09121920  1.0
