# generated using pymatgen
data_MgHOF
_symmetry_space_group_name_H-M   'P 1'
_cell_length_a   10.22618594
_cell_length_b   3.12586391
_cell_length_c   4.69887956
_cell_angle_alpha   90.00000000
_cell_angle_beta   90.00000000
_cell_angle_gamma   90.00000000
_symmetry_Int_Tables_number   1
_chemical_formula_structural   MgHOF
_chemical_formula_sum   'Mg4 H4 O4 F4'
_cell_volume   150.20281263
_cell_formula_units_Z   4
loop_
 _symmetry_equiv_pos_site_id
 _symmetry_equiv_pos_as_xyz
  1  'x, y, z'
loop_
 _atom_site_type_symbol
 _atom_site_label
 _atom_site_symmetry_multiplicity
 _atom_site_fract_x
 _atom_site_fract_y
 _atom_site_fract_z
 _atom_site_occupancy
  Mg  Mg0  1  0.13183477  0.75000000  0.51066100  1.0
  Mg  Mg1  1  0.63183477  0.75000000  0.98933900  1.0
  Mg  Mg2  1  0.86816523  0.25000000  0.48933900  1.0
  Mg  Mg3  1  0.36816523  0.25000000  0.01066100  1.0
  H  H4  1  0.43249863  0.75000000  0.58516742  1.0
  H  H5  1  0.93249863  0.75000000  0.91483258  1.0
  H  H6  1  0.56750137  0.25000000  0.41483258  1.0
  H  H7  1  0.06750137  0.25000000  0.08516742  1.0
  O  O8  1  0.45110017  0.75000000  0.78778363  1.0
  O  O9  1  0.95110017  0.75000000  0.71221637  1.0
  O  O10  1  0.54889983  0.25000000  0.21221637  1.0
  O  O11  1  0.04889983  0.25000000  0.28778363  1.0
  F  F12  1  0.29364653  0.75000000  0.25325831  1.0
  F  F13  1  0.79364653  0.75000000  0.24674169  1.0
  F  F14  1  0.70635347  0.25000000  0.74674169  1.0
  F  F15  1  0.20635347  0.25000000  0.75325831  1.0
