# generated using pymatgen
data_BaSrTa2O7
_symmetry_space_group_name_H-M   'P 1'
_cell_length_a   11.16361043
_cell_length_b   11.16361043
_cell_length_c   11.16361043
_cell_angle_alpha   159.24239121
_cell_angle_beta   138.61203877
_cell_angle_gamma   46.73779287
_symmetry_Int_Tables_number   1
_chemical_formula_structural   BaSrTa2O7
_chemical_formula_sum   'Ba2 Sr2 Ta4 O14'
_cell_volume   325.22750885
_cell_formula_units_Z   2
loop_
 _symmetry_equiv_pos_site_id
 _symmetry_equiv_pos_as_xyz
  1  'x, y, z'
loop_
 _atom_site_type_symbol
 _atom_site_label
 _atom_site_symmetry_multiplicity
 _atom_site_fract_x
 _atom_site_fract_y
 _atom_site_fract_z
 _atom_site_occupancy
  Ba  Ba0  1  0.76157529  0.76157529  1.00000000  1.0
  Ba  Ba1  1  0.23842471  0.23842471  -0.00000000  1.0
  Sr  Sr2  1  0.50000000  0.00000000  0.50000000  1.0
  Sr  Sr3  1  0.00000000  0.00000000  0.00000000  1.0
  Ta  Ta4  1  0.35062151  0.60245963  0.74816188  1.0
  Ta  Ta5  1  1.14570225  0.39754037  0.74816188  1.0
  Ta  Ta6  1  0.85429775  0.60245963  1.25183812  1.0
  Ta  Ta7  1  0.64937849  0.39754037  0.25183812  1.0
  O  O8  1  0.66087376  0.90785172  0.75302204  1.0
  O  O9  1  0.84517033  0.09214828  0.75302204  1.0
  O  O10  1  1.15482967  0.90785172  1.24697796  1.0
  O  O11  1  0.33912624  0.09214828  0.24697796  1.0
  O  O12  1  0.39489536  0.69238801  0.70250735  1.0
  O  O13  1  1.01011934  0.30761199  0.70250735  1.0
  O  O14  1  0.98988066  0.69238801  1.29749265  1.0
  O  O15  1  0.60510464  0.30761199  0.29749265  1.0
  O  O16  1  0.92111382  0.42111382  0.50000000  1.0
  O  O17  1  0.07888618  0.57888618  0.50000000  1.0
  O  O18  1  0.61280018  0.61280018  1.00000000  1.0
  O  O19  1  0.38719982  0.38719982  -0.00000000  1.0
  O  O20  1  0.28864215  0.50000000  0.78864215  1.0
  O  O21  1  0.71135785  0.50000000  1.21135785  1.0
