# generated using pymatgen
data_Ba5LiNb4O15
_symmetry_space_group_name_H-M   'P 1'
_cell_length_a   12.47079721
_cell_length_b   12.47079721
_cell_length_c   12.47079721
_cell_angle_alpha   27.12231018
_cell_angle_beta   27.12231018
_cell_angle_gamma   27.12231018
_symmetry_Int_Tables_number   1
_chemical_formula_structural   Ba5LiNb4O15
_chemical_formula_sum   'Ba5 Li1 Nb4 O15'
_cell_volume   355.60155505
_cell_formula_units_Z   1
loop_
 _symmetry_equiv_pos_site_id
 _symmetry_equiv_pos_as_xyz
  1  'x, y, z'
loop_
 _atom_site_type_symbol
 _atom_site_label
 _atom_site_symmetry_multiplicity
 _atom_site_fract_x
 _atom_site_fract_y
 _atom_site_fract_z
 _atom_site_occupancy
  Ba  Ba0  1  0.80206937  0.80206937  0.80206937  1.0
  Ba  Ba1  1  1.19793063  1.19793063  0.19793063  1.0
  Ba  Ba2  1  1.59681111  0.59681111  0.59681111  1.0
  Ba  Ba3  1  1.40318889  0.40318889  0.40318889  1.0
  Ba  Ba4  1  0.00000000  0.00000000  0.00000000  1.0
  Li  Li5  1  1.50000000  0.50000000  0.50000000  1.0
  Nb  Nb6  1  0.89795159  0.89795159  0.89795159  1.0
  Nb  Nb7  1  1.10204841  1.10204841  0.10204841  1.0
  Nb  Nb8  1  0.69972511  0.69972511  0.69972511  1.0
  Nb  Nb9  1  1.30027489  1.30027489  0.30027489  1.0
  O  O10  1  1.10436623  1.10436623  0.59836536  1.0
  O  O11  1  1.10436623  1.59836536  0.10436623  1.0
  O  O12  1  1.40163464  0.89563377  -0.10436623  1.0
  O  O13  1  0.89563377  1.40163464  -0.10436623  1.0
  O  O14  1  0.89563377  0.89563377  0.40163464  1.0
  O  O15  1  1.59836536  1.10436623  0.10436623  1.0
  O  O16  1  1.28920798  1.28920798  -0.18931682  1.0
  O  O17  1  1.28920798  0.81068318  0.28920798  1.0
  O  O18  1  1.18931682  0.71079202  0.71079202  1.0
  O  O19  1  1.71079202  0.18931682  0.71079202  1.0
  O  O20  1  1.71079202  0.71079202  0.18931682  1.0
  O  O21  1  0.81068318  1.28920798  0.28920798  1.0
  O  O22  1  0.50000000  -0.00000000  -0.50000000  1.0
  O  O23  1  0.50000000  -0.50000000  0.00000000  1.0
  O  O24  1  -0.00000000  0.50000000  -0.50000000  1.0
