# generated using pymatgen
data_H3N
_symmetry_space_group_name_H-M   'P 1'
_cell_length_a   4.57096296
_cell_length_b   6.33038797
_cell_length_c   4.82619915
_cell_angle_alpha   90.00000000
_cell_angle_beta   90.00000000
_cell_angle_gamma   90.00000000
_symmetry_Int_Tables_number   1
_chemical_formula_structural   H3N
_chemical_formula_sum   'H12 N4'
_cell_volume   139.65074854
_cell_formula_units_Z   4
loop_
 _symmetry_equiv_pos_site_id
 _symmetry_equiv_pos_as_xyz
  1  'x, y, z'
loop_
 _atom_site_type_symbol
 _atom_site_label
 _atom_site_symmetry_multiplicity
 _atom_site_fract_x
 _atom_site_fract_y
 _atom_site_fract_z
 _atom_site_occupancy
  H  H0  1  0.32201885  1.02733264  0.51616403  1.0
  H  H1  1  0.82201885  0.47266736  0.48383597  1.0
  H  H2  1  0.67798115  0.52733264  0.98383597  1.0
  H  H3  1  0.17798115  -0.02733264  0.01616403  1.0
  H  H4  1  0.17946535  0.47211106  0.48329804  1.0
  H  H5  1  0.67946535  0.02788894  0.51670196  1.0
  H  H6  1  0.82053465  0.97211106  1.01670196  1.0
  H  H7  1  0.32053465  0.52788894  -0.01670196  1.0
  H  H8  1  0.00011318  0.79478264  0.19684788  1.0
  H  H9  1  0.50011318  0.70521736  0.80315212  1.0
  H  H10  1  0.99988682  0.29478264  0.30315212  1.0
  H  H11  1  0.49988682  0.20521736  0.69684788  1.0
  N  N12  1  0.50046540  1.04815491  0.64237418  1.0
  N  N13  1  1.00046540  0.45184509  0.35762582  1.0
  N  N14  1  0.49953460  0.54815491  0.85762582  1.0
  N  N15  1  -0.00046540  -0.04815491  0.14237418  1.0
