# generated using pymatgen
data_K3Sm(BO3)2
_symmetry_space_group_name_H-M   'P 1'
_cell_length_a   9.10432784
_cell_length_b   7.18996917
_cell_length_c   11.29048823
_cell_angle_alpha   90.00000000
_cell_angle_beta   90.00000000
_cell_angle_gamma   90.00000000
_symmetry_Int_Tables_number   1
_chemical_formula_structural   K3Sm(BO3)2
_chemical_formula_sum   'K12 Sm4 B8 O24'
_cell_volume   739.07351339
_cell_formula_units_Z   4
loop_
 _symmetry_equiv_pos_site_id
 _symmetry_equiv_pos_as_xyz
  1  'x, y, z'
loop_
 _atom_site_type_symbol
 _atom_site_label
 _atom_site_symmetry_multiplicity
 _atom_site_fract_x
 _atom_site_fract_y
 _atom_site_fract_z
 _atom_site_occupancy
  K  K0  1  0.79839560  0.49790957  0.40169778  1.0
  K  K1  1  0.79839560  0.00209043  0.40169778  1.0
  K  K2  1  0.29839560  0.49790957  0.09830222  1.0
  K  K3  1  0.29839560  0.00209043  0.09830222  1.0
  K  K4  1  0.20160440  0.99790957  0.59830222  1.0
  K  K5  1  0.20160440  0.50209043  0.59830222  1.0
  K  K6  1  0.70160440  0.99790957  0.90169778  1.0
  K  K7  1  0.70160440  0.50209043  0.90169778  1.0
  K  K8  1  0.55986614  0.75000000  0.63021401  1.0
  K  K9  1  0.05986614  0.75000000  0.86978599  1.0
  K  K10  1  0.44013386  0.25000000  0.36978599  1.0
  K  K11  1  0.94013386  0.25000000  0.13021401  1.0
  Sm  Sm12  1  0.62404237  0.75000000  0.16511484  1.0
  Sm  Sm13  1  0.12404237  0.75000000  0.33488516  1.0
  Sm  Sm14  1  0.37595763  0.25000000  0.83488516  1.0
  Sm  Sm15  1  0.87595763  0.25000000  0.66511484  1.0
  B  B16  1  0.93905541  0.75000000  0.12665239  1.0
  B  B17  1  0.43905541  0.75000000  0.37334761  1.0
  B  B18  1  0.06094459  0.25000000  0.87334761  1.0
  B  B19  1  0.56094459  0.25000000  0.62665239  1.0
  B  B20  1  0.91017298  0.75000000  0.61810634  1.0
  B  B21  1  0.41017298  0.75000000  0.88189366  1.0
  B  B22  1  0.08982702  0.25000000  0.38189366  1.0
  B  B23  1  0.58982702  0.25000000  0.11810634  1.0
  O  O24  1  0.87062141  0.91748646  0.67149709  1.0
  O  O25  1  0.87062141  0.58251354  0.67149709  1.0
  O  O26  1  0.37062141  0.91748646  0.82850291  1.0
  O  O27  1  0.37062141  0.58251354  0.82850291  1.0
  O  O28  1  0.12937859  0.41748646  0.32850291  1.0
  O  O29  1  0.12937859  0.08251354  0.32850291  1.0
  O  O30  1  0.62937859  0.41748646  0.17149709  1.0
  O  O31  1  0.62937859  0.08251354  0.17149709  1.0
  O  O32  1  0.99076287  0.75000000  0.51258040  1.0
  O  O33  1  0.49076287  0.75000000  0.98741960  1.0
  O  O34  1  0.00923713  0.25000000  0.48741960  1.0
  O  O35  1  0.50923713  0.25000000  0.01258040  1.0
  O  O36  1  0.88261785  0.75000000  0.24268978  1.0
  O  O37  1  0.38261785  0.75000000  0.25731022  1.0
  O  O38  1  0.11738215  0.25000000  0.75731022  1.0
  O  O39  1  0.61738215  0.25000000  0.74268978  1.0
  O  O40  1  0.83853658  0.75000000  0.03507991  1.0
  O  O41  1  0.33853658  0.75000000  0.46492009  1.0
  O  O42  1  0.16146342  0.25000000  0.96492009  1.0
  O  O43  1  0.66146342  0.25000000  0.53507991  1.0
  O  O44  1  0.58877504  0.75000000  0.38723268  1.0
  O  O45  1  0.08877504  0.75000000  0.11276732  1.0
  O  O46  1  0.41122496  0.25000000  0.61276732  1.0
  O  O47  1  0.91122496  0.25000000  0.88723268  1.0
