# generated using pymatgen
data_Mn5H4(SO5)3
_symmetry_space_group_name_H-M   'P 1'
_cell_length_a   7.73851662
_cell_length_b   8.24480649
_cell_length_c   10.59440642
_cell_angle_alpha   90.00000000
_cell_angle_beta   100.44095549
_cell_angle_gamma   90.00000000
_symmetry_Int_Tables_number   1
_chemical_formula_structural   Mn5H4(SO5)3
_chemical_formula_sum   'Mn10 H8 S6 O30'
_cell_volume   664.75811639
_cell_formula_units_Z   2
loop_
 _symmetry_equiv_pos_site_id
 _symmetry_equiv_pos_as_xyz
  1  'x, y, z'
loop_
 _atom_site_type_symbol
 _atom_site_label
 _atom_site_symmetry_multiplicity
 _atom_site_fract_x
 _atom_site_fract_y
 _atom_site_fract_z
 _atom_site_occupancy
  O  O0  1  0.24036418  0.25000000  0.24678365  1.0
  O  O1  1  0.75963582  0.75000000  0.75321635  1.0
  O  O2  1  0.38282296  0.40193936  0.43745050  1.0
  O  O3  1  0.61717704  0.90193936  0.56254950  1.0
  O  O4  1  0.61717704  0.59806064  0.56254950  1.0
  O  O5  1  0.38282296  0.09806064  0.43745050  1.0
  O  O6  1  0.89615278  0.39893207  0.05462442  1.0
  O  O7  1  0.10384722  0.89893207  0.94537558  1.0
  O  O8  1  0.10384722  0.60106793  0.94537558  1.0
  O  O9  1  0.89615278  0.10106793  0.05462442  1.0
  O  O10  1  0.62450862  0.25000000  0.07068495  1.0
  O  O11  1  0.37549138  0.75000000  0.92931505  1.0
  O  O12  1  0.37726298  0.75000000  0.34269641  1.0
  O  O13  1  0.62273702  0.25000000  0.65730359  1.0
  O  O14  1  0.10990514  0.60105076  0.24486532  1.0
  O  O15  1  0.89009486  0.10105076  0.75513468  1.0
  O  O16  1  0.89009486  0.39894924  0.75513468  1.0
  O  O17  1  0.10990514  0.89894924  0.24486532  1.0
  O  O18  1  0.68220721  0.75000000  0.30985302  1.0
  O  O19  1  0.31779279  0.25000000  0.69014698  1.0
  O  O20  1  0.23200807  0.25000000  0.98773209  1.0
  O  O21  1  0.76799193  0.75000000  0.01226791  1.0
  O  O22  1  0.45832381  0.51955190  0.16451652  1.0
  O  O23  1  0.54167619  0.01955190  0.83548348  1.0
  O  O24  1  0.54167619  0.48044810  0.83548348  1.0
  O  O25  1  0.45832381  0.98044810  0.16451652  1.0
  O  O26  1  0.71774641  0.42133374  0.35534682  1.0
  O  O27  1  0.28225359  0.92133374  0.64465318  1.0
  O  O28  1  0.28225359  0.57866626  0.64465318  1.0
  O  O29  1  0.71774641  0.07866626  0.35534682  1.0
  S  S30  1  0.26125786  0.25000000  0.39480617  1.0
  S  S31  1  0.73874214  0.75000000  0.60519383  1.0
  S  S32  1  0.82695098  0.25000000  0.12332260  1.0
  S  S33  1  0.17304902  0.75000000  0.87667740  1.0
  S  S34  1  0.16891044  0.75000000  0.32911560  1.0
  S  S35  1  0.83108956  0.25000000  0.67088440  1.0
  H  H36  1  0.52869834  0.42733820  0.14137526  1.0
  H  H37  1  0.47130166  0.92733820  0.85862474  1.0
  H  H38  1  0.47130166  0.57266180  0.85862474  1.0
  H  H39  1  0.52869834  0.07266180  0.14137526  1.0
  H  H40  1  0.12803658  0.25000000  0.91941275  1.0
  H  H41  1  0.87196342  0.75000000  0.08058725  1.0
  H  H42  1  0.81055732  0.75000000  0.32766819  1.0
  H  H43  1  0.18944268  0.25000000  0.67233181  1.0
  Mn  Mn44  1  0.18523118  0.45631223  0.11039334  1.0
  Mn  Mn45  1  0.81476882  0.95631223  0.88960666  1.0
  Mn  Mn46  1  0.81476882  0.54368777  0.88960666  1.0
  Mn  Mn47  1  0.18523118  0.04368777  0.11039334  1.0
  Mn  Mn48  1  0.54939230  0.75000000  0.10684012  1.0
  Mn  Mn49  1  0.45060770  0.25000000  0.89315988  1.0
  Mn  Mn50  1  0.55340630  0.54460365  0.35777121  1.0
  Mn  Mn51  1  0.44659370  0.04460365  0.64222879  1.0
  Mn  Mn52  1  0.44659370  0.45539635  0.64222879  1.0
  Mn  Mn53  1  0.55340630  0.95539635  0.35777121  1.0
