# generated using pymatgen
data_TiO2
_symmetry_space_group_name_H-M   'P 1'
_cell_length_a   4.85206222
_cell_length_b   4.90359790
_cell_length_c   5.10114526
_cell_angle_alpha   90.00000000
_cell_angle_beta   100.21800149
_cell_angle_gamma   90.00000000
_symmetry_Int_Tables_number   1
_chemical_formula_structural   TiO2
_chemical_formula_sum   'Ti4 O8'
_cell_volume   119.44438855
_cell_formula_units_Z   4
loop_
 _symmetry_equiv_pos_site_id
 _symmetry_equiv_pos_as_xyz
  1  'x, y, z'
loop_
 _atom_site_type_symbol
 _atom_site_label
 _atom_site_symmetry_multiplicity
 _atom_site_fract_x
 _atom_site_fract_y
 _atom_site_fract_z
 _atom_site_occupancy
  Ti  Ti0  1  0.72421513  0.44225292  0.28285876  1.0
  Ti  Ti1  1  0.72421513  0.05774708  0.78285876  1.0
  Ti  Ti2  1  0.27578487  0.94225292  0.21714124  1.0
  Ti  Ti3  1  0.27578487  0.55774708  0.71714124  1.0
  O  O4  1  0.93890601  0.18090925  0.14396493  1.0
  O  O5  1  0.93890601  0.31909075  0.64396493  1.0
  O  O6  1  0.06109399  0.68090925  0.35603507  1.0
  O  O7  1  0.06109399  0.81909075  0.85603507  1.0
  O  O8  1  0.44951814  0.24144237  0.45662998  1.0
  O  O9  1  0.44951814  0.25855763  0.95662998  1.0
  O  O10  1  0.55048186  0.74144237  0.04337002  1.0
  O  O11  1  0.55048186  0.75855763  0.54337002  1.0
