# generated using pymatgen
data_RuS3Cl8
_symmetry_space_group_name_H-M   'P 1'
_cell_length_a   8.54844253
_cell_length_b   10.80873665
_cell_length_c   8.88836819
_cell_angle_alpha   103.14738504
_cell_angle_beta   109.98576424
_cell_angle_gamma   98.32350153
_symmetry_Int_Tables_number   1
_chemical_formula_structural   RuS3Cl8
_chemical_formula_sum   'Ru2 S6 Cl16'
_cell_volume   729.02410341
_cell_formula_units_Z   2
loop_
 _symmetry_equiv_pos_site_id
 _symmetry_equiv_pos_as_xyz
  1  'x, y, z'
loop_
 _atom_site_type_symbol
 _atom_site_label
 _atom_site_symmetry_multiplicity
 _atom_site_fract_x
 _atom_site_fract_y
 _atom_site_fract_z
 _atom_site_occupancy
  Ru  Ru0  1  -0.88658758  -0.83003107  -0.85521155  1.0
  Ru  Ru1  1  -0.11341242  -0.16996893  -0.14478845  1.0
  S  S2  1  -0.96069589  -0.71363787  -0.65745978  1.0
  S  S3  1  -0.03930411  -0.28636213  -0.34254022  1.0
  S  S4  1  -0.69224939  -0.91502309  -0.69279333  1.0
  S  S5  1  -0.30775061  -0.08497691  -0.30720667  1.0
  S  S6  1  -0.68419790  -0.65897042  -0.82250481  1.0
  S  S7  1  -0.31580210  -0.34102958  -0.17749519  1.0
  Cl  Cl8  1  -0.95607922  -0.80912338  -0.47810063  1.0
  Cl  Cl9  1  -0.04392078  -0.19087662  -0.52189937  1.0
  Cl  Cl10  1  -0.90197049  -0.97173718  -0.12006061  1.0
  Cl  Cl11  1  -0.09802951  -0.02826282  -0.87993939  1.0
  Cl  Cl12  1  -0.87188028  -0.23500337  -0.97618041  1.0
  Cl  Cl13  1  -0.12811972  -0.76499663  -0.02381959  1.0
  Cl  Cl14  1  -0.78101630  -0.53745635  -0.50240585  1.0
  Cl  Cl15  1  -0.21898370  -0.46254365  -0.49759415  1.0
  Cl  Cl16  1  -0.78076325  -0.50931068  -0.90525779  1.0
  Cl  Cl17  1  -0.21923675  -0.49068932  -0.09474221  1.0
  Cl  Cl18  1  -0.56298676  -0.70916308  -0.98460750  1.0
  Cl  Cl19  1  -0.43701324  -0.29083692  -0.01539250  1.0
  Cl  Cl20  1  -0.52306614  -0.76973190  -0.47338915  1.0
  Cl  Cl21  1  -0.47693386  -0.23026810  -0.52661085  1.0
  Cl  Cl22  1  -0.50988348  -0.96190894  -0.78785237  1.0
  Cl  Cl23  1  -0.49011652  -0.03809106  -0.21214763  1.0
