# generated using pymatgen
data_CaGaPt
_symmetry_space_group_name_H-M   'P 1'
_cell_length_a   7.14147274
_cell_length_b   4.42951083
_cell_length_c   7.69230131
_cell_angle_alpha   90.00000000
_cell_angle_beta   90.00000000
_cell_angle_gamma   90.00000000
_symmetry_Int_Tables_number   1
_chemical_formula_structural   CaGaPt
_chemical_formula_sum   'Ca4 Ga4 Pt4'
_cell_volume   243.33234278
_cell_formula_units_Z   4
loop_
 _symmetry_equiv_pos_site_id
 _symmetry_equiv_pos_as_xyz
  1  'x, y, z'
loop_
 _atom_site_type_symbol
 _atom_site_label
 _atom_site_symmetry_multiplicity
 _atom_site_fract_x
 _atom_site_fract_y
 _atom_site_fract_z
 _atom_site_occupancy
  Ca  Ca0  1  0.98560833  0.75000000  0.68673660  1.0
  Ca  Ca1  1  0.48560833  0.75000000  0.81326340  1.0
  Ca  Ca2  1  0.01439167  0.25000000  0.31326340  1.0
  Ca  Ca3  1  0.51439167  0.25000000  0.18673660  1.0
  Ga  Ga4  1  0.83866630  0.75000000  0.07365170  1.0
  Ga  Ga5  1  0.33866630  0.75000000  0.42634830  1.0
  Ga  Ga6  1  0.16133370  0.25000000  0.92634830  1.0
  Ga  Ga7  1  0.66133370  0.25000000  0.57365170  1.0
  Pt  Pt8  1  0.70901231  0.75000000  0.39277766  1.0
  Pt  Pt9  1  0.20901231  0.75000000  0.10722234  1.0
  Pt  Pt10  1  0.29098769  0.25000000  0.60722234  1.0
  Pt  Pt11  1  0.79098769  0.25000000  0.89277766  1.0
