# generated using pymatgen
data_EuAg(WO4)2
_symmetry_space_group_name_H-M   'P 1'
_cell_length_a   7.49803686
_cell_length_b   7.49803686
_cell_length_c   7.39572680
_cell_angle_alpha   65.29895723
_cell_angle_beta   114.70104277
_cell_angle_gamma   85.75113258
_symmetry_Int_Tables_number   1
_chemical_formula_structural   EuAg(WO4)2
_chemical_formula_sum   'Eu2 Ag2 W4 O16'
_cell_volume   327.23155599
_cell_formula_units_Z   2
loop_
 _symmetry_equiv_pos_site_id
 _symmetry_equiv_pos_as_xyz
  1  'x, y, z'
loop_
 _atom_site_type_symbol
 _atom_site_label
 _atom_site_symmetry_multiplicity
 _atom_site_fract_x
 _atom_site_fract_y
 _atom_site_fract_z
 _atom_site_occupancy
  Eu  Eu0  1  0.69472360  -0.30527640  0.00000000  1.0
  Eu  Eu1  1  1.30527640  0.30527640  -0.00000000  1.0
  Ag  Ag2  1  0.69506755  -0.69506755  0.51486564  1.0
  Ag  Ag3  1  0.30493245  -0.30493245  0.48513436  1.0
  W  W4  1  0.20863707  -0.20863707  0.96985166  1.0
  W  W5  1  0.79136293  -0.79136293  0.03014834  1.0
  W  W6  1  0.83458427  -0.16541573  0.50000000  1.0
  W  W7  1  1.16541573  0.16541573  0.50000000  1.0
  O  O8  1  0.68612789  -0.21471547  0.64174536  1.0
  O  O9  1  1.21471547  0.31387211  0.64174536  1.0
  O  O10  1  0.78528453  -0.31387211  0.35825464  1.0
  O  O11  1  1.31387211  0.21471547  0.35825464  1.0
  O  O12  1  1.70081836  0.04556846  0.91329136  1.0
  O  O13  1  0.95443154  -0.70081836  0.91329136  1.0
  O  O14  1  1.04556846  0.70081836  0.08670864  1.0
  O  O15  1  0.29918164  -0.04556846  0.08670864  1.0
  O  O16  1  0.34575367  -0.09905354  0.75426787  1.0
  O  O17  1  1.09905354  0.65424633  0.75426787  1.0
  O  O18  1  0.90094646  -0.65424633  0.24573213  1.0
  O  O19  1  1.65424633  0.09905354  0.24573213  1.0
  O  O20  1  0.97964793  -0.97964793  0.66032773  1.0
  O  O21  1  0.02035207  -0.02035207  0.33967227  1.0
  O  O22  1  0.56049606  -0.56049606  0.86348655  1.0
  O  O23  1  0.43950394  -0.43950394  0.13651345  1.0
