# generated using pymatgen
data_KFe2Se3
_symmetry_space_group_name_H-M   'P 1'
_cell_length_a   7.46448338
_cell_length_b   7.46448338
_cell_length_c   5.43915135
_cell_angle_alpha   90.00000000
_cell_angle_beta   90.00000000
_cell_angle_gamma   101.06443985
_symmetry_Int_Tables_number   1
_chemical_formula_structural   KFe2Se3
_chemical_formula_sum   'K2 Fe4 Se6'
_cell_volume   297.42810327
_cell_formula_units_Z   2
loop_
 _symmetry_equiv_pos_site_id
 _symmetry_equiv_pos_as_xyz
  1  'x, y, z'
loop_
 _atom_site_type_symbol
 _atom_site_label
 _atom_site_symmetry_multiplicity
 _atom_site_fract_x
 _atom_site_fract_y
 _atom_site_fract_z
 _atom_site_occupancy
  K  K0  1  -0.33511619  1.33511619  0.25000000  1.0
  K  K1  1  0.33511619  0.66488381  0.75000000  1.0
  Fe  Fe2  1  0.86651617  0.86651617  0.50000000  1.0
  Fe  Fe3  1  0.86651617  0.86651617  0.00000000  1.0
  Fe  Fe4  1  0.13348383  0.13348383  0.50000000  1.0
  Fe  Fe5  1  0.13348383  0.13348383  0.00000000  1.0
  Se  Se6  1  0.16829258  0.39014423  0.25000000  1.0
  Se  Se7  1  -0.60985577  1.16829258  0.75000000  1.0
  Se  Se8  1  0.60985577  0.83170742  0.25000000  1.0
  Se  Se9  1  -0.16829258  1.60985577  0.75000000  1.0
  Se  Se10  1  0.13336188  0.86663812  0.25000000  1.0
  Se  Se11  1  -0.13336188  1.13336188  0.75000000  1.0
