# generated using pymatgen
data_YWC2
_symmetry_space_group_name_H-M   'P 1'
_cell_length_a   5.72256083
_cell_length_b   3.37950640
_cell_length_c   10.78594577
_cell_angle_alpha   90.00000000
_cell_angle_beta   90.00000000
_cell_angle_gamma   90.00000000
_symmetry_Int_Tables_number   1
_chemical_formula_structural   YWC2
_chemical_formula_sum   'Y4 W4 C8'
_cell_volume   208.59405310
_cell_formula_units_Z   4
loop_
 _symmetry_equiv_pos_site_id
 _symmetry_equiv_pos_as_xyz
  1  'x, y, z'
loop_
 _atom_site_type_symbol
 _atom_site_label
 _atom_site_symmetry_multiplicity
 _atom_site_fract_x
 _atom_site_fract_y
 _atom_site_fract_z
 _atom_site_occupancy
  Y  Y0  1  0.91427849  0.75000000  0.36294167  1.0
  Y  Y1  1  0.41427849  0.75000000  0.13705833  1.0
  Y  Y2  1  0.08572151  0.25000000  0.63705833  1.0
  Y  Y3  1  0.58572151  0.25000000  0.86294167  1.0
  W  W4  1  0.59632940  0.75000000  0.61046041  1.0
  W  W5  1  0.09632940  0.75000000  0.88953959  1.0
  W  W6  1  0.40367060  0.25000000  0.38953959  1.0
  W  W7  1  0.90367060  0.25000000  0.11046041  1.0
  C  C8  1  0.84009924  0.75000000  0.74749472  1.0
  C  C9  1  0.34009924  0.75000000  0.75250528  1.0
  C  C10  1  0.15990076  0.25000000  0.25250528  1.0
  C  C11  1  0.65990076  0.25000000  0.24749472  1.0
  C  C12  1  0.77728761  0.75000000  0.01603122  1.0
  C  C13  1  0.27728761  0.75000000  0.48396878  1.0
  C  C14  1  0.22271239  0.25000000  0.98396878  1.0
  C  C15  1  0.72271239  0.25000000  0.51603122  1.0
