# generated using pymatgen
data_Co(CN2)2
_symmetry_space_group_name_H-M   'P 1'
_cell_length_a   8.18098289
_cell_length_b   7.18588278
_cell_length_c   3.03221447
_cell_angle_alpha   90.00000000
_cell_angle_beta   90.00000000
_cell_angle_gamma   90.00000000
_symmetry_Int_Tables_number   1
_chemical_formula_structural   Co(CN2)2
_chemical_formula_sum   'Co2 C4 N8'
_cell_volume   178.25656316
_cell_formula_units_Z   2
loop_
 _symmetry_equiv_pos_site_id
 _symmetry_equiv_pos_as_xyz
  1  'x, y, z'
loop_
 _atom_site_type_symbol
 _atom_site_label
 _atom_site_symmetry_multiplicity
 _atom_site_fract_x
 _atom_site_fract_y
 _atom_site_fract_z
 _atom_site_occupancy
  Co  Co0  1  0.50000000  0.50000000  0.50000000  1.0
  Co  Co1  1  0.00000000  0.00000000  0.00000000  1.0
  C  C2  1  0.24817980  0.80358934  0.50000000  1.0
  C  C3  1  0.74817980  0.69641066  0.00000000  1.0
  C  C4  1  0.75182020  0.19641066  0.50000000  1.0
  C  C5  1  0.25182020  0.30358934  0.00000000  1.0
  N  N6  1  0.37134003  0.71477869  0.50000000  1.0
  N  N7  1  0.87134003  0.78522131  0.00000000  1.0
  N  N8  1  0.62865997  0.28522131  0.50000000  1.0
  N  N9  1  0.12865997  0.21477869  0.00000000  1.0
  N  N10  1  0.12347385  0.90590541  0.50000000  1.0
  N  N11  1  0.62347385  0.59409459  0.00000000  1.0
  N  N12  1  0.87652615  0.09409459  0.50000000  1.0
  N  N13  1  0.37652615  0.40590541  0.00000000  1.0
