# generated using pymatgen
data_MgWO4
_symmetry_space_group_name_H-M   'P 1'
_cell_length_a   5.47295597
_cell_length_b   5.49875873
_cell_length_c   5.61718649
_cell_angle_alpha   90.00000000
_cell_angle_beta   63.30601250
_cell_angle_gamma   90.00000000
_symmetry_Int_Tables_number   1
_chemical_formula_structural   MgWO4
_chemical_formula_sum   'Mg2 W2 O8'
_cell_volume   151.02902502
_cell_formula_units_Z   2
loop_
 _symmetry_equiv_pos_site_id
 _symmetry_equiv_pos_as_xyz
  1  'x, y, z'
loop_
 _atom_site_type_symbol
 _atom_site_label
 _atom_site_symmetry_multiplicity
 _atom_site_fract_x
 _atom_site_fract_y
 _atom_site_fract_z
 _atom_site_occupancy
  Mg  Mg0  1  0.50000000  0.63048930  0.75000000  1.0
  Mg  Mg1  1  0.50000000  0.36951070  0.25000000  1.0
  W  W2  1  -0.00000000  0.14752394  0.75000000  1.0
  W  W3  1  -0.00000000  0.85247606  0.25000000  1.0
  O  O4  1  0.81169275  0.88499991  0.64932760  1.0
  O  O5  1  0.18830725  0.88499991  0.85067240  1.0
  O  O6  1  0.18830725  0.11500009  0.35067240  1.0
  O  O7  1  0.81169275  0.11500009  0.14932760  1.0
  O  O8  1  0.72070101  0.36267217  0.82915138  1.0
  O  O9  1  0.27929899  0.36267217  0.67084862  1.0
  O  O10  1  0.27929899  0.63732783  0.17084862  1.0
  O  O11  1  0.72070101  0.63732783  0.32915138  1.0
