# generated using pymatgen
data_LiNbWO6
_symmetry_space_group_name_H-M   'P 1'
_cell_length_a   4.72875220
_cell_length_b   4.72875220
_cell_length_c   9.38885366
_cell_angle_alpha   90.00000000
_cell_angle_beta   90.00000000
_cell_angle_gamma   90.00000000
_symmetry_Int_Tables_number   1
_chemical_formula_structural   LiNbWO6
_chemical_formula_sum   'Li2 Nb2 W2 O12'
_cell_volume   209.94507091
_cell_formula_units_Z   2
loop_
 _symmetry_equiv_pos_site_id
 _symmetry_equiv_pos_as_xyz
  1  'x, y, z'
loop_
 _atom_site_type_symbol
 _atom_site_label
 _atom_site_symmetry_multiplicity
 _atom_site_fract_x
 _atom_site_fract_y
 _atom_site_fract_z
 _atom_site_occupancy
  Li  Li0  1  0.00000000  0.50000000  0.57656022  1.0
  Li  Li1  1  0.50000000  0.00000000  0.42343978  1.0
  Nb  Nb2  1  0.00000000  0.50000000  0.91007484  1.0
  Nb  Nb3  1  0.50000000  0.00000000  0.08992516  1.0
  W  W4  1  0.00000000  0.50000000  0.26835222  1.0
  W  W5  1  0.50000000  0.00000000  0.73164778  1.0
  O  O6  1  0.28568723  0.78568723  0.22590535  1.0
  O  O7  1  0.21431277  0.28568723  0.77409465  1.0
  O  O8  1  0.71431277  0.21431277  0.22590535  1.0
  O  O9  1  0.78568723  0.71431277  0.77409465  1.0
  O  O10  1  0.29919394  0.79919394  0.60905615  1.0
  O  O11  1  0.20080606  0.29919394  0.39094385  1.0
  O  O12  1  0.70080606  0.20080606  0.60905615  1.0
  O  O13  1  0.79919394  0.70080606  0.39094385  1.0
  O  O14  1  0.30371188  0.80371188  0.92067071  1.0
  O  O15  1  0.19628812  0.30371188  0.07932929  1.0
  O  O16  1  0.69628812  0.19628812  0.92067071  1.0
  O  O17  1  0.80371188  0.69628812  0.07932929  1.0
