# generated using pymatgen
data_Hf6Be15Co8
_symmetry_space_group_name_H-M   'P 1'
_cell_length_a   7.72487241
_cell_length_b   7.72487241
_cell_length_c   7.72487241
_cell_angle_alpha   60.00000000
_cell_angle_beta   60.00000000
_cell_angle_gamma   60.00000000
_symmetry_Int_Tables_number   1
_chemical_formula_structural   Hf6Be15Co8
_chemical_formula_sum   'Hf6 Be15 Co8'
_cell_volume   325.95597499
_cell_formula_units_Z   1
loop_
 _symmetry_equiv_pos_site_id
 _symmetry_equiv_pos_as_xyz
  1  'x, y, z'
loop_
 _atom_site_type_symbol
 _atom_site_label
 _atom_site_symmetry_multiplicity
 _atom_site_fract_x
 _atom_site_fract_y
 _atom_site_fract_z
 _atom_site_occupancy
  Hf  Hf0  1  -0.71039654  0.71039654  0.71039654  1.0
  Hf  Hf1  1  -0.28960346  0.28960346  0.71039654  1.0
  Hf  Hf2  1  0.71039654  0.71039654  -0.71039654  1.0
  Hf  Hf3  1  0.28960346  1.28960346  -0.28960346  1.0
  Hf  Hf4  1  0.28960346  -0.28960346  1.28960346  1.0
  Hf  Hf5  1  -0.28960346  0.28960346  0.28960346  1.0
  Be  Be6  1  0.67823719  0.67823719  -0.32176281  1.0
  Be  Be7  1  1.32176281  0.32176281  0.03471156  1.0
  Be  Be8  1  1.32176281  0.03471156  0.32176281  1.0
  Be  Be9  1  0.96528844  0.67823719  -0.32176281  1.0
  Be  Be10  1  1.03471156  0.32176281  0.32176281  1.0
  Be  Be11  1  0.67823719  0.96528844  -0.32176281  1.0
  Be  Be12  1  0.67823719  0.67823719  -0.03471156  1.0
  Be  Be13  1  1.32176281  0.32176281  0.32176281  1.0
  Be  Be14  1  1.50000000  -0.00000000  0.00000000  1.0
  Be  Be15  1  1.00000000  0.50000000  -0.50000000  1.0
  Be  Be16  1  -0.00000000  1.50000000  0.00000000  1.0
  Be  Be17  1  0.50000000  1.00000000  -0.50000000  1.0
  Be  Be18  1  0.00000000  0.00000000  0.50000000  1.0
  Be  Be19  1  0.50000000  -0.50000000  1.00000000  1.0
  Be  Be20  1  0.00000000  0.00000000  0.00000000  1.0
  Co  Co21  1  0.87523460  0.87523460  -0.12476540  1.0
  Co  Co22  1  1.12476540  0.12476540  0.62570380  1.0
  Co  Co23  1  1.12476540  0.62570380  0.12476540  1.0
  Co  Co24  1  0.37429620  0.87523460  -0.12476540  1.0
  Co  Co25  1  1.62570380  0.12476540  0.12476540  1.0
  Co  Co26  1  0.87523460  0.37429620  -0.12476540  1.0
  Co  Co27  1  0.87523460  0.87523460  -0.62570380  1.0
  Co  Co28  1  1.12476540  0.12476540  0.12476540  1.0
