# generated using pymatgen
data_ErGa2Pd
_symmetry_space_group_name_H-M   'P 1'
_cell_length_a   5.53732842
_cell_length_b   5.53732842
_cell_length_c   6.69795748
_cell_angle_alpha   90.00000000
_cell_angle_beta   90.00000000
_cell_angle_gamma   132.79990108
_symmetry_Int_Tables_number   1
_chemical_formula_structural   ErGa2Pd
_chemical_formula_sum   'Er2 Ga4 Pd2'
_cell_volume   150.68840686
_cell_formula_units_Z   2
loop_
 _symmetry_equiv_pos_site_id
 _symmetry_equiv_pos_as_xyz
  1  'x, y, z'
loop_
 _atom_site_type_symbol
 _atom_site_label
 _atom_site_symmetry_multiplicity
 _atom_site_fract_x
 _atom_site_fract_y
 _atom_site_fract_z
 _atom_site_occupancy
  Er  Er0  1  -0.41204644  0.41204644  0.25000000  1.0
  Er  Er1  1  0.41204644  0.58795356  0.75000000  1.0
  Ga  Ga2  1  -0.12864489  0.12864489  0.44545814  1.0
  Ga  Ga3  1  0.12864489  0.87135511  0.55454186  1.0
  Ga  Ga4  1  -0.12864489  0.12864489  0.05454186  1.0
  Ga  Ga5  1  0.12864489  0.87135511  0.94545814  1.0
  Pd  Pd6  1  0.29818447  0.70181553  0.25000000  1.0
  Pd  Pd7  1  -0.29818447  0.29818447  0.75000000  1.0
