# generated using pymatgen
data_Zr3N4
_symmetry_space_group_name_H-M   'P 1'
_cell_length_a   9.83825838
_cell_length_b   3.28273510
_cell_length_c   10.83218440
_cell_angle_alpha   90.00000000
_cell_angle_beta   90.00000000
_cell_angle_gamma   90.00000000
_symmetry_Int_Tables_number   1
_chemical_formula_structural   Zr3N4
_chemical_formula_sum   'Zr12 N16'
_cell_volume   349.84051799
_cell_formula_units_Z   4
loop_
 _symmetry_equiv_pos_site_id
 _symmetry_equiv_pos_as_xyz
  1  'x, y, z'
loop_
 _atom_site_type_symbol
 _atom_site_label
 _atom_site_symmetry_multiplicity
 _atom_site_fract_x
 _atom_site_fract_y
 _atom_site_fract_z
 _atom_site_occupancy
  Zr  Zr0  1  0.89295993  0.75000000  0.40659292  1.0
  Zr  Zr1  1  0.39295993  0.75000000  0.09340708  1.0
  Zr  Zr2  1  0.10704007  0.25000000  0.59340708  1.0
  Zr  Zr3  1  0.60704007  0.25000000  0.90659292  1.0
  Zr  Zr4  1  0.76989462  0.75000000  0.14677248  1.0
  Zr  Zr5  1  0.26989462  0.75000000  0.35322752  1.0
  Zr  Zr6  1  0.23010538  0.25000000  0.85322752  1.0
  Zr  Zr7  1  0.73010538  0.25000000  0.64677248  1.0
  Zr  Zr8  1  0.43053523  0.75000000  0.62489500  1.0
  Zr  Zr9  1  0.93053523  0.75000000  0.87510500  1.0
  Zr  Zr10  1  0.56946477  0.25000000  0.37510500  1.0
  Zr  Zr11  1  0.06946477  0.25000000  0.12489500  1.0
  N  N12  1  0.99372622  0.75000000  0.22542392  1.0
  N  N13  1  0.49372622  0.75000000  0.27457608  1.0
  N  N14  1  0.00627378  0.25000000  0.77457608  1.0
  N  N15  1  0.50627378  0.25000000  0.72542392  1.0
  N  N16  1  0.73742625  0.75000000  0.78490570  1.0
  N  N17  1  0.23742625  0.75000000  0.71509430  1.0
  N  N18  1  0.26257375  0.25000000  0.21509430  1.0
  N  N19  1  0.76257375  0.25000000  0.28490570  1.0
  N  N20  1  0.64329783  0.75000000  0.51795241  1.0
  N  N21  1  0.14329783  0.75000000  0.98204759  1.0
  N  N22  1  0.35670217  0.25000000  0.48204759  1.0
  N  N23  1  0.85670217  0.25000000  0.01795241  1.0
  N  N24  1  0.60286310  0.75000000  0.02813525  1.0
  N  N25  1  0.10286310  0.75000000  0.47186475  1.0
  N  N26  1  0.39713690  0.25000000  0.97186475  1.0
  N  N27  1  0.89713690  0.25000000  0.52813525  1.0
