# generated using pymatgen
data_TlHCO2
_symmetry_space_group_name_H-M   'P 1'
_cell_length_a   7.13024253
_cell_length_b   6.07171931
_cell_length_c   8.12131578
_cell_angle_alpha   90.00000000
_cell_angle_beta   90.00000000
_cell_angle_gamma   90.00000000
_symmetry_Int_Tables_number   1
_chemical_formula_structural   TlHCO2
_chemical_formula_sum   'Tl4 H4 C4 O8'
_cell_volume   351.59475328
_cell_formula_units_Z   4
loop_
 _symmetry_equiv_pos_site_id
 _symmetry_equiv_pos_as_xyz
  1  'x, y, z'
loop_
 _atom_site_type_symbol
 _atom_site_label
 _atom_site_symmetry_multiplicity
 _atom_site_fract_x
 _atom_site_fract_y
 _atom_site_fract_z
 _atom_site_occupancy
  Tl  Tl0  1  0.49909558  0.53629279  0.50908012  1.0
  Tl  Tl1  1  0.50090442  0.46370721  0.00908012  1.0
  Tl  Tl2  1  1.00090442  0.03629279  0.00908012  1.0
  Tl  Tl3  1  -0.00090442  0.96370721  0.50908012  1.0
  H  H4  1  0.06821070  0.49962311  0.26027240  1.0
  H  H5  1  0.93178930  0.50037689  0.76027240  1.0
  H  H6  1  0.43178930  -0.00037689  0.76027240  1.0
  H  H7  1  0.56821070  1.00037689  0.26027240  1.0
  C  C8  1  0.91195114  0.50001754  0.25913033  1.0
  C  C9  1  0.08804886  0.49998246  0.75913033  1.0
  C  C10  1  0.58804886  0.00001754  0.75913033  1.0
  C  C11  1  0.41195114  0.99998246  0.25913033  1.0
  O  O12  1  0.83071464  0.34577069  0.18172348  1.0
  O  O13  1  0.16928536  0.65422931  0.68172348  1.0
  O  O14  1  0.66928536  0.84577069  0.68172348  1.0
  O  O15  1  0.33071464  0.15422931  0.18172348  1.0
  O  O16  1  0.67026469  0.15458739  0.83529368  1.0
  O  O17  1  0.32973531  0.84541261  0.33529368  1.0
  O  O18  1  0.82973531  0.65458739  0.33529368  1.0
  O  O19  1  0.17026469  0.34541261  0.83529368  1.0
