# generated using pymatgen
data_RbSeO3
_symmetry_space_group_name_H-M   'P 1'
_cell_length_a   5.54092269
_cell_length_b   6.09295499
_cell_length_c   8.40766230
_cell_angle_alpha   121.40715188
_cell_angle_beta   109.77783712
_cell_angle_gamma   88.72524372
_symmetry_Int_Tables_number   1
_chemical_formula_structural   RbSeO3
_chemical_formula_sum   'Rb2 Se2 O6'
_cell_volume   223.73458133
_cell_formula_units_Z   2
loop_
 _symmetry_equiv_pos_site_id
 _symmetry_equiv_pos_as_xyz
  1  'x, y, z'
loop_
 _atom_site_type_symbol
 _atom_site_label
 _atom_site_symmetry_multiplicity
 _atom_site_fract_x
 _atom_site_fract_y
 _atom_site_fract_z
 _atom_site_occupancy
  Rb  Rb0  1  -0.86663134  -0.59845110  -0.25960696  1.0
  Rb  Rb1  1  -0.13336866  -0.40154890  -0.74039304  1.0
  Se  Se2  1  -0.64949562  -0.88810014  -0.69812054  1.0
  Se  Se3  1  -0.35050438  -0.11189986  -0.30187946  1.0
  O  O4  1  -0.95170317  -0.86698424  -0.69582633  1.0
  O  O5  1  -0.04829683  -0.13301576  -0.30417367  1.0
  O  O6  1  -0.42741013  -0.72978320  -0.45746592  1.0
  O  O7  1  -0.57258987  -0.27021680  -0.54253408  1.0
  O  O8  1  -0.62729075  -0.20772998  -0.81891650  1.0
  O  O9  1  -0.37270925  -0.79227002  -0.18108350  1.0
