# generated using pymatgen
data_ZnS
_symmetry_space_group_name_H-M   'P 1'
_cell_length_a   3.84952769
_cell_length_b   3.84952769
_cell_length_c   62.94299125
_cell_angle_alpha   90.00000000
_cell_angle_beta   90.00000000
_cell_angle_gamma   120.00000000
_symmetry_Int_Tables_number   1
_chemical_formula_structural   ZnS
_chemical_formula_sum   'Zn20 S20'
_cell_volume   807.77964765
_cell_formula_units_Z   20
loop_
 _symmetry_equiv_pos_site_id
 _symmetry_equiv_pos_as_xyz
  1  'x, y, z'
loop_
 _atom_site_type_symbol
 _atom_site_label
 _atom_site_symmetry_multiplicity
 _atom_site_fract_x
 _atom_site_fract_y
 _atom_site_fract_z
 _atom_site_occupancy
  Zn  Zn0  1  -0.00000000  -0.00000000  0.00000738  1.0
  Zn  Zn1  1  0.33333333  0.66666667  0.05004563  1.0
  Zn  Zn2  1  0.66666667  0.33333333  0.10001059  1.0
  Zn  Zn3  1  0.00000000  0.00000000  0.14999888  1.0
  Zn  Zn4  1  0.33333333  0.66666667  0.19997159  1.0
  Zn  Zn5  1  0.66666667  0.33333333  0.25000535  1.0
  Zn  Zn6  1  0.33333333  0.66666667  0.30003762  1.0
  Zn  Zn7  1  0.00000000  0.00000000  0.34997772  1.0
  Zn  Zn8  1  0.66666667  0.33333333  0.40000759  1.0
  Zn  Zn9  1  0.00000000  0.00000000  0.45003911  1.0
  Zn  Zn10  1  0.33333333  0.66666667  0.49997750  1.0
  Zn  Zn11  1  0.66666667  0.33333333  0.55000737  1.0
  Zn  Zn12  1  0.33333333  0.66666667  0.60004569  1.0
  Zn  Zn13  1  -0.00000000  -0.00000000  0.65000441  1.0
  Zn  Zn14  1  0.66666667  0.33333333  0.69996979  1.0
  Zn  Zn15  1  0.33333333  0.66666667  0.74999808  1.0
  Zn  Zn16  1  0.66666667  0.33333333  0.80001058  1.0
  Zn  Zn17  1  0.00000000  0.00000000  0.85001074  1.0
  Zn  Zn18  1  0.66666667  0.33333333  0.90003746  1.0
  Zn  Zn19  1  0.33333333  0.66666667  0.94997685  1.0
  S  S20  1  0.00000000  0.00000000  0.03754386  1.0
  S  S21  1  0.33333333  0.66666667  0.08751112  1.0
  S  S22  1  0.66666667  0.33333333  0.13749198  1.0
  S  S23  1  0.00000000  0.00000000  0.18747676  1.0
  S  S24  1  0.33333333  0.66666667  0.23744186  1.0
  S  S25  1  0.66666667  0.33333333  0.28753954  1.0
  S  S26  1  0.33333333  0.66666667  0.33749398  1.0
  S  S27  1  0.00000000  0.00000000  0.38744425  1.0
  S  S28  1  0.66666667  0.33333333  0.43754121  1.0
  S  S29  1  0.00000000  0.00000000  0.48749549  1.0
  S  S30  1  0.33333333  0.66666667  0.53744393  1.0
  S  S31  1  0.66666667  0.33333333  0.58754302  1.0
  S  S32  1  0.33333333  0.66666667  0.63750922  1.0
  S  S33  1  0.00000000  0.00000000  0.68747892  1.0
  S  S34  1  0.66666667  0.33333333  0.73743769  1.0
  S  S35  1  0.33333333  0.66666667  0.78752620  1.0
  S  S36  1  0.66666667  0.33333333  0.83746002  1.0
  S  S37  1  0.00000000  0.00000000  0.88754215  1.0
  S  S38  1  0.66666667  0.33333333  0.93749435  1.0
  S  S39  1  0.33333333  0.66666667  0.98744452  1.0
