# generated using pymatgen
data_Ba3(AlGe)2
_symmetry_space_group_name_H-M   'P 1'
_cell_length_a   10.63720082
_cell_length_b   10.63720082
_cell_length_c   10.63720082
_cell_angle_alpha   156.28154347
_cell_angle_beta   152.00352591
_cell_angle_gamma   37.01199042
_symmetry_Int_Tables_number   1
_chemical_formula_structural   Ba3(AlGe)2
_chemical_formula_sum   'Ba3 Al2 Ge2'
_cell_volume   226.95167046
_cell_formula_units_Z   1
loop_
 _symmetry_equiv_pos_site_id
 _symmetry_equiv_pos_as_xyz
  1  'x, y, z'
loop_
 _atom_site_type_symbol
 _atom_site_label
 _atom_site_symmetry_multiplicity
 _atom_site_fract_x
 _atom_site_fract_y
 _atom_site_fract_z
 _atom_site_occupancy
  Ba  Ba0  1  0.81642497  0.31642497  0.50000000  1.0
  Ba  Ba1  1  0.18357503  0.68357503  0.50000000  1.0
  Ba  Ba2  1  0.00000000  0.00000000  0.00000000  1.0
  Al  Al3  1  0.56445365  0.56445365  1.00000000  1.0
  Al  Al4  1  0.43554635  0.43554635  0.00000000  1.0
  Ge  Ge5  1  0.63505346  0.13505346  0.50000000  1.0
  Ge  Ge6  1  0.36494654  0.86494654  0.50000000  1.0
