# generated using pymatgen
data_SrTe(HO2)2
_symmetry_space_group_name_H-M   'P 1'
_cell_length_a   7.97043437
_cell_length_b   7.23824611
_cell_length_c   8.39021355
_cell_angle_alpha   90.00000000
_cell_angle_beta   107.54347392
_cell_angle_gamma   90.00000000
_symmetry_Int_Tables_number   1
_chemical_formula_structural   SrTe(HO2)2
_chemical_formula_sum   'Sr4 Te4 H8 O16'
_cell_volume   461.53412223
_cell_formula_units_Z   4
loop_
 _symmetry_equiv_pos_site_id
 _symmetry_equiv_pos_as_xyz
  1  'x, y, z'
loop_
 _atom_site_type_symbol
 _atom_site_label
 _atom_site_symmetry_multiplicity
 _atom_site_fract_x
 _atom_site_fract_y
 _atom_site_fract_z
 _atom_site_occupancy
  Sr  Sr0  1  0.89781988  0.63465468  0.16139559  1.0
  Sr  Sr1  1  0.89781988  0.86534532  0.66139559  1.0
  Sr  Sr2  1  0.10218012  0.13465468  0.33860441  1.0
  Sr  Sr3  1  0.10218012  0.36534532  0.83860441  1.0
  Te  Te4  1  0.71375893  0.32356876  0.49292893  1.0
  Te  Te5  1  0.71375893  0.17643124  0.99292893  1.0
  Te  Te6  1  0.28624107  0.82356876  0.00707107  1.0
  Te  Te7  1  0.28624107  0.67643124  0.50707107  1.0
  H  H8  1  0.69602603  0.95467466  0.28920359  1.0
  H  H9  1  0.69602603  0.54532534  0.78920359  1.0
  H  H10  1  0.30397397  0.45467466  0.21079641  1.0
  H  H11  1  0.30397397  0.04532534  0.71079641  1.0
  H  H12  1  0.48630517  0.43361187  0.16794598  1.0
  H  H13  1  0.48630517  0.06638813  0.66794598  1.0
  H  H14  1  0.51369483  0.93361187  0.33205402  1.0
  H  H15  1  0.51369483  0.56638813  0.83205402  1.0
  O  O16  1  0.94066011  0.30139462  0.05331948  1.0
  O  O17  1  0.94066011  0.19860538  0.55331948  1.0
  O  O18  1  0.05933989  0.80139462  0.44668052  1.0
  O  O19  1  0.05933989  0.69860538  0.94668052  1.0
  O  O20  1  0.80162541  0.97075511  0.14697321  1.0
  O  O21  1  0.80162541  0.52924489  0.64697321  1.0
  O  O22  1  0.19837459  0.47075511  0.35302679  1.0
  O  O23  1  0.19837459  0.02924489  0.85302679  1.0
  O  O24  1  0.71044122  0.42369612  0.27684660  1.0
  O  O25  1  0.71044122  0.07630388  0.77684660  1.0
  O  O26  1  0.28955878  0.92369612  0.22315340  1.0
  O  O27  1  0.28955878  0.57630388  0.72315340  1.0
  O  O28  1  0.64414703  0.94255386  0.38474301  1.0
  O  O29  1  0.64414703  0.55744614  0.88474301  1.0
  O  O30  1  0.35585297  0.44255386  0.11525699  1.0
  O  O31  1  0.35585297  0.05744614  0.61525699  1.0
