# generated using pymatgen
data_Rb2Pd3S4
_symmetry_space_group_name_H-M   'P 1'
_cell_length_a   14.76124807
_cell_length_b   14.01677556
_cell_length_c   6.33874827
_cell_angle_alpha   83.94137226
_cell_angle_beta   70.78006133
_cell_angle_gamma   25.27856641
_symmetry_Int_Tables_number   1
_chemical_formula_structural   Rb2Pd3S4
_chemical_formula_sum   'Rb4 Pd6 S8'
_cell_volume   464.93785132
_cell_formula_units_Z   2
loop_
 _symmetry_equiv_pos_site_id
 _symmetry_equiv_pos_as_xyz
  1  'x, y, z'
loop_
 _atom_site_type_symbol
 _atom_site_label
 _atom_site_symmetry_multiplicity
 _atom_site_fract_x
 _atom_site_fract_y
 _atom_site_fract_z
 _atom_site_occupancy
  Rb  Rb0  1  0.07885842  1.07885842  -0.07885842  1.0
  Rb  Rb1  1  -0.07885842  0.92114158  0.07885842  1.0
  Rb  Rb2  1  0.17114158  0.17114158  0.32885842  1.0
  Rb  Rb3  1  0.32885842  0.32885842  0.17114158  1.0
  Pd  Pd4  1  0.50000000  0.50000000  -0.50000000  1.0
  Pd  Pd5  1  -0.25000000  0.75000000  0.75000000  1.0
  Pd  Pd6  1  -0.25070875  0.74929125  0.25070875  1.0
  Pd  Pd7  1  0.25070875  0.25070875  -0.25070875  1.0
  Pd  Pd8  1  0.50070875  0.50070875  -0.00070875  1.0
  Pd  Pd9  1  -0.00070875  0.99929125  0.50070875  1.0
  S  S10  1  0.28524401  0.60302319  0.38845023  1.0
  S  S11  1  0.38845023  0.72328257  0.28524401  1.0
  S  S12  1  0.60302319  0.28524401  -0.27671743  1.0
  S  S13  1  0.72328257  0.38845023  -0.39697681  1.0
  S  S14  1  0.96475599  -0.35302319  0.86154977  1.0
  S  S15  1  0.86154977  -0.47328257  0.96475599  1.0
  S  S16  1  -0.35302319  0.96475599  0.52671743  1.0
  S  S17  1  -0.47328257  0.86154977  0.64697681  1.0
