# generated using pymatgen
data_NbPd2
_symmetry_space_group_name_H-M   'P 1'
_cell_length_a   4.87930351
_cell_length_b   4.87930351
_cell_length_c   4.87930351
_cell_angle_alpha   146.08510478
_cell_angle_beta   132.28229084
_cell_angle_gamma   59.82444687
_symmetry_Int_Tables_number   1
_chemical_formula_structural   NbPd2
_chemical_formula_sum   'Nb1 Pd2'
_cell_volume   47.51479710
_cell_formula_units_Z   1
loop_
 _symmetry_equiv_pos_site_id
 _symmetry_equiv_pos_as_xyz
  1  'x, y, z'
loop_
 _atom_site_type_symbol
 _atom_site_label
 _atom_site_symmetry_multiplicity
 _atom_site_fract_x
 _atom_site_fract_y
 _atom_site_fract_z
 _atom_site_occupancy
  Nb  Nb0  1  0.00000000  0.00000000  0.00000000  1.0
  Pd  Pd1  1  0.66596332  0.66596332  1.00000000  1.0
  Pd  Pd2  1  0.33403668  0.33403668  0.00000000  1.0
