# generated using pymatgen
data_NbPb2Se2ClO8
_symmetry_space_group_name_H-M   'P 1'
_cell_length_a   8.90508358
_cell_length_b   5.49439242
_cell_length_c   10.96858312
_cell_angle_alpha   90.00000000
_cell_angle_beta   112.77951136
_cell_angle_gamma   90.00000000
_symmetry_Int_Tables_number   1
_chemical_formula_structural   NbPb2Se2ClO8
_chemical_formula_sum   'Nb2 Pb4 Se4 Cl2 O16'
_cell_volume   494.81164432
_cell_formula_units_Z   2
loop_
 _symmetry_equiv_pos_site_id
 _symmetry_equiv_pos_as_xyz
  1  'x, y, z'
loop_
 _atom_site_type_symbol
 _atom_site_label
 _atom_site_symmetry_multiplicity
 _atom_site_fract_x
 _atom_site_fract_y
 _atom_site_fract_z
 _atom_site_occupancy
  Nb  Nb0  1  0.84295065  0.00579615  0.42885086  1.0
  Nb  Nb1  1  0.15704935  0.50579615  0.57114914  1.0
  Pb  Pb2  1  0.68052316  0.44500559  0.70688823  1.0
  Pb  Pb3  1  0.31947684  0.94500559  0.29311177  1.0
  Pb  Pb4  1  0.18043989  0.49707828  0.97537444  1.0
  Pb  Pb5  1  0.81956011  0.99707828  0.02462556  1.0
  Se  Se6  1  0.97764557  0.00643988  0.76748649  1.0
  Se  Se7  1  0.02235443  0.50643988  0.23251351  1.0
  Se  Se8  1  0.38251257  0.00766741  0.70872558  1.0
  Se  Se9  1  0.61748743  0.50766741  0.29127442  1.0
  Cl  Cl10  1  0.65957023  0.51394308  0.96167208  1.0
  Cl  Cl11  1  0.34042977  0.01394308  0.03832792  1.0
  O  O12  1  0.97589430  0.30154933  0.46607488  1.0
  O  O13  1  0.02410570  0.80154933  0.53392512  1.0
  O  O14  1  0.93403795  0.22715452  0.86572093  1.0
  O  O15  1  0.06596205  0.72715452  0.13427907  1.0
  O  O16  1  0.91987741  0.74992489  0.82849026  1.0
  O  O17  1  0.08012259  0.24992489  0.17150974  1.0
  O  O18  1  0.81457559  0.07338867  0.62312509  1.0
  O  O19  1  0.18542441  0.57338867  0.37687491  1.0
  O  O20  1  0.63194780  0.23461625  0.37703946  1.0
  O  O21  1  0.36805220  0.73461625  0.62296054  1.0
  O  O22  1  0.58680714  0.05054899  0.76910999  1.0
  O  O23  1  0.41319286  0.55054899  0.23089001  1.0
  O  O24  1  0.32288498  0.22191643  0.57919863  1.0
  O  O25  1  0.67711502  0.72191643  0.42080137  1.0
  O  O26  1  0.17185674  0.44817053  0.73578696  1.0
  O  O27  1  0.82814326  0.94817053  0.26421304  1.0
