# generated using pymatgen
data_Ba3(PO4)2
_symmetry_space_group_name_H-M   'P 1'
_cell_length_a   7.82784443
_cell_length_b   7.82784443
_cell_length_c   7.82784443
_cell_angle_alpha   42.55117632
_cell_angle_beta   42.55117632
_cell_angle_gamma   42.55117632
_symmetry_Int_Tables_number   1
_chemical_formula_structural   Ba3(PO4)2
_chemical_formula_sum   'Ba3 P2 O8'
_cell_volume   198.63852883
_cell_formula_units_Z   1
loop_
 _symmetry_equiv_pos_site_id
 _symmetry_equiv_pos_as_xyz
  1  'x, y, z'
loop_
 _atom_site_type_symbol
 _atom_site_label
 _atom_site_symmetry_multiplicity
 _atom_site_fract_x
 _atom_site_fract_y
 _atom_site_fract_z
 _atom_site_occupancy
  Ba  Ba0  1  0.78982844  0.78982844  0.78982844  1.0
  Ba  Ba1  1  1.21017156  1.21017156  0.21017156  1.0
  Ba  Ba2  1  0.00000000  0.00000000  0.00000000  1.0
  P  P3  1  1.59277734  0.59277734  0.59277734  1.0
  P  P4  1  1.40722266  0.40722266  0.40722266  1.0
  O  O5  1  1.28195694  0.28195694  0.73273130  1.0
  O  O6  1  1.28195694  0.73273130  0.28195694  1.0
  O  O7  1  1.26726870  0.71804306  0.71804306  1.0
  O  O8  1  1.71804306  0.26726870  0.71804306  1.0
  O  O9  1  1.71804306  0.71804306  0.26726870  1.0
  O  O10  1  1.73273130  0.28195694  0.28195694  1.0
  O  O11  1  1.66567097  0.66567097  0.66567097  1.0
  O  O12  1  1.33432903  0.33432903  0.33432903  1.0
