# generated using pymatgen
data_BaPb3
_symmetry_space_group_name_H-M   'P 1'
_cell_length_a   9.66833272
_cell_length_b   9.66833272
_cell_length_c   9.66833272
_cell_angle_alpha   45.23168969
_cell_angle_beta   45.23168969
_cell_angle_gamma   45.23168969
_symmetry_Int_Tables_number   1
_chemical_formula_structural   BaPb3
_chemical_formula_sum   'Ba3 Pb9'
_cell_volume   414.82373975
_cell_formula_units_Z   3
loop_
 _symmetry_equiv_pos_site_id
 _symmetry_equiv_pos_as_xyz
  1  'x, y, z'
loop_
 _atom_site_type_symbol
 _atom_site_label
 _atom_site_symmetry_multiplicity
 _atom_site_fract_x
 _atom_site_fract_y
 _atom_site_fract_z
 _atom_site_occupancy
  Ba  Ba0  1  0.78271741  0.78271741  0.78271741  1.0
  Ba  Ba1  1  1.21728259  1.21728259  0.21728259  1.0
  Ba  Ba2  1  0.00000000  -0.00000000  0.00000000  1.0
  Pb  Pb3  1  1.29746191  0.29746191  0.73568201  1.0
  Pb  Pb4  1  1.29746191  0.73568201  0.29746191  1.0
  Pb  Pb5  1  1.26431799  0.70253809  0.70253809  1.0
  Pb  Pb6  1  1.70253809  0.26431799  0.70253809  1.0
  Pb  Pb7  1  1.70253809  0.70253809  0.26431799  1.0
  Pb  Pb8  1  1.73568201  0.29746191  0.29746191  1.0
  Pb  Pb9  1  0.50000000  0.00000000  -0.50000000  1.0
  Pb  Pb10  1  0.50000000  -0.50000000  -0.00000000  1.0
  Pb  Pb11  1  0.00000000  0.50000000  -0.50000000  1.0
