# generated using pymatgen
data_CsTi5Te8
_symmetry_space_group_name_H-M   'P 1'
_cell_length_a   9.91835414
_cell_length_b   9.91835414
_cell_length_c   13.57730715
_cell_angle_alpha   49.84770615
_cell_angle_beta   130.15229385
_cell_angle_gamma   157.16547951
_symmetry_Int_Tables_number   1
_chemical_formula_structural   CsTi5Te8
_chemical_formula_sum   'Cs1 Ti5 Te8'
_cell_volume   390.38251901
_cell_formula_units_Z   1
loop_
 _symmetry_equiv_pos_site_id
 _symmetry_equiv_pos_as_xyz
  1  'x, y, z'
loop_
 _atom_site_type_symbol
 _atom_site_label
 _atom_site_symmetry_multiplicity
 _atom_site_fract_x
 _atom_site_fract_y
 _atom_site_fract_z
 _atom_site_occupancy
  Cs  Cs0  1  0.00000000  -0.00000000  0.50000000  1.0
  Ti  Ti1  1  0.67056888  -0.67056888  0.33766187  1.0
  Ti  Ti2  1  0.32943112  -0.32943112  0.66233813  1.0
  Ti  Ti3  1  0.15549097  -0.15549097  0.96600748  1.0
  Ti  Ti4  1  0.84450903  -0.84450903  0.03399252  1.0
  Ti  Ti5  1  0.00000000  0.00000000  0.00000000  1.0
  Te  Te6  1  0.96403371  -0.96403371  0.76293700  1.0
  Te  Te7  1  0.03596629  -0.03596629  0.23706300  1.0
  Te  Te8  1  0.69759029  0.30240971  0.56745144  1.0
  Te  Te9  1  1.30240971  -0.30240971  0.43254856  1.0
  Te  Te10  1  0.65988124  0.34011876  0.82439551  1.0
  Te  Te11  1  1.34011876  -0.34011876  0.17560449  1.0
  Te  Te12  1  0.36122096  -0.36122096  0.89779599  1.0
  Te  Te13  1  0.63877904  -0.63877904  0.10220401  1.0
