# generated using pymatgen
data_Sr(YbS2)2
_symmetry_space_group_name_H-M   'P 1'
_cell_length_a   11.85844990
_cell_length_b   3.98905713
_cell_length_c   14.27267668
_cell_angle_alpha   90.00000000
_cell_angle_beta   90.00000000
_cell_angle_gamma   90.00000000
_symmetry_Int_Tables_number   1
_chemical_formula_structural   Sr(YbS2)2
_chemical_formula_sum   'Sr4 Yb8 S16'
_cell_volume   675.15518493
_cell_formula_units_Z   4
loop_
 _symmetry_equiv_pos_site_id
 _symmetry_equiv_pos_as_xyz
  1  'x, y, z'
loop_
 _atom_site_type_symbol
 _atom_site_label
 _atom_site_symmetry_multiplicity
 _atom_site_fract_x
 _atom_site_fract_y
 _atom_site_fract_z
 _atom_site_occupancy
  Sr  Sr0  1  0.75749465  0.75000000  0.66385852  1.0
  Sr  Sr1  1  0.25749465  0.75000000  0.83614148  1.0
  Sr  Sr2  1  0.24250535  0.25000000  0.33614148  1.0
  Sr  Sr3  1  0.74250535  0.25000000  0.16385852  1.0
  Yb  Yb4  1  0.91768724  0.75000000  0.40017888  1.0
  Yb  Yb5  1  0.41768724  0.75000000  0.09982112  1.0
  Yb  Yb6  1  0.08231276  0.25000000  0.59982112  1.0
  Yb  Yb7  1  0.58231276  0.25000000  0.90017888  1.0
  Yb  Yb8  1  0.43252446  0.75000000  0.60945235  1.0
  Yb  Yb9  1  0.93252446  0.75000000  0.89054765  1.0
  Yb  Yb10  1  0.56747554  0.25000000  0.39054765  1.0
  Yb  Yb11  1  0.06747554  0.25000000  0.10945235  1.0
  S  S12  1  0.91331968  0.75000000  0.07965746  1.0
  S  S13  1  0.41331968  0.75000000  0.42034254  1.0
  S  S14  1  0.08668032  0.25000000  0.92034254  1.0
  S  S15  1  0.58668032  0.25000000  0.57965746  1.0
  S  S16  1  0.70739699  0.75000000  0.32560824  1.0
  S  S17  1  0.20739699  0.75000000  0.17439176  1.0
  S  S18  1  0.29260301  0.25000000  0.67439176  1.0
  S  S19  1  0.79260301  0.25000000  0.82560824  1.0
  S  S20  1  0.62957235  0.75000000  0.02652108  1.0
  S  S21  1  0.12957235  0.75000000  0.47347892  1.0
  S  S22  1  0.37042765  0.25000000  0.97347892  1.0
  S  S23  1  0.87042765  0.25000000  0.52652108  1.0
  S  S24  1  0.52104352  0.75000000  0.78497409  1.0
  S  S25  1  0.02104352  0.75000000  0.71502591  1.0
  S  S26  1  0.47895648  0.25000000  0.21502591  1.0
  S  S27  1  0.97895648  0.25000000  0.28497409  1.0
