# generated using pymatgen
data_Ba3Fe2Br2O5
_symmetry_space_group_name_H-M   'P 1'
_cell_length_a   8.84464583
_cell_length_b   8.84464583
_cell_length_c   8.84464583
_cell_angle_alpha   109.47122063
_cell_angle_beta   109.47122063
_cell_angle_gamma   109.47122063
_symmetry_Int_Tables_number   1
_chemical_formula_structural   Ba3Fe2Br2O5
_chemical_formula_sum   'Ba6 Fe4 Br4 O10'
_cell_volume   532.62242744
_cell_formula_units_Z   2
loop_
 _symmetry_equiv_pos_site_id
 _symmetry_equiv_pos_as_xyz
  1  'x, y, z'
loop_
 _atom_site_type_symbol
 _atom_site_label
 _atom_site_symmetry_multiplicity
 _atom_site_fract_x
 _atom_site_fract_y
 _atom_site_fract_z
 _atom_site_occupancy
  Ba  Ba0  1  1.15249606  0.90249606  1.25000000  1.0
  Ba  Ba1  1  0.25000000  1.15249606  0.90249606  1.0
  Ba  Ba2  1  0.75000000  1.34750394  0.59750394  1.0
  Ba  Ba3  1  0.90249606  0.25000000  1.15249606  1.0
  Ba  Ba4  1  0.59750394  0.75000000  0.34750394  1.0
  Ba  Ba5  1  0.34750394  0.59750394  0.75000000  1.0
  Fe  Fe6  1  0.80998361  0.80998361  0.80998361  1.0
  Fe  Fe7  1  0.50000000  1.00000000  0.69001639  1.0
  Fe  Fe8  1  1.00000000  0.69001639  1.50000000  1.0
  Fe  Fe9  1  0.69001639  1.50000000  1.00000000  1.0
  Br  Br10  1  1.38086173  1.38086173  1.38086173  1.0
  Br  Br11  1  1.50000000  1.00000000  1.11913827  1.0
  Br  Br12  1  1.00000000  1.11913827  1.50000000  1.0
  Br  Br13  1  1.11913827  0.50000000  1.00000000  1.0
  O  O14  1  0.89270544  0.64270544  0.25000000  1.0
  O  O15  1  0.25000000  0.89270544  0.64270544  1.0
  O  O16  1  0.75000000  0.60729456  0.85729456  1.0
  O  O17  1  0.64270544  1.25000000  0.89270544  1.0
  O  O18  1  0.85729456  0.75000000  0.60729456  1.0
  O  O19  1  0.60729456  0.85729456  0.75000000  1.0
  O  O20  1  1.01817068  1.01817068  1.01817068  1.0
  O  O21  1  1.50000000  1.00000000  1.48182932  1.0
  O  O22  1  1.00000000  1.48182932  1.50000000  1.0
  O  O23  1  1.48182932  0.50000000  1.00000000  1.0
