# generated using pymatgen
data_Y2Hf3Ge4
_symmetry_space_group_name_H-M   'P 1'
_cell_length_a   7.39899852
_cell_length_b   7.39899852
_cell_length_c   13.54907783
_cell_angle_alpha   90.00000000
_cell_angle_beta   90.00000000
_cell_angle_gamma   90.00000000
_symmetry_Int_Tables_number   1
_chemical_formula_structural   Y2Hf3Ge4
_chemical_formula_sum   'Y8 Hf12 Ge16'
_cell_volume   741.74669142
_cell_formula_units_Z   4
loop_
 _symmetry_equiv_pos_site_id
 _symmetry_equiv_pos_as_xyz
  1  'x, y, z'
loop_
 _atom_site_type_symbol
 _atom_site_label
 _atom_site_symmetry_multiplicity
 _atom_site_fract_x
 _atom_site_fract_y
 _atom_site_fract_z
 _atom_site_occupancy
  Y  Y0  1  0.50001294  0.83886073  0.03143787  1.0
  Y  Y1  1  1.00001294  0.66113927  0.71856213  1.0
  Y  Y2  1  0.16113927  0.49998706  0.46856213  1.0
  Y  Y3  1  0.66113927  1.00001294  0.28143787  1.0
  Y  Y4  1  0.49998706  0.16113927  0.53143787  1.0
  Y  Y5  1  -0.00001294  0.33886073  0.21856213  1.0
  Y  Y6  1  0.83886073  0.50001294  0.96856213  1.0
  Y  Y7  1  0.33886073  -0.00001294  0.78143787  1.0
  Hf  Hf8  1  0.34035603  0.49647203  0.87474160  1.0
  Hf  Hf9  1  0.84035603  1.00352797  0.87525840  1.0
  Hf  Hf10  1  0.50352797  0.65964397  0.62525840  1.0
  Hf  Hf11  1  1.00352797  0.84035603  0.12474160  1.0
  Hf  Hf12  1  0.65964397  0.50352797  0.37474160  1.0
  Hf  Hf13  1  0.15964397  -0.00352797  0.37525840  1.0
  Hf  Hf14  1  0.49647203  0.34035603  0.12525840  1.0
  Hf  Hf15  1  -0.00352797  0.15964397  0.62474160  1.0
  Hf  Hf16  1  0.33058543  0.66941457  0.25000000  1.0
  Hf  Hf17  1  0.83058543  0.83058543  0.50000000  1.0
  Hf  Hf18  1  0.66941457  0.33058543  0.75000000  1.0
  Hf  Hf19  1  0.16941457  0.16941457  0.00000000  1.0
  Ge  Ge20  1  0.20238567  0.53347106  0.06861020  1.0
  Ge  Ge21  1  0.70238567  0.96652894  0.68138980  1.0
  Ge  Ge22  1  0.46652894  0.79761433  0.43138980  1.0
  Ge  Ge23  1  0.96652894  0.70238567  0.31861020  1.0
  Ge  Ge24  1  0.79761433  0.46652894  0.56861020  1.0
  Ge  Ge25  1  0.29761433  0.03347106  0.18138980  1.0
  Ge  Ge26  1  0.53347106  0.20238567  0.93138980  1.0
  Ge  Ge27  1  0.03347106  0.29761433  0.81861020  1.0
  Ge  Ge28  1  0.13169294  0.80108266  0.92628239  1.0
  Ge  Ge29  1  0.63169294  0.69891734  0.82371761  1.0
  Ge  Ge30  1  0.19891734  0.86830706  0.57371761  1.0
  Ge  Ge31  1  0.69891734  0.63169294  0.17628239  1.0
  Ge  Ge32  1  0.86830706  0.19891734  0.42628239  1.0
  Ge  Ge33  1  0.36830706  0.30108266  0.32371761  1.0
  Ge  Ge34  1  0.80108266  0.13169294  0.07371761  1.0
  Ge  Ge35  1  0.30108266  0.36830706  0.67628239  1.0
