# generated using pymatgen
data_K3Mo2Cl9
_symmetry_space_group_name_H-M   'P 1'
_cell_length_a   7.42043514
_cell_length_b   7.42043514
_cell_length_c   16.33652696
_cell_angle_alpha   90.00000000
_cell_angle_beta   90.00000000
_cell_angle_gamma   120.00000000
_symmetry_Int_Tables_number   1
_chemical_formula_structural   K3Mo2Cl9
_chemical_formula_sum   'K6 Mo4 Cl18'
_cell_volume   779.02090520
_cell_formula_units_Z   2
loop_
 _symmetry_equiv_pos_site_id
 _symmetry_equiv_pos_as_xyz
  1  'x, y, z'
loop_
 _atom_site_type_symbol
 _atom_site_label
 _atom_site_symmetry_multiplicity
 _atom_site_fract_x
 _atom_site_fract_y
 _atom_site_fract_z
 _atom_site_occupancy
  K  K0  1  0.00000000  0.00000000  0.25000000  1.0
  K  K1  1  0.00000000  0.00000000  0.75000000  1.0
  K  K2  1  0.33333333  0.66666667  0.93150716  1.0
  K  K3  1  0.33333333  0.66666667  0.56849284  1.0
  K  K4  1  0.66666667  0.33333333  0.43150716  1.0
  K  K5  1  0.66666667  0.33333333  0.06849284  1.0
  Mo  Mo6  1  0.33333333  0.66666667  0.32105075  1.0
  Mo  Mo7  1  0.33333333  0.66666667  0.17894925  1.0
  Mo  Mo8  1  0.66666667  0.33333333  0.82105075  1.0
  Mo  Mo9  1  0.66666667  0.33333333  0.67894925  1.0
  Cl  Cl10  1  0.11907312  0.75741493  0.40315362  1.0
  Cl  Cl11  1  0.11907312  0.75741493  0.09684638  1.0
  Cl  Cl12  1  0.75741493  0.63834182  0.90315362  1.0
  Cl  Cl13  1  0.75741493  0.63834182  0.59684638  1.0
  Cl  Cl14  1  0.63834182  0.88092688  0.40315362  1.0
  Cl  Cl15  1  0.63834182  0.88092688  0.09684638  1.0
  Cl  Cl16  1  0.24258507  0.36165818  0.40315362  1.0
  Cl  Cl17  1  0.24258507  0.36165818  0.09684638  1.0
  Cl  Cl18  1  0.88092688  0.24258507  0.90315362  1.0
  Cl  Cl19  1  0.88092688  0.24258507  0.59684638  1.0
  Cl  Cl20  1  0.36165818  0.11907312  0.90315362  1.0
  Cl  Cl21  1  0.36165818  0.11907312  0.59684638  1.0
  Cl  Cl22  1  0.57073205  0.56490288  0.25000000  1.0
  Cl  Cl23  1  0.56490288  0.99417083  0.75000000  1.0
  Cl  Cl24  1  0.99417083  0.42926795  0.25000000  1.0
  Cl  Cl25  1  0.43509712  0.00582917  0.25000000  1.0
  Cl  Cl26  1  0.42926795  0.43509712  0.75000000  1.0
  Cl  Cl27  1  0.00582917  0.57073205  0.75000000  1.0
