# generated using pymatgen
data_Na2ZrGe2O7
_symmetry_space_group_name_H-M   'P 1'
_cell_length_a   5.69488318
_cell_length_b   9.29805830
_cell_length_c   6.75125975
_cell_angle_alpha   70.08970128
_cell_angle_beta   87.32474684
_cell_angle_gamma   89.15335183
_symmetry_Int_Tables_number   1
_chemical_formula_structural   Na2ZrGe2O7
_chemical_formula_sum   'Na4 Zr2 Ge4 O14'
_cell_volume   335.75361457
_cell_formula_units_Z   2
loop_
 _symmetry_equiv_pos_site_id
 _symmetry_equiv_pos_as_xyz
  1  'x, y, z'
loop_
 _atom_site_type_symbol
 _atom_site_label
 _atom_site_symmetry_multiplicity
 _atom_site_fract_x
 _atom_site_fract_y
 _atom_site_fract_z
 _atom_site_occupancy
  Na  Na0  1  -0.72878710  -0.99254531  -0.34015661  1.0
  Na  Na1  1  -0.27121290  -0.00745469  -0.65984339  1.0
  Na  Na2  1  -0.22700810  -0.61866203  -0.90743251  1.0
  Na  Na3  1  -0.77299190  -0.38133797  -0.09256749  1.0
  Zr  Zr4  1  -0.73440196  -0.22419986  -0.70139165  1.0
  Zr  Zr5  1  -0.26559804  -0.77580014  -0.29860835  1.0
  Ge  Ge6  1  -0.79915846  -0.83575284  -0.94369316  1.0
  Ge  Ge7  1  -0.20084154  -0.16424716  -0.05630684  1.0
  Ge  Ge8  1  -0.72526939  -0.64294394  -0.64175308  1.0
  Ge  Ge9  1  -0.27473061  -0.35705606  -0.35824692  1.0
  O  O10  1  -0.95185785  -0.74796214  -0.47409804  1.0
  O  O11  1  -0.04814215  -0.25203786  -0.52590196  1.0
  O  O12  1  -0.78412633  -0.65173513  -0.90151881  1.0
  O  O13  1  -0.21587367  -0.34826487  -0.09848119  1.0
  O  O14  1  -0.74478787  -0.98871311  -0.70937618  1.0
  O  O15  1  -0.25521213  -0.01128689  -0.29062382  1.0
  O  O16  1  -0.72766120  -0.44467168  -0.70265260  1.0
  O  O17  1  -0.27233880  -0.55532832  -0.29734740  1.0
  O  O18  1  -0.59088416  -0.82712215  -0.14491925  1.0
  O  O19  1  -0.40911584  -0.17287785  -0.85508075  1.0
  O  O20  1  -0.44444990  -0.72571550  -0.58523816  1.0
  O  O21  1  -0.55555010  -0.27428450  -0.41476184  1.0
  O  O22  1  -0.09899702  -0.83993285  -1.00389077  1.0
  O  O23  1  -0.90100298  -0.16006715  0.00389077  1.0
