# generated using pymatgen
data_VNiO3
_symmetry_space_group_name_H-M   'P 1'
_cell_length_a   5.45902440
_cell_length_b   4.91922583
_cell_length_c   4.91910978
_cell_angle_alpha   60.00328530
_cell_angle_beta   63.22669940
_cell_angle_gamma   63.22273966
_symmetry_Int_Tables_number   1
_chemical_formula_structural   VNiO3
_chemical_formula_sum   'V2 Ni2 O6'
_cell_volume   97.70710540
_cell_formula_units_Z   2
loop_
 _symmetry_equiv_pos_site_id
 _symmetry_equiv_pos_as_xyz
  1  'x, y, z'
loop_
 _atom_site_type_symbol
 _atom_site_label
 _atom_site_symmetry_multiplicity
 _atom_site_fract_x
 _atom_site_fract_y
 _atom_site_fract_z
 _atom_site_occupancy
  V  V0  1  0.93684214  -0.64559004  -1.64565285  1.0
  V  V1  1  0.06315786  -0.35440996  -0.35434715  1.0
  Ni  Ni2  1  0.54858651  -0.84951985  -0.84948758  1.0
  Ni  Ni3  1  0.45141349  -0.15048015  -1.15051242  1.0
  O  O4  1  0.76401639  -0.93144284  -1.56234381  1.0
  O  O5  1  0.23598361  -0.06855716  -0.43765619  1.0
  O  O6  1  0.23612980  -0.72970364  -1.06858493  1.0
  O  O7  1  0.76387020  -0.27029636  -0.93141507  1.0
  O  O8  1  0.76394070  -0.56219729  -1.27032220  1.0
  O  O9  1  0.23605930  -0.43780271  -0.72967780  1.0
