# generated using pymatgen
data_KNaV4H4O11
_symmetry_space_group_name_H-M   'P 1'
_cell_length_a   8.94337953
_cell_length_b   8.94337953
_cell_length_c   8.37475955
_cell_angle_alpha   89.90593966
_cell_angle_beta   90.09406034
_cell_angle_gamma   55.53174212
_symmetry_Int_Tables_number   1
_chemical_formula_structural   KNaV4H4O11
_chemical_formula_sum   'K2 Na2 V8 H8 O22'
_cell_volume   552.24520055
_cell_formula_units_Z   2
loop_
 _symmetry_equiv_pos_site_id
 _symmetry_equiv_pos_as_xyz
  1  'x, y, z'
loop_
 _atom_site_type_symbol
 _atom_site_label
 _atom_site_symmetry_multiplicity
 _atom_site_fract_x
 _atom_site_fract_y
 _atom_site_fract_z
 _atom_site_occupancy
  K  K0  1  0.51118177  0.51118177  0.25000000  1.0
  K  K1  1  1.48881823  0.48881823  0.75000000  1.0
  Na  Na2  1  0.85004540  0.85004540  0.25000000  1.0
  Na  Na3  1  1.14995460  0.14995460  0.75000000  1.0
  V  V4  1  0.99902681  0.58504129  0.84345153  1.0
  V  V5  1  1.58504129  -0.00097319  0.65654847  1.0
  V  V6  1  1.00097319  0.41495871  0.15654847  1.0
  V  V7  1  1.41495871  0.00097319  0.34345153  1.0
  V  V8  1  0.80088037  0.60873588  0.53761968  1.0
  V  V9  1  1.60873588  -0.19911963  0.96238032  1.0
  V  V10  1  1.19911963  0.39126412  0.46238032  1.0
  V  V11  1  1.39126412  0.19911963  0.03761968  1.0
  H  H12  1  0.85261595  0.17471833  0.31475637  1.0
  H  H13  1  1.17471833  -0.14738405  0.18524363  1.0
  H  H14  1  1.14738405  0.82528167  0.68524363  1.0
  H  H15  1  1.82528167  0.14738405  0.81475637  1.0
  H  H16  1  1.77061581  0.13659680  0.46580712  1.0
  H  H17  1  1.13659680  0.77061581  0.03419288  1.0
  H  H18  1  1.22938419  -0.13659680  0.53419288  1.0
  H  H19  1  0.86340320  0.22938419  0.96580712  1.0
  O  O20  1  1.14226442  0.35630844  0.96241386  1.0
  O  O21  1  1.35630844  0.14226442  0.53758614  1.0
  O  O22  1  0.85773558  0.64369156  0.03758614  1.0
  O  O23  1  1.64369156  -0.14226442  0.46241386  1.0
  O  O24  1  1.03483290  0.45766132  0.64402591  1.0
  O  O25  1  1.45766132  0.03483290  0.85597409  1.0
  O  O26  1  0.96516710  0.54233868  0.35597409  1.0
  O  O27  1  1.54233868  -0.03483290  0.14402591  1.0
  O  O28  1  0.74448040  0.74448040  0.75000000  1.0
  O  O29  1  1.25551960  0.25551960  0.25000000  1.0
  O  O30  1  1.10167188  0.68930935  0.83603454  1.0
  O  O31  1  1.68930935  0.10167188  0.66396546  1.0
  O  O32  1  0.89832812  0.31069065  0.16396546  1.0
  O  O33  1  1.31069065  -0.10167188  0.33603454  1.0
  O  O34  1  0.69754177  0.50769353  0.52363338  1.0
  O  O35  1  1.50769353  -0.30245823  0.97636662  1.0
  O  O36  1  1.30245823  0.49230647  0.47636662  1.0
  O  O37  1  1.49230647  0.30245823  0.02363338  1.0
  O  O38  1  1.78389684  0.12548325  0.34924164  1.0
  O  O39  1  1.12548325  0.78389684  0.15075836  1.0
  O  O40  1  1.21610316  -0.12548325  0.65075836  1.0
  O  O41  1  0.87451675  0.21610316  0.84924164  1.0
