# generated using pymatgen
data_LaCoC2
_symmetry_space_group_name_H-M   'P 1'
_cell_length_a   3.87078135
_cell_length_b   3.87078135
_cell_length_c   7.43241409
_cell_angle_alpha   81.40862916
_cell_angle_beta   98.59137084
_cell_angle_gamma   89.99095835
_symmetry_Int_Tables_number   1
_chemical_formula_structural   LaCoC2
_chemical_formula_sum   'La2 Co2 C4'
_cell_volume   108.84557520
_cell_formula_units_Z   2
loop_
 _symmetry_equiv_pos_site_id
 _symmetry_equiv_pos_as_xyz
  1  'x, y, z'
loop_
 _atom_site_type_symbol
 _atom_site_label
 _atom_site_symmetry_multiplicity
 _atom_site_fract_x
 _atom_site_fract_y
 _atom_site_fract_z
 _atom_site_occupancy
  La  La0  1  1.36643924  0.48429910  0.30817212  1.0
  La  La1  1  0.51570090  -0.36643924  0.80817212  1.0
  Co  Co2  1  0.92694894  -0.07194267  0.50097558  1.0
  Co  Co3  1  1.07194267  0.07305106  0.00097558  1.0
  C  C4  1  1.84732801  -0.00052858  0.23199753  1.0
  C  C5  1  1.00052858  -0.84732801  0.73199753  1.0
  C  C6  1  1.59367528  0.04956362  0.08015477  1.0
  C  C7  1  0.95043638  -0.59367528  0.58015477  1.0
