# generated using pymatgen
data_Al8V5
_symmetry_space_group_name_H-M   'P 1'
_cell_length_a   7.96191706
_cell_length_b   7.96191706
_cell_length_c   7.96191706
_cell_angle_alpha   109.47122063
_cell_angle_beta   109.47122063
_cell_angle_gamma   109.47122063
_symmetry_Int_Tables_number   1
_chemical_formula_structural   Al8V5
_chemical_formula_sum   'Al16 V10'
_cell_volume   388.53581353
_cell_formula_units_Z   2
loop_
 _symmetry_equiv_pos_site_id
 _symmetry_equiv_pos_as_xyz
  1  'x, y, z'
loop_
 _atom_site_type_symbol
 _atom_site_label
 _atom_site_symmetry_multiplicity
 _atom_site_fract_x
 _atom_site_fract_y
 _atom_site_fract_z
 _atom_site_occupancy
  V  V0  1  0.65406118  0.65406118  0.00000000  1.0
  V  V1  1  0.65406118  0.00000000  0.65406118  1.0
  V  V2  1  0.00000000  0.65406118  0.65406118  1.0
  V  V3  1  0.34593882  0.00000000  0.34593882  1.0
  V  V4  1  0.00000000  0.34593882  0.34593882  1.0
  V  V5  1  0.34593882  0.34593882  0.00000000  1.0
  V  V6  1  0.34610644  0.34610644  0.34610644  1.0
  V  V7  1  1.00000000  1.00000000  0.65389356  1.0
  V  V8  1  1.00000000  0.65389356  1.00000000  1.0
  V  V9  1  0.65389356  1.00000000  1.00000000  1.0
  Al  Al10  1  0.77736839  0.77736839  0.77736839  1.0
  Al  Al11  1  1.00000000  1.00000000  0.22263161  1.0
  Al  Al12  1  1.00000000  0.22263161  1.00000000  1.0
  Al  Al13  1  0.22263161  1.00000000  1.00000000  1.0
  Al  Al14  1  0.36333944  0.65640197  0.65640197  1.0
  Al  Al15  1  0.65640197  0.36333944  0.65640197  1.0
  Al  Al16  1  1.00000000  0.70693747  1.34359803  1.0
  Al  Al17  1  0.70693747  1.00000000  1.34359803  1.0
  Al  Al18  1  0.65640197  0.65640197  0.36333944  1.0
  Al  Al19  1  1.29306253  1.29306253  0.63666056  1.0
  Al  Al20  1  1.00000000  1.34359803  0.70693747  1.0
  Al  Al21  1  1.29306253  0.63666056  1.29306253  1.0
  Al  Al22  1  0.63666056  1.29306253  1.29306253  1.0
  Al  Al23  1  1.34359803  1.00000000  0.70693747  1.0
  Al  Al24  1  0.70693747  1.34359803  1.00000000  1.0
  Al  Al25  1  1.34359803  0.70693747  1.00000000  1.0
