# generated using pymatgen
data_NaBC2(O2F)2
_symmetry_space_group_name_H-M   'P 1'
_cell_length_a   7.05342327
_cell_length_b   7.05342327
_cell_length_c   7.05342327
_cell_angle_alpha   112.16637346
_cell_angle_beta   112.16637346
_cell_angle_gamma   104.20578884
_symmetry_Int_Tables_number   1
_chemical_formula_structural   NaBC2(O2F)2
_chemical_formula_sum   'Na2 B2 C4 O8 F4'
_cell_volume   268.44321288
_cell_formula_units_Z   2
loop_
 _symmetry_equiv_pos_site_id
 _symmetry_equiv_pos_as_xyz
  1  'x, y, z'
loop_
 _atom_site_type_symbol
 _atom_site_label
 _atom_site_symmetry_multiplicity
 _atom_site_fract_x
 _atom_site_fract_y
 _atom_site_fract_z
 _atom_site_occupancy
  Na  Na0  1  0.49247110  -0.00752890  0.50000000  1.0
  Na  Na1  1  0.74247110  0.74247110  1.00000000  1.0
  B  B2  1  1.10872388  0.60872388  0.50000000  1.0
  B  B3  1  0.35872388  0.35872388  0.00000000  1.0
  C  C4  1  0.20552770  0.10750892  0.09801878  1.0
  C  C5  1  1.00949013  0.10750892  0.90198122  1.0
  C  C6  1  0.85750892  1.25949013  1.40198122  1.0
  C  C7  1  0.85750892  1.45552770  0.59801878  1.0
  O  O8  1  1.18044735  0.99261093  1.18783643  1.0
  O  O9  1  0.80477450  0.99261093  0.81216357  1.0
  O  O10  1  0.74261093  1.05477450  1.31216357  1.0
  O  O11  1  0.74261093  1.43044735  0.68783643  1.0
  O  O12  1  0.40225152  0.25211878  0.15013274  1.0
  O  O13  1  1.10198604  0.25211878  0.84986726  1.0
  O  O14  1  1.00211878  1.35198604  1.34986726  1.0
  O  O15  1  1.00211878  1.65225152  0.65013274  1.0
  F  F16  1  1.05647807  0.70171389  1.35476418  1.0
  F  F17  1  1.34694971  0.70171389  0.64523582  1.0
  F  F18  1  0.45171389  0.59694971  0.14523582  1.0
  F  F19  1  0.45171389  1.30647807  0.85476418  1.0
