# generated using pymatgen
data_Na2Sn2C3(O2F)3
_symmetry_space_group_name_H-M   'P 1'
_cell_length_a   8.96417187
_cell_length_b   6.16522247
_cell_length_c   9.41359804
_cell_angle_alpha   83.11952226
_cell_angle_beta   72.23388696
_cell_angle_gamma   82.56594004
_symmetry_Int_Tables_number   1
_chemical_formula_structural   Na2Sn2C3(O2F)3
_chemical_formula_sum   'Na4 Sn4 C6 O12 F6'
_cell_volume   489.49733906
_cell_formula_units_Z   2
loop_
 _symmetry_equiv_pos_site_id
 _symmetry_equiv_pos_as_xyz
  1  'x, y, z'
loop_
 _atom_site_type_symbol
 _atom_site_label
 _atom_site_symmetry_multiplicity
 _atom_site_fract_x
 _atom_site_fract_y
 _atom_site_fract_z
 _atom_site_occupancy
  Na  Na0  1  -0.96646321  -0.29834178  -0.41254703  1.0
  Na  Na1  1  -0.03353679  -0.70165822  -0.58745297  1.0
  Na  Na2  1  -0.74196556  -0.85928283  -0.37313710  1.0
  Na  Na3  1  -0.25803444  -0.14071717  -0.62686290  1.0
  Sn  Sn4  1  -0.13545266  -0.82166681  -0.14347647  1.0
  Sn  Sn5  1  -0.86454734  -0.17833319  -0.85652353  1.0
  Sn  Sn6  1  -0.57148883  -0.83597876  -0.81226077  1.0
  Sn  Sn7  1  -0.42851117  -0.16402124  -0.18773923  1.0
  C  C8  1  -0.92726455  -0.58692887  -0.00772875  1.0
  C  C9  1  -0.07273545  -0.41307113  -0.99227125  1.0
  C  C10  1  -0.49322392  -0.40020273  -0.72702252  1.0
  C  C11  1  -0.50677608  -0.59979727  -0.27297748  1.0
  C  C12  1  -0.38689282  -0.58787069  -0.66692486  1.0
  C  C13  1  -0.61310718  -0.41212931  -0.33307514  1.0
  O  O14  1  -0.92316296  -0.75416281  -0.07722908  1.0
  O  O15  1  -0.07683704  -0.24583719  -0.92277092  1.0
  O  O16  1  -0.82341523  -0.55151192  -0.95156435  1.0
  O  O17  1  -0.17658477  -0.44848808  -0.04843565  1.0
  O  O18  1  -0.58828403  -0.45875081  -0.78824654  1.0
  O  O19  1  -0.41171597  -0.54124919  -0.21175346  1.0
  O  O20  1  -0.47561186  -0.20657204  -0.71067221  1.0
  O  O21  1  -0.52438814  -0.79342796  -0.28932779  1.0
  O  O22  1  -0.41105346  -0.78591175  -0.67918849  1.0
  O  O23  1  -0.58894654  -0.21408825  -0.32081151  1.0
  O  O24  1  -0.28787649  -0.53720213  -0.61202083  1.0
  O  O25  1  -0.71212351  -0.46279787  -0.38797917  1.0
  F  F26  1  -0.04195200  -0.64098382  -0.34860734  1.0
  F  F27  1  -0.95804800  -0.35901618  -0.65139266  1.0
  F  F28  1  -0.95514505  -0.05547898  -0.26072797  1.0
  F  F29  1  -0.04485495  -0.94452102  -0.73927203  1.0
  F  F30  1  -0.76037143  -0.85466516  -0.61625155  1.0
  F  F31  1  -0.23962857  -0.14533484  -0.38374845  1.0
