# generated using pymatgen
data_In2Se3
_symmetry_space_group_name_H-M   'P 1'
_cell_length_a   4.02067393
_cell_length_b   4.02067393
_cell_length_c   10.07647803
_cell_angle_alpha   78.46732824
_cell_angle_beta   101.53267176
_cell_angle_gamma   119.98600110
_symmetry_Int_Tables_number   1
_chemical_formula_structural   In2Se3
_chemical_formula_sum   'In2 Se3'
_cell_volume   137.27900839
_cell_formula_units_Z   1
loop_
 _symmetry_equiv_pos_site_id
 _symmetry_equiv_pos_as_xyz
  1  'x, y, z'
loop_
 _atom_site_type_symbol
 _atom_site_label
 _atom_site_symmetry_multiplicity
 _atom_site_fract_x
 _atom_site_fract_y
 _atom_site_fract_z
 _atom_site_occupancy
  In  In0  1  0.60291435  -0.60291435  0.80824959  1.0
  In  In1  1  0.39708565  -0.39708565  0.19175041  1.0
  Se  Se2  1  0.77611280  -0.77611280  0.32851558  1.0
  Se  Se3  1  0.22388720  -0.22388720  0.67148442  1.0
  Se  Se4  1  0.00000000  0.00000000  0.00000000  1.0
