# generated using pymatgen
data_Gd(Al5Ru)2
_symmetry_space_group_name_H-M   'P 1'
_cell_length_a   6.85759115
_cell_length_b   6.85759115
_cell_length_c   9.15646474
_cell_angle_alpha   90.00000000
_cell_angle_beta   90.00000000
_cell_angle_gamma   96.78145810
_symmetry_Int_Tables_number   1
_chemical_formula_structural   Gd(Al5Ru)2
_chemical_formula_sum   'Gd2 Al20 Ru4'
_cell_volume   427.58445100
_cell_formula_units_Z   2
loop_
 _symmetry_equiv_pos_site_id
 _symmetry_equiv_pos_as_xyz
  1  'x, y, z'
loop_
 _atom_site_type_symbol
 _atom_site_label
 _atom_site_symmetry_multiplicity
 _atom_site_fract_x
 _atom_site_fract_y
 _atom_site_fract_z
 _atom_site_occupancy
  Gd  Gd0  1  0.12598057  0.87401943  0.25000000  1.0
  Gd  Gd1  1  -0.12598057  1.12598057  0.75000000  1.0
  Al  Al2  1  0.14134377  0.41295947  0.25000000  1.0
  Al  Al3  1  -0.58704053  1.14134377  0.75000000  1.0
  Al  Al4  1  0.58704053  0.85865623  0.25000000  1.0
  Al  Al5  1  -0.14134377  1.58704053  0.75000000  1.0
  Al  Al6  1  -0.21948392  1.51974219  0.25000000  1.0
  Al  Al7  1  0.51974219  0.78051608  0.75000000  1.0
  Al  Al8  1  -0.51974219  1.21948392  0.25000000  1.0
  Al  Al9  1  0.21948392  0.48025781  0.75000000  1.0
  Al  Al10  1  0.15788197  0.84211803  0.89937997  1.0
  Al  Al11  1  0.15788197  0.84211803  0.60062003  1.0
  Al  Al12  1  -0.15788197  1.15788197  0.39937997  1.0
  Al  Al13  1  -0.15788197  1.15788197  0.10062003  1.0
  Al  Al14  1  0.37684134  0.62315866  0.45043093  1.0
  Al  Al15  1  0.37684134  0.62315866  0.04956907  1.0
  Al  Al16  1  -0.37684134  1.37684134  0.95043093  1.0
  Al  Al17  1  -0.37684134  1.37684134  0.54956907  1.0
  Al  Al18  1  0.77437323  0.77437323  0.50000000  1.0
  Al  Al19  1  0.77437323  0.77437323  0.00000000  1.0
  Al  Al20  1  0.22562677  0.22562677  0.50000000  1.0
  Al  Al21  1  0.22562677  0.22562677  0.00000000  1.0
  Ru  Ru22  1  0.00000000  1.50000000  0.50000000  1.0
  Ru  Ru23  1  0.00000000  1.50000000  0.00000000  1.0
  Ru  Ru24  1  0.50000000  1.00000000  0.00000000  1.0
  Ru  Ru25  1  0.50000000  1.00000000  0.50000000  1.0
