# generated using pymatgen
data_Ba2ZnTeO6
_symmetry_space_group_name_H-M   'P 1'
_cell_length_a   10.35851795
_cell_length_b   10.35851795
_cell_length_c   10.35851795
_cell_angle_alpha   33.33379341
_cell_angle_beta   33.33379341
_cell_angle_gamma   33.33379341
_symmetry_Int_Tables_number   1
_chemical_formula_structural   Ba2ZnTeO6
_chemical_formula_sum   'Ba4 Zn2 Te2 O12'
_cell_volume   298.83870283
_cell_formula_units_Z   2
loop_
 _symmetry_equiv_pos_site_id
 _symmetry_equiv_pos_as_xyz
  1  'x, y, z'
loop_
 _atom_site_type_symbol
 _atom_site_label
 _atom_site_symmetry_multiplicity
 _atom_site_fract_x
 _atom_site_fract_y
 _atom_site_fract_z
 _atom_site_occupancy
  Ba  Ba0  1  0.78139362  0.78139362  0.78139362  1.0
  Ba  Ba1  1  1.21860638  1.21860638  0.21860638  1.0
  Ba  Ba2  1  1.62696234  0.62696234  0.62696234  1.0
  Ba  Ba3  1  1.37303766  0.37303766  0.37303766  1.0
  Zn  Zn4  1  0.90379823  0.90379823  0.90379823  1.0
  Zn  Zn5  1  1.09620177  1.09620177  0.09620177  1.0
  Te  Te6  1  1.50000000  0.50000000  0.50000000  1.0
  Te  Te7  1  0.00000000  0.00000000  0.00000000  1.0
  O  O8  1  1.30259339  0.30259339  0.77349522  1.0
  O  O9  1  1.30259339  0.77349522  0.30259339  1.0
  O  O10  1  1.22650478  0.69740661  0.69740661  1.0
  O  O11  1  1.69740661  0.22650478  0.69740661  1.0
  O  O12  1  1.69740661  0.69740661  0.22650478  1.0
  O  O13  1  1.77349522  0.30259339  0.30259339  1.0
  O  O14  1  1.11491605  1.11491605  0.64748825  1.0
  O  O15  1  1.11491605  1.64748825  0.11491605  1.0
  O  O16  1  1.35251175  0.88508395  -0.11491605  1.0
  O  O17  1  0.88508395  1.35251175  -0.11491605  1.0
  O  O18  1  0.88508395  0.88508395  0.35251175  1.0
  O  O19  1  1.64748825  1.11491605  0.11491605  1.0
