# generated using pymatgen
data_K2H2C4O5
_symmetry_space_group_name_H-M   'P 1'
_cell_length_a   8.96759105
_cell_length_b   7.33877554
_cell_length_c   7.23631544
_cell_angle_alpha   65.30152743
_cell_angle_beta   64.40074615
_cell_angle_gamma   67.70359241
_symmetry_Int_Tables_number   1
_chemical_formula_structural   K2H2C4O5
_chemical_formula_sum   'K4 H4 C8 O10'
_cell_volume   378.52622790
_cell_formula_units_Z   2
loop_
 _symmetry_equiv_pos_site_id
 _symmetry_equiv_pos_as_xyz
  1  'x, y, z'
loop_
 _atom_site_type_symbol
 _atom_site_label
 _atom_site_symmetry_multiplicity
 _atom_site_fract_x
 _atom_site_fract_y
 _atom_site_fract_z
 _atom_site_occupancy
  K  K0  1  0.87137050  -0.42634168  -0.22137883  1.0
  K  K1  1  0.12862950  -0.57365832  0.22137883  1.0
  K  K2  1  0.59165304  -0.77202681  -0.27671381  1.0
  K  K3  1  0.40834696  -0.22797319  0.27671381  1.0
  H  H4  1  0.81914791  -0.23730284  0.08557017  1.0
  H  H5  1  0.18085209  -0.76269716  -0.08557017  1.0
  H  H6  1  0.26450343  -0.65872745  0.66553778  1.0
  H  H7  1  0.73549657  -0.34127255  -0.66553778  1.0
  C  C8  1  0.69799210  -0.86323039  0.26479849  1.0
  C  C9  1  0.30200790  -0.13676961  -0.26479849  1.0
  C  C10  1  0.52100852  -0.76665789  0.27010678  1.0
  C  C11  1  0.47899148  -0.23334211  -0.27010678  1.0
  C  C12  1  0.98130826  -0.95200918  -0.27045376  1.0
  C  C13  1  0.01869174  -0.04799082  0.27045376  1.0
  C  C14  1  0.84400442  -0.94601580  -0.73229834  1.0
  C  C15  1  0.15599558  -0.05398420  0.73229834  1.0
  O  O16  1  0.79239672  -0.36770764  0.19467769  1.0
  O  O17  1  0.20760328  -0.63229236  -0.19467769  1.0
  O  O18  1  0.43357758  -0.65314777  0.39309899  1.0
  O  O19  1  0.56642242  -0.34685223  -0.39309899  1.0
  O  O20  1  0.87704986  -0.06589677  -0.18253023  1.0
  O  O21  1  0.12295014  -0.93410323  0.18253023  1.0
  O  O22  1  0.47018798  -0.80319606  0.15396071  1.0
  O  O23  1  0.52981202  -0.19680394  -0.15396071  1.0
  O  O24  1  0.94791063  -0.75896641  -0.36159910  1.0
  O  O25  1  0.05208937  -0.24103359  0.36159910  1.0
