# generated using pymatgen
data_Na5Y(WO4)4
_symmetry_space_group_name_H-M   'P 1'
_cell_length_a   10.01824224
_cell_length_b   10.01824224
_cell_length_c   10.01824224
_cell_angle_alpha   109.25109097
_cell_angle_beta   109.25109097
_cell_angle_gamma   109.91238272
_symmetry_Int_Tables_number   1
_chemical_formula_structural   Na5Y(WO4)4
_chemical_formula_sum   'Na10 Y2 W8 O32'
_cell_volume   773.98646707
_cell_formula_units_Z   2
loop_
 _symmetry_equiv_pos_site_id
 _symmetry_equiv_pos_as_xyz
  1  'x, y, z'
loop_
 _atom_site_type_symbol
 _atom_site_label
 _atom_site_symmetry_multiplicity
 _atom_site_fract_x
 _atom_site_fract_y
 _atom_site_fract_z
 _atom_site_occupancy
  Na  Na0  1  1.17367193  1.34862058  1.58434290  1.0
  Na  Na1  1  0.76427768  0.58932903  0.41565710  1.0
  Na  Na2  1  1.09862058  1.01427768  1.67494865  1.0
  Na  Na3  1  1.33932903  1.42367193  1.32505135  1.0
  Na  Na4  1  0.57632807  0.90137942  0.91565710  1.0
  Na  Na5  1  0.98572232  0.66067097  1.08434290  1.0
  Na  Na6  1  0.65137942  1.23572232  0.82505135  1.0
  Na  Na7  1  0.41067097  0.82632807  1.17494865  1.0
  Na  Na8  1  0.25000000  0.75000000  0.50000000  1.0
  Na  Na9  1  0.50000000  0.50000000  0.00000000  1.0
  Y  Y10  1  1.00000000  1.00000000  1.00000000  1.0
  Y  Y11  1  0.75000000  0.25000000  0.50000000  1.0
  W  W12  1  0.91891707  0.32990977  1.22490072  1.0
  W  W13  1  0.10500905  0.69401635  0.77509928  1.0
  W  W14  1  1.07990977  1.35500905  0.91099270  1.0
  W  W15  1  0.44401635  1.16891707  1.08900730  1.0
  W  W16  1  0.83108293  0.92009023  0.27509928  1.0
  W  W17  1  1.64499095  1.55598365  1.72490072  1.0
  W  W18  1  1.67009023  1.89499095  1.58900730  1.0
  W  W19  1  1.30598365  1.08108293  1.41099270  1.0
  O  O20  1  0.88878648  0.42471579  1.10462523  1.0
  O  O21  1  0.32009056  0.78416125  0.89537477  1.0
  O  O22  1  1.17471579  1.57009056  1.03592931  1.0
  O  O23  1  0.53416125  1.13878648  0.96407069  1.0
  O  O24  1  0.86121352  0.82528421  0.39537477  1.0
  O  O25  1  1.42990944  1.46583875  1.60462523  1.0
  O  O26  1  1.57528421  1.67990944  1.46407069  1.0
  O  O27  1  1.21583875  1.11121352  1.53592931  1.0
  O  O28  1  0.94747834  0.89853379  1.17243424  1.0
  O  O29  1  1.72609955  1.77504410  1.82756576  1.0
  O  O30  1  0.64853379  0.97609955  1.45105545  1.0
  O  O31  1  1.52504410  1.19747834  1.54894455  1.0
  O  O32  1  0.80252166  1.35146621  1.32756576  1.0
  O  O33  1  1.02390045  1.47495590  0.67243424  1.0
  O  O34  1  1.10146621  1.27390045  1.04894455  1.0
  O  O35  1  0.22495590  1.05252166  0.95105545  1.0
  O  O36  1  0.85629893  1.11648277  1.09754680  1.0
  O  O37  1  1.01893597  0.75875214  0.90245320  1.0
  O  O38  1  0.86648277  1.26893597  0.76018384  1.0
  O  O39  1  0.50875214  1.10629893  1.23981616  1.0
  O  O40  1  0.89370107  1.13351723  1.40245320  1.0
  O  O41  1  0.73106403  0.49124786  0.59754680  1.0
  O  O42  1  0.88351723  0.98106403  1.73981616  1.0
  O  O43  1  1.24124786  1.14370107  1.26018384  1.0
  O  O44  1  0.13059017  0.45269471  0.38087028  1.0
  O  O45  1  1.07182443  0.74971989  1.61912972  1.0
  O  O46  1  1.20269471  1.32182443  1.82210454  1.0
  O  O47  1  0.49971989  0.38059017  0.17789546  1.0
  O  O48  1  1.61940983  0.79730529  1.11912972  1.0
  O  O49  1  0.67817557  1.50028011  0.88087028  1.0
  O  O50  1  0.54730529  0.92817557  0.67789546  1.0
  O  O51  1  1.25028011  0.86940983  1.32210454  1.0
