# generated using pymatgen
data_Sb2H5C3SCl6O5F3
_symmetry_space_group_name_H-M   'P 1'
_cell_length_a   7.18839854
_cell_length_b   14.77560775
_cell_length_c   10.07065390
_cell_angle_alpha   90.00000000
_cell_angle_beta   105.21171520
_cell_angle_gamma   90.00000000
_symmetry_Int_Tables_number   1
_chemical_formula_structural   Sb2H5C3SCl6O5F3
_chemical_formula_sum   'Sb4 H10 C6 S2 Cl12 O10 F6'
_cell_volume   1032.15702181
_cell_formula_units_Z   2
loop_
 _symmetry_equiv_pos_site_id
 _symmetry_equiv_pos_as_xyz
  1  'x, y, z'
loop_
 _atom_site_type_symbol
 _atom_site_label
 _atom_site_symmetry_multiplicity
 _atom_site_fract_x
 _atom_site_fract_y
 _atom_site_fract_z
 _atom_site_occupancy
  Sb  Sb0  1  0.33474902  0.64010173  0.72362798  1.0
  Sb  Sb1  1  0.66525098  0.14010173  0.27637202  1.0
  Sb  Sb2  1  0.66525098  0.35989827  0.27637202  1.0
  Sb  Sb3  1  0.33474902  0.85989827  0.72362798  1.0
  H  H4  1  0.87425234  0.69003213  0.66122202  1.0
  H  H5  1  0.12574766  0.19003213  0.33877798  1.0
  H  H6  1  0.12574766  0.30996787  0.33877798  1.0
  H  H7  1  0.87425234  0.80996787  0.66122202  1.0
  H  H8  1  0.69966353  0.75000000  0.42851893  1.0
  H  H9  1  0.30033647  0.25000000  0.57148107  1.0
  H  H10  1  0.90851609  0.81041029  0.41715508  1.0
  H  H11  1  0.09148391  0.31041029  0.58284492  1.0
  H  H12  1  0.09148391  0.18958971  0.58284492  1.0
  H  H13  1  0.90851609  0.68958971  0.41715508  1.0
  C  C14  1  0.92378678  0.75000000  0.61596652  1.0
  C  C15  1  0.07621322  0.25000000  0.38403348  1.0
  C  C16  1  0.85800753  0.75000000  0.46064639  1.0
  C  C17  1  0.14199247  0.25000000  0.53935361  1.0
  C  C18  1  0.08645272  0.75000000  0.07754914  1.0
  C  C19  1  0.91354728  0.25000000  0.92245086  1.0
  S  S20  1  0.31644768  0.75000000  0.02095992  1.0
  S  S21  1  0.68355232  0.25000000  0.97904008  1.0
  Cl  Cl22  1  0.35387621  0.61572313  0.49705012  1.0
  Cl  Cl23  1  0.64612379  0.11572313  0.50294988  1.0
  Cl  Cl24  1  0.64612379  0.38427687  0.50294988  1.0
  Cl  Cl25  1  0.35387621  0.88427687  0.49705012  1.0
  Cl  Cl26  1  0.59101691  0.54588017  0.83310901  1.0
  Cl  Cl27  1  0.40898309  0.04588017  0.16689099  1.0
  Cl  Cl28  1  0.40898309  0.45411983  0.16689099  1.0
  Cl  Cl29  1  0.59101691  0.95411983  0.83310901  1.0
  Cl  Cl30  1  0.08479583  0.53565998  0.71356434  1.0
  Cl  Cl31  1  0.91520417  0.03565998  0.28643566  1.0
  Cl  Cl32  1  0.91520417  0.46434002  0.28643566  1.0
  Cl  Cl33  1  0.08479583  0.96434002  0.71356434  1.0
  O  O34  1  0.13504071  0.75000000  0.66655537  1.0
  O  O35  1  0.86495929  0.25000000  0.33344463  1.0
  O  O36  1  0.49827328  0.75000000  0.75969185  1.0
  O  O37  1  0.50172672  0.25000000  0.24030815  1.0
  O  O38  1  0.29410452  0.66566495  0.93495694  1.0
  O  O39  1  0.70589548  0.16566495  0.06504306  1.0
  O  O40  1  0.70589548  0.33433505  0.06504306  1.0
  O  O41  1  0.29410452  0.83433505  0.93495694  1.0
  O  O42  1  0.47392144  0.75000000  0.14299163  1.0
  O  O43  1  0.52607856  0.25000000  0.85700837  1.0
  F  F44  1  0.93317308  0.75000000  0.96715940  1.0
  F  F45  1  0.06682692  0.25000000  0.03284060  1.0
  F  F46  1  0.08214107  0.67559750  0.15375136  1.0
  F  F47  1  0.91785893  0.17559750  0.84624864  1.0
  F  F48  1  0.91785893  0.32440250  0.84624864  1.0
  F  F49  1  0.08214107  0.82440250  0.15375136  1.0
