# generated using pymatgen
data_Li2SnS3
_symmetry_space_group_name_H-M   'P 1'
_cell_length_a   6.46028960
_cell_length_b   6.46028960
_cell_length_c   12.51556730
_cell_angle_alpha   85.09855202
_cell_angle_beta   94.90144798
_cell_angle_gamma   59.99281358
_symmetry_Int_Tables_number   1
_chemical_formula_structural   Li2SnS3
_chemical_formula_sum   'Li8 Sn4 S12'
_cell_volume   445.67352868
_cell_formula_units_Z   4
loop_
 _symmetry_equiv_pos_site_id
 _symmetry_equiv_pos_as_xyz
  1  'x, y, z'
loop_
 _atom_site_type_symbol
 _atom_site_label
 _atom_site_symmetry_multiplicity
 _atom_site_fract_x
 _atom_site_fract_y
 _atom_site_fract_z
 _atom_site_occupancy
  Li  Li0  1  0.67462704  0.15241955  0.00023092  1.0
  Li  Li1  1  0.84758045  -0.67462704  0.50023092  1.0
  Li  Li2  1  1.15241955  -0.32537296  0.49976908  1.0
  Li  Li3  1  0.32537296  -0.15241955  0.99976908  1.0
  Li  Li4  1  0.58238510  -0.41761490  0.75000000  1.0
  Li  Li5  1  0.41761490  0.41761490  0.25000000  1.0
  Li  Li6  1  0.50000000  0.00000000  0.50000000  1.0
  Li  Li7  1  1.00000000  -0.50000000  0.00000000  1.0
  Sn  Sn8  1  0.91618592  -0.08381408  0.75000000  1.0
  Sn  Sn9  1  0.08381408  0.08381408  0.25000000  1.0
  Sn  Sn10  1  0.25025701  0.25025701  0.75000000  1.0
  Sn  Sn11  1  0.74974299  -0.25025701  0.25000000  1.0
  S  S12  1  0.80406105  0.03068834  0.37004210  1.0
  S  S13  1  0.96931166  -0.80406105  0.87004210  1.0
  S  S14  1  1.03068834  -0.19593895  0.12995790  1.0
  S  S15  1  0.19593895  -0.03068834  0.62995790  1.0
  S  S16  1  0.62201821  -0.10854197  0.87038779  1.0
  S  S17  1  1.10854197  -0.62201821  0.37038779  1.0
  S  S18  1  0.89145803  -0.37798179  0.62961221  1.0
  S  S19  1  0.37798179  0.10854197  0.12961221  1.0
  S  S20  1  0.54266099  0.27347018  0.62783230  1.0
  S  S21  1  0.72652982  -0.54266099  0.12783230  1.0
  S  S22  1  1.27347018  -0.45733901  0.87216770  1.0
  S  S23  1  0.45733901  -0.27347018  0.37216770  1.0
