# generated using pymatgen
data_Cs3Mo2I9
_symmetry_space_group_name_H-M   'P 1'
_cell_length_a   8.40583797
_cell_length_b   8.40583797
_cell_length_c   20.50840016
_cell_angle_alpha   90.00000000
_cell_angle_beta   90.00000000
_cell_angle_gamma   120.00000000
_symmetry_Int_Tables_number   1
_chemical_formula_structural   Cs3Mo2I9
_chemical_formula_sum   'Cs6 Mo4 I18'
_cell_volume   1254.94427773
_cell_formula_units_Z   2
loop_
 _symmetry_equiv_pos_site_id
 _symmetry_equiv_pos_as_xyz
  1  'x, y, z'
loop_
 _atom_site_type_symbol
 _atom_site_label
 _atom_site_symmetry_multiplicity
 _atom_site_fract_x
 _atom_site_fract_y
 _atom_site_fract_z
 _atom_site_occupancy
  Cs  Cs0  1  0.00000000  0.00000000  0.25000000  1.0
  Cs  Cs1  1  -0.00000000  -0.00000000  0.75000000  1.0
  Cs  Cs2  1  0.33333333  0.66666667  0.43798871  1.0
  Cs  Cs3  1  0.33333333  0.66666667  0.06201129  1.0
  Cs  Cs4  1  0.66666667  0.33333333  0.93798871  1.0
  Cs  Cs5  1  0.66666667  0.33333333  0.56201129  1.0
  Mo  Mo6  1  0.33333333  0.66666667  0.82186293  1.0
  Mo  Mo7  1  0.33333333  0.66666667  0.67813707  1.0
  Mo  Mo8  1  0.66666667  0.33333333  0.32186293  1.0
  Mo  Mo9  1  0.66666667  0.33333333  0.17813707  1.0
  I  I10  1  0.17699489  0.82300511  0.90313113  1.0
  I  I11  1  0.17699489  0.82300511  0.59686887  1.0
  I  I12  1  0.17699489  0.35398978  0.90313113  1.0
  I  I13  1  0.17699489  0.35398978  0.59686887  1.0
  I  I14  1  0.82300511  0.17699489  0.40313113  1.0
  I  I15  1  0.82300511  0.17699489  0.09686887  1.0
  I  I16  1  0.82300511  0.64601022  0.40313113  1.0
  I  I17  1  0.82300511  0.64601022  0.09686887  1.0
  I  I18  1  0.64601022  0.82300511  0.90313113  1.0
  I  I19  1  0.64601022  0.82300511  0.59686887  1.0
  I  I20  1  0.35398978  0.17699489  0.40313113  1.0
  I  I21  1  0.35398978  0.17699489  0.09686887  1.0
  I  I22  1  0.50307793  0.49692207  0.25000000  1.0
  I  I23  1  0.50307793  0.00615587  0.25000000  1.0
  I  I24  1  0.49692207  0.50307793  0.75000000  1.0
  I  I25  1  0.49692207  0.99384413  0.75000000  1.0
  I  I26  1  0.99384413  0.49692207  0.25000000  1.0
  I  I27  1  0.00615587  0.50307793  0.75000000  1.0
