# generated using pymatgen
data_SrGa2(GeO4)2
_symmetry_space_group_name_H-M   'P 1'
_cell_length_a   8.67447293
_cell_length_b   9.80116126
_cell_length_c   9.34573046
_cell_angle_alpha   90.00000000
_cell_angle_beta   90.52882878
_cell_angle_gamma   90.00000000
_symmetry_Int_Tables_number   1
_chemical_formula_structural   SrGa2(GeO4)2
_chemical_formula_sum   'Sr4 Ga8 Ge8 O32'
_cell_volume   794.53930017
_cell_formula_units_Z   4
loop_
 _symmetry_equiv_pos_site_id
 _symmetry_equiv_pos_as_xyz
  1  'x, y, z'
loop_
 _atom_site_type_symbol
 _atom_site_label
 _atom_site_symmetry_multiplicity
 _atom_site_fract_x
 _atom_site_fract_y
 _atom_site_fract_z
 _atom_site_occupancy
  Sr  Sr0  1  0.74990231  0.08556403  0.38561957  1.0
  Sr  Sr1  1  0.74990231  0.41443597  0.88561957  1.0
  Sr  Sr2  1  0.25009769  0.58556403  0.11438043  1.0
  Sr  Sr3  1  0.25009769  0.91443597  0.61438043  1.0
  Ga  Ga4  1  0.93104828  0.69348483  0.44555037  1.0
  Ga  Ga5  1  0.93104828  0.80651517  0.94555037  1.0
  Ga  Ga6  1  0.06895172  0.19348483  0.05444963  1.0
  Ga  Ga7  1  0.06895172  0.30651517  0.55444963  1.0
  Ga  Ga8  1  0.56728289  0.42274121  0.26765810  1.0
  Ga  Ga9  1  0.56728289  0.07725879  0.76765810  1.0
  Ga  Ga10  1  0.43271711  0.92274121  0.23234190  1.0
  Ga  Ga11  1  0.43271711  0.57725879  0.73234190  1.0
  Ge  Ge12  1  0.44113566  0.19896634  0.05882066  1.0
  Ge  Ge13  1  0.44113566  0.30103366  0.55882066  1.0
  Ge  Ge14  1  0.55886434  0.69896634  0.44117934  1.0
  Ge  Ge15  1  0.55886434  0.80103366  0.94117934  1.0
  Ge  Ge16  1  0.93825965  0.41915757  0.25901572  1.0
  Ge  Ge17  1  0.93825965  0.08084243  0.75901572  1.0
  Ge  Ge18  1  0.06174035  0.91915757  0.24098428  1.0
  Ge  Ge19  1  0.06174035  0.58084243  0.74098428  1.0
  O  O20  1  0.93286965  0.87322816  0.38011899  1.0
  O  O21  1  0.93286965  0.62677184  0.88011899  1.0
  O  O22  1  0.06713035  0.37322816  0.11988101  1.0
  O  O23  1  0.06713035  0.12677184  0.61988101  1.0
  O  O24  1  0.75523292  0.42444533  0.17156299  1.0
  O  O25  1  0.75523292  0.07555467  0.67156299  1.0
  O  O26  1  0.24476708  0.92444533  0.32843701  1.0
  O  O27  1  0.24476708  0.57555467  0.82843701  1.0
  O  O28  1  0.73838861  0.86561575  0.99672548  1.0
  O  O29  1  0.73838861  0.63438425  0.49672548  1.0
  O  O30  1  0.26161139  0.36561575  0.50327452  1.0
  O  O31  1  0.26161139  0.13438425  0.00327452  1.0
  O  O32  1  0.57552397  0.29876132  0.41653764  1.0
  O  O33  1  0.57552397  0.20123868  0.91653764  1.0
  O  O34  1  0.42447603  0.79876132  0.08346236  1.0
  O  O35  1  0.42447603  0.70123868  0.58346236  1.0
  O  O36  1  0.52113093  0.09047216  0.19359089  1.0
  O  O37  1  0.52113093  0.40952784  0.69359089  1.0
  O  O38  1  0.47886907  0.59047216  0.30640911  1.0
  O  O39  1  0.47886907  0.90952784  0.80640911  1.0
  O  O40  1  0.43243160  0.37062319  0.11948252  1.0
  O  O41  1  0.43243160  0.12937681  0.61948252  1.0
  O  O42  1  0.56756840  0.87062319  0.38051748  1.0
  O  O43  1  0.56756840  0.62937681  0.88051748  1.0
  O  O44  1  0.98133152  0.07764922  0.19028660  1.0
  O  O45  1  0.98133152  0.42235078  0.69028660  1.0
  O  O46  1  0.01866848  0.57764922  0.30971340  1.0
  O  O47  1  0.01866848  0.92235078  0.80971340  1.0
  O  O48  1  0.93018841  0.30008880  0.40050440  1.0
  O  O49  1  0.93018841  0.19991120  0.90050440  1.0
  O  O50  1  0.06981159  0.80008880  0.09949560  1.0
  O  O51  1  0.06981159  0.69991120  0.59949560  1.0
