# generated using pymatgen
data_MnAl12
_symmetry_space_group_name_H-M   'P 1'
_cell_length_a   6.47137722
_cell_length_b   6.47137722
_cell_length_c   6.47137722
_cell_angle_alpha   109.47122063
_cell_angle_beta   109.47122063
_cell_angle_gamma   109.47122063
_symmetry_Int_Tables_number   1
_chemical_formula_structural   MnAl12
_chemical_formula_sum   'Mn1 Al12'
_cell_volume   208.62591563
_cell_formula_units_Z   1
loop_
 _symmetry_equiv_pos_site_id
 _symmetry_equiv_pos_as_xyz
  1  'x, y, z'
loop_
 _atom_site_type_symbol
 _atom_site_label
 _atom_site_symmetry_multiplicity
 _atom_site_fract_x
 _atom_site_fract_y
 _atom_site_fract_z
 _atom_site_occupancy
  Mn  Mn0  1  0.00000000  0.00000000  0.00000000  1.0
  Al  Al1  1  0.81433237  1.30493345  1.11926582  1.0
  Al  Al2  1  0.81433237  0.69506655  0.50939893  1.0
  Al  Al3  1  0.18566763  0.30493345  0.49060107  1.0
  Al  Al4  1  0.18566763  0.69506655  0.88073418  1.0
  Al  Al5  1  0.50939893  0.81433237  0.69506655  1.0
  Al  Al6  1  1.11926582  0.81433237  1.30493345  1.0
  Al  Al7  1  0.69506655  0.88073418  0.18566763  1.0
  Al  Al8  1  0.69506655  0.50939893  0.81433237  1.0
  Al  Al9  1  0.88073418  0.18566763  0.69506655  1.0
  Al  Al10  1  0.49060107  0.18566763  0.30493345  1.0
  Al  Al11  1  0.30493345  0.49060107  0.18566763  1.0
  Al  Al12  1  1.30493345  1.11926582  0.81433237  1.0
