# generated using pymatgen
data_KFeP2(HO3)2
_symmetry_space_group_name_H-M   'P 1'
_cell_length_a   5.40476427
_cell_length_b   5.40476427
_cell_length_c   12.52811656
_cell_angle_alpha   90.00000000
_cell_angle_beta   90.00000000
_cell_angle_gamma   120.00000000
_symmetry_Int_Tables_number   1
_chemical_formula_structural   KFeP2(HO3)2
_chemical_formula_sum   'K2 Fe2 P4 H4 O12'
_cell_volume   316.93480198
_cell_formula_units_Z   2
loop_
 _symmetry_equiv_pos_site_id
 _symmetry_equiv_pos_as_xyz
  1  'x, y, z'
loop_
 _atom_site_type_symbol
 _atom_site_label
 _atom_site_symmetry_multiplicity
 _atom_site_fract_x
 _atom_site_fract_y
 _atom_site_fract_z
 _atom_site_occupancy
  K  K0  1  0.33333333  0.66666667  0.35129361  1.0
  K  K1  1  0.66666667  0.33333333  0.85129361  1.0
  Fe  Fe2  1  0.33333333  0.66666667  0.05682155  1.0
  Fe  Fe3  1  0.66666667  0.33333333  0.55682155  1.0
  P  P4  1  0.33333333  0.66666667  0.68520124  1.0
  P  P5  1  0.66666667  0.33333333  0.18520124  1.0
  P  P6  1  0.00000000  0.00000000  -0.00085128  1.0
  P  P7  1  0.00000000  0.00000000  0.49914872  1.0
  H  H8  1  0.33333333  0.66666667  0.79776972  1.0
  H  H9  1  0.66666667  0.33333333  0.29776972  1.0
  H  H10  1  0.00000000  0.00000000  0.11106674  1.0
  H  H11  1  0.00000000  0.00000000  0.61106674  1.0
  O  O12  1  0.98507040  0.49253520  0.15327135  1.0
  O  O13  1  0.49253520  0.98507040  0.65327135  1.0
  O  O14  1  0.49253520  0.50746480  0.65327135  1.0
  O  O15  1  0.50746480  0.49253520  0.15327135  1.0
  O  O16  1  0.50746480  0.01492960  0.15327135  1.0
  O  O17  1  0.01492960  0.50746480  0.65327135  1.0
  O  O18  1  0.31496414  0.15748207  0.45976146  1.0
  O  O19  1  0.15748207  0.31496414  0.95976146  1.0
  O  O20  1  0.15748207  0.84251793  0.95976146  1.0
  O  O21  1  0.84251793  0.15748207  0.45976146  1.0
  O  O22  1  0.84251793  0.68503586  0.45976146  1.0
  O  O23  1  0.68503586  0.84251793  0.95976146  1.0
