# generated using pymatgen
data_Ba(AuO4)2
_symmetry_space_group_name_H-M   'P 1'
_cell_length_a   8.12215947
_cell_length_b   8.12215947
_cell_length_c   8.12215947
_cell_angle_alpha   145.11282443
_cell_angle_beta   145.11282443
_cell_angle_gamma   50.16642228
_symmetry_Int_Tables_number   1
_chemical_formula_structural   Ba(AuO4)2
_chemical_formula_sum   'Ba1 Au2 O8'
_cell_volume   174.43040167
_cell_formula_units_Z   1
loop_
 _symmetry_equiv_pos_site_id
 _symmetry_equiv_pos_as_xyz
  1  'x, y, z'
loop_
 _atom_site_type_symbol
 _atom_site_label
 _atom_site_symmetry_multiplicity
 _atom_site_fract_x
 _atom_site_fract_y
 _atom_site_fract_z
 _atom_site_occupancy
  Ba  Ba0  1  0.00000000  0.00000000  0.00000000  1.0
  Au  Au1  1  0.35803397  0.35803397  0.00000000  1.0
  Au  Au2  1  0.64196603  0.64196603  1.00000000  1.0
  O  O3  1  0.74515540  1.03815322  1.51942429  1.0
  O  O4  1  1.25484460  0.77426889  1.29299781  1.0
  O  O5  1  0.77426889  0.48127108  0.51942429  1.0
  O  O6  1  0.22573111  0.74515540  0.70700219  1.0
  O  O7  1  0.48127108  0.96184678  0.70700219  1.0
  O  O8  1  0.51872892  0.22573111  0.48057571  1.0
  O  O9  1  1.03815322  0.51872892  1.29299781  1.0
  O  O10  1  0.96184678  1.25484460  1.48057571  1.0
