# generated using pymatgen
data_YCoGe
_symmetry_space_group_name_H-M   'P 1'
_cell_length_a   6.89212767
_cell_length_b   4.22773028
_cell_length_c   7.20554498
_cell_angle_alpha   90.00000000
_cell_angle_beta   90.00000000
_cell_angle_gamma   90.00000000
_symmetry_Int_Tables_number   1
_chemical_formula_structural   YCoGe
_chemical_formula_sum   'Y4 Co4 Ge4'
_cell_volume   209.95557897
_cell_formula_units_Z   4
loop_
 _symmetry_equiv_pos_site_id
 _symmetry_equiv_pos_as_xyz
  1  'x, y, z'
loop_
 _atom_site_type_symbol
 _atom_site_label
 _atom_site_symmetry_multiplicity
 _atom_site_fract_x
 _atom_site_fract_y
 _atom_site_fract_z
 _atom_site_occupancy
  Y  Y0  1  1.01016688  0.75000000  0.69678170  1.0
  Y  Y1  1  0.51016688  0.75000000  0.80321830  1.0
  Y  Y2  1  -0.01016688  0.25000000  0.30321830  1.0
  Y  Y3  1  0.48983312  0.25000000  0.19678170  1.0
  Co  Co4  1  0.84716944  0.75000000  0.06601667  1.0
  Co  Co5  1  0.34716944  0.75000000  0.43398333  1.0
  Co  Co6  1  0.15283056  0.25000000  0.93398333  1.0
  Co  Co7  1  0.65283056  0.25000000  0.56601667  1.0
  Ge  Ge8  1  0.70198697  0.75000000  0.39837595  1.0
  Ge  Ge9  1  0.20198697  0.75000000  0.10162405  1.0
  Ge  Ge10  1  0.29801303  0.25000000  0.60162405  1.0
  Ge  Ge11  1  0.79801303  0.25000000  0.89837595  1.0
