# generated using pymatgen
data_Na3TiF6
_symmetry_space_group_name_H-M   'P 1'
_cell_length_a   5.66686432
_cell_length_b   5.81324182
_cell_length_c   9.88354825
_cell_angle_alpha   90.00000000
_cell_angle_beta   124.07963412
_cell_angle_gamma   90.00000000
_symmetry_Int_Tables_number   1
_chemical_formula_structural   Na3TiF6
_chemical_formula_sum   'Na6 Ti2 F12'
_cell_volume   269.67491372
_cell_formula_units_Z   2
loop_
 _symmetry_equiv_pos_site_id
 _symmetry_equiv_pos_as_xyz
  1  'x, y, z'
loop_
 _atom_site_type_symbol
 _atom_site_label
 _atom_site_symmetry_multiplicity
 _atom_site_fract_x
 _atom_site_fract_y
 _atom_site_fract_z
 _atom_site_occupancy
  Na  Na0  1  0.73205701  0.05316811  0.24073800  1.0
  Na  Na1  1  0.73205701  0.44683189  0.74073800  1.0
  Na  Na2  1  0.26794299  0.55316811  0.25926200  1.0
  Na  Na3  1  0.26794299  0.94683189  0.75926200  1.0
  Na  Na4  1  0.50000000  0.50000000  0.00000000  1.0
  Na  Na5  1  0.50000000  0.00000000  0.50000000  1.0
  Ti  Ti6  1  -0.00000000  0.50000000  0.50000000  1.0
  Ti  Ti7  1  0.00000000  0.00000000  0.00000000  1.0
  F  F8  1  0.88823353  0.43516272  0.26998337  1.0
  F  F9  1  0.88823353  0.06483728  0.76998337  1.0
  F  F10  1  0.11176647  0.93516272  0.23001663  1.0
  F  F11  1  0.11176647  0.56483728  0.73001663  1.0
  F  F12  1  0.76528529  0.77775814  0.42783266  1.0
  F  F13  1  0.76528529  0.72224186  0.92783266  1.0
  F  F14  1  0.23471471  0.27775814  0.07216734  1.0
  F  F15  1  0.23471471  0.22224186  0.57216734  1.0
  F  F16  1  0.65209425  0.32566697  0.44603929  1.0
  F  F17  1  0.65209425  0.17433303  0.94603929  1.0
  F  F18  1  0.34790575  0.82566697  0.05396071  1.0
  F  F19  1  0.34790575  0.67433303  0.55396071  1.0
