# generated using pymatgen
data_Ba2B6PbO12
_symmetry_space_group_name_H-M   'P 1'
_cell_length_a   7.65825612
_cell_length_b   7.65825612
_cell_length_c   7.65825612
_cell_angle_alpha   56.79829956
_cell_angle_beta   56.79829956
_cell_angle_gamma   56.79829956
_symmetry_Int_Tables_number   1
_chemical_formula_structural   Ba2B6PbO12
_chemical_formula_sum   'Ba2 B6 Pb1 O12'
_cell_volume   294.12638689
_cell_formula_units_Z   1
loop_
 _symmetry_equiv_pos_site_id
 _symmetry_equiv_pos_as_xyz
  1  'x, y, z'
loop_
 _atom_site_type_symbol
 _atom_site_label
 _atom_site_symmetry_multiplicity
 _atom_site_fract_x
 _atom_site_fract_y
 _atom_site_fract_z
 _atom_site_occupancy
  Ba  Ba0  1  0.20067234  0.20067234  0.20067234  1.0
  Ba  Ba1  1  0.79932766  -0.20067234  -0.20067234  1.0
  B  B2  1  0.63277149  0.38065206  -0.75358017  1.0
  B  B3  1  0.75358017  0.36722851  -0.38065206  1.0
  B  B4  1  0.61934794  0.75358017  -0.63277149  1.0
  B  B5  1  0.36722851  0.61934794  -0.24641983  1.0
  B  B6  1  0.24641983  0.63277149  -0.61934794  1.0
  B  B7  1  0.38065206  0.24641983  -0.36722851  1.0
  Pb  Pb8  1  -0.00000000  0.00000000  0.00000000  1.0
  O  O9  1  0.58680846  0.21099794  -0.54440442  1.0
  O  O10  1  0.54440442  0.41319154  -0.21099794  1.0
  O  O11  1  0.78900206  0.54440442  -0.58680846  1.0
  O  O12  1  0.41319154  0.78900206  -0.45559558  1.0
  O  O13  1  0.45559558  0.58680846  -0.78900206  1.0
  O  O14  1  0.21099794  0.45559558  -0.41319154  1.0
  O  O15  1  0.35518995  0.08644876  -0.16597610  1.0
  O  O16  1  1.16597610  -0.35518995  -0.08644876  1.0
  O  O17  1  0.91355124  0.16597610  -0.35518995  1.0
  O  O18  1  0.64481005  -0.08644876  0.16597610  1.0
  O  O19  1  0.83402390  -0.64481005  0.08644876  1.0
  O  O20  1  1.08644876  -0.16597610  -0.64481005  1.0
