# generated using pymatgen
data_Zr3Tl2OF12
_symmetry_space_group_name_H-M   'P 1'
_cell_length_a   11.12994112
_cell_length_b   11.12994112
_cell_length_c   11.12994112
_cell_angle_alpha   41.17697974
_cell_angle_beta   41.17697974
_cell_angle_gamma   41.17697974
_symmetry_Int_Tables_number   1
_chemical_formula_structural   Zr3Tl2OF12
_chemical_formula_sum   'Zr6 Tl4 O2 F24'
_cell_volume   539.72645479
_cell_formula_units_Z   2
loop_
 _symmetry_equiv_pos_site_id
 _symmetry_equiv_pos_as_xyz
  1  'x, y, z'
loop_
 _atom_site_type_symbol
 _atom_site_label
 _atom_site_symmetry_multiplicity
 _atom_site_fract_x
 _atom_site_fract_y
 _atom_site_fract_z
 _atom_site_occupancy
  Zr  Zr0  1  1.42459012  1.42459012  -0.02844780  1.0
  Zr  Zr1  1  1.42459012  0.97155220  0.42459012  1.0
  Zr  Zr2  1  1.02844780  0.57540988  0.57540988  1.0
  Zr  Zr3  1  1.57540988  0.02844780  0.57540988  1.0
  Zr  Zr4  1  1.57540988  0.57540988  0.02844780  1.0
  Zr  Zr5  1  0.97155220  1.42459012  0.42459012  1.0
  Tl  Tl6  1  0.86014933  0.86014933  0.86014933  1.0
  Tl  Tl7  1  1.13985067  1.13985067  0.13985067  1.0
  Tl  Tl8  1  1.50000000  0.50000000  0.50000000  1.0
  Tl  Tl9  1  0.00000000  0.00000000  0.00000000  1.0
  O  O10  1  0.71301248  0.71301248  0.71301248  1.0
  O  O11  1  1.28698752  1.28698752  0.28698752  1.0
  F  F12  1  1.29240132  0.29240132  0.62731933  1.0
  F  F13  1  1.29240132  0.62731933  0.29240132  1.0
  F  F14  1  1.37268067  0.70759868  0.70759868  1.0
  F  F15  1  1.70759868  0.37268067  0.70759868  1.0
  F  F16  1  1.70759868  0.70759868  0.37268067  1.0
  F  F17  1  1.62731933  0.29240132  0.29240132  1.0
  F  F18  1  1.09093145  1.09093145  0.59615989  1.0
  F  F19  1  1.09093145  1.59615989  0.09093145  1.0
  F  F20  1  1.40384011  0.90906855  -0.09093145  1.0
  F  F21  1  0.90906855  1.40384011  -0.09093145  1.0
  F  F22  1  0.90906855  0.90906855  0.40384011  1.0
  F  F23  1  1.59615989  1.09093145  0.09093145  1.0
  F  F24  1  1.35305438  1.35305438  -0.08263288  1.0
  F  F25  1  1.35305438  0.91736712  0.35305438  1.0
  F  F26  1  1.08263288  0.64694562  0.64694562  1.0
  F  F27  1  1.64694562  0.08263288  0.64694562  1.0
  F  F28  1  1.64694562  0.64694562  0.08263288  1.0
  F  F29  1  0.91736712  1.35305438  0.35305438  1.0
  F  F30  1  0.64693384  0.00000000  -0.64693384  1.0
  F  F31  1  0.64693384  -0.64693384  0.00000000  1.0
  F  F32  1  0.00000000  0.64693384  -0.64693384  1.0
  F  F33  1  -0.00000000  0.35306616  -0.35306616  1.0
  F  F34  1  0.35306616  -0.00000000  -0.35306616  1.0
  F  F35  1  0.35306616  -0.35306616  0.00000000  1.0
