# generated using pymatgen
data_BaMoO2
_symmetry_space_group_name_H-M   'P 1'
_cell_length_a   7.86413249
_cell_length_b   7.86413249
_cell_length_c   7.86413249
_cell_angle_alpha   131.09454781
_cell_angle_beta   131.09454781
_cell_angle_gamma   71.66290542
_symmetry_Int_Tables_number   1
_chemical_formula_structural   BaMoO2
_chemical_formula_sum   'Ba4 Mo4 O8'
_cell_volume   270.25582860
_cell_formula_units_Z   4
loop_
 _symmetry_equiv_pos_site_id
 _symmetry_equiv_pos_as_xyz
  1  'x, y, z'
loop_
 _atom_site_type_symbol
 _atom_site_label
 _atom_site_symmetry_multiplicity
 _atom_site_fract_x
 _atom_site_fract_y
 _atom_site_fract_z
 _atom_site_occupancy
  Ba  Ba0  1  0.37500000  0.62500000  0.75000000  1.0
  Ba  Ba1  1  0.87500000  0.62500000  1.25000000  1.0
  Ba  Ba2  1  0.37500000  1.12500000  0.75000000  1.0
  Ba  Ba3  1  0.37500000  0.62500000  0.25000000  1.0
  Mo  Mo4  1  0.87500000  0.12500000  0.75000000  1.0
  Mo  Mo5  1  0.37500000  0.12500000  0.25000000  1.0
  Mo  Mo6  1  0.87500000  0.62500000  0.75000000  1.0
  Mo  Mo7  1  0.87500000  1.12500000  1.25000000  1.0
  O  O8  1  1.16624885  0.97988561  1.81364369  1.0
  O  O9  1  0.58375808  0.89739484  1.31364369  1.0
  O  O10  1  1.02011439  0.83375808  1.18636324  1.0
  O  O11  1  1.10260516  1.41624885  1.68636324  1.0
  O  O12  1  0.16624192  0.35260516  0.18635631  1.0
  O  O13  1  0.58375115  0.27011439  0.68635631  1.0
  O  O14  1  0.64739484  0.83375115  0.81363676  1.0
  O  O15  1  0.72988561  0.41624192  0.31363676  1.0
