# generated using pymatgen
data_GdAlGe2O7
_symmetry_space_group_name_H-M   'P 1'
_cell_length_a   7.29444604
_cell_length_b   6.56801636
_cell_length_c   12.80161802
_cell_angle_alpha   90.00000000
_cell_angle_beta   118.03467166
_cell_angle_gamma   90.00000000
_symmetry_Int_Tables_number   1
_chemical_formula_structural   GdAlGe2O7
_chemical_formula_sum   'Gd4 Al4 Ge8 O28'
_cell_volume   541.36041288
_cell_formula_units_Z   4
loop_
 _symmetry_equiv_pos_site_id
 _symmetry_equiv_pos_as_xyz
  1  'x, y, z'
loop_
 _atom_site_type_symbol
 _atom_site_label
 _atom_site_symmetry_multiplicity
 _atom_site_fract_x
 _atom_site_fract_y
 _atom_site_fract_z
 _atom_site_occupancy
  Gd  Gd0  1  0.74214159  0.85301107  0.97117876  1.0
  Gd  Gd1  1  0.74214159  0.64698893  0.47117876  1.0
  Gd  Gd2  1  0.25785841  0.35301107  0.52882124  1.0
  Gd  Gd3  1  0.25785841  0.14698893  0.02882124  1.0
  Al  Al4  1  0.71162495  0.90104862  0.22826789  1.0
  Al  Al5  1  0.71162495  0.59895138  0.72826789  1.0
  Al  Al6  1  0.28837505  0.40104862  0.27173211  1.0
  Al  Al7  1  0.28837505  0.09895138  0.77173211  1.0
  Ge  Ge8  1  0.80427244  0.41175080  0.22169237  1.0
  Ge  Ge9  1  0.80427244  0.08824920  0.72169237  1.0
  Ge  Ge10  1  0.19572756  0.91175080  0.27830763  1.0
  Ge  Ge11  1  0.19572756  0.58824920  0.77830763  1.0
  Ge  Ge12  1  0.71253606  0.15818110  0.45191265  1.0
  Ge  Ge13  1  0.71253606  0.34181890  0.95191265  1.0
  Ge  Ge14  1  0.28746394  0.65818110  0.04808735  1.0
  Ge  Ge15  1  0.28746394  0.84181890  0.54808735  1.0
  O  O16  1  0.92300688  0.88210466  0.19211366  1.0
  O  O17  1  0.92300688  0.61789534  0.69211366  1.0
  O  O18  1  0.07699312  0.38210466  0.30788634  1.0
  O  O19  1  0.07699312  0.11789534  0.80788634  1.0
  O  O20  1  0.90954151  0.32839971  0.47579752  1.0
  O  O21  1  0.90954151  0.17160029  0.97579752  1.0
  O  O22  1  0.09045849  0.82839971  0.02420248  1.0
  O  O23  1  0.09045849  0.67160029  0.52420248  1.0
  O  O24  1  0.75283043  0.50062531  0.07484803  1.0
  O  O25  1  0.75283043  -0.00062531  0.57484803  1.0
  O  O26  1  0.24716957  1.00062531  0.42515197  1.0
  O  O27  1  0.24716957  0.49937469  0.92515197  1.0
  O  O28  1  0.70865660  0.94646505  0.36675636  1.0
  O  O29  1  0.70865660  0.55353495  0.86675636  1.0
  O  O30  1  0.29134340  0.44646505  0.13324364  1.0
  O  O31  1  0.29134340  0.05353495  0.63324364  1.0
  O  O32  1  0.65774780  0.18505736  0.18867150  1.0
  O  O33  1  0.65774780  0.31494264  0.68867150  1.0
  O  O34  1  0.34225220  0.68505736  0.31132850  1.0
  O  O35  1  0.34225220  0.81494264  0.81132850  1.0
  O  O36  1  0.51119719  0.34449913  0.41706060  1.0
  O  O37  1  0.51119719  0.15550087  0.91706060  1.0
  O  O38  1  0.48880281  0.84449913  0.08293940  1.0
  O  O39  1  0.48880281  0.65550087  0.58293940  1.0
  O  O40  1  0.27658303  0.11920104  0.22237640  1.0
  O  O41  1  0.27658303  0.38079896  0.72237640  1.0
  O  O42  1  0.72341697  0.61920104  0.27762360  1.0
  O  O43  1  0.72341697  0.88079896  0.77762360  1.0
