# generated using pymatgen
data_Li2FeSiO4
_symmetry_space_group_name_H-M   'P 1'
_cell_length_a   8.25517557
_cell_length_b   5.12209691
_cell_length_c   12.57643244
_cell_angle_alpha   90.00000000
_cell_angle_beta   139.65279410
_cell_angle_gamma   90.00000000
_symmetry_Int_Tables_number   1
_chemical_formula_structural   Li2FeSiO4
_chemical_formula_sum   'Li8 Fe4 Si4 O16'
_cell_volume   344.28355951
_cell_formula_units_Z   4
loop_
 _symmetry_equiv_pos_site_id
 _symmetry_equiv_pos_as_xyz
  1  'x, y, z'
loop_
 _atom_site_type_symbol
 _atom_site_label
 _atom_site_symmetry_multiplicity
 _atom_site_fract_x
 _atom_site_fract_y
 _atom_site_fract_z
 _atom_site_occupancy
  Li  Li0  1  0.65935164  0.79090224  0.32650127  1.0
  Li  Li1  1  0.65935164  0.70909776  0.82650127  1.0
  Li  Li2  1  0.34064836  0.20909776  0.67349873  1.0
  Li  Li3  1  0.34064836  0.29090224  0.17349873  1.0
  Li  Li4  1  0.33020490  0.19222950  0.91295224  1.0
  Li  Li5  1  0.33020490  0.30777050  0.41295224  1.0
  Li  Li6  1  0.66979510  0.80777050  0.08704776  1.0
  Li  Li7  1  0.66979510  0.69222950  0.58704776  1.0
  Fe  Fe8  1  0.16533353  0.80650794  0.45697690  1.0
  Fe  Fe9  1  0.16533353  0.69349206  0.95697690  1.0
  Fe  Fe10  1  0.83466647  0.19349206  0.54302310  1.0
  Fe  Fe11  1  0.83466647  0.30650794  0.04302310  1.0
  Si  Si12  1  0.16114869  0.80482163  0.20592602  1.0
  Si  Si13  1  0.16114869  0.69517837  0.70592602  1.0
  Si  Si14  1  0.83885131  0.19517837  0.79407398  1.0
  Si  Si15  1  0.83885131  0.30482163  0.29407398  1.0
  O  O16  1  0.31016259  0.68677719  0.17556161  1.0
  O  O17  1  0.31016259  0.81322281  0.67556161  1.0
  O  O18  1  0.68983741  0.31322281  0.82443839  1.0
  O  O19  1  0.68983741  0.18677719  0.32443839  1.0
  O  O20  1  0.69552963  0.20232163  0.11299015  1.0
  O  O21  1  0.69552963  0.29767837  0.61299015  1.0
  O  O22  1  0.30447037  0.79767837  0.88700985  1.0
  O  O23  1  0.30447037  0.70232163  0.38700985  1.0
  O  O24  1  0.86561717  0.79116150  0.55986416  1.0
  O  O25  1  0.86561717  0.70883850  0.05986416  1.0
  O  O26  1  0.13438283  0.20883850  0.44013584  1.0
  O  O27  1  0.13438283  0.29116150  0.94013584  1.0
  O  O28  1  0.82678702  0.87234733  0.79075914  1.0
  O  O29  1  0.82678702  0.62765267  0.29075914  1.0
  O  O30  1  0.17321298  0.12765267  0.20924086  1.0
  O  O31  1  0.17321298  0.37234733  0.70924086  1.0
