# generated using pymatgen
data_CuH8C2(N6Cl)2
_symmetry_space_group_name_H-M   'P 1'
_cell_length_a   6.69562264
_cell_length_b   6.91824944
_cell_length_c   12.42917492
_cell_angle_alpha   90.00000000
_cell_angle_beta   95.43566493
_cell_angle_gamma   90.00000000
_symmetry_Int_Tables_number   1
_chemical_formula_structural   CuH8C2(N6Cl)2
_chemical_formula_sum   'Cu2 H16 C4 N24 Cl4'
_cell_volume   573.15507536
_cell_formula_units_Z   2
loop_
 _symmetry_equiv_pos_site_id
 _symmetry_equiv_pos_as_xyz
  1  'x, y, z'
loop_
 _atom_site_type_symbol
 _atom_site_label
 _atom_site_symmetry_multiplicity
 _atom_site_fract_x
 _atom_site_fract_y
 _atom_site_fract_z
 _atom_site_occupancy
  Cl  Cl0  1  0.20902147  0.23064086  0.48888661  1.0
  Cl  Cl1  1  0.79097853  0.73064086  0.01111339  1.0
  Cl  Cl2  1  0.79097853  0.76935914  0.51111339  1.0
  Cl  Cl3  1  0.20902147  0.26935914  0.98888661  1.0
  C  C4  1  0.90127972  0.37136600  0.26763345  1.0
  C  C5  1  0.09872028  0.87136600  0.23236655  1.0
  C  C6  1  0.09872028  0.62863400  0.73236655  1.0
  C  C7  1  0.90127972  0.12863400  0.76763345  1.0
  H  H8  1  0.58713696  0.19187217  0.08272579  1.0
  H  H9  1  0.41286304  0.69187217  0.41727421  1.0
  H  H10  1  0.41286304  0.80812783  0.91727421  1.0
  H  H11  1  0.58713696  0.30812783  0.58272579  1.0
  H  H12  1  0.71525492  0.38655147  0.04790063  1.0
  H  H13  1  0.28474508  0.88655147  0.45209937  1.0
  H  H14  1  0.28474508  0.61344853  0.95209937  1.0
  H  H15  1  0.71525492  0.11344853  0.54790063  1.0
  H  H16  1  0.20382325  0.35672206  0.29365111  1.0
  H  H17  1  0.79617675  0.85672206  0.20634889  1.0
  H  H18  1  0.79617675  0.64327794  0.70634889  1.0
  H  H19  1  0.20382325  0.14327794  0.79365111  1.0
  H  H20  1  0.10908229  0.33194481  0.15839624  1.0
  H  H21  1  0.89091771  0.83194481  0.34160376  1.0
  H  H22  1  0.89091771  0.66805519  0.84160376  1.0
  H  H23  1  0.10908229  0.16805519  0.65839624  1.0
  N  N24  1  0.72993728  0.33311503  0.20405727  1.0
  N  N25  1  0.27006272  0.83311503  0.29594273  1.0
  N  N26  1  0.27006272  0.66688497  0.79594273  1.0
  N  N27  1  0.72993728  0.16688497  0.70405727  1.0
  N  N28  1  0.56926195  0.35879006  0.26244832  1.0
  N  N29  1  0.43073805  0.85879006  0.23755168  1.0
  N  N30  1  0.43073805  0.64120994  0.73755168  1.0
  N  N31  1  0.56926195  0.14120994  0.76244832  1.0
  N  N32  1  0.63989474  0.40807884  0.35821997  1.0
  N  N33  1  0.36010526  0.90807884  0.14178003  1.0
  N  N34  1  0.36010526  0.59192116  0.64178003  1.0
  N  N35  1  0.63989474  0.09192116  0.85821997  1.0
  N  N36  1  0.71841261  0.26820908  0.09827964  1.0
  N  N37  1  0.28158739  0.76820908  0.40172036  1.0
  N  N38  1  0.28158739  0.73179092  0.90172036  1.0
  N  N39  1  0.71841261  0.23179092  0.59827964  1.0
  N  N40  1  0.08610753  0.36939766  0.23606144  1.0
  N  N41  1  0.91389247  0.86939766  0.26393856  1.0
  N  N42  1  0.91389247  0.63060234  0.76393856  1.0
  N  N43  1  0.08610753  0.13060234  0.73606144  1.0
  N  N44  1  0.84331170  0.42052806  0.36487452  1.0
  N  N45  1  0.15668830  0.92052806  0.13512548  1.0
  N  N46  1  0.15668830  0.57947194  0.63512548  1.0
  N  N47  1  0.84331170  0.07947194  0.86487452  1.0
  Cu  Cu48  1  0.00000000  0.50000000  0.50000000  1.0
  Cu  Cu49  1  0.00000000  0.00000000  0.00000000  1.0
