# generated using pymatgen
data_Cs2RbPdF6
_symmetry_space_group_name_H-M   'P 1'
_cell_length_a   6.77612544
_cell_length_b   6.77612544
_cell_length_c   6.77612544
_cell_angle_alpha   121.58916465
_cell_angle_beta   121.58916465
_cell_angle_gamma   87.26884206
_symmetry_Int_Tables_number   1
_chemical_formula_structural   Cs2RbPdF6
_chemical_formula_sum   'Cs2 Rb1 Pd1 F6'
_cell_volume   214.45397240
_cell_formula_units_Z   1
loop_
 _symmetry_equiv_pos_site_id
 _symmetry_equiv_pos_as_xyz
  1  'x, y, z'
loop_
 _atom_site_type_symbol
 _atom_site_label
 _atom_site_symmetry_multiplicity
 _atom_site_fract_x
 _atom_site_fract_y
 _atom_site_fract_z
 _atom_site_occupancy
  Cs  Cs0  1  0.25000000  0.75000000  0.50000000  1.0
  Cs  Cs1  1  0.75000000  0.25000000  0.50000000  1.0
  Rb  Rb2  1  0.50000000  0.50000000  1.00000000  1.0
  Pd  Pd3  1  -0.00000000  -0.00000000  -0.00000000  1.0
  F  F4  1  0.78701542  0.78701542  1.57403084  1.0
  F  F5  1  0.21298458  0.78701542  1.00000000  1.0
  F  F6  1  0.78701542  0.21298458  1.00000000  1.0
  F  F7  1  0.21298458  0.21298458  0.42596916  1.0
  F  F8  1  0.77279907  0.77279907  1.00000000  1.0
  F  F9  1  0.22720093  0.22720093  -0.00000000  1.0
