# generated using pymatgen
data_GaAgTe2
_symmetry_space_group_name_H-M   'P 1'
_cell_length_a   7.65251877
_cell_length_b   7.65251877
_cell_length_c   7.65251877
_cell_angle_alpha   130.37045152
_cell_angle_beta   130.37045152
_cell_angle_gamma   72.81522773
_symmetry_Int_Tables_number   1
_chemical_formula_structural   GaAgTe2
_chemical_formula_sum   'Ga2 Ag2 Te4'
_cell_volume   254.10809293
_cell_formula_units_Z   2
loop_
 _symmetry_equiv_pos_site_id
 _symmetry_equiv_pos_as_xyz
  1  'x, y, z'
loop_
 _atom_site_type_symbol
 _atom_site_label
 _atom_site_symmetry_multiplicity
 _atom_site_fract_x
 _atom_site_fract_y
 _atom_site_fract_z
 _atom_site_occupancy
  Ga  Ga0  1  0.75000000  0.25000000  0.50000000  1.0
  Ga  Ga1  1  1.00000000  1.00000000  1.00000000  1.0
  Ag  Ag2  1  0.25000000  0.75000000  0.50000000  1.0
  Ag  Ag3  1  0.50000000  0.50000000  -0.00000000  1.0
  Te  Te4  1  1.10789202  1.12500000  1.48289202  1.0
  Te  Te5  1  1.37500000  0.89210798  1.01710798  1.0
  Te  Te6  1  0.87500000  1.35789202  0.98289202  1.0
  Te  Te7  1  0.64210798  0.62500000  0.51710798  1.0
