# generated using pymatgen
data_CF
_symmetry_space_group_name_H-M   'P 1'
_cell_length_a   6.45815453
_cell_length_b   6.45815453
_cell_length_c   6.45815453
_cell_angle_alpha   23.27754784
_cell_angle_beta   23.27754784
_cell_angle_gamma   23.27754784
_symmetry_Int_Tables_number   1
_chemical_formula_structural   CF
_chemical_formula_sum   'C2 F2'
_cell_volume   36.93072942
_cell_formula_units_Z   2
loop_
 _symmetry_equiv_pos_site_id
 _symmetry_equiv_pos_as_xyz
  1  'x, y, z'
loop_
 _atom_site_type_symbol
 _atom_site_label
 _atom_site_symmetry_multiplicity
 _atom_site_fract_x
 _atom_site_fract_y
 _atom_site_fract_z
 _atom_site_occupancy
  C  C0  1  0.82036781  0.82036781  0.82036781  1.0
  C  C1  1  1.17963219  1.17963219  0.17963219  1.0
  F  F2  1  0.74707857  0.74707857  0.74707857  1.0
  F  F3  1  1.25292143  1.25292143  0.25292143  1.0
