# generated using pymatgen
data_Ba
_symmetry_space_group_name_H-M   'P 1'
_cell_length_a   7.09902341
_cell_length_b   7.09859414
_cell_length_c   5.01527683
_cell_angle_alpha   90.00000000
_cell_angle_beta   89.97885702
_cell_angle_gamma   90.00000000
_symmetry_Int_Tables_number   1
_chemical_formula_structural   Ba
_chemical_formula_sum   Ba4
_cell_volume   252.73525916
_cell_formula_units_Z   4
loop_
 _symmetry_equiv_pos_site_id
 _symmetry_equiv_pos_as_xyz
  1  'x, y, z'
loop_
 _atom_site_type_symbol
 _atom_site_label
 _atom_site_symmetry_multiplicity
 _atom_site_fract_x
 _atom_site_fract_y
 _atom_site_fract_z
 _atom_site_occupancy
  Ba  Ba0  1  0.24997959  1.00000257  0.25014511  1.0
  Ba  Ba1  1  0.75002303  0.50000257  0.24985639  1.0
  Ba  Ba2  1  0.75002041  -0.00000257  0.74985489  1.0
  Ba  Ba3  1  0.24997697  0.49999743  0.75014361  1.0
