# generated using pymatgen
data_Nb3Tl2Cl9
_symmetry_space_group_name_H-M   'P 1'
_cell_length_a   10.04348609
_cell_length_b   10.04348609
_cell_length_c   9.76995695
_cell_angle_alpha   77.70883570
_cell_angle_beta   102.29116430
_cell_angle_gamma   61.83939011
_symmetry_Int_Tables_number   1
_chemical_formula_structural   Nb3Tl2Cl9
_chemical_formula_sum   'Nb6 Tl4 Cl18'
_cell_volume   790.78156306
_cell_formula_units_Z   2
loop_
 _symmetry_equiv_pos_site_id
 _symmetry_equiv_pos_as_xyz
  1  'x, y, z'
loop_
 _atom_site_type_symbol
 _atom_site_label
 _atom_site_symmetry_multiplicity
 _atom_site_fract_x
 _atom_site_fract_y
 _atom_site_fract_z
 _atom_site_occupancy
  Nb  Nb0  1  0.45492427  -0.28481520  0.85995185  1.0
  Nb  Nb1  1  1.28481520  0.54507573  0.85995185  1.0
  Nb  Nb2  1  0.71518480  -0.54507573  0.14004815  1.0
  Nb  Nb3  1  1.54507573  0.28481520  0.14004815  1.0
  Nb  Nb4  1  0.62213847  -0.62213847  0.87540719  1.0
  Nb  Nb5  1  0.37786153  -0.37786153  0.12459281  1.0
  Tl  Tl6  1  0.72710577  -0.04765191  0.67021682  1.0
  Tl  Tl7  1  1.04765191  0.27289423  0.67021682  1.0
  Tl  Tl8  1  0.95234809  -0.27289423  0.32978318  1.0
  Tl  Tl9  1  1.27289423  0.04765191  0.32978318  1.0
  Cl  Cl10  1  0.59029515  -0.38947650  0.68995045  1.0
  Cl  Cl11  1  1.38947650  0.40970485  0.68995045  1.0
  Cl  Cl12  1  0.61052350  -0.40970485  0.31004955  1.0
  Cl  Cl13  1  1.40970485  0.38947650  0.31004955  1.0
  Cl  Cl14  1  0.30498435  -0.10271782  0.98176160  1.0
  Cl  Cl15  1  1.10271782  0.69501565  0.98176160  1.0
  Cl  Cl16  1  0.89728218  -0.69501565  0.01823840  1.0
  Cl  Cl17  1  1.69501565  0.10271782  0.01823840  1.0
  Cl  Cl18  1  1.39443380  -0.00937597  0.67771639  1.0
  Cl  Cl19  1  1.00937597  -0.39443380  0.67771639  1.0
  Cl  Cl20  1  0.99062403  0.39443380  0.32228361  1.0
  Cl  Cl21  1  0.60556620  0.00937597  0.32228361  1.0
  Cl  Cl22  1  0.80856523  -0.80856523  0.32851010  1.0
  Cl  Cl23  1  0.19143477  -0.19143477  0.67148990  1.0
  Cl  Cl24  1  0.77534358  -0.77534358  0.72025763  1.0
  Cl  Cl25  1  0.22465642  -0.22465642  0.27974237  1.0
  Cl  Cl26  1  0.70086184  -0.29913816  0.00000000  1.0
  Cl  Cl27  1  1.29913816  0.29913816  0.00000000  1.0
