# generated using pymatgen
data_Sc2GeO5
_symmetry_space_group_name_H-M   'P 1'
_cell_length_a   7.63775418
_cell_length_b   7.63775418
_cell_length_c   10.75630744
_cell_angle_alpha   87.50275434
_cell_angle_beta   92.49724566
_cell_angle_gamma   92.28516573
_symmetry_Int_Tables_number   1
_chemical_formula_structural   Sc2GeO5
_chemical_formula_sum   'Sc12 Ge6 O30'
_cell_volume   625.82761440
_cell_formula_units_Z   6
loop_
 _symmetry_equiv_pos_site_id
 _symmetry_equiv_pos_as_xyz
  1  'x, y, z'
loop_
 _atom_site_type_symbol
 _atom_site_label
 _atom_site_symmetry_multiplicity
 _atom_site_fract_x
 _atom_site_fract_y
 _atom_site_fract_z
 _atom_site_occupancy
  Sc  Sc0  1  0.99230605  0.63923129  0.24528417  1.0
  Sc  Sc1  1  1.63923129  -0.00769395  0.25471583  1.0
  Sc  Sc2  1  1.00769395  -0.63923129  0.75471583  1.0
  Sc  Sc3  1  0.36076871  0.00769395  0.74528417  1.0
  Sc  Sc4  1  0.65185972  0.62984398  0.42970546  1.0
  Sc  Sc5  1  1.62984398  -0.34814028  0.07029454  1.0
  Sc  Sc6  1  1.34814028  -0.62984398  0.57029454  1.0
  Sc  Sc7  1  0.37015602  0.34814028  0.92970546  1.0
  Sc  Sc8  1  0.99416764  0.30429268  0.06162509  1.0
  Sc  Sc9  1  1.30429268  -0.00583236  0.43837491  1.0
  Sc  Sc10  1  1.00583236  -0.30429268  0.93837491  1.0
  Sc  Sc11  1  0.69570732  0.00583236  0.56162509  1.0
  Ge  Ge12  1  0.93882495  0.27389144  0.45631249  1.0
  Ge  Ge13  1  1.27389144  -0.06117505  0.04368751  1.0
  Ge  Ge14  1  1.06117505  -0.27389144  0.54368751  1.0
  Ge  Ge15  1  0.72610856  0.06117505  0.95631249  1.0
  Ge  Ge16  1  0.35683602  0.35683602  0.25000000  1.0
  Ge  Ge17  1  0.64316398  0.64316398  0.75000000  1.0
  O  O18  1  1.16226815  -0.77476923  0.45332700  1.0
  O  O19  1  0.22523077  0.16226815  0.04667300  1.0
  O  O20  1  0.83773185  0.77476923  0.54667300  1.0
  O  O21  1  1.77476923  -0.16226815  0.95332700  1.0
  O  O22  1  0.73721729  0.73721729  0.25000000  1.0
  O  O23  1  0.26278271  0.26278271  0.75000000  1.0
  O  O24  1  1.43976106  -0.53468542  0.38560167  1.0
  O  O25  1  0.46531458  0.43976106  0.11439833  1.0
  O  O26  1  0.56023894  0.53468542  0.61439833  1.0
  O  O27  1  1.53468542  -0.43976106  0.88560167  1.0
  O  O28  1  1.13268372  -0.59304019  0.21893950  1.0
  O  O29  1  0.40695981  0.13268372  0.28106050  1.0
  O  O30  1  0.86731628  0.59304019  0.78106050  1.0
  O  O31  1  1.59304019  -0.13268372  0.71893950  1.0
  O  O32  1  0.86923084  0.53665402  0.07522652  1.0
  O  O33  1  1.53665402  -0.13076916  0.42477348  1.0
  O  O34  1  1.13076916  -0.53665402  0.92477348  1.0
  O  O35  1  0.46334598  0.13076916  0.57522652  1.0
  O  O36  1  1.10945768  -0.19913507  0.11311453  1.0
  O  O37  1  0.80086493  0.10945768  0.38688547  1.0
  O  O38  1  0.89054232  0.19913507  0.88688547  1.0
  O  O39  1  1.19913507  -0.10945768  0.61311453  1.0
  O  O40  1  1.12996333  -0.22127796  0.38752428  1.0
  O  O41  1  0.77872204  0.12996333  0.11247572  1.0
  O  O42  1  0.87003667  0.22127796  0.61247572  1.0
  O  O43  1  1.22127796  -0.12996333  0.88752428  1.0
  O  O44  1  0.87447873  0.48130279  0.39571063  1.0
  O  O45  1  1.48130279  -0.12552127  0.10428937  1.0
  O  O46  1  1.12552127  -0.48130279  0.60428937  1.0
  O  O47  1  0.51869721  0.12552127  0.89571063  1.0
