# generated using pymatgen
data_Li2PbO3
_symmetry_space_group_name_H-M   'P 1'
_cell_length_a   5.44509642
_cell_length_b   5.44509642
_cell_length_c   5.57275760
_cell_angle_alpha   79.48999024
_cell_angle_beta   100.51000976
_cell_angle_gamma   60.70142420
_symmetry_Int_Tables_number   1
_chemical_formula_structural   Li2PbO3
_chemical_formula_sum   'Li4 Pb2 O6'
_cell_volume   134.37512944
_cell_formula_units_Z   2
loop_
 _symmetry_equiv_pos_site_id
 _symmetry_equiv_pos_as_xyz
  1  'x, y, z'
loop_
 _atom_site_type_symbol
 _atom_site_label
 _atom_site_symmetry_multiplicity
 _atom_site_fract_x
 _atom_site_fract_y
 _atom_site_fract_z
 _atom_site_occupancy
  Li  Li0  1  0.58112058  -0.41887942  0.25000000  1.0
  Li  Li1  1  1.41887942  0.41887942  0.75000000  1.0
  Li  Li2  1  1.25819585  0.25819585  0.25000000  1.0
  Li  Li3  1  0.74180415  -0.25819585  0.75000000  1.0
  Pb  Pb4  1  0.91185236  -0.08814764  0.25000000  1.0
  Pb  Pb5  1  1.08814764  0.08814764  0.75000000  1.0
  O  O6  1  1.67647771  0.16395378  0.48672954  1.0
  O  O7  1  0.83604622  -0.67647771  0.98672954  1.0
  O  O8  1  1.16395378  0.67647771  0.01327046  1.0
  O  O9  1  0.32352229  -0.16395378  0.51327046  1.0
  O  O10  1  1.50000000  0.00000000  -0.00000000  1.0
  O  O11  1  1.00000000  -0.50000000  0.50000000  1.0
