# generated using pymatgen
data_NaLi2AsO4
_symmetry_space_group_name_H-M   'P 1'
_cell_length_a   7.04532358
_cell_length_b   5.33967640
_cell_length_c   5.15744347
_cell_angle_alpha   90.00000000
_cell_angle_beta   90.00000000
_cell_angle_gamma   90.00000000
_symmetry_Int_Tables_number   1
_chemical_formula_structural   NaLi2AsO4
_chemical_formula_sum   'Na2 Li4 As2 O8'
_cell_volume   194.02172401
_cell_formula_units_Z   2
loop_
 _symmetry_equiv_pos_site_id
 _symmetry_equiv_pos_as_xyz
  1  'x, y, z'
loop_
 _atom_site_type_symbol
 _atom_site_label
 _atom_site_symmetry_multiplicity
 _atom_site_fract_x
 _atom_site_fract_y
 _atom_site_fract_z
 _atom_site_occupancy
  Na  Na0  1  0.50000000  0.70015252  0.97947102  1.0
  Na  Na1  1  0.00000000  0.29984748  0.47947102  1.0
  Li  Li2  1  0.24997897  0.17625225  0.99305036  1.0
  Li  Li3  1  0.74997897  0.82374775  0.49305036  1.0
  Li  Li4  1  0.75002103  0.17625225  0.99305036  1.0
  Li  Li5  1  0.25002103  0.82374775  0.49305036  1.0
  As  As6  1  0.50000000  0.30892281  0.50076135  1.0
  As  As7  1  0.00000000  0.69107719  0.00076135  1.0
  O  O8  1  0.29921500  0.16819961  0.37060105  1.0
  O  O9  1  0.79921500  0.83180039  0.87060105  1.0
  O  O10  1  0.70078500  0.16819961  0.37060105  1.0
  O  O11  1  0.20078500  0.83180039  0.87060105  1.0
  O  O12  1  0.50000000  0.26948116  0.83666021  1.0
  O  O13  1  0.00000000  0.73051884  0.33666021  1.0
  O  O14  1  0.50000000  0.63012734  0.43570459  1.0
  O  O15  1  0.00000000  0.36987266  0.93570459  1.0
