# generated using pymatgen
data_Rb2Cr(ICl)2
_symmetry_space_group_name_H-M   'P 1'
_cell_length_a   9.70550019
_cell_length_b   9.70550019
_cell_length_c   7.51565782
_cell_angle_alpha   90.00000000
_cell_angle_beta   90.00000000
_cell_angle_gamma   45.55289457
_symmetry_Int_Tables_number   1
_chemical_formula_structural   Rb2Cr(ICl)2
_chemical_formula_sum   'Rb4 Cr2 I4 Cl4'
_cell_volume   505.40383233
_cell_formula_units_Z   2
loop_
 _symmetry_equiv_pos_site_id
 _symmetry_equiv_pos_as_xyz
  1  'x, y, z'
loop_
 _atom_site_type_symbol
 _atom_site_label
 _atom_site_symmetry_multiplicity
 _atom_site_fract_x
 _atom_site_fract_y
 _atom_site_fract_z
 _atom_site_occupancy
  Rb  Rb0  1  0.12578969  1.12578969  0.50000000  1.0
  Rb  Rb1  1  0.62578969  0.62578969  0.00000000  1.0
  Rb  Rb2  1  0.87421031  0.87421031  0.50000000  1.0
  Rb  Rb3  1  0.37421031  1.37421031  0.00000000  1.0
  Cr  Cr4  1  -0.50000000  0.50000000  0.50000000  1.0
  Cr  Cr5  1  0.00000000  0.00000000  0.00000000  1.0
  I  I6  1  0.34312803  1.34312803  0.50000000  1.0
  I  I7  1  0.84312803  0.84312803  0.00000000  1.0
  I  I8  1  0.65687197  0.65687197  0.50000000  1.0
  I  I9  1  0.15687197  1.15687197  0.00000000  1.0
  Cl  Cl10  1  -0.27459589  0.27459589  0.27488906  1.0
  Cl  Cl11  1  -0.77459589  0.77459589  0.22511094  1.0
  Cl  Cl12  1  -0.72540411  0.72540411  0.72511094  1.0
  Cl  Cl13  1  -0.22540411  0.22540411  0.77488906  1.0
