# generated using pymatgen
data_Ho(SiIr)2
_symmetry_space_group_name_H-M   'P 1'
_cell_length_a   5.76475504
_cell_length_b   5.76475504
_cell_length_c   5.76475504
_cell_angle_alpha   138.48795899
_cell_angle_beta   138.48795899
_cell_angle_gamma   60.15648275
_symmetry_Int_Tables_number   1
_chemical_formula_structural   Ho(SiIr)2
_chemical_formula_sum   'Ho1 Si2 Ir2'
_cell_volume   83.28205831
_cell_formula_units_Z   1
loop_
 _symmetry_equiv_pos_site_id
 _symmetry_equiv_pos_as_xyz
  1  'x, y, z'
loop_
 _atom_site_type_symbol
 _atom_site_label
 _atom_site_symmetry_multiplicity
 _atom_site_fract_x
 _atom_site_fract_y
 _atom_site_fract_z
 _atom_site_occupancy
  Ho  Ho0  1  0.00000000  0.00000000  0.00000000  1.0
  Si  Si1  1  0.62201367  0.62201367  1.00000000  1.0
  Si  Si2  1  0.37798633  0.37798633  0.00000000  1.0
  Ir  Ir3  1  0.25000000  0.75000000  0.50000000  1.0
  Ir  Ir4  1  0.75000000  0.25000000  0.50000000  1.0
