# generated using pymatgen
data_K3N
_symmetry_space_group_name_H-M   'P 1'
_cell_length_a   7.76527369
_cell_length_b   7.76527369
_cell_length_c   7.16334599
_cell_angle_alpha   90.00000000
_cell_angle_beta   90.00000000
_cell_angle_gamma   120.00000000
_symmetry_Int_Tables_number   1
_chemical_formula_structural   K3N
_chemical_formula_sum   'K6 N2'
_cell_volume   374.07621362
_cell_formula_units_Z   2
loop_
 _symmetry_equiv_pos_site_id
 _symmetry_equiv_pos_as_xyz
  1  'x, y, z'
loop_
 _atom_site_type_symbol
 _atom_site_label
 _atom_site_symmetry_multiplicity
 _atom_site_fract_x
 _atom_site_fract_y
 _atom_site_fract_z
 _atom_site_occupancy
  K  K0  1  0.73596174  0.73596174  0.25000000  1.0
  K  K1  1  0.73596174  0.00000000  0.75000000  1.0
  K  K2  1  -0.00000000  0.73596174  0.75000000  1.0
  K  K3  1  0.00000000  0.26403826  0.25000000  1.0
  K  K4  1  0.26403826  0.26403826  0.75000000  1.0
  K  K5  1  0.26403826  0.00000000  0.25000000  1.0
  N  N6  1  0.00000000  0.00000000  0.50000000  1.0
  N  N7  1  0.00000000  0.00000000  0.00000000  1.0
