# generated using pymatgen
data_Mg5(Si8Pd5)2
_symmetry_space_group_name_H-M   'P 1'
_cell_length_a   8.94454880
_cell_length_b   8.94454880
_cell_length_c   8.94454880
_cell_angle_alpha   60.00000000
_cell_angle_beta   60.00000000
_cell_angle_gamma   60.00000000
_symmetry_Int_Tables_number   1
_chemical_formula_structural   Mg5(Si8Pd5)2
_chemical_formula_sum   'Mg5 Si16 Pd10'
_cell_volume   506.01141738
_cell_formula_units_Z   1
loop_
 _symmetry_equiv_pos_site_id
 _symmetry_equiv_pos_as_xyz
  1  'x, y, z'
loop_
 _atom_site_type_symbol
 _atom_site_label
 _atom_site_symmetry_multiplicity
 _atom_site_fract_x
 _atom_site_fract_y
 _atom_site_fract_z
 _atom_site_occupancy
  Mg  Mg0  1  -0.34716518  0.65283482  0.65283482  1.0
  Mg  Mg1  1  1.04149555  0.65283482  -0.34716518  1.0
  Mg  Mg2  1  -0.34716518  0.65283482  1.04149555  1.0
  Mg  Mg3  1  0.65283482  1.04149555  -0.34716518  1.0
  Mg  Mg4  1  -0.00000000  -0.00000000  0.00000000  1.0
  Si  Si5  1  0.04511715  0.58704599  0.04511715  1.0
  Si  Si6  1  0.04511715  0.04511715  0.58704599  1.0
  Si  Si7  1  0.32271970  0.04511715  0.58704599  1.0
  Si  Si8  1  0.32271970  0.58704599  0.04511715  1.0
  Si  Si9  1  0.58704599  0.04511715  0.04511715  1.0
  Si  Si10  1  0.32271970  0.04511715  0.04511715  1.0
  Si  Si11  1  0.58704599  0.04511715  0.32271970  1.0
  Si  Si12  1  0.04511715  0.04511715  0.32271970  1.0
  Si  Si13  1  0.04511715  0.32271970  0.04511715  1.0
  Si  Si14  1  0.58704599  0.32271970  0.04511715  1.0
  Si  Si15  1  0.04511715  0.58704599  0.32271970  1.0
  Si  Si16  1  0.04511715  0.32271970  0.58704599  1.0
  Si  Si17  1  0.42757768  1.42757768  0.42757768  1.0
  Si  Si18  1  -0.28273305  0.42757768  0.42757768  1.0
  Si  Si19  1  0.42757768  1.42757768  -0.28273305  1.0
  Si  Si20  1  0.42757768  -0.28273305  0.42757768  1.0
  Pd  Pd21  1  -0.73663682  0.73663682  0.73663682  1.0
  Pd  Pd22  1  -0.26336318  0.73663682  0.26336318  1.0
  Pd  Pd23  1  -0.26336318  0.26336318  0.73663682  1.0
  Pd  Pd24  1  0.26336318  1.26336318  -0.26336318  1.0
  Pd  Pd25  1  0.26336318  -0.26336318  0.26336318  1.0
  Pd  Pd26  1  -0.26336318  0.26336318  0.26336318  1.0
  Pd  Pd27  1  0.87228144  0.87228144  -0.12771856  1.0
  Pd  Pd28  1  0.38315568  0.87228144  -0.12771856  1.0
  Pd  Pd29  1  0.87228144  0.87228144  -0.61684432  1.0
  Pd  Pd30  1  0.87228144  0.38315568  -0.12771856  1.0
