# generated using pymatgen
data_CaC2
_symmetry_space_group_name_H-M   'P 1'
_cell_length_a   3.90590991
_cell_length_b   3.90590991
_cell_length_c   7.45750367
_cell_angle_alpha   75.37412158
_cell_angle_beta   104.62587842
_cell_angle_gamma   115.83254708
_symmetry_Int_Tables_number   1
_chemical_formula_structural   CaC2
_chemical_formula_sum   'Ca2 C4'
_cell_volume   97.75018245
_cell_formula_units_Z   2
loop_
 _symmetry_equiv_pos_site_id
 _symmetry_equiv_pos_as_xyz
  1  'x, y, z'
loop_
 _atom_site_type_symbol
 _atom_site_label
 _atom_site_symmetry_multiplicity
 _atom_site_fract_x
 _atom_site_fract_y
 _atom_site_fract_z
 _atom_site_occupancy
  Ca  Ca0  1  0.82296654  0.82296654  0.75000000  1.0
  Ca  Ca1  1  0.17703346  0.17703346  0.25000000  1.0
  C  C2  1  0.57816994  0.13751573  0.93841527  1.0
  C  C3  1  0.86248427  0.42183006  0.43841527  1.0
  C  C4  1  1.13751573  -0.42183006  0.56158473  1.0
  C  C5  1  1.42183006  -0.13751573  0.06158473  1.0
