# generated using pymatgen
data_RbCrF6
_symmetry_space_group_name_H-M   'P 1'
_cell_length_a   5.18240541
_cell_length_b   5.18240541
_cell_length_c   5.18240541
_cell_angle_alpha   97.34391564
_cell_angle_beta   97.34391564
_cell_angle_gamma   97.34391564
_symmetry_Int_Tables_number   1
_chemical_formula_structural   RbCrF6
_chemical_formula_sum   'Rb1 Cr1 F6'
_cell_volume   135.43299979
_cell_formula_units_Z   1
loop_
 _symmetry_equiv_pos_site_id
 _symmetry_equiv_pos_as_xyz
  1  'x, y, z'
loop_
 _atom_site_type_symbol
 _atom_site_label
 _atom_site_symmetry_multiplicity
 _atom_site_fract_x
 _atom_site_fract_y
 _atom_site_fract_z
 _atom_site_occupancy
  Rb  Rb0  1  0.50000000  0.50000000  0.50000000  1.0
  Cr  Cr1  1  0.00000000  0.00000000  -0.00000000  1.0
  F  F2  1  0.75943836  0.75623855  0.08188781  1.0
  F  F3  1  1.24376145  -0.08188781  0.24056164  1.0
  F  F4  1  0.91811219  0.24056164  0.24376145  1.0
  F  F5  1  1.24056164  0.24376145  -0.08188781  1.0
  F  F6  1  0.75623855  1.08188781  -0.24056164  1.0
  F  F7  1  1.08188781  0.75943836  -0.24376145  1.0
