# generated using pymatgen
data_Ba3Zn5In2O11
_symmetry_space_group_name_H-M   'P 1'
_cell_length_a   9.56837133
_cell_length_b   9.56837133
_cell_length_c   9.56837133
_cell_angle_alpha   60.00000000
_cell_angle_beta   60.00000000
_cell_angle_gamma   60.00000000
_symmetry_Int_Tables_number   1
_chemical_formula_structural   Ba3Zn5In2O11
_chemical_formula_sum   'Ba6 Zn10 In4 O22'
_cell_volume   619.43974275
_cell_formula_units_Z   2
loop_
 _symmetry_equiv_pos_site_id
 _symmetry_equiv_pos_as_xyz
  1  'x, y, z'
loop_
 _atom_site_type_symbol
 _atom_site_label
 _atom_site_symmetry_multiplicity
 _atom_site_fract_x
 _atom_site_fract_y
 _atom_site_fract_z
 _atom_site_occupancy
  Ba  Ba0  1  -0.79317637  0.79317637  0.79317637  1.0
  Ba  Ba1  1  -0.20682363  0.79317637  0.20682363  1.0
  Ba  Ba2  1  -0.20682363  0.20682363  0.79317637  1.0
  Ba  Ba3  1  0.20682363  1.20682363  -0.20682363  1.0
  Ba  Ba4  1  0.20682363  -0.20682363  0.20682363  1.0
  Ba  Ba5  1  -0.20682363  0.20682363  0.20682363  1.0
  Zn  Zn6  1  0.58161766  0.91838234  -0.08161766  1.0
  Zn  Zn7  1  0.91838234  0.91838234  -0.41838234  1.0
  Zn  Zn8  1  0.91838234  0.58161766  -0.08161766  1.0
  Zn  Zn9  1  0.58161766  0.58161766  -0.08161766  1.0
  Zn  Zn10  1  0.58161766  0.91838234  -0.41838234  1.0
  Zn  Zn11  1  0.91838234  0.58161766  -0.41838234  1.0
  Zn  Zn12  1  -0.41699244  0.58300756  0.58300756  1.0
  Zn  Zn13  1  1.25097731  0.58300756  -0.41699244  1.0
  Zn  Zn14  1  -0.41699244  0.58300756  1.25097731  1.0
  Zn  Zn15  1  0.58300756  1.25097731  -0.41699244  1.0
  In  In16  1  0.33469080  1.33469080  0.33469080  1.0
  In  In17  1  -0.00407241  0.33469080  0.33469080  1.0
  In  In18  1  0.33469080  1.33469080  -0.00407241  1.0
  In  In19  1  0.33469080  -0.00407241  0.33469080  1.0
  O  O20  1  0.49769193  1.17123733  0.49769193  1.0
  O  O21  1  0.49769193  1.49769193  0.17123733  1.0
  O  O22  1  -0.16662120  0.49769193  0.17123733  1.0
  O  O23  1  -0.16662120  0.17123733  0.49769193  1.0
  O  O24  1  0.17123733  1.49769193  0.49769193  1.0
  O  O25  1  -0.16662120  0.49769193  0.49769193  1.0
  O  O26  1  0.17123733  1.49769193  -0.16662120  1.0
  O  O27  1  0.49769193  1.49769193  -0.16662120  1.0
  O  O28  1  0.49769193  -0.16662120  0.49769193  1.0
  O  O29  1  0.17123733  -0.16662120  0.49769193  1.0
  O  O30  1  0.49769193  1.17123733  -0.16662120  1.0
  O  O31  1  0.49769193  -0.16662120  0.17123733  1.0
  O  O32  1  0.84188708  0.84188708  -0.15811292  1.0
  O  O33  1  0.47433877  0.84188708  -0.15811292  1.0
  O  O34  1  0.84188708  0.84188708  -0.52566123  1.0
  O  O35  1  0.84188708  0.47433877  -0.15811292  1.0
  O  O36  1  0.16842336  0.16842336  0.16842336  1.0
  O  O37  1  0.49472993  0.16842336  0.16842336  1.0
  O  O38  1  0.16842336  0.16842336  0.49472993  1.0
  O  O39  1  0.16842336  0.49472993  0.16842336  1.0
  O  O40  1  -0.50000000  0.50000000  0.50000000  1.0
  O  O41  1  0.00000000  0.00000000  -0.00000000  1.0
