# generated using pymatgen
data_PbAuO2
_symmetry_space_group_name_H-M   'P 1'
_cell_length_a   5.64628017
_cell_length_b   3.78120304
_cell_length_c   6.91500849
_cell_angle_alpha   83.26383061
_cell_angle_beta   88.19193886
_cell_angle_gamma   89.90306371
_symmetry_Int_Tables_number   1
_chemical_formula_structural   PbAuO2
_chemical_formula_sum   'Pb2 Au2 O4'
_cell_volume   146.54113738
_cell_formula_units_Z   2
loop_
 _symmetry_equiv_pos_site_id
 _symmetry_equiv_pos_as_xyz
  1  'x, y, z'
loop_
 _atom_site_type_symbol
 _atom_site_label
 _atom_site_symmetry_multiplicity
 _atom_site_fract_x
 _atom_site_fract_y
 _atom_site_fract_z
 _atom_site_occupancy
  Pb  Pb0  1  -0.50007375  -0.30594894  -0.26156237  1.0
  Pb  Pb1  1  -0.49992625  -0.69405106  -0.73843763  1.0
  Au  Au2  1  0.00000000  0.00000000  0.00000000  1.0
  Au  Au3  1  0.00000000  -0.00000000  -0.50000000  1.0
  O  O4  1  -0.17357920  -0.88833760  -0.25119985  1.0
  O  O5  1  -0.82642080  -0.11166240  -0.74880015  1.0
  O  O6  1  -0.31275058  -0.20864761  -0.56733530  1.0
  O  O7  1  -0.68724942  -0.79135239  -0.43266470  1.0
