# generated using pymatgen
data_AgN3
_symmetry_space_group_name_H-M   'P 1'
_cell_length_a   5.25730496
_cell_length_b   3.48947127
_cell_length_c   6.89366000
_cell_angle_alpha   90.00000000
_cell_angle_beta   90.00000000
_cell_angle_gamma   90.00000000
_symmetry_Int_Tables_number   1
_chemical_formula_structural   AgN3
_chemical_formula_sum   'Ag2 N6'
_cell_volume   126.46567220
_cell_formula_units_Z   2
loop_
 _symmetry_equiv_pos_site_id
 _symmetry_equiv_pos_as_xyz
  1  'x, y, z'
loop_
 _atom_site_type_symbol
 _atom_site_label
 _atom_site_symmetry_multiplicity
 _atom_site_fract_x
 _atom_site_fract_y
 _atom_site_fract_z
 _atom_site_occupancy
  Ag  Ag0  1  0.50000000  0.00000000  0.75000000  1.0
  Ag  Ag1  1  0.50000000  0.00000000  0.25000000  1.0
  N  N2  1  0.79212400  0.86926671  0.00000000  1.0
  N  N3  1  0.79212400  0.13073329  0.50000000  1.0
  N  N4  1  0.20787600  0.86926671  0.50000000  1.0
  N  N5  1  0.20787600  0.13073329  0.00000000  1.0
  N  N6  1  0.00000000  0.00000000  0.00000000  1.0
  N  N7  1  0.00000000  0.00000000  0.50000000  1.0
