# generated using pymatgen
data_Cs2Sb4O11
_symmetry_space_group_name_H-M   'P 1'
_cell_length_a   10.76698963
_cell_length_b   10.76698963
_cell_length_c   7.44434421
_cell_angle_alpha   83.78342272
_cell_angle_beta   96.21657728
_cell_angle_gamma   137.64794556
_symmetry_Int_Tables_number   1
_chemical_formula_structural   Cs2Sb4O11
_chemical_formula_sum   'Cs4 Sb8 O22'
_cell_volume   577.46153617
_cell_formula_units_Z   2
loop_
 _symmetry_equiv_pos_site_id
 _symmetry_equiv_pos_as_xyz
  1  'x, y, z'
loop_
 _atom_site_type_symbol
 _atom_site_label
 _atom_site_symmetry_multiplicity
 _atom_site_fract_x
 _atom_site_fract_y
 _atom_site_fract_z
 _atom_site_occupancy
  Cs  Cs0  1  0.72623621  0.27376379  0.50337261  1.0
  Cs  Cs1  1  0.27376379  -0.27376379  0.49662739  1.0
  Cs  Cs2  1  0.50432586  0.49567414  0.75065004  1.0
  Cs  Cs3  1  0.49567414  -0.49567414  0.24934996  1.0
  Sb  Sb4  1  0.42989574  0.08184282  0.94085886  1.0
  Sb  Sb5  1  0.91815718  0.57010426  0.94085886  1.0
  Sb  Sb6  1  1.08184282  0.42989574  0.05914114  1.0
  Sb  Sb7  1  0.57010426  -0.08184282  0.05914114  1.0
  Sb  Sb8  1  0.92890281  0.07109719  0.39869313  1.0
  Sb  Sb9  1  0.07109719  -0.07109719  0.60130687  1.0
  Sb  Sb10  1  0.92367314  0.07632686  0.87956676  1.0
  Sb  Sb11  1  0.07632686  -0.07632686  0.12043324  1.0
  O  O12  1  0.65713267  -0.16118326  0.92414035  1.0
  O  O13  1  1.16118326  0.34286733  0.92414035  1.0
  O  O14  1  0.83881674  0.65713267  0.07585965  1.0
  O  O15  1  0.34286733  0.16118326  0.07585965  1.0
  O  O16  1  0.47513593  -0.04652471  0.83470110  1.0
  O  O17  1  1.04652471  0.52486407  0.83470110  1.0
  O  O18  1  0.95347529  0.47513593  0.16529890  1.0
  O  O19  1  0.52486407  0.04652471  0.16529890  1.0
  O  O20  1  0.32531816  0.07235050  0.69579859  1.0
  O  O21  1  0.92764950  0.67468184  0.69579859  1.0
  O  O22  1  1.07235050  0.32531816  0.30420141  1.0
  O  O23  1  0.67468184  -0.07235050  0.30420141  1.0
  O  O24  1  0.97751351  0.02248649  0.15251710  1.0
  O  O25  1  0.02248649  -0.02248649  0.84748290  1.0
  O  O26  1  0.88375270  0.11624730  0.62607931  1.0
  O  O27  1  0.11624730  -0.11624730  0.37392069  1.0
  O  O28  1  0.83369378  0.16630622  0.98527166  1.0
  O  O29  1  0.16630622  -0.16630622  0.01472834  1.0
  O  O30  1  0.65820990  0.34179010  0.86980093  1.0
  O  O31  1  0.34179010  -0.34179010  0.13019907  1.0
  O  O32  1  0.83107959  0.83107959  0.50000000  1.0
  O  O33  1  0.16892041  0.16892041  0.50000000  1.0
