# generated using pymatgen
data_CrB
_symmetry_space_group_name_H-M   'P 1'
_cell_length_a   12.11593266
_cell_length_b   12.11593266
_cell_length_c   12.11593266
_cell_angle_alpha   159.72459023
_cell_angle_beta   159.72459023
_cell_angle_gamma   28.82748354
_symmetry_Int_Tables_number   1
_chemical_formula_structural   CrB
_chemical_formula_sum   'Cr8 B8'
_cell_volume   213.47052189
_cell_formula_units_Z   8
loop_
 _symmetry_equiv_pos_site_id
 _symmetry_equiv_pos_as_xyz
  1  'x, y, z'
loop_
 _atom_site_type_symbol
 _atom_site_label
 _atom_site_symmetry_multiplicity
 _atom_site_fract_x
 _atom_site_fract_y
 _atom_site_fract_z
 _atom_site_occupancy
  Cr  Cr0  1  0.91182047  0.17413587  0.73768460  1.0
  Cr  Cr1  1  0.31354872  0.07586413  0.23768460  1.0
  Cr  Cr2  1  0.43645128  0.17413587  0.26231540  1.0
  Cr  Cr3  1  0.83817953  0.07586413  0.76231540  1.0
  Cr  Cr4  1  0.82586413  0.56354872  0.73768460  1.0
  Cr  Cr5  1  0.92413587  1.16182047  1.23768460  1.0
  Cr  Cr6  1  0.82586413  1.08817953  1.26231540  1.0
  Cr  Cr7  1  0.92413587  0.68645128  0.76231540  1.0
  B  B8  1  0.69312719  -0.01216169  0.70528888  1.0
  B  B9  1  0.46745057  0.26216169  0.20528888  1.0
  B  B10  1  0.28254943  -0.01216169  0.29471112  1.0
  B  B11  1  1.05687281  0.26216169  0.79471112  1.0
  B  B12  1  1.01216169  0.71745057  0.70528888  1.0
  B  B13  1  0.73783831  0.94312719  1.20528888  1.0
  B  B14  1  1.01216169  1.30687281  1.29471112  1.0
  B  B15  1  0.73783831  0.53254943  0.79471112  1.0
