# generated using pymatgen
data_Ca3SiBr2
_symmetry_space_group_name_H-M   'P 1'
_cell_length_a   12.16806966
_cell_length_b   12.16806966
_cell_length_c   12.16806966
_cell_angle_alpha   20.26142701
_cell_angle_beta   20.26142701
_cell_angle_gamma   20.26142701
_symmetry_Int_Tables_number   1
_chemical_formula_structural   Ca3SiBr2
_chemical_formula_sum   'Ca3 Si1 Br2'
_cell_volume   189.06546830
_cell_formula_units_Z   1
loop_
 _symmetry_equiv_pos_site_id
 _symmetry_equiv_pos_as_xyz
  1  'x, y, z'
loop_
 _atom_site_type_symbol
 _atom_site_label
 _atom_site_symmetry_multiplicity
 _atom_site_fract_x
 _atom_site_fract_y
 _atom_site_fract_z
 _atom_site_occupancy
  Ca  Ca0  1  0.00458455  0.00458455  0.00458455  1.0
  Ca  Ca1  1  0.88034962  -0.11965038  -0.11965038  1.0
  Ca  Ca2  1  0.09516756  0.09516756  0.09516756  1.0
  Si  Si3  1  0.71637360  -0.28362640  -0.28362640  1.0
  Br  Br4  1  0.26037226  0.26037226  0.26037226  1.0
  Br  Br5  1  0.50015241  0.50015241  -0.49984759  1.0
