# generated using pymatgen
data_As
_symmetry_space_group_name_H-M   'P 1'
_cell_length_a   6.00065208
_cell_length_b   6.00065208
_cell_length_c   4.68129281
_cell_angle_alpha   90.00000000
_cell_angle_beta   90.00000000
_cell_angle_gamma   144.04173455
_symmetry_Int_Tables_number   1
_chemical_formula_structural   As
_chemical_formula_sum   As4
_cell_volume   98.97958851
_cell_formula_units_Z   4
loop_
 _symmetry_equiv_pos_site_id
 _symmetry_equiv_pos_as_xyz
  1  'x, y, z'
loop_
 _atom_site_type_symbol
 _atom_site_label
 _atom_site_symmetry_multiplicity
 _atom_site_fract_x
 _atom_site_fract_y
 _atom_site_fract_z
 _atom_site_occupancy
  As  As0  1  -0.39400629  0.39400629  0.43119658  1.0
  As  As1  1  0.10599371  0.89400629  0.06880342  1.0
  As  As2  1  0.39400629  0.60599371  0.56880342  1.0
  As  As3  1  -0.10599371  0.10599371  0.93119658  1.0
