# generated using pymatgen
data_Na6Bi
_symmetry_space_group_name_H-M   'P 1'
_cell_length_a   6.70488396
_cell_length_b   8.16271746
_cell_length_c   9.29740308
_cell_angle_alpha   90.00000000
_cell_angle_beta   90.00000000
_cell_angle_gamma   90.00000000
_symmetry_Int_Tables_number   1
_chemical_formula_structural   Na6Bi
_chemical_formula_sum   'Na12 Bi2'
_cell_volume   508.84755234
_cell_formula_units_Z   2
loop_
 _symmetry_equiv_pos_site_id
 _symmetry_equiv_pos_as_xyz
  1  'x, y, z'
loop_
 _atom_site_type_symbol
 _atom_site_label
 _atom_site_symmetry_multiplicity
 _atom_site_fract_x
 _atom_site_fract_y
 _atom_site_fract_z
 _atom_site_occupancy
  Na  Na0  1  0.66577077  0.18883969  0.18043979  1.0
  Na  Na1  1  0.33422923  0.81116031  0.18043979  1.0
  Na  Na2  1  0.16577077  0.31116031  0.81956021  1.0
  Na  Na3  1  0.83422923  0.68883969  0.81956021  1.0
  Na  Na4  1  0.33422923  0.81116031  0.81956021  1.0
  Na  Na5  1  0.66577077  0.18883969  0.81956021  1.0
  Na  Na6  1  0.83422923  0.68883969  0.18043979  1.0
  Na  Na7  1  0.16577077  0.31116031  0.18043979  1.0
  Na  Na8  1  0.74848493  0.41464563  0.50000000  1.0
  Na  Na9  1  0.25151507  0.58535437  0.50000000  1.0
  Na  Na10  1  0.24848493  0.08535437  0.50000000  1.0
  Na  Na11  1  0.75151507  0.91464563  0.50000000  1.0
  Bi  Bi12  1  0.50000000  0.50000000  0.00000000  1.0
  Bi  Bi13  1  0.00000000  0.00000000  0.00000000  1.0
