# generated using pymatgen
data_CaPPt
_symmetry_space_group_name_H-M   'P 1'
_cell_length_a   4.37987601
_cell_length_b   8.37014201
_cell_length_c   6.56328925
_cell_angle_alpha   90.00000000
_cell_angle_beta   90.00000000
_cell_angle_gamma   90.00000000
_symmetry_Int_Tables_number   1
_chemical_formula_structural   CaPPt
_chemical_formula_sum   'Ca4 P4 Pt4'
_cell_volume   240.61139253
_cell_formula_units_Z   4
loop_
 _symmetry_equiv_pos_site_id
 _symmetry_equiv_pos_as_xyz
  1  'x, y, z'
loop_
 _atom_site_type_symbol
 _atom_site_label
 _atom_site_symmetry_multiplicity
 _atom_site_fract_x
 _atom_site_fract_y
 _atom_site_fract_z
 _atom_site_occupancy
  Ca  Ca0  1  0.50000000  0.87365662  0.19795674  1.0
  Ca  Ca1  1  0.50000000  0.12634338  0.69795674  1.0
  Ca  Ca2  1  0.50000000  0.41351146  0.26308519  1.0
  Ca  Ca3  1  0.50000000  0.58648854  0.76308519  1.0
  P  P4  1  0.00000000  0.92838210  0.50164697  1.0
  P  P5  1  0.00000000  0.07161790  0.00164697  1.0
  P  P6  1  0.00000000  0.61607284  0.07913550  1.0
  P  P7  1  0.00000000  0.38392716  0.57913550  1.0
  Pt  Pt8  1  0.00000000  0.83128992  0.82934236  1.0
  Pt  Pt9  1  0.00000000  0.16871008  0.32934236  1.0
  Pt  Pt10  1  0.00000000  0.65713368  0.44723324  1.0
  Pt  Pt11  1  0.00000000  0.34286632  0.94723324  1.0
