# generated using pymatgen
data_CsSc(WO4)2
_symmetry_space_group_name_H-M   'P 1'
_cell_length_a   5.91292580
_cell_length_b   5.91292580
_cell_length_c   8.35796106
_cell_angle_alpha   90.00000000
_cell_angle_beta   90.00000000
_cell_angle_gamma   120.00000000
_symmetry_Int_Tables_number   1
_chemical_formula_structural   CsSc(WO4)2
_chemical_formula_sum   'Cs1 Sc1 W2 O8'
_cell_volume   253.06718441
_cell_formula_units_Z   1
loop_
 _symmetry_equiv_pos_site_id
 _symmetry_equiv_pos_as_xyz
  1  'x, y, z'
loop_
 _atom_site_type_symbol
 _atom_site_label
 _atom_site_symmetry_multiplicity
 _atom_site_fract_x
 _atom_site_fract_y
 _atom_site_fract_z
 _atom_site_occupancy
  Cs  Cs0  1  -0.00000000  -0.00000000  -0.00000000  1.0
  Sc  Sc1  1  -0.00000000  -0.00000000  0.50000000  1.0
  W  W2  1  0.33333333  0.66666667  0.28400747  1.0
  W  W3  1  0.66666667  0.33333333  0.71599253  1.0
  O  O4  1  0.66857778  0.83428889  0.35104936  1.0
  O  O5  1  0.83428889  0.66857778  0.64895064  1.0
  O  O6  1  0.83428889  0.16571111  0.64895064  1.0
  O  O7  1  0.16571111  0.83428889  0.35104936  1.0
  O  O8  1  0.16571111  0.33142222  0.35104936  1.0
  O  O9  1  0.33142222  0.16571111  0.64895064  1.0
  O  O10  1  0.33333333  0.66666667  0.07360817  1.0
  O  O11  1  0.66666667  0.33333333  0.92639183  1.0
