# generated using pymatgen
data_BaNb6O17
_symmetry_space_group_name_H-M   'P 1'
_cell_length_a   11.76938571
_cell_length_b   11.76938571
_cell_length_c   11.76938571
_cell_angle_alpha   161.35161763
_cell_angle_beta   135.90051607
_cell_angle_gamma   48.26922485
_symmetry_Int_Tables_number   1
_chemical_formula_structural   BaNb6O17
_chemical_formula_sum   'Ba1 Nb6 O17'
_cell_volume   361.97049077
_cell_formula_units_Z   1
loop_
 _symmetry_equiv_pos_site_id
 _symmetry_equiv_pos_as_xyz
  1  'x, y, z'
loop_
 _atom_site_type_symbol
 _atom_site_label
 _atom_site_symmetry_multiplicity
 _atom_site_fract_x
 _atom_site_fract_y
 _atom_site_fract_z
 _atom_site_occupancy
  O  O0  1  0.68273495  0.84487673  0.83785823  1.0
  O  O1  1  0.99298150  0.15512327  0.83785823  1.0
  O  O2  1  1.00701850  0.84487673  1.16214177  1.0
  O  O3  1  0.31726505  0.15512327  0.16214177  1.0
  O  O4  1  0.54698784  0.70451111  0.84247674  1.0
  O  O5  1  1.13796563  0.29548889  0.84247674  1.0
  O  O6  1  0.86203437  0.70451111  1.15752326  1.0
  O  O7  1  0.45301216  0.29548889  0.15752326  1.0
  O  O8  1  0.39936315  0.56889924  0.83046391  1.0
  O  O9  1  1.26156467  0.43110076  0.83046391  1.0
  O  O10  1  0.73843533  0.56889924  1.16953609  1.0
  O  O11  1  0.60063685  0.43110076  0.16953609  1.0
  O  O12  1  0.78646644  0.28646644  0.50000000  1.0
  O  O13  1  0.21353356  0.71353356  0.50000000  1.0
  O  O14  1  0.00000000  0.00000000  0.00000000  1.0
  O  O15  1  0.91347329  0.41347329  0.50000000  1.0
  O  O16  1  0.08652671  0.58652671  0.50000000  1.0
  Ba  Ba17  1  0.50000000  0.00000000  0.50000000  1.0
  Nb  Nb18  1  0.32332966  0.62954466  0.69378500  1.0
  Nb  Nb19  1  1.06424034  0.37045534  0.69378500  1.0
  Nb  Nb20  1  0.93575966  0.62954466  1.30621500  1.0
  Nb  Nb21  1  0.67667034  0.37045534  0.30621500  1.0
  Nb  Nb22  1  0.75876884  0.75876884  1.00000000  1.0
  Nb  Nb23  1  0.24123116  0.24123116  0.00000000  1.0
