# generated using pymatgen
data_Bi2TeI
_symmetry_space_group_name_H-M   'P 1'
_cell_length_a   19.21380796
_cell_length_b   19.21380796
_cell_length_c   19.21380796
_cell_angle_alpha   13.23915530
_cell_angle_beta   13.23915530
_cell_angle_gamma   13.23915530
_symmetry_Int_Tables_number   1
_chemical_formula_structural   Bi2TeI
_chemical_formula_sum   'Bi4 Te2 I2'
_cell_volume   323.61684320
_cell_formula_units_Z   2
loop_
 _symmetry_equiv_pos_site_id
 _symmetry_equiv_pos_as_xyz
  1  'x, y, z'
loop_
 _atom_site_type_symbol
 _atom_site_label
 _atom_site_symmetry_multiplicity
 _atom_site_fract_x
 _atom_site_fract_y
 _atom_site_fract_z
 _atom_site_occupancy
  Bi  Bi0  1  1.05838517  1.05838517  0.05838517  1.0
  Bi  Bi1  1  0.94161483  0.94161483  -0.05838517  1.0
  Bi  Bi2  1  0.81853043  0.81853043  0.81853043  1.0
  Bi  Bi3  1  1.18146957  0.18146957  0.18146957  1.0
  Te  Te4  1  0.69532818  0.69532818  0.69532818  1.0
  Te  Te5  1  1.30467182  0.30467182  0.30467182  1.0
  I  I6  1  1.42820415  0.42820415  0.42820415  1.0
  I  I7  1  0.57179585  0.57179585  0.57179585  1.0
