# generated using pymatgen
data_Be3P2(H2O5)2
_symmetry_space_group_name_H-M   'P 1'
_cell_length_a   8.43510066
_cell_length_b   8.43510066
_cell_length_c   9.65465523
_cell_angle_alpha   85.28622319
_cell_angle_beta   94.71377681
_cell_angle_gamma   148.10285771
_symmetry_Int_Tables_number   1
_chemical_formula_structural   Be3P2(H2O5)2
_chemical_formula_sum   'Be6 P4 H8 O20'
_cell_volume   361.64693671
_cell_formula_units_Z   2
loop_
 _symmetry_equiv_pos_site_id
 _symmetry_equiv_pos_as_xyz
  1  'x, y, z'
loop_
 _atom_site_type_symbol
 _atom_site_label
 _atom_site_symmetry_multiplicity
 _atom_site_fract_x
 _atom_site_fract_y
 _atom_site_fract_z
 _atom_site_occupancy
  Be  Be0  1  0.29528656  -0.20887007  0.84212580  1.0
  Be  Be1  1  1.20887007  0.70471344  0.34212580  1.0
  Be  Be2  1  0.79112993  0.29528656  0.65787420  1.0
  Be  Be3  1  0.70471344  0.20887007  0.15787420  1.0
  Be  Be4  1  0.68175570  0.68175570  0.75000000  1.0
  Be  Be5  1  0.31824430  0.31824430  0.25000000  1.0
  P  P6  1  0.38362333  -0.30512210  0.60554338  1.0
  P  P7  1  1.30512210  0.61637667  0.10554338  1.0
  P  P8  1  0.69487790  0.38362333  0.89445662  1.0
  P  P9  1  0.61637667  0.30512210  0.39445662  1.0
  H  H10  1  0.84521101  -0.02472540  0.31358806  1.0
  H  H11  1  1.02472540  0.15478899  0.81358806  1.0
  H  H12  1  0.97527460  0.84521101  0.18641194  1.0
  H  H13  1  0.15478899  0.02472540  0.68641194  1.0
  H  H14  1  0.72757877  -0.09024452  0.90401028  1.0
  H  H15  1  1.09024452  0.27242123  0.40401028  1.0
  H  H16  1  0.90975548  0.72757877  0.59598972  1.0
  H  H17  1  0.27242123  0.09024452  0.09598972  1.0
  O  O18  1  0.86177229  -0.04726741  0.85537557  1.0
  O  O19  1  1.04726741  0.13822771  0.35537557  1.0
  O  O20  1  0.95273259  0.86177229  0.64462443  1.0
  O  O21  1  0.13822771  0.04726741  0.14462443  1.0
  O  O22  1  0.41476964  -0.24927948  0.95584041  1.0
  O  O23  1  1.24927948  0.58523036  0.45584041  1.0
  O  O24  1  0.75072052  0.41476964  0.54415959  1.0
  O  O25  1  0.58523036  0.24927948  0.04415959  1.0
  O  O26  1  0.68519154  0.03842427  0.60908556  1.0
  O  O27  1  0.96157573  0.31480846  0.10908556  1.0
  O  O28  1  1.03842427  0.68519154  0.89091444  1.0
  O  O29  1  0.31480846  -0.03842427  0.39091444  1.0
  O  O30  1  0.59616906  0.16000309  0.80025658  1.0
  O  O31  1  0.83999691  0.40383094  0.30025658  1.0
  O  O32  1  1.16000309  0.59616906  0.69974342  1.0
  O  O33  1  0.40383094  -0.16000309  0.19974342  1.0
  O  O34  1  0.54246049  0.40883064  0.83283369  1.0
  O  O35  1  0.59116936  0.45753951  0.33283369  1.0
  O  O36  1  1.40883064  0.54246049  0.66716631  1.0
  O  O37  1  0.45753951  -0.40883064  0.16716631  1.0
