# generated using pymatgen
data_NaV2Bi3O10
_symmetry_space_group_name_H-M   'P 1'
_cell_length_a   5.63287926
_cell_length_b   7.28503159
_cell_length_c   7.32037470
_cell_angle_alpha   107.52104969
_cell_angle_beta   114.32114155
_cell_angle_gamma   95.64179259
_symmetry_Int_Tables_number   1
_chemical_formula_structural   NaV2Bi3O10
_chemical_formula_sum   'Na1 V2 Bi3 O10'
_cell_volume   252.35130251
_cell_formula_units_Z   1
loop_
 _symmetry_equiv_pos_site_id
 _symmetry_equiv_pos_as_xyz
  1  'x, y, z'
loop_
 _atom_site_type_symbol
 _atom_site_label
 _atom_site_symmetry_multiplicity
 _atom_site_fract_x
 _atom_site_fract_y
 _atom_site_fract_z
 _atom_site_occupancy
  Na  Na0  1  -0.24960541  -0.54093209  -0.38586749  1.0
  V  V1  1  0.45613371  -0.62293705  -0.02496726  1.0
  V  V2  1  0.18767135  -0.93098216  -0.72049315  1.0
  Bi  Bi3  1  -0.09240046  -0.02753853  -0.35323796  1.0
  Bi  Bi4  1  0.52777778  -0.16236892  -0.09708819  1.0
  Bi  Bi5  1  0.11694800  -0.41361175  -0.66649765  1.0
  O  O6  1  -0.00672502  0.00033263  -0.00116462  1.0
  O  O7  1  -0.50757124  0.02512433  -0.66042300  1.0
  O  O8  1  0.15301691  -0.58381316  -0.06067226  1.0
  O  O9  1  -0.32403382  -0.56492310  -0.75534328  1.0
  O  O10  1  0.09025729  -0.28569331  -0.35880643  1.0
  O  O11  1  0.39912562  -0.87690027  -0.17276012  1.0
  O  O12  1  0.00192364  -0.08972582  -0.65959162  1.0
  O  O13  1  0.22074457  -0.68363547  -0.58688208  1.0
  O  O14  1  0.61169290  -0.46730448  -0.10506611  1.0
  O  O15  1  0.55884418  -0.24819084  -0.39473878  1.0
