# generated using pymatgen
data_RuCl3
_symmetry_space_group_name_H-M   'P 1'
_cell_length_a   6.86282802
_cell_length_b   6.86282802
_cell_length_c   5.71522562
_cell_angle_alpha   90.00000000
_cell_angle_beta   90.00000000
_cell_angle_gamma   120.00000000
_symmetry_Int_Tables_number   1
_chemical_formula_structural   RuCl3
_chemical_formula_sum   'Ru2 Cl6'
_cell_volume   233.11501300
_cell_formula_units_Z   2
loop_
 _symmetry_equiv_pos_site_id
 _symmetry_equiv_pos_as_xyz
  1  'x, y, z'
loop_
 _atom_site_type_symbol
 _atom_site_label
 _atom_site_symmetry_multiplicity
 _atom_site_fract_x
 _atom_site_fract_y
 _atom_site_fract_z
 _atom_site_occupancy
  Ru  Ru0  1  0.00000000  0.00000000  0.50000000  1.0
  Ru  Ru1  1  0.00000000  0.00000000  0.00000000  1.0
  Cl  Cl2  1  0.27459713  0.99989507  0.25000000  1.0
  Cl  Cl3  1  0.27459713  0.27470206  0.75000000  1.0
  Cl  Cl4  1  0.72529794  0.99989507  0.75000000  1.0
  Cl  Cl5  1  0.72529794  0.72540287  0.25000000  1.0
  Cl  Cl6  1  0.00010493  0.72540287  0.75000000  1.0
  Cl  Cl7  1  0.00010493  0.27470206  0.25000000  1.0
