# generated using pymatgen
data_HfFeF6
_symmetry_space_group_name_H-M   'P 1'
_cell_length_a   5.78456082
_cell_length_b   5.78456082
_cell_length_c   5.78456082
_cell_angle_alpha   59.99898198
_cell_angle_beta   59.99898198
_cell_angle_gamma   59.99898198
_symmetry_Int_Tables_number   1
_chemical_formula_structural   HfFeF6
_chemical_formula_sum   'Hf1 Fe1 F6'
_cell_volume   136.86303047
_cell_formula_units_Z   1
loop_
 _symmetry_equiv_pos_site_id
 _symmetry_equiv_pos_as_xyz
  1  'x, y, z'
loop_
 _atom_site_type_symbol
 _atom_site_label
 _atom_site_symmetry_multiplicity
 _atom_site_fract_x
 _atom_site_fract_y
 _atom_site_fract_z
 _atom_site_occupancy
  Hf  Hf0  1  0.50000000  0.50000000  -0.50000000  1.0
  Fe  Fe1  1  0.00000000  0.00000000  0.00000000  1.0
  F  F2  1  0.74661224  -0.25464257  0.25400184  1.0
  F  F3  1  0.25464257  0.74599816  -0.74661224  1.0
  F  F4  1  0.74599816  0.25338776  -0.74535743  1.0
  F  F5  1  0.25338776  0.25464257  -0.25400184  1.0
  F  F6  1  0.74535743  0.25400184  -0.25338776  1.0
  F  F7  1  1.25400184  -0.25338776  -0.25464257  1.0
