# generated using pymatgen
data_Eu(BOs)2
_symmetry_space_group_name_H-M   'P 1'
_cell_length_a   10.35147969
_cell_length_b   10.35147969
_cell_length_c   4.00648645
_cell_angle_alpha   90.00000000
_cell_angle_beta   90.00000000
_cell_angle_gamma   90.00000000
_symmetry_Int_Tables_number   1
_chemical_formula_structural   Eu(BOs)2
_chemical_formula_sum   'Eu4 B8 Os8'
_cell_volume   429.30757131
_cell_formula_units_Z   4
loop_
 _symmetry_equiv_pos_site_id
 _symmetry_equiv_pos_as_xyz
  1  'x, y, z'
loop_
 _atom_site_type_symbol
 _atom_site_label
 _atom_site_symmetry_multiplicity
 _atom_site_fract_x
 _atom_site_fract_y
 _atom_site_fract_z
 _atom_site_occupancy
  Eu  Eu0  1  0.25000000  0.25000000  0.25000000  1.0
  Eu  Eu1  1  0.75000000  0.75000000  0.25000000  1.0
  Eu  Eu2  1  0.25000000  0.75000000  0.75000000  1.0
  Eu  Eu3  1  0.75000000  0.25000000  0.75000000  1.0
  B  B4  1  0.49399997  0.81809833  0.25000915  1.0
  B  B5  1  0.99399997  0.31809833  0.24999085  1.0
  B  B6  1  0.81809833  0.50600003  0.74999085  1.0
  B  B7  1  0.31809833  0.00600003  0.75000915  1.0
  B  B8  1  0.50600003  0.18190167  0.25000915  1.0
  B  B9  1  0.00600003  0.68190167  0.24999085  1.0
  B  B10  1  0.18190167  0.49399997  0.74999085  1.0
  B  B11  1  0.68190167  0.99399997  0.75000915  1.0
  Os  Os12  1  0.87091613  0.48111330  0.24999091  1.0
  Os  Os13  1  0.37091613  0.98111330  0.25000909  1.0
  Os  Os14  1  0.48111330  0.12908387  0.75000909  1.0
  Os  Os15  1  0.98111330  0.62908387  0.74999091  1.0
  Os  Os16  1  0.12908387  0.51888670  0.24999091  1.0
  Os  Os17  1  0.62908387  0.01888670  0.25000909  1.0
  Os  Os18  1  0.51888670  0.87091613  0.75000909  1.0
  Os  Os19  1  0.01888670  0.37091613  0.74999091  1.0
