# generated using pymatgen
data_NaAgH2(SO2)2
_symmetry_space_group_name_H-M   'P 1'
_cell_length_a   7.74750681
_cell_length_b   9.41914140
_cell_length_c   7.90033936
_cell_angle_alpha   90.00000000
_cell_angle_beta   96.57167861
_cell_angle_gamma   90.00000000
_symmetry_Int_Tables_number   1
_chemical_formula_structural   NaAgH2(SO2)2
_chemical_formula_sum   'Na4 Ag4 H8 S8 O16'
_cell_volume   572.73808697
_cell_formula_units_Z   4
loop_
 _symmetry_equiv_pos_site_id
 _symmetry_equiv_pos_as_xyz
  1  'x, y, z'
loop_
 _atom_site_type_symbol
 _atom_site_label
 _atom_site_symmetry_multiplicity
 _atom_site_fract_x
 _atom_site_fract_y
 _atom_site_fract_z
 _atom_site_occupancy
  Na  Na0  1  0.33316022  0.98522980  0.80366955  1.0
  Na  Na1  1  0.33316022  0.01477020  0.30366955  1.0
  Na  Na2  1  0.83008045  0.93667938  0.30841849  1.0
  Na  Na3  1  0.83008045  0.06332062  0.80841849  1.0
  Ag  Ag4  1  0.37867805  0.56217822  0.85589961  1.0
  Ag  Ag5  1  0.37867805  0.43782178  0.35589961  1.0
  Ag  Ag6  1  0.87996425  0.55070283  0.62464034  1.0
  Ag  Ag7  1  0.87996425  0.44929717  0.12464034  1.0
  H  H8  1  0.00451004  0.82409249  0.62605431  1.0
  H  H9  1  0.00451004  0.17590751  0.12605431  1.0
  H  H10  1  0.12113571  0.21707285  0.98961316  1.0
  H  H11  1  0.12113571  0.78292715  0.48961316  1.0
  H  H12  1  0.48090325  0.79414806  0.09890138  1.0
  H  H13  1  0.48090325  0.20585194  0.59890138  1.0
  H  H14  1  0.62400979  0.80043221  0.97666126  1.0
  H  H15  1  0.62400979  0.19956779  0.47666126  1.0
  S  S16  1  0.03797892  0.79633043  -0.00357957  1.0
  S  S17  1  0.03797892  0.20366957  0.49642043  1.0
  S  S18  1  0.05988967  0.58389844  0.92070070  1.0
  S  S19  1  0.05988967  0.41610156  0.42070070  1.0
  S  S20  1  0.53585318  0.80080910  0.53554026  1.0
  S  S21  1  0.53585318  0.19919090  0.03554026  1.0
  S  S22  1  0.55155456  0.58385732  0.59762166  1.0
  S  S23  1  0.55155456  0.41614268  0.09762166  1.0
  O  O24  1  -0.00180304  0.79125912  0.50702390  1.0
  O  O25  1  -0.00180304  0.20874088  0.00702390  1.0
  O  O26  1  0.06244267  0.88542317  0.84395401  1.0
  O  O27  1  0.06244267  0.11457683  0.34395401  1.0
  O  O28  1  0.17333670  0.82359145  0.13915508  1.0
  O  O29  1  0.17333670  0.17640855  0.63915508  1.0
  O  O30  1  0.35507384  0.84797805  0.55377707  1.0
  O  O31  1  0.35507384  0.15202195  0.05377707  1.0
  O  O32  1  0.49750718  0.80607294  0.97888534  1.0
  O  O33  1  0.49750718  0.19392706  0.47888534  1.0
  O  O34  1  0.57107371  0.81794792  0.35542311  1.0
  O  O35  1  0.57107371  0.18205208  0.85542311  1.0
  O  O36  1  0.66421461  0.87566082  0.65560982  1.0
  O  O37  1  0.66421461  0.12433918  0.15560982  1.0
  O  O38  1  0.86063623  0.81764779  0.04623054  1.0
  O  O39  1  0.86063623  0.18235221  0.54623054  1.0
