# generated using pymatgen
data_ScAu4
_symmetry_space_group_name_H-M   'P 1'
_cell_length_a   5.11850077
_cell_length_b   5.11850077
_cell_length_c   5.11850077
_cell_angle_alpha   99.14132426
_cell_angle_beta   99.14132426
_cell_angle_gamma   133.02047062
_symmetry_Int_Tables_number   1
_chemical_formula_structural   ScAu4
_chemical_formula_sum   'Sc1 Au4'
_cell_volume   89.91715331
_cell_formula_units_Z   1
loop_
 _symmetry_equiv_pos_site_id
 _symmetry_equiv_pos_as_xyz
  1  'x, y, z'
loop_
 _atom_site_type_symbol
 _atom_site_label
 _atom_site_symmetry_multiplicity
 _atom_site_fract_x
 _atom_site_fract_y
 _atom_site_fract_z
 _atom_site_occupancy
  Sc  Sc0  1  0.00000000  0.00000000  0.00000000  1.0
  Au  Au1  1  0.79709810  0.60212025  0.39921835  1.0
  Au  Au2  1  0.60212025  0.20290190  0.80502215  1.0
  Au  Au3  1  1.20290190  1.39787975  1.60078165  1.0
  Au  Au4  1  0.39787975  0.79709810  1.19497785  1.0
