# generated using pymatgen
data_Rb2NiP4(HO2)8
_symmetry_space_group_name_H-M   'P 1'
_cell_length_a   7.44408972
_cell_length_b   7.08909819
_cell_length_c   7.75617603
_cell_angle_alpha   72.06367912
_cell_angle_beta   82.34665619
_cell_angle_gamma   87.06422402
_symmetry_Int_Tables_number   1
_chemical_formula_structural   Rb2NiP4(HO2)8
_chemical_formula_sum   'Rb2 Ni1 P4 H8 O16'
_cell_volume   385.92387252
_cell_formula_units_Z   1
loop_
 _symmetry_equiv_pos_site_id
 _symmetry_equiv_pos_as_xyz
  1  'x, y, z'
loop_
 _atom_site_type_symbol
 _atom_site_label
 _atom_site_symmetry_multiplicity
 _atom_site_fract_x
 _atom_site_fract_y
 _atom_site_fract_z
 _atom_site_occupancy
  Rb  Rb0  1  -0.28195194  -0.39875939  -0.20615875  1.0
  Rb  Rb1  1  -0.71804806  -0.60124061  -0.79384125  1.0
  Ni  Ni2  1  -0.50000000  0.00000000  0.00000000  1.0
  P  P3  1  -0.80031603  -0.74682920  -0.25348244  1.0
  P  P4  1  -0.19968397  -0.25317080  -0.74651756  1.0
  P  P5  1  -0.73887125  -0.15729219  -0.25770886  1.0
  P  P6  1  -0.26112875  -0.84270781  -0.74229114  1.0
  H  H7  1  -0.73638649  -0.43213544  -0.41495652  1.0
  H  H8  1  -0.26361351  -0.56786456  -0.58504348  1.0
  H  H9  1  -0.96663535  -0.23628331  -0.03564536  1.0
  H  H10  1  -0.03336465  -0.76371669  -0.96435464  1.0
  H  H11  1  -0.31775296  -0.87867687  -0.34623031  1.0
  H  H12  1  -0.68224704  -0.12132313  -0.65376969  1.0
  H  H13  1  -0.18254338  -0.88354326  -0.20244915  1.0
  H  H14  1  -0.81745662  -0.11645674  -0.79755085  1.0
  O  O15  1  -0.65287229  -0.75480415  -0.13320223  1.0
  O  O16  1  -0.34712771  -0.24519585  -0.86679777  1.0
  O  O17  1  -0.78047213  -0.56208400  -0.43082039  1.0
  O  O18  1  -0.21952787  -0.43791600  -0.56917961  1.0
  O  O19  1  -0.99496641  -0.76459883  -0.15721469  1.0
  O  O20  1  -0.00503359  -0.23540117  -0.84278531  1.0
  O  O21  1  -0.76863957  -0.92068681  -0.35282521  1.0
  O  O22  1  -0.23136043  -0.07931319  -0.64717479  1.0
  O  O23  1  -0.61357418  -0.18993489  -0.11081278  1.0
  O  O24  1  -0.38642582  -0.81006511  -0.88918722  1.0
  O  O25  1  -0.67282173  -0.23784724  -0.41575575  1.0
  O  O26  1  -0.32717827  -0.76215276  -0.58424425  1.0
  O  O27  1  -0.93198722  -0.24653951  -0.16748756  1.0
  O  O28  1  -0.06801278  -0.75346049  -0.83251244  1.0
  O  O29  1  -0.29192243  -0.94676005  -0.21962562  1.0
  O  O30  1  -0.70807757  -0.05323995  -0.78037438  1.0
