# generated using pymatgen
data_MoRh3
_symmetry_space_group_name_H-M   'P 1'
_cell_length_a   5.49791430
_cell_length_b   5.49791430
_cell_length_c   4.36647186
_cell_angle_alpha   90.00000000
_cell_angle_beta   90.00000000
_cell_angle_gamma   120.00000000
_symmetry_Int_Tables_number   1
_chemical_formula_structural   MoRh3
_chemical_formula_sum   'Mo2 Rh6'
_cell_volume   114.30289493
_cell_formula_units_Z   2
loop_
 _symmetry_equiv_pos_site_id
 _symmetry_equiv_pos_as_xyz
  1  'x, y, z'
loop_
 _atom_site_type_symbol
 _atom_site_label
 _atom_site_symmetry_multiplicity
 _atom_site_fract_x
 _atom_site_fract_y
 _atom_site_fract_z
 _atom_site_occupancy
  Mo  Mo0  1  0.33333333  0.66666667  0.75000000  1.0
  Mo  Mo1  1  0.66666667  0.33333333  0.25000000  1.0
  Rh  Rh2  1  0.16700943  0.83299057  0.25000000  1.0
  Rh  Rh3  1  0.16700943  0.33401886  0.25000000  1.0
  Rh  Rh4  1  0.83299057  0.16700943  0.75000000  1.0
  Rh  Rh5  1  0.83299057  0.66598114  0.75000000  1.0
  Rh  Rh6  1  0.66598114  0.83299057  0.25000000  1.0
  Rh  Rh7  1  0.33401886  0.16700943  0.75000000  1.0
