# generated using pymatgen
data_GeP2O9
_symmetry_space_group_name_H-M   'P 1'
_cell_length_a   8.45338438
_cell_length_b   4.90232377
_cell_length_c   20.37075319
_cell_angle_alpha   90.00000000
_cell_angle_beta   119.69950199
_cell_angle_gamma   90.00000000
_symmetry_Int_Tables_number   1
_chemical_formula_structural   GeP2O9
_chemical_formula_sum   'Ge4 P8 O36'
_cell_volume   733.29281413
_cell_formula_units_Z   4
loop_
 _symmetry_equiv_pos_site_id
 _symmetry_equiv_pos_as_xyz
  1  'x, y, z'
loop_
 _atom_site_type_symbol
 _atom_site_label
 _atom_site_symmetry_multiplicity
 _atom_site_fract_x
 _atom_site_fract_y
 _atom_site_fract_z
 _atom_site_occupancy
  O  O0  1  0.96428713  0.45753177  0.06376724  1.0
  O  O1  1  0.96428713  0.04246823  0.56376724  1.0
  O  O2  1  0.03571287  0.95753177  0.43623276  1.0
  O  O3  1  0.03571287  0.54246823  0.93623276  1.0
  O  O4  1  0.84417504  0.36095370  0.44019695  1.0
  O  O5  1  0.84417504  0.13904630  0.94019695  1.0
  O  O6  1  0.15582496  0.86095370  0.05980305  1.0
  O  O7  1  0.15582496  0.63904630  0.55980305  1.0
  O  O8  1  0.86636184  0.95530129  0.06842509  1.0
  O  O9  1  0.86636184  0.54469871  0.56842509  1.0
  O  O10  1  0.13363816  0.45530129  0.43157491  1.0
  O  O11  1  0.13363816  0.04469871  0.93157491  1.0
  O  O12  1  0.64653260  0.93749153  0.43843363  1.0
  O  O13  1  0.64653260  0.56250847  0.93843363  1.0
  O  O14  1  0.35346740  0.43749153  0.06156637  1.0
  O  O15  1  0.35346740  0.06250847  0.56156637  1.0
  O  O16  1  0.65846053  0.36399345  0.06800463  1.0
  O  O17  1  0.65846053  0.13600655  0.56800463  1.0
  O  O18  1  0.34153947  0.86399345  0.43199537  1.0
  O  O19  1  0.34153947  0.63600655  0.93199537  1.0
  O  O20  1  0.53692648  0.45120564  0.44278947  1.0
  O  O21  1  0.53692648  0.04879436  0.94278947  1.0
  O  O22  1  0.46307352  0.95120564  0.05721053  1.0
  O  O23  1  0.46307352  0.54879436  0.55721053  1.0
  O  O24  1  0.21110325  -0.05158551  0.21784964  1.0
  O  O25  1  0.21110325  0.55158551  0.71784964  1.0
  O  O26  1  0.78889675  0.44841449  0.28215036  1.0
  O  O27  1  0.78889675  1.05158551  0.78215036  1.0
  O  O28  1  0.61009235  0.19692631  0.17687142  1.0
  O  O29  1  0.61009235  0.30307369  0.67687142  1.0
  O  O30  1  0.38990765  0.69692631  0.32312858  1.0
  O  O31  1  0.38990765  0.80307369  0.82312858  1.0
  O  O32  1  0.85369599  0.22489560  0.31937478  1.0
  O  O33  1  0.85369599  0.27510440  0.81937478  1.0
  O  O34  1  0.14630401  0.72489560  0.18062522  1.0
  O  O35  1  0.14630401  0.77510440  0.68062522  1.0
  P  P36  1  0.98401318  0.25696384  0.41992076  1.0
  P  P37  1  0.98401318  0.24303616  0.91992076  1.0
  P  P38  1  0.01598682  0.75696384  0.08007924  1.0
  P  P39  1  0.01598682  0.74303616  0.58007924  1.0
  P  P40  1  0.52212148  0.24342769  0.09136645  1.0
  P  P41  1  0.52212148  0.25657231  0.59136645  1.0
  P  P42  1  0.47787852  0.74342769  0.40863355  1.0
  P  P43  1  0.47787852  0.75657231  0.90863355  1.0
  Ge  Ge44  1  0.73838974  0.26174264  0.00176886  1.0
  Ge  Ge45  1  0.73838974  0.23825736  0.50176886  1.0
  Ge  Ge46  1  0.26161026  0.76174264  0.49823114  1.0
  Ge  Ge47  1  0.26161026  0.73825736  0.99823114  1.0
