# generated using pymatgen
data_CaBiCO4F
_symmetry_space_group_name_H-M   'P 1'
_cell_length_a   4.55967870
_cell_length_b   3.47213203
_cell_length_c   13.36053501
_cell_angle_alpha   90.00000000
_cell_angle_beta   90.00000000
_cell_angle_gamma   90.00000000
_symmetry_Int_Tables_number   1
_chemical_formula_structural   CaBiCO4F
_chemical_formula_sum   'Ca2 Bi2 C2 O8 F2'
_cell_volume   211.52140423
_cell_formula_units_Z   2
loop_
 _symmetry_equiv_pos_site_id
 _symmetry_equiv_pos_as_xyz
  1  'x, y, z'
loop_
 _atom_site_type_symbol
 _atom_site_label
 _atom_site_symmetry_multiplicity
 _atom_site_fract_x
 _atom_site_fract_y
 _atom_site_fract_z
 _atom_site_occupancy
  F  F0  1  0.00000000  0.50000000  0.48166743  1.0
  F  F1  1  0.50000000  0.00000000  0.51833257  1.0
  C  C2  1  0.00000000  0.00000000  0.26216239  1.0
  C  C3  1  0.50000000  0.50000000  0.73783761  1.0
  Bi  Bi4  1  0.00000000  0.00000000  0.90346715  1.0
  Bi  Bi5  1  0.50000000  0.50000000  0.09653285  1.0
  O  O6  1  0.00000000  0.50000000  0.00525584  1.0
  O  O7  1  0.50000000  0.00000000  -0.00525584  1.0
  O  O8  1  0.00000000  0.00000000  0.16299130  1.0
  O  O9  1  0.50000000  0.50000000  0.83700870  1.0
  O  O10  1  0.75586179  0.00000000  0.30826730  1.0
  O  O11  1  0.25586179  0.50000000  0.69173270  1.0
  O  O12  1  0.74413821  0.50000000  0.69173270  1.0
  O  O13  1  0.24413821  0.00000000  0.30826730  1.0
  Ca  Ca14  1  0.00000000  0.00000000  0.59465183  1.0
  Ca  Ca15  1  0.50000000  0.50000000  0.40534817  1.0
