# generated using pymatgen
data_EuTlPS4
_symmetry_space_group_name_H-M   'P 1'
_cell_length_a   12.57416006
_cell_length_b   6.61489733
_cell_length_c   8.71107202
_cell_angle_alpha   90.00000000
_cell_angle_beta   90.00000000
_cell_angle_gamma   90.00000000
_symmetry_Int_Tables_number   1
_chemical_formula_structural   EuTlPS4
_chemical_formula_sum   'Eu4 Tl4 P4 S16'
_cell_volume   724.55890150
_cell_formula_units_Z   4
loop_
 _symmetry_equiv_pos_site_id
 _symmetry_equiv_pos_as_xyz
  1  'x, y, z'
loop_
 _atom_site_type_symbol
 _atom_site_label
 _atom_site_symmetry_multiplicity
 _atom_site_fract_x
 _atom_site_fract_y
 _atom_site_fract_z
 _atom_site_occupancy
  Eu  Eu0  1  0.13845947  0.75000000  0.60609318  1.0
  Eu  Eu1  1  0.63845947  0.75000000  0.89390682  1.0
  Eu  Eu2  1  0.86154053  0.25000000  0.39390682  1.0
  Eu  Eu3  1  0.36154053  0.25000000  0.10609318  1.0
  Tl  Tl4  1  0.10528753  0.75000000  0.12187542  1.0
  Tl  Tl5  1  0.60528753  0.75000000  0.37812458  1.0
  Tl  Tl6  1  0.89471247  0.25000000  0.87812458  1.0
  Tl  Tl7  1  0.39471247  0.25000000  0.62187542  1.0
  P  P8  1  0.35285016  0.75000000  0.87346503  1.0
  P  P9  1  0.85285016  0.75000000  0.62653497  1.0
  P  P10  1  0.64714984  0.25000000  0.12653497  1.0
  P  P11  1  0.14714984  0.25000000  0.37346503  1.0
  S  S12  1  0.25263051  0.99823660  0.86189257  1.0
  S  S13  1  0.25263051  0.50176340  0.86189257  1.0
  S  S14  1  0.75263051  0.99823660  0.63810743  1.0
  S  S15  1  0.75263051  0.50176340  0.63810743  1.0
  S  S16  1  0.74736949  0.49823660  0.13810743  1.0
  S  S17  1  0.74736949  0.00176340  0.13810743  1.0
  S  S18  1  0.24736949  0.49823660  0.36189257  1.0
  S  S19  1  0.24736949  0.00176340  0.36189257  1.0
  S  S20  1  0.45401617  0.75000000  0.68818473  1.0
  S  S21  1  0.95401617  0.75000000  0.81181527  1.0
  S  S22  1  0.54598383  0.25000000  0.31181527  1.0
  S  S23  1  0.04598383  0.25000000  0.18818473  1.0
  S  S24  1  0.43593545  0.75000000  0.07737683  1.0
  S  S25  1  0.93593545  0.75000000  0.42262317  1.0
  S  S26  1  0.56406455  0.25000000  0.92262317  1.0
  S  S27  1  0.06406455  0.25000000  0.57737683  1.0
