# generated using pymatgen
data_NaSr3SbO6
_symmetry_space_group_name_H-M   'P 1'
_cell_length_a   6.91672716
_cell_length_b   6.91672716
_cell_length_c   6.91672716
_cell_angle_alpha   91.16493811
_cell_angle_beta   91.16493811
_cell_angle_gamma   91.16493811
_symmetry_Int_Tables_number   1
_chemical_formula_structural   NaSr3SbO6
_chemical_formula_sum   'Na2 Sr6 Sb2 O12'
_cell_volume   330.69593039
_cell_formula_units_Z   2
loop_
 _symmetry_equiv_pos_site_id
 _symmetry_equiv_pos_as_xyz
  1  'x, y, z'
loop_
 _atom_site_type_symbol
 _atom_site_label
 _atom_site_symmetry_multiplicity
 _atom_site_fract_x
 _atom_site_fract_y
 _atom_site_fract_z
 _atom_site_occupancy
  Na  Na0  1  0.25000000  0.25000000  0.25000000  1.0
  Na  Na1  1  0.75000000  0.75000000  0.75000000  1.0
  Sr  Sr2  1  0.90074644  1.25000000  -0.40074644  1.0
  Sr  Sr3  1  1.40074644  0.09925356  -0.25000000  1.0
  Sr  Sr4  1  0.75000000  0.40074644  0.09925356  1.0
  Sr  Sr5  1  1.25000000  0.59925356  -0.09925356  1.0
  Sr  Sr6  1  1.09925356  -0.25000000  0.40074644  1.0
  Sr  Sr7  1  0.59925356  0.90074644  0.25000000  1.0
  Sb  Sb8  1  0.50000000  0.50000000  0.50000000  1.0
  Sb  Sb9  1  0.00000000  0.00000000  0.00000000  1.0
  O  O10  1  1.21906021  0.42773115  -0.44575965  1.0
  O  O11  1  0.71906021  1.05424035  -0.07226885  1.0
  O  O12  1  0.94575965  0.07226885  0.28093979  1.0
  O  O13  1  1.44575965  -0.21906021  0.57226885  1.0
  O  O14  1  1.57226885  0.44575965  -0.21906021  1.0
  O  O15  1  1.07226885  0.28093979  -0.05424035  1.0
  O  O16  1  0.78093979  0.57226885  0.44575965  1.0
  O  O17  1  1.28093979  -0.05424035  0.07226885  1.0
  O  O18  1  0.55424035  1.21906021  -0.57226885  1.0
  O  O19  1  1.05424035  0.92773115  -0.28093979  1.0
  O  O20  1  0.92773115  0.71906021  0.05424035  1.0
  O  O21  1  0.42773115  0.55424035  0.21906021  1.0
