# generated using pymatgen
data_Zn2SiO4
_symmetry_space_group_name_H-M   'P 1'
_cell_length_a   10.44116429
_cell_length_b   6.09096190
_cell_length_c   4.84079706
_cell_angle_alpha   90.00000000
_cell_angle_beta   90.00000000
_cell_angle_gamma   90.00000000
_symmetry_Int_Tables_number   1
_chemical_formula_structural   Zn2SiO4
_chemical_formula_sum   'Zn8 Si4 O16'
_cell_volume   307.85888229
_cell_formula_units_Z   4
loop_
 _symmetry_equiv_pos_site_id
 _symmetry_equiv_pos_as_xyz
  1  'x, y, z'
loop_
 _atom_site_type_symbol
 _atom_site_label
 _atom_site_symmetry_multiplicity
 _atom_site_fract_x
 _atom_site_fract_y
 _atom_site_fract_z
 _atom_site_occupancy
  Zn  Zn0  1  0.50000000  0.00000000  0.50000000  1.0
  Zn  Zn1  1  -0.00000000  0.50000000  -0.00000000  1.0
  Zn  Zn2  1  0.50000000  0.50000000  0.50000000  1.0
  Zn  Zn3  1  0.00000000  0.00000000  0.00000000  1.0
  Zn  Zn4  1  0.78053444  0.75000000  0.48518943  1.0
  Zn  Zn5  1  0.28053444  0.75000000  0.01481057  1.0
  Zn  Zn6  1  0.21946556  0.25000000  0.51481057  1.0
  Zn  Zn7  1  0.71946556  0.25000000  0.98518943  1.0
  Si  Si8  1  0.59588194  0.75000000  0.92659413  1.0
  Si  Si9  1  0.09588194  0.75000000  0.57340587  1.0
  Si  Si10  1  0.40411806  0.25000000  0.07340587  1.0
  Si  Si11  1  0.90411806  0.25000000  0.42659413  1.0
  O  O12  1  0.59341677  0.75000000  0.26505955  1.0
  O  O13  1  0.09341677  0.75000000  0.23494045  1.0
  O  O14  1  0.40658323  0.25000000  0.73494045  1.0
  O  O15  1  0.90658323  0.25000000  0.76505955  1.0
  O  O16  1  0.94903690  0.75000000  0.71716297  1.0
  O  O17  1  0.44903690  0.75000000  0.78283703  1.0
  O  O18  1  0.05096310  0.25000000  0.28283703  1.0
  O  O19  1  0.55096310  0.25000000  0.21716297  1.0
  O  O20  1  0.66429598  0.96675781  0.78108653  1.0
  O  O21  1  0.16429598  0.53324219  0.71891347  1.0
  O  O22  1  0.33570402  0.46675781  0.21891347  1.0
  O  O23  1  0.83570402  0.03324219  0.28108653  1.0
  O  O24  1  0.33570402  0.03324219  0.21891347  1.0
  O  O25  1  0.83570402  0.46675781  0.28108653  1.0
  O  O26  1  0.66429598  0.53324219  0.78108653  1.0
  O  O27  1  0.16429598  0.96675781  0.71891347  1.0
