# generated using pymatgen
data_PbSO3
_symmetry_space_group_name_H-M   'P 1'
_cell_length_a   8.05420144
_cell_length_b   5.58506675
_cell_length_c   6.92067808
_cell_angle_alpha   90.00000000
_cell_angle_beta   90.00000000
_cell_angle_gamma   90.00000000
_symmetry_Int_Tables_number   1
_chemical_formula_structural   PbSO3
_chemical_formula_sum   'Pb4 S4 O12'
_cell_volume   311.31461046
_cell_formula_units_Z   4
loop_
 _symmetry_equiv_pos_site_id
 _symmetry_equiv_pos_as_xyz
  1  'x, y, z'
loop_
 _atom_site_type_symbol
 _atom_site_label
 _atom_site_symmetry_multiplicity
 _atom_site_fract_x
 _atom_site_fract_y
 _atom_site_fract_z
 _atom_site_occupancy
  Pb  Pb0  1  0.31571259  0.75000000  0.14315662  1.0
  Pb  Pb1  1  0.81571259  0.75000000  0.35684338  1.0
  Pb  Pb2  1  0.68428741  0.25000000  0.85684338  1.0
  Pb  Pb3  1  0.18428741  0.25000000  0.64315662  1.0
  S  S4  1  0.46530644  0.75000000  0.64859854  1.0
  S  S5  1  0.96530644  0.75000000  0.85140146  1.0
  S  S6  1  0.53469356  0.25000000  0.35140146  1.0
  S  S7  1  0.03469356  0.25000000  0.14859854  1.0
  O  O8  1  0.43768289  0.96969133  0.78405718  1.0
  O  O9  1  0.43768289  0.53030867  0.78405718  1.0
  O  O10  1  0.93768289  0.96969133  0.71594282  1.0
  O  O11  1  0.93768289  0.53030867  0.71594282  1.0
  O  O12  1  0.56231711  0.46969133  0.21594282  1.0
  O  O13  1  0.56231711  0.03030867  0.21594282  1.0
  O  O14  1  0.06231711  0.46969133  0.28405718  1.0
  O  O15  1  0.06231711  0.03030867  0.28405718  1.0
  O  O16  1  0.31178667  0.75000000  0.51572452  1.0
  O  O17  1  0.81178667  0.75000000  0.98427548  1.0
  O  O18  1  0.68821333  0.25000000  0.48427548  1.0
  O  O19  1  0.18821333  0.25000000  0.01572452  1.0
