# generated using pymatgen
data_CsNO3
_symmetry_space_group_name_H-M   'P 1'
_cell_length_a   5.86108110
_cell_length_b   6.23285994
_cell_length_c   5.15526783
_cell_angle_alpha   90.00000000
_cell_angle_beta   90.00000000
_cell_angle_gamma   90.00000000
_symmetry_Int_Tables_number   1
_chemical_formula_structural   CsNO3
_chemical_formula_sum   'Cs2 N2 O6'
_cell_volume   188.32862333
_cell_formula_units_Z   2
loop_
 _symmetry_equiv_pos_site_id
 _symmetry_equiv_pos_as_xyz
  1  'x, y, z'
loop_
 _atom_site_type_symbol
 _atom_site_label
 _atom_site_symmetry_multiplicity
 _atom_site_fract_x
 _atom_site_fract_y
 _atom_site_fract_z
 _atom_site_occupancy
  Cs  Cs0  1  0.00000000  0.50000000  0.10135634  1.0
  Cs  Cs1  1  0.50000000  0.00000000  0.89864366  1.0
  N  N2  1  0.00000000  0.00000000  0.48934704  1.0
  N  N3  1  0.50000000  0.50000000  0.51065296  1.0
  O  O4  1  0.00000000  0.17582968  0.61162189  1.0
  O  O5  1  0.00000000  0.82417032  0.61162189  1.0
  O  O6  1  0.50000000  0.67582968  0.38837811  1.0
  O  O7  1  0.50000000  0.32417032  0.38837811  1.0
  O  O8  1  0.00000000  0.00000000  0.24325270  1.0
  O  O9  1  0.50000000  0.50000000  0.75674730  1.0
