# generated using pymatgen
data_Ti(SnO2)2
_symmetry_space_group_name_H-M   'P 1'
_cell_length_a   8.61173405
_cell_length_b   8.61173405
_cell_length_c   5.99640428
_cell_angle_alpha   90.00000000
_cell_angle_beta   90.00000000
_cell_angle_gamma   90.00000000
_symmetry_Int_Tables_number   1
_chemical_formula_structural   Ti(SnO2)2
_chemical_formula_sum   'Ti4 Sn8 O16'
_cell_volume   444.70511458
_cell_formula_units_Z   4
loop_
 _symmetry_equiv_pos_site_id
 _symmetry_equiv_pos_as_xyz
  1  'x, y, z'
loop_
 _atom_site_type_symbol
 _atom_site_label
 _atom_site_symmetry_multiplicity
 _atom_site_fract_x
 _atom_site_fract_y
 _atom_site_fract_z
 _atom_site_occupancy
  Ti  Ti0  1  0.50000000  0.00000000  0.75000000  1.0
  Ti  Ti1  1  0.50000000  0.00000000  0.25000000  1.0
  Ti  Ti2  1  0.00000000  0.50000000  0.75000000  1.0
  Ti  Ti3  1  0.00000000  0.50000000  0.25000000  1.0
  Sn  Sn4  1  0.33673864  0.64710238  0.00000000  1.0
  Sn  Sn5  1  0.83673864  0.85289762  0.00000000  1.0
  Sn  Sn6  1  0.35289762  0.33673864  0.50000000  1.0
  Sn  Sn7  1  0.85289762  0.16326136  0.50000000  1.0
  Sn  Sn8  1  0.66326136  0.35289762  0.00000000  1.0
  Sn  Sn9  1  0.16326136  0.14710238  0.00000000  1.0
  Sn  Sn10  1  0.64710238  0.66326136  0.50000000  1.0
  Sn  Sn11  1  0.14710238  0.83673864  0.50000000  1.0
  O  O12  1  0.38148674  0.90275675  0.00000000  1.0
  O  O13  1  0.88148674  0.59724325  0.00000000  1.0
  O  O14  1  0.09724325  0.38148674  0.50000000  1.0
  O  O15  1  0.59724325  0.11851326  0.50000000  1.0
  O  O16  1  0.61851326  0.09724325  0.00000000  1.0
  O  O17  1  0.11851326  0.40275675  0.00000000  1.0
  O  O18  1  0.90275675  0.61851326  0.50000000  1.0
  O  O19  1  0.40275675  0.88148674  0.50000000  1.0
  O  O20  1  0.33724761  0.16275239  0.75000000  1.0
  O  O21  1  0.33724761  0.16275239  0.25000000  1.0
  O  O22  1  0.83724761  0.33724761  0.75000000  1.0
  O  O23  1  0.83724761  0.33724761  0.25000000  1.0
  O  O24  1  0.66275239  0.83724761  0.75000000  1.0
  O  O25  1  0.66275239  0.83724761  0.25000000  1.0
  O  O26  1  0.16275239  0.66275239  0.75000000  1.0
  O  O27  1  0.16275239  0.66275239  0.25000000  1.0
