# generated using pymatgen
data_KTiP2O7
_symmetry_space_group_name_H-M   'P 1'
_cell_length_a   7.52063460
_cell_length_b   10.43224426
_cell_length_c   8.29651907
_cell_angle_alpha   90.00000000
_cell_angle_beta   106.67304031
_cell_angle_gamma   90.00000000
_symmetry_Int_Tables_number   1
_chemical_formula_structural   KTiP2O7
_chemical_formula_sum   'K4 Ti4 P8 O28'
_cell_volume   623.55453118
_cell_formula_units_Z   4
loop_
 _symmetry_equiv_pos_site_id
 _symmetry_equiv_pos_as_xyz
  1  'x, y, z'
loop_
 _atom_site_type_symbol
 _atom_site_label
 _atom_site_symmetry_multiplicity
 _atom_site_fract_x
 _atom_site_fract_y
 _atom_site_fract_z
 _atom_site_occupancy
  K  K0  1  0.81954535  0.82423125  0.44038338  1.0
  K  K1  1  0.81954535  0.67576875  0.94038338  1.0
  K  K2  1  0.18045465  0.32423125  0.05961662  1.0
  K  K3  1  0.18045465  0.17576875  0.55961662  1.0
  Ti  Ti4  1  0.76414089  0.39844769  0.24037926  1.0
  Ti  Ti5  1  0.76414089  0.10155231  0.74037926  1.0
  Ti  Ti6  1  0.23585911  0.89844769  0.25962074  1.0
  Ti  Ti7  1  0.23585911  0.60155231  0.75962074  1.0
  P  P8  1  0.86661335  0.09770908  0.17356762  1.0
  P  P9  1  0.86661335  0.40229092  0.67356762  1.0
  P  P10  1  0.13338665  0.59770908  0.32643238  1.0
  P  P11  1  0.13338665  0.90229092  0.82643238  1.0
  P  P12  1  0.55580652  0.13893253  0.30978797  1.0
  P  P13  1  0.55580652  0.36106747  0.80978797  1.0
  P  P14  1  0.44419348  0.63893253  0.19021203  1.0
  P  P15  1  0.44419348  0.86106747  0.69021203  1.0
  O  O16  1  0.00406448  0.49501020  0.22338039  1.0
  O  O17  1  0.00406448  0.00498980  0.72338039  1.0
  O  O18  1  0.99593552  0.99501020  0.27661961  1.0
  O  O19  1  0.99593552  0.50498980  0.77661961  1.0
  O  O20  1  0.92200035  0.23245070  0.24674495  1.0
  O  O21  1  0.92200035  0.26754930  0.74674495  1.0
  O  O22  1  0.07799965  0.73245070  0.25325505  1.0
  O  O23  1  0.07799965  0.76754930  0.75325505  1.0
  O  O24  1  0.85053071  0.40843262  0.48594340  1.0
  O  O25  1  0.85053071  0.09156738  0.98594340  1.0
  O  O26  1  0.14946929  0.90843262  0.01405660  1.0
  O  O27  1  0.14946929  0.59156738  0.51405660  1.0
  O  O28  1  0.67660719  0.11137479  0.49068882  1.0
  O  O29  1  0.67660719  0.38862521  0.99068882  1.0
  O  O30  1  0.32339281  0.61137479  0.00931118  1.0
  O  O31  1  0.32339281  0.88862521  0.50931118  1.0
  O  O32  1  0.66030429  0.06377397  0.18900362  1.0
  O  O33  1  0.66030429  0.43622603  0.68900362  1.0
  O  O34  1  0.33969571  0.56377397  0.31099638  1.0
  O  O35  1  0.33969571  0.93622603  0.81099638  1.0
  O  O36  1  0.54398878  0.28169380  0.26153640  1.0
  O  O37  1  0.54398878  0.21830620  0.76153640  1.0
  O  O38  1  0.45601122  0.78169380  0.23846360  1.0
  O  O39  1  0.45601122  0.71830620  0.73846360  1.0
  O  O40  1  0.36182469  0.08012499  0.27081611  1.0
  O  O41  1  0.36182469  0.41987501  0.77081611  1.0
  O  O42  1  0.63817531  0.58012499  0.22918389  1.0
  O  O43  1  0.63817531  0.91987501  0.72918389  1.0
