# generated using pymatgen
data_PbI2
_symmetry_space_group_name_H-M   'P 1'
_cell_length_a   4.66018568
_cell_length_b   4.66018568
_cell_length_c   37.53904206
_cell_angle_alpha   90.00000000
_cell_angle_beta   90.00000000
_cell_angle_gamma   120.00000000
_symmetry_Int_Tables_number   1
_chemical_formula_structural   PbI2
_chemical_formula_sum   'Pb5 I10'
_cell_volume   706.02529255
_cell_formula_units_Z   5
loop_
 _symmetry_equiv_pos_site_id
 _symmetry_equiv_pos_as_xyz
  1  'x, y, z'
loop_
 _atom_site_type_symbol
 _atom_site_label
 _atom_site_symmetry_multiplicity
 _atom_site_fract_x
 _atom_site_fract_y
 _atom_site_fract_z
 _atom_site_occupancy
  Pb  Pb0  1  0.00000000  0.00000000  0.05010622  1.0
  Pb  Pb1  1  0.00000000  0.00000000  0.24999027  1.0
  Pb  Pb2  1  0.00000000  0.00000000  0.44990074  1.0
  Pb  Pb3  1  0.66666667  0.33333333  0.65008233  1.0
  Pb  Pb4  1  0.66666667  0.33333333  0.84991555  1.0
  I  I5  1  0.00000000  0.00000000  0.69971314  1.0
  I  I6  1  0.00000000  0.00000000  0.89952428  1.0
  I  I7  1  0.66666667  0.33333333  0.09973452  1.0
  I  I8  1  0.66666667  0.33333333  0.29958683  1.0
  I  I9  1  0.66666667  0.33333333  0.49949994  1.0
  I  I10  1  0.33333333  0.66666667  0.00049318  1.0
  I  I11  1  0.33333333  0.66666667  0.20039748  1.0
  I  I12  1  0.33333333  0.66666667  0.40029047  1.0
  I  I13  1  0.33333333  0.66666667  0.60046626  1.0
  I  I14  1  0.33333333  0.66666667  0.80029877  1.0
