# generated using pymatgen
data_K2Na3TlO4
_symmetry_space_group_name_H-M   'P 1'
_cell_length_a   9.37901713
_cell_length_b   9.70840008
_cell_length_c   7.78849193
_cell_angle_alpha   90.00000000
_cell_angle_beta   90.00000000
_cell_angle_gamma   90.00000000
_symmetry_Int_Tables_number   1
_chemical_formula_structural   K2Na3TlO4
_chemical_formula_sum   'K8 Na12 Tl4 O16'
_cell_volume   709.18308426
_cell_formula_units_Z   4
loop_
 _symmetry_equiv_pos_site_id
 _symmetry_equiv_pos_as_xyz
  1  'x, y, z'
loop_
 _atom_site_type_symbol
 _atom_site_label
 _atom_site_symmetry_multiplicity
 _atom_site_fract_x
 _atom_site_fract_y
 _atom_site_fract_z
 _atom_site_occupancy
  K  K0  1  0.26381767  0.24934399  0.50000000  1.0
  K  K1  1  0.76381767  0.25065601  0.00000000  1.0
  K  K2  1  0.73618233  0.75065601  0.50000000  1.0
  K  K3  1  0.23618233  0.74934399  0.00000000  1.0
  K  K4  1  0.50000000  0.50000000  0.24771838  1.0
  K  K5  1  0.50000000  0.50000000  0.75228162  1.0
  K  K6  1  0.00000000  0.00000000  0.74771838  1.0
  K  K7  1  0.00000000  0.00000000  0.25228162  1.0
  Na  Na8  1  0.48290507  0.84899970  0.24965012  1.0
  Na  Na9  1  0.48290507  0.84899970  0.75034988  1.0
  Na  Na10  1  0.98290507  0.65100030  0.74965012  1.0
  Na  Na11  1  0.98290507  0.65100030  0.25034988  1.0
  Na  Na12  1  0.51709493  0.15100030  0.24965012  1.0
  Na  Na13  1  0.51709493  0.15100030  0.75034988  1.0
  Na  Na14  1  0.01709493  0.34899970  0.74965012  1.0
  Na  Na15  1  0.01709493  0.34899970  0.25034988  1.0
  Na  Na16  1  0.25865127  0.91520210  0.50000000  1.0
  Na  Na17  1  0.75865127  0.58479790  0.00000000  1.0
  Na  Na18  1  0.74134873  0.08479790  0.50000000  1.0
  Na  Na19  1  0.24134873  0.41520210  0.00000000  1.0
  Tl  Tl20  1  0.22687548  0.62074184  0.50000000  1.0
  Tl  Tl21  1  0.72687548  0.87925816  0.00000000  1.0
  Tl  Tl22  1  0.77312452  0.37925816  0.50000000  1.0
  Tl  Tl23  1  0.27312452  0.12074184  0.00000000  1.0
  O  O24  1  0.19906069  0.51671727  0.25455209  1.0
  O  O25  1  0.19906069  0.51671727  0.74544791  1.0
  O  O26  1  0.69906069  0.98328273  0.75455209  1.0
  O  O27  1  0.69906069  0.98328273  0.24544791  1.0
  O  O28  1  0.80093931  0.48328273  0.25455209  1.0
  O  O29  1  0.80093931  0.48328273  0.74544791  1.0
  O  O30  1  0.30093931  0.01671727  0.75455209  1.0
  O  O31  1  0.30093931  0.01671727  0.24544791  1.0
  O  O32  1  0.43902858  0.72264234  0.50000000  1.0
  O  O33  1  0.93902858  0.77735766  0.00000000  1.0
  O  O34  1  0.56097142  0.27735766  0.50000000  1.0
  O  O35  1  0.06097142  0.22264234  0.00000000  1.0
  O  O36  1  0.04773001  0.77734430  0.50000000  1.0
  O  O37  1  0.54773001  0.72265570  0.00000000  1.0
  O  O38  1  0.95226999  0.22265570  0.50000000  1.0
  O  O39  1  0.45226999  0.27734430  0.00000000  1.0
