# generated using pymatgen
data_CCl
_symmetry_space_group_name_H-M   'P 1'
_cell_length_a   8.12315931
_cell_length_b   4.83230357
_cell_length_c   16.97223723
_cell_angle_alpha   90.00000000
_cell_angle_beta   114.84599991
_cell_angle_gamma   90.00000000
_symmetry_Int_Tables_number   1
_chemical_formula_structural   CCl
_chemical_formula_sum   'C12 Cl12'
_cell_volume   604.55580763
_cell_formula_units_Z   12
loop_
 _symmetry_equiv_pos_site_id
 _symmetry_equiv_pos_as_xyz
  1  'x, y, z'
loop_
 _atom_site_type_symbol
 _atom_site_label
 _atom_site_symmetry_multiplicity
 _atom_site_fract_x
 _atom_site_fract_y
 _atom_site_fract_z
 _atom_site_occupancy
  C  C0  1  0.96030127  0.36751577  0.06374422  1.0
  C  C1  1  0.96030127  0.13248423  0.56374422  1.0
  C  C2  1  0.03969873  0.86751577  0.43625578  1.0
  C  C3  1  0.03969873  0.63248423  0.93625578  1.0
  C  C4  1  0.87050744  0.99638002  0.41309761  1.0
  C  C5  1  0.87050744  0.50361998  0.91309761  1.0
  C  C6  1  0.12949256  0.49638002  0.08690239  1.0
  C  C7  1  0.12949256  0.00361998  0.58690239  1.0
  C  C8  1  0.83095334  0.12901705  0.47685448  1.0
  C  C9  1  0.83095334  0.37098295  0.97685448  1.0
  C  C10  1  0.16904666  0.62901705  0.02314552  1.0
  C  C11  1  0.16904666  0.87098295  0.52314552  1.0
  Cl  Cl12  1  0.91188982  0.20625710  0.14180524  1.0
  Cl  Cl13  1  0.91188982  0.29374290  0.64180524  1.0
  Cl  Cl14  1  0.08811018  0.70625710  0.35819476  1.0
  Cl  Cl15  1  0.08811018  0.79374290  0.85819476  1.0
  Cl  Cl16  1  0.71185193  0.99135322  0.30708303  1.0
  Cl  Cl17  1  0.71185193  0.50864678  0.80708303  1.0
  Cl  Cl18  1  0.28814807  0.49135322  0.19291697  1.0
  Cl  Cl19  1  0.28814807  0.00864678  0.69291697  1.0
  Cl  Cl20  1  0.62435901  0.28737309  0.44852397  1.0
  Cl  Cl21  1  0.62435901  0.21262691  0.94852397  1.0
  Cl  Cl22  1  0.37564099  0.78737309  0.05147603  1.0
  Cl  Cl23  1  0.37564099  0.71262691  0.55147603  1.0
