# generated using pymatgen
data_Zr(CO3)2
_symmetry_space_group_name_H-M   'P 1'
_cell_length_a   9.12043807
_cell_length_b   9.12043807
_cell_length_c   9.12043807
_cell_angle_alpha   99.15534254
_cell_angle_beta   99.15534254
_cell_angle_gamma   132.98262215
_symmetry_Int_Tables_number   1
_chemical_formula_structural   Zr(CO3)2
_chemical_formula_sum   'Zr4 C8 O24'
_cell_volume   508.93989803
_cell_formula_units_Z   4
loop_
 _symmetry_equiv_pos_site_id
 _symmetry_equiv_pos_as_xyz
  1  'x, y, z'
loop_
 _atom_site_type_symbol
 _atom_site_label
 _atom_site_symmetry_multiplicity
 _atom_site_fract_x
 _atom_site_fract_y
 _atom_site_fract_z
 _atom_site_occupancy
  C  C0  1  1.33994773  1.13456727  0.68767848  1.0
  C  C1  1  0.55311121  0.34773075  0.68767848  1.0
  C  C2  1  1.13456727  0.44688879  0.79461954  1.0
  C  C3  1  1.34773075  0.66005227  0.79461954  1.0
  C  C4  1  1.44688879  1.65226925  1.31232152  1.0
  C  C5  1  0.66005227  0.86543273  1.31232152  1.0
  C  C6  1  0.65226925  1.33994773  1.20538046  1.0
  C  C7  1  0.86543273  1.55311121  1.20538046  1.0
  O  O8  1  1.16334747  1.06100923  0.59948087  1.0
  O  O9  1  0.53847164  0.43613340  0.59948087  1.0
  O  O10  1  1.06100923  0.46152836  0.89766176  1.0
  O  O11  1  1.43613340  0.83665253  0.89766176  1.0
  O  O12  1  1.46152836  1.56386660  1.40051913  1.0
  O  O13  1  0.83665253  0.93899077  1.40051913  1.0
  O  O14  1  0.56386660  1.16334747  1.10233824  1.0
  O  O15  1  0.93899077  1.53847164  1.10233824  1.0
  O  O16  1  1.05847209  1.27932463  1.69500321  1.0
  O  O17  1  1.41567858  1.63653112  1.69500321  1.0
  O  O18  1  1.27932463  1.58432142  1.22085254  1.0
  O  O19  1  0.63653112  0.94152791  1.22085254  1.0
  O  O20  1  0.58432142  0.36346888  0.30499679  1.0
  O  O21  1  0.94152791  0.72067537  0.30499679  1.0
  O  O22  1  1.36346888  1.05847209  0.77914746  1.0
  O  O23  1  0.72067537  0.41567858  0.77914746  1.0
  O  O24  1  0.92723996  0.82488624  1.75212620  1.0
  O  O25  1  0.82488624  1.07276004  0.89764628  1.0
  O  O26  1  0.07276004  0.17511376  0.24787380  1.0
  O  O27  1  1.17511376  0.92723996  1.10235372  1.0
  O  O28  1  0.95950931  0.62671337  0.58622268  1.0
  O  O29  1  0.62671337  0.04049069  0.66720406  1.0
  O  O30  1  1.04049069  1.37328663  1.41377732  1.0
  O  O31  1  0.37328663  0.95950931  1.33279594  1.0
  Zr  Zr32  1  0.81639225  0.69190150  0.50829375  1.0
  Zr  Zr33  1  0.69190150  0.18360775  0.87550926  1.0
  Zr  Zr34  1  1.18360775  1.30809850  1.49170625  1.0
  Zr  Zr35  1  0.30809850  0.81639225  1.12449074  1.0
