# generated using pymatgen
data_ZrO2
_symmetry_space_group_name_H-M   'P 1'
_cell_length_a   5.59573229
_cell_length_b   3.37358642
_cell_length_c   6.54455215
_cell_angle_alpha   90.00000000
_cell_angle_beta   90.00000000
_cell_angle_gamma   90.00000000
_symmetry_Int_Tables_number   1
_chemical_formula_structural   ZrO2
_chemical_formula_sum   'Zr4 O8'
_cell_volume   123.54600339
_cell_formula_units_Z   4
loop_
 _symmetry_equiv_pos_site_id
 _symmetry_equiv_pos_as_xyz
  1  'x, y, z'
loop_
 _atom_site_type_symbol
 _atom_site_label
 _atom_site_symmetry_multiplicity
 _atom_site_fract_x
 _atom_site_fract_y
 _atom_site_fract_z
 _atom_site_occupancy
  Zr  Zr0  1  0.74896231  0.75000000  0.39294829  1.0
  Zr  Zr1  1  0.24896231  0.75000000  0.10705171  1.0
  Zr  Zr2  1  0.25103769  0.25000000  0.60705171  1.0
  Zr  Zr3  1  0.75103769  0.25000000  0.89294829  1.0
  O  O4  1  0.97872852  0.75000000  0.65861120  1.0
  O  O5  1  0.47872852  0.75000000  0.84138880  1.0
  O  O6  1  0.02127148  0.25000000  0.34138880  1.0
  O  O7  1  0.52127148  0.25000000  0.15861120  1.0
  O  O8  1  0.86108063  0.75000000  0.07703246  1.0
  O  O9  1  0.36108063  0.75000000  0.42296754  1.0
  O  O10  1  0.13891937  0.25000000  0.92296754  1.0
  O  O11  1  0.63891937  0.25000000  0.57703246  1.0
