# generated using pymatgen
data_Bi2Se3
_symmetry_space_group_name_H-M   'P 1'
_cell_length_a   9.95390190
_cell_length_b   9.95390190
_cell_length_c   13.36389127
_cell_angle_alpha   90.00000000
_cell_angle_beta   90.00000000
_cell_angle_gamma   90.00000000
_symmetry_Int_Tables_number   1
_chemical_formula_structural   Bi2Se3
_chemical_formula_sum   'Bi16 Se24'
_cell_volume   1324.09652501
_cell_formula_units_Z   8
loop_
 _symmetry_equiv_pos_site_id
 _symmetry_equiv_pos_as_xyz
  1  'x, y, z'
loop_
 _atom_site_type_symbol
 _atom_site_label
 _atom_site_symmetry_multiplicity
 _atom_site_fract_x
 _atom_site_fract_y
 _atom_site_fract_z
 _atom_site_occupancy
  Bi  Bi0  1  0.00000000  0.00000000  0.23252138  1.0
  Bi  Bi1  1  0.50000000  0.50000000  0.73252138  1.0
  Bi  Bi2  1  0.50000000  0.50000000  0.26747862  1.0
  Bi  Bi3  1  0.00000000  0.00000000  0.76747862  1.0
  Bi  Bi4  1  0.00000000  0.50000000  0.28255376  1.0
  Bi  Bi5  1  0.00000000  0.50000000  0.78255376  1.0
  Bi  Bi6  1  0.50000000  0.00000000  0.21744624  1.0
  Bi  Bi7  1  0.50000000  0.00000000  0.71744624  1.0
  Bi  Bi8  1  0.26740433  0.73259567  0.00000000  1.0
  Bi  Bi9  1  0.73259567  0.73259567  0.00000000  1.0
  Bi  Bi10  1  0.26740433  0.26740433  0.00000000  1.0
  Bi  Bi11  1  0.73259567  0.26740433  -0.00000000  1.0
  Bi  Bi12  1  0.23259567  0.76740433  0.50000000  1.0
  Bi  Bi13  1  0.76740433  0.76740433  0.50000000  1.0
  Bi  Bi14  1  0.23259567  0.23259567  0.50000000  1.0
  Bi  Bi15  1  0.76740433  0.23259567  0.50000000  1.0
  Se  Se16  1  0.72756336  0.50000000  0.85786268  1.0
  Se  Se17  1  0.27243664  0.50000000  0.85786268  1.0
  Se  Se18  1  -0.00000000  0.22756336  0.35786268  1.0
  Se  Se19  1  0.00000000  0.77243664  0.35786268  1.0
  Se  Se20  1  0.77243664  -0.00000000  0.64213732  1.0
  Se  Se21  1  0.22756336  0.00000000  0.64213732  1.0
  Se  Se22  1  0.50000000  0.27243664  0.14213732  1.0
  Se  Se23  1  0.50000000  0.72756336  0.14213732  1.0
  Se  Se24  1  0.27167081  0.50000000  0.40780417  1.0
  Se  Se25  1  0.72832919  0.50000000  0.40780417  1.0
  Se  Se26  1  0.00000000  0.77167081  0.90780417  1.0
  Se  Se27  1  -0.00000000  0.22832919  0.90780417  1.0
  Se  Se28  1  0.22832919  -0.00000000  0.09219583  1.0
  Se  Se29  1  0.77167081  0.00000000  0.09219583  1.0
  Se  Se30  1  0.50000000  0.72832919  0.59219583  1.0
  Se  Se31  1  0.50000000  0.27167081  0.59219583  1.0
  Se  Se32  1  0.79504176  0.50000000  0.13275808  1.0
  Se  Se33  1  0.20495824  0.50000000  0.13275808  1.0
  Se  Se34  1  -0.00000000  0.29504176  0.63275808  1.0
  Se  Se35  1  0.00000000  0.70495824  0.63275808  1.0
  Se  Se36  1  0.70495824  -0.00000000  0.36724192  1.0
  Se  Se37  1  0.29504176  0.00000000  0.36724192  1.0
  Se  Se38  1  0.50000000  0.20495824  0.86724192  1.0
  Se  Se39  1  0.50000000  0.79504176  0.86724192  1.0
