# generated using pymatgen
data_Eu(SbS2)2
_symmetry_space_group_name_H-M   'P 1'
_cell_length_a   11.76443251
_cell_length_b   4.00394077
_cell_length_c   14.45720319
_cell_angle_alpha   90.00000000
_cell_angle_beta   90.00000000
_cell_angle_gamma   90.00000000
_symmetry_Int_Tables_number   1
_chemical_formula_structural   Eu(SbS2)2
_chemical_formula_sum   'Eu4 Sb8 S16'
_cell_volume   680.99341447
_cell_formula_units_Z   4
loop_
 _symmetry_equiv_pos_site_id
 _symmetry_equiv_pos_as_xyz
  1  'x, y, z'
loop_
 _atom_site_type_symbol
 _atom_site_label
 _atom_site_symmetry_multiplicity
 _atom_site_fract_x
 _atom_site_fract_y
 _atom_site_fract_z
 _atom_site_occupancy
  Eu  Eu0  1  0.72371591  0.75000000  0.65751075  1.0
  Eu  Eu1  1  0.22371591  0.75000000  0.84248925  1.0
  Eu  Eu2  1  0.27628409  0.25000000  0.34248925  1.0
  Eu  Eu3  1  0.77628409  0.25000000  0.15751075  1.0
  Sb  Sb4  1  0.93626353  0.75000000  0.39063346  1.0
  Sb  Sb5  1  0.43626353  0.75000000  0.10936654  1.0
  Sb  Sb6  1  0.06373647  0.25000000  0.60936654  1.0
  Sb  Sb7  1  0.56373647  0.25000000  0.89063346  1.0
  Sb  Sb8  1  0.37406037  0.75000000  0.57183077  1.0
  Sb  Sb9  1  0.87406037  0.75000000  0.92816923  1.0
  Sb  Sb10  1  0.62593963  0.25000000  0.42816923  1.0
  Sb  Sb11  1  0.12593963  0.25000000  0.07183077  1.0
  S  S12  1  0.98431741  0.75000000  0.70630727  1.0
  S  S13  1  0.48431741  0.75000000  0.79369273  1.0
  S  S14  1  0.01568259  0.25000000  0.29369273  1.0
  S  S15  1  0.51568259  0.25000000  0.20630727  1.0
  S  S16  1  0.94853314  0.75000000  0.09322083  1.0
  S  S17  1  0.44853314  0.75000000  0.40677917  1.0
  S  S18  1  0.05146686  0.25000000  0.90677917  1.0
  S  S19  1  0.55146686  0.25000000  0.59322083  1.0
  S  S20  1  0.75185150  0.75000000  0.30462351  1.0
  S  S21  1  0.25185150  0.75000000  0.19537649  1.0
  S  S22  1  0.24814851  0.25000000  0.69537649  1.0
  S  S23  1  0.74814851  0.25000000  0.80462351  1.0
  S  S24  1  0.68509752  0.75000000  0.02016436  1.0
  S  S25  1  0.18509752  0.75000000  0.47983564  1.0
  S  S26  1  0.31490248  0.25000000  0.97983564  1.0
  S  S27  1  0.81490248  0.25000000  0.52016436  1.0
