# generated using pymatgen
data_Ni3H12C10NO6
_symmetry_space_group_name_H-M   'P 1'
_cell_length_a   11.05284290
_cell_length_b   11.05284290
_cell_length_c   7.84582829
_cell_angle_alpha   90.00000000
_cell_angle_beta   90.00000000
_cell_angle_gamma   120.00000000
_symmetry_Int_Tables_number   1
_chemical_formula_structural   Ni3H12C10NO6
_chemical_formula_sum   'Ni6 H24 C20 N2 O12'
_cell_volume   830.07517463
_cell_formula_units_Z   2
loop_
 _symmetry_equiv_pos_site_id
 _symmetry_equiv_pos_as_xyz
  1  'x, y, z'
loop_
 _atom_site_type_symbol
 _atom_site_label
 _atom_site_symmetry_multiplicity
 _atom_site_fract_x
 _atom_site_fract_y
 _atom_site_fract_z
 _atom_site_occupancy
  Ni  Ni0  1  0.13668756  0.11110324  0.84629346  1.0
  Ni  Ni1  1  0.97441568  0.86331244  0.84629346  1.0
  Ni  Ni2  1  0.88889676  0.02558432  0.84629346  1.0
  Ni  Ni3  1  0.86331244  0.88889676  0.15370654  1.0
  Ni  Ni4  1  0.02558432  0.13668756  0.15370654  1.0
  Ni  Ni5  1  0.11110324  0.97441568  0.15370654  1.0
  H  H6  1  0.24957733  0.56502234  0.83105728  1.0
  H  H7  1  0.31544500  0.75042267  0.83105728  1.0
  H  H8  1  0.43497766  0.68455500  0.83105728  1.0
  H  H9  1  0.75042267  0.43497766  0.16894272  1.0
  H  H10  1  0.68455500  0.24957733  0.16894272  1.0
  H  H11  1  0.56502234  0.31544500  0.16894272  1.0
  H  H12  1  0.45971378  0.57347651  0.58320526  1.0
  H  H13  1  0.11376273  0.54028622  0.58320526  1.0
  H  H14  1  0.42652349  0.88623727  0.58320526  1.0
  H  H15  1  0.54028622  0.42652349  0.41679474  1.0
  H  H16  1  0.88623727  0.45971378  0.41679474  1.0
  H  H17  1  0.57347651  0.11376273  0.41679474  1.0
  H  H18  1  0.36279570  0.55696632  0.39235054  1.0
  H  H19  1  0.19417062  0.63720430  0.39235054  1.0
  H  H20  1  0.44303368  0.80582938  0.39235054  1.0
  H  H21  1  0.63720430  0.44303368  0.60764946  1.0
  H  H22  1  0.80582938  0.36279570  0.60764946  1.0
  H  H23  1  0.55696632  0.19417062  0.60764946  1.0
  H  H24  1  0.27430389  0.45282049  0.57581200  1.0
  H  H25  1  0.17851660  0.72569611  0.57581200  1.0
  H  H26  1  0.54717951  0.82148340  0.57581200  1.0
  H  H27  1  0.72569611  0.54717951  0.42418800  1.0
  H  H28  1  0.82148340  0.27430389  0.42418800  1.0
  H  H29  1  0.45282049  0.17851660  0.42418800  1.0
  C  C30  1  0.03779396  0.20093651  0.77585586  1.0
  C  C31  1  0.16314255  0.96220604  0.77585586  1.0
  C  C32  1  0.79906349  0.83685745  0.77585586  1.0
  C  C33  1  0.96220604  0.79906349  0.22414414  1.0
  C  C34  1  0.83685745  0.03779396  0.22414414  1.0
  C  C35  1  0.20093651  0.16314255  0.22414414  1.0
  C  C36  1  0.30988803  0.24677314  0.83786280  1.0
  C  C37  1  0.93688512  0.69011197  0.83786280  1.0
  C  C38  1  0.75322686  0.06311488  0.83786280  1.0
  C  C39  1  0.69011197  0.75322686  0.16213720  1.0
  C  C40  1  0.06311488  0.30988803  0.16213720  1.0
  C  C41  1  0.24677314  0.93688512  0.16213720  1.0
  C  C42  1  0.33333333  0.66666667  0.78698027  1.0
  C  C43  1  0.66666667  0.33333333  0.21301973  1.0
  C  C44  1  0.35942327  0.55357339  0.53174555  1.0
  C  C45  1  0.19415012  0.64057673  0.53174555  1.0
  C  C46  1  0.44642661  0.80584988  0.53174555  1.0
  C  C47  1  0.64057673  0.44642661  0.46825445  1.0
  C  C48  1  0.80584988  0.35942327  0.46825445  1.0
  C  C49  1  0.55357339  0.19415012  0.46825445  1.0
  N  N50  1  0.33333333  0.66666667  0.59529038  1.0
  N  N51  1  0.66666667  0.33333333  0.40470962  1.0
  O  O52  1  0.05696916  0.30743591  0.71420017  1.0
  O  O53  1  0.25046674  0.94303084  0.71420017  1.0
  O  O54  1  0.69256409  0.74953326  0.71420017  1.0
  O  O55  1  0.94303084  0.69256409  0.28579983  1.0
  O  O56  1  0.74953326  0.05696916  0.28579983  1.0
  O  O57  1  0.30743591  0.25046674  0.28579983  1.0
  O  O58  1  0.42659550  0.33479657  0.83687153  1.0
  O  O59  1  0.90820107  0.57340450  0.83687153  1.0
  O  O60  1  0.66520343  0.09179893  0.83687153  1.0
  O  O61  1  0.57340450  0.66520343  0.16312847  1.0
  O  O62  1  0.09179893  0.42659550  0.16312847  1.0
  O  O63  1  0.33479657  0.90820107  0.16312847  1.0
