# generated using pymatgen
data_SiO2
_symmetry_space_group_name_H-M   'P 1'
_cell_length_a   5.09250543
_cell_length_b   5.09250543
_cell_length_c   7.11602424
_cell_angle_alpha   90.00000000
_cell_angle_beta   90.00000000
_cell_angle_gamma   90.00000000
_symmetry_Int_Tables_number   1
_chemical_formula_structural   SiO2
_chemical_formula_sum   'Si4 O8'
_cell_volume   184.54420838
_cell_formula_units_Z   4
loop_
 _symmetry_equiv_pos_site_id
 _symmetry_equiv_pos_as_xyz
  1  'x, y, z'
loop_
 _atom_site_type_symbol
 _atom_site_label
 _atom_site_symmetry_multiplicity
 _atom_site_fract_x
 _atom_site_fract_y
 _atom_site_fract_z
 _atom_site_occupancy
  Si  Si0  1  0.20663150  0.79336850  0.25000000  1.0
  Si  Si1  1  0.70663150  0.70663150  0.50000000  1.0
  Si  Si2  1  0.79336850  0.20663150  0.75000000  1.0
  Si  Si3  1  0.29336850  0.29336850  0.00000000  1.0
  O  O4  1  0.25854041  0.59233817  0.07639197  1.0
  O  O5  1  0.75854041  0.90766183  0.67360803  1.0
  O  O6  1  0.40766183  0.74145959  0.42360803  1.0
  O  O7  1  0.90766183  0.75854041  0.32639197  1.0
  O  O8  1  0.74145959  0.40766183  0.57639197  1.0
  O  O9  1  0.24145959  0.09233817  0.17360803  1.0
  O  O10  1  0.59233817  0.25854041  0.92360803  1.0
  O  O11  1  0.09233817  0.24145959  0.82639197  1.0
