# generated using pymatgen
data_Ga(IO3)3
_symmetry_space_group_name_H-M   'P 1'
_cell_length_a   9.26153306
_cell_length_b   9.26153306
_cell_length_c   5.30431873
_cell_angle_alpha   90.00000000
_cell_angle_beta   90.00000000
_cell_angle_gamma   120.00000000
_symmetry_Int_Tables_number   1
_chemical_formula_structural   Ga(IO3)3
_chemical_formula_sum   'Ga2 I6 O18'
_cell_volume   394.02702182
_cell_formula_units_Z   2
loop_
 _symmetry_equiv_pos_site_id
 _symmetry_equiv_pos_as_xyz
  1  'x, y, z'
loop_
 _atom_site_type_symbol
 _atom_site_label
 _atom_site_symmetry_multiplicity
 _atom_site_fract_x
 _atom_site_fract_y
 _atom_site_fract_z
 _atom_site_occupancy
  Ga  Ga0  1  0.33333333  0.66666667  -0.01724754  1.0
  Ga  Ga1  1  0.66666667  0.33333333  0.48275246  1.0
  I  I2  1  0.31811240  0.97587856  0.36430024  1.0
  I  I3  1  0.97587856  0.65776616  0.86430024  1.0
  I  I4  1  0.65776616  0.68188760  0.36430024  1.0
  I  I5  1  0.02412144  0.34223384  0.36430024  1.0
  I  I6  1  0.68188760  0.02412144  0.86430024  1.0
  I  I7  1  0.34223384  0.31811240  0.86430024  1.0
  O  O8  1  0.15174130  0.92940167  0.12992539  1.0
  O  O9  1  0.92940167  0.77766036  0.62992539  1.0
  O  O10  1  0.77766036  0.84825870  0.12992539  1.0
  O  O11  1  0.07059833  0.22233964  0.12992539  1.0
  O  O12  1  0.84825870  0.07059833  0.62992539  1.0
  O  O13  1  0.22233964  0.15174130  0.62992539  1.0
  O  O14  1  0.43310267  0.87546394  0.19196600  1.0
  O  O15  1  0.87546394  0.44236128  0.69196600  1.0
  O  O16  1  0.44236128  0.56689733  0.19196600  1.0
  O  O17  1  0.12453606  0.55763872  0.19196600  1.0
  O  O18  1  0.56689733  0.12453606  0.69196600  1.0
  O  O19  1  0.55763872  0.43310267  0.69196600  1.0
  O  O20  1  0.72102547  0.52491655  0.24995755  1.0
  O  O21  1  0.52491655  0.80389108  0.74995755  1.0
  O  O22  1  0.80389108  0.27897453  0.24995755  1.0
  O  O23  1  0.47508345  0.19610892  0.24995755  1.0
  O  O24  1  0.27897453  0.47508345  0.74995755  1.0
  O  O25  1  0.19610892  0.72102547  0.74995755  1.0
