# generated using pymatgen
data_SmSbTe
_symmetry_space_group_name_H-M   'P 1'
_cell_length_a   4.38447902
_cell_length_b   4.38447902
_cell_length_c   9.43016052
_cell_angle_alpha   90.00000000
_cell_angle_beta   90.00000000
_cell_angle_gamma   90.00000000
_symmetry_Int_Tables_number   1
_chemical_formula_structural   SmSbTe
_chemical_formula_sum   'Sm2 Sb2 Te2'
_cell_volume   181.28216434
_cell_formula_units_Z   2
loop_
 _symmetry_equiv_pos_site_id
 _symmetry_equiv_pos_as_xyz
  1  'x, y, z'
loop_
 _atom_site_type_symbol
 _atom_site_label
 _atom_site_symmetry_multiplicity
 _atom_site_fract_x
 _atom_site_fract_y
 _atom_site_fract_z
 _atom_site_occupancy
  Sm  Sm0  1  0.00000000  0.50000000  0.71611839  1.0
  Sm  Sm1  1  0.50000000  0.00000000  0.28388161  1.0
  Sb  Sb2  1  0.00000000  0.00000000  0.00000000  1.0
  Sb  Sb3  1  0.50000000  0.50000000  0.00000000  1.0
  Te  Te4  1  0.00000000  0.50000000  0.36392670  1.0
  Te  Te5  1  0.50000000  0.00000000  0.63607330  1.0
