# generated using pymatgen
data_Cs7NaSi8
_symmetry_space_group_name_H-M   'P 1'
_cell_length_a   13.61261083
_cell_length_b   13.61261083
_cell_length_c   13.61261083
_cell_angle_alpha   90.00000000
_cell_angle_beta   90.00000000
_cell_angle_gamma   90.00000000
_symmetry_Int_Tables_number   1
_chemical_formula_structural   Cs7NaSi8
_chemical_formula_sum   'Cs28 Na4 Si32'
_cell_volume   2522.45998896
_cell_formula_units_Z   4
loop_
 _symmetry_equiv_pos_site_id
 _symmetry_equiv_pos_as_xyz
  1  'x, y, z'
loop_
 _atom_site_type_symbol
 _atom_site_label
 _atom_site_symmetry_multiplicity
 _atom_site_fract_x
 _atom_site_fract_y
 _atom_site_fract_z
 _atom_site_occupancy
  Cs  Cs0  1  0.31082798  0.54230765  0.77283578  1.0
  Cs  Cs1  1  0.31082798  0.95769235  0.27283578  1.0
  Cs  Cs2  1  0.81082798  0.54230765  0.72716422  1.0
  Cs  Cs3  1  0.81082798  0.95769235  0.22716422  1.0
  Cs  Cs4  1  0.04230765  0.72716422  0.68917202  1.0
  Cs  Cs5  1  0.04230765  0.77283578  0.18917202  1.0
  Cs  Cs6  1  0.54230765  0.72716422  0.81082798  1.0
  Cs  Cs7  1  0.54230765  0.77283578  0.31082798  1.0
  Cs  Cs8  1  0.22716422  0.81082798  0.95769235  1.0
  Cs  Cs9  1  0.22716422  0.68917202  0.45769235  1.0
  Cs  Cs10  1  0.72716422  0.81082798  0.54230765  1.0
  Cs  Cs11  1  0.72716422  0.68917202  0.04230765  1.0
  Cs  Cs12  1  0.68917202  0.04230765  0.72716422  1.0
  Cs  Cs13  1  0.68917202  0.45769235  0.22716422  1.0
  Cs  Cs14  1  0.18917202  0.04230765  0.77283578  1.0
  Cs  Cs15  1  0.18917202  0.45769235  0.27283578  1.0
  Cs  Cs16  1  0.95769235  0.22716422  0.81082798  1.0
  Cs  Cs17  1  0.95769235  0.27283578  0.31082798  1.0
  Cs  Cs18  1  0.45769235  0.22716422  0.68917202  1.0
  Cs  Cs19  1  0.45769235  0.27283578  0.18917202  1.0
  Cs  Cs20  1  0.77283578  0.31082798  0.54230765  1.0
  Cs  Cs21  1  0.77283578  0.18917202  0.04230765  1.0
  Cs  Cs22  1  0.27283578  0.31082798  0.95769235  1.0
  Cs  Cs23  1  0.27283578  0.18917202  0.45769235  1.0
  Cs  Cs24  1  0.00000000  0.50000000  0.00000000  1.0
  Cs  Cs25  1  0.00000000  0.00000000  0.50000000  1.0
  Cs  Cs26  1  0.50000000  0.50000000  0.50000000  1.0
  Cs  Cs27  1  0.50000000  0.00000000  0.00000000  1.0
  Na  Na28  1  0.50000000  0.00000000  0.50000000  1.0
  Na  Na29  1  0.50000000  0.50000000  0.00000000  1.0
  Na  Na30  1  0.00000000  0.00000000  0.00000000  1.0
  Na  Na31  1  0.00000000  0.50000000  0.50000000  1.0
  Si  Si32  1  0.43832662  0.80312469  0.57624354  1.0
  Si  Si33  1  0.43832662  0.69687531  0.07624354  1.0
  Si  Si34  1  0.93832662  0.80312469  0.92375646  1.0
  Si  Si35  1  0.93832662  0.69687531  0.42375646  1.0
  Si  Si36  1  0.30312469  0.92375646  0.56167338  1.0
  Si  Si37  1  0.30312469  0.57624354  0.06167338  1.0
  Si  Si38  1  0.80312469  0.92375646  0.93832662  1.0
  Si  Si39  1  0.80312469  0.57624354  0.43832662  1.0
  Si  Si40  1  0.42375646  0.93832662  0.69687531  1.0
  Si  Si41  1  0.42375646  0.56167338  0.19687531  1.0
  Si  Si42  1  0.92375646  0.93832662  0.80312469  1.0
  Si  Si43  1  0.92375646  0.56167338  0.30312469  1.0
  Si  Si44  1  0.56167338  0.30312469  0.92375646  1.0
  Si  Si45  1  0.56167338  0.19687531  0.42375646  1.0
  Si  Si46  1  0.06167338  0.30312469  0.57624354  1.0
  Si  Si47  1  0.06167338  0.19687531  0.07624354  1.0
  Si  Si48  1  0.69687531  0.42375646  0.93832662  1.0
  Si  Si49  1  0.69687531  0.07624354  0.43832662  1.0
  Si  Si50  1  0.19687531  0.42375646  0.56167338  1.0
  Si  Si51  1  0.19687531  0.07624354  0.06167338  1.0
  Si  Si52  1  0.57624354  0.43832662  0.80312469  1.0
  Si  Si53  1  0.57624354  0.06167338  0.30312469  1.0
  Si  Si54  1  0.07624354  0.43832662  0.69687531  1.0
  Si  Si55  1  0.07624354  0.06167338  0.19687531  1.0
  Si  Si56  1  0.30605506  0.80605506  0.69394494  1.0
  Si  Si57  1  0.30605506  0.69394494  0.19394494  1.0
  Si  Si58  1  0.80605506  0.80605506  0.80605506  1.0
  Si  Si59  1  0.80605506  0.69394494  0.30605506  1.0
  Si  Si60  1  0.69394494  0.30605506  0.80605506  1.0
  Si  Si61  1  0.69394494  0.19394494  0.30605506  1.0
  Si  Si62  1  0.19394494  0.30605506  0.69394494  1.0
  Si  Si63  1  0.19394494  0.19394494  0.19394494  1.0
