# generated using pymatgen
data_Ca2MnFeO6
_symmetry_space_group_name_H-M   'P 1'
_cell_length_a   7.52641523
_cell_length_b   7.50539415
_cell_length_c   7.52945208
_cell_angle_alpha   90.00000000
_cell_angle_beta   90.64099307
_cell_angle_gamma   90.00000000
_symmetry_Int_Tables_number   1
_chemical_formula_structural   Ca2MnFeO6
_chemical_formula_sum   'Ca8 Mn4 Fe4 O24'
_cell_volume   425.30244000
_cell_formula_units_Z   4
loop_
 _symmetry_equiv_pos_site_id
 _symmetry_equiv_pos_as_xyz
  1  'x, y, z'
loop_
 _atom_site_type_symbol
 _atom_site_label
 _atom_site_symmetry_multiplicity
 _atom_site_fract_x
 _atom_site_fract_y
 _atom_site_fract_z
 _atom_site_occupancy
  Fe  Fe0  1  0.50000000  0.00000000  0.50000000  1.0
  Fe  Fe1  1  0.50000000  0.50000000  0.50000000  1.0
  Fe  Fe2  1  0.50000000  0.00000000  0.00000000  1.0
  Fe  Fe3  1  0.50000000  0.50000000  0.00000000  1.0
  Mn  Mn4  1  0.00000000  0.00000000  0.50000000  1.0
  Mn  Mn5  1  0.00000000  0.50000000  0.50000000  1.0
  Mn  Mn6  1  0.00000000  0.00000000  0.00000000  1.0
  Mn  Mn7  1  0.00000000  0.50000000  0.00000000  1.0
  O  O8  1  0.95981789  0.45978007  0.74940227  1.0
  O  O9  1  0.95981789  0.04021993  0.74940227  1.0
  O  O10  1  0.04018211  0.95978007  0.25059773  1.0
  O  O11  1  0.04018211  0.54021993  0.25059773  1.0
  O  O12  1  0.24937856  0.96239186  0.96071503  1.0
  O  O13  1  0.24937856  0.53760814  0.96071503  1.0
  O  O14  1  0.75062144  0.46239186  0.03928497  1.0
  O  O15  1  0.75062144  0.03760814  0.03928497  1.0
  O  O16  1  0.95470530  0.75000000  0.96911309  1.0
  O  O17  1  0.04529470  0.25000000  0.03088691  1.0
  O  O18  1  0.02807132  0.75000000  0.54674056  1.0
  O  O19  1  0.97192868  0.25000000  0.45325944  1.0
  O  O20  1  0.53802870  0.96896432  0.75016097  1.0
  O  O21  1  0.53802870  0.53103568  0.75016097  1.0
  O  O22  1  0.46197130  0.46896432  0.24983903  1.0
  O  O23  1  0.46197130  0.03103568  0.24983903  1.0
  O  O24  1  0.46080964  0.75000000  0.47568888  1.0
  O  O25  1  0.53919036  0.25000000  0.52431112  1.0
  O  O26  1  0.52938755  0.75000000  0.03479016  1.0
  O  O27  1  0.47061245  0.25000000  0.96520984  1.0
  O  O28  1  0.74961902  0.96332930  0.46077917  1.0
  O  O29  1  0.74961902  0.53667070  0.46077917  1.0
  O  O30  1  0.25038098  0.46332930  0.53922083  1.0
  O  O31  1  0.25038098  0.03667070  0.53922083  1.0
  Ca  Ca32  1  0.77482666  0.75000000  0.23201551  1.0
  Ca  Ca33  1  0.22517334  0.25000000  0.76798449  1.0
  Ca  Ca34  1  0.76493576  0.75000000  0.72432323  1.0
  Ca  Ca35  1  0.23506424  0.25000000  0.27567677  1.0
  Ca  Ca36  1  0.27473725  0.75000000  0.73377962  1.0
  Ca  Ca37  1  0.72526275  0.25000000  0.26622038  1.0
  Ca  Ca38  1  0.26859859  0.75000000  0.22575612  1.0
  Ca  Ca39  1  0.73140141  0.25000000  0.77424388  1.0
