# generated using pymatgen
data_Sr3NiPbO6
_symmetry_space_group_name_H-M   'P 1'
_cell_length_a   6.82970076
_cell_length_b   6.82970076
_cell_length_c   6.82970076
_cell_angle_alpha   91.11019712
_cell_angle_beta   91.11019712
_cell_angle_gamma   91.11019712
_symmetry_Int_Tables_number   1
_chemical_formula_structural   Sr3NiPbO6
_chemical_formula_sum   'Sr6 Ni2 Pb2 O12'
_cell_volume   318.38835260
_cell_formula_units_Z   2
loop_
 _symmetry_equiv_pos_site_id
 _symmetry_equiv_pos_as_xyz
  1  'x, y, z'
loop_
 _atom_site_type_symbol
 _atom_site_label
 _atom_site_symmetry_multiplicity
 _atom_site_fract_x
 _atom_site_fract_y
 _atom_site_fract_z
 _atom_site_occupancy
  Sr  Sr0  1  0.87817085  1.25000000  -0.37817085  1.0
  Sr  Sr1  1  1.37817085  0.12182915  -0.25000000  1.0
  Sr  Sr2  1  0.75000000  0.37817085  0.12182915  1.0
  Sr  Sr3  1  1.25000000  0.62182915  -0.12182915  1.0
  Sr  Sr4  1  1.12182915  -0.25000000  0.37817085  1.0
  Sr  Sr5  1  0.62182915  0.87817085  0.25000000  1.0
  Ni  Ni6  1  0.50000000  0.50000000  0.50000000  1.0
  Ni  Ni7  1  -0.00000000  -0.00000000  -0.00000000  1.0
  Pb  Pb8  1  0.25000000  0.25000000  0.25000000  1.0
  Pb  Pb9  1  0.75000000  0.75000000  0.75000000  1.0
  O  O10  1  1.20874402  0.40592585  -0.45719405  1.0
  O  O11  1  0.70874402  1.04280595  -0.09407415  1.0
  O  O12  1  0.95719405  0.09407415  0.29125598  1.0
  O  O13  1  1.45719405  -0.20874402  0.59407415  1.0
  O  O14  1  1.59407415  0.45719405  -0.20874402  1.0
  O  O15  1  1.09407415  0.29125598  -0.04280595  1.0
  O  O16  1  0.79125598  0.59407415  0.45719405  1.0
  O  O17  1  1.29125598  -0.04280595  0.09407415  1.0
  O  O18  1  0.54280595  1.20874402  -0.59407415  1.0
  O  O19  1  1.04280595  0.90592585  -0.29125598  1.0
  O  O20  1  0.90592585  0.70874402  0.04280595  1.0
  O  O21  1  0.40592585  0.54280595  0.20874402  1.0
