# generated using pymatgen
data_H5C2NO
_symmetry_space_group_name_H-M   'P 1'
_cell_length_a   8.18218571
_cell_length_b   8.18218571
_cell_length_c   8.18218571
_cell_angle_alpha   89.30273663
_cell_angle_beta   89.30273663
_cell_angle_gamma   89.30273663
_symmetry_Int_Tables_number   1
_chemical_formula_structural   H5C2NO
_chemical_formula_sum   'H30 C12 N6 O6'
_cell_volume   547.66159355
_cell_formula_units_Z   6
loop_
 _symmetry_equiv_pos_site_id
 _symmetry_equiv_pos_as_xyz
  1  'x, y, z'
loop_
 _atom_site_type_symbol
 _atom_site_label
 _atom_site_symmetry_multiplicity
 _atom_site_fract_x
 _atom_site_fract_y
 _atom_site_fract_z
 _atom_site_occupancy
  H  H0  1  1.18059980  0.83789181  -0.20449028  1.0
  H  H1  1  0.83789181  0.79550972  0.18059980  1.0
  H  H2  1  0.79550972  1.18059980  -0.16210819  1.0
  H  H3  1  0.68059980  0.29550972  0.33789181  1.0
  H  H4  1  1.29550972  0.33789181  -0.31940020  1.0
  H  H5  1  1.33789181  -0.31940020  0.29550972  1.0
  H  H6  1  1.11492146  0.03046779  -0.28067898  1.0
  H  H7  1  1.03046779  -0.28067898  0.11492146  1.0
  H  H8  1  0.71932102  0.11492146  0.03046779  1.0
  H  H9  1  0.61492146  1.21932102  -0.46953221  1.0
  H  H10  1  1.21932102  0.53046779  -0.38507854  1.0
  H  H11  1  0.53046779  0.61492146  0.21932102  1.0
  H  H12  1  0.30459617  1.05738422  -0.60636964  1.0
  H  H13  1  1.05738422  0.39363036  -0.69540383  1.0
  H  H14  1  0.39363036  0.30459617  0.05738422  1.0
  H  H15  1  0.80459617  0.89363036  0.55738422  1.0
  H  H16  1  0.89363036  1.55738422  -0.19540383  1.0
  H  H17  1  1.55738422  0.80459617  -0.10636964  1.0
  H  H18  1  1.09782581  0.09876165  -0.55140615  1.0
  H  H19  1  1.09876165  -0.55140615  0.09782581  1.0
  H  H20  1  0.44859385  0.09782581  0.09876165  1.0
  H  H21  1  1.59782581  -0.05140615  0.59876165  1.0
  H  H22  1  0.94859385  0.59876165  0.59782581  1.0
  H  H23  1  1.59876165  0.59782581  -0.05140615  1.0
  H  H24  1  1.14692899  -0.05262004  0.29841677  1.0
  H  H25  1  0.94737996  0.29841677  0.14692899  1.0
  H  H26  1  1.29841677  0.14692899  -0.05262004  1.0
  H  H27  1  0.64692899  0.79841677  0.44737996  1.0
  H  H28  1  0.79841677  1.44737996  -0.35307101  1.0
  H  H29  1  1.44737996  0.64692899  -0.20158323  1.0
  C  C30  1  1.18422716  0.00161994  -0.58636984  1.0
  C  C31  1  1.00161994  -0.58636984  0.18422716  1.0
  C  C32  1  0.41363016  0.18422716  0.00161994  1.0
  C  C33  1  1.68422716  -0.08636984  0.50161994  1.0
  C  C34  1  0.91363016  0.50161994  0.68422716  1.0
  C  C35  1  1.50161994  0.68422716  -0.08636984  1.0
  C  C36  1  1.19994193  -0.12920003  0.54481386  1.0
  C  C37  1  0.87079997  0.54481386  0.19994193  1.0
  C  C38  1  1.54481386  0.19994193  -0.12920003  1.0
  C  C39  1  0.69994193  1.04481386  -0.62920003  1.0
  C  C40  1  1.04481386  0.37079997  -0.30005807  1.0
  C  C41  1  0.37079997  0.69994193  0.04481386  1.0
  N  N42  1  1.15788388  0.91395157  -0.30310515  1.0
  N  N43  1  0.91395157  0.69689485  0.15788388  1.0
  N  N44  1  0.69689485  1.15788388  -0.08604843  1.0
  N  N45  1  0.65788388  0.19689485  0.41395157  1.0
  N  N46  1  1.19689485  0.41395157  -0.34211612  1.0
  N  N47  1  1.41395157  -0.34211612  0.19689485  1.0
  O  O48  1  1.25271550  0.73025502  -0.49026322  1.0
  O  O49  1  0.73025502  0.50973678  0.25271550  1.0
  O  O50  1  0.50973678  1.25271550  -0.26974498  1.0
  O  O51  1  0.75271550  0.00973678  0.23025502  1.0
  O  O52  1  1.00973678  0.23025502  -0.24728450  1.0
  O  O53  1  1.23025502  -0.24728450  0.00973678  1.0
