# generated using pymatgen
data_Na6Si2Se7
_symmetry_space_group_name_H-M   'P 1'
_cell_length_a   7.24356015
_cell_length_b   7.24356015
_cell_length_c   15.96075952
_cell_angle_alpha   80.43397520
_cell_angle_beta   99.56602480
_cell_angle_gamma   82.09471757
_symmetry_Int_Tables_number   1
_chemical_formula_structural   Na6Si2Se7
_chemical_formula_sum   'Na12 Si4 Se14'
_cell_volume   802.48856987
_cell_formula_units_Z   2
loop_
 _symmetry_equiv_pos_site_id
 _symmetry_equiv_pos_as_xyz
  1  'x, y, z'
loop_
 _atom_site_type_symbol
 _atom_site_label
 _atom_site_symmetry_multiplicity
 _atom_site_fract_x
 _atom_site_fract_y
 _atom_site_fract_z
 _atom_site_occupancy
  Na  Na0  1  0.00000000  -0.00000000  0.50000000  1.0
  Na  Na1  1  0.00000000  0.00000000  0.00000000  1.0
  Na  Na2  1  0.45732557  -0.01311684  0.35799813  1.0
  Na  Na3  1  1.01311684  0.54267443  0.85799813  1.0
  Na  Na4  1  0.98688316  -0.54267443  0.14200187  1.0
  Na  Na5  1  1.54267443  0.01311684  0.64200187  1.0
  Na  Na6  1  1.47109288  0.23440060  0.07181555  1.0
  Na  Na7  1  0.76559940  -0.47109288  0.57181555  1.0
  Na  Na8  1  1.23440060  0.47109288  0.42818445  1.0
  Na  Na9  1  0.52890712  -0.23440060  0.92818445  1.0
  Na  Na10  1  0.91860131  -0.08139869  0.25000000  1.0
  Na  Na11  1  1.08139869  0.08139869  0.75000000  1.0
  Si  Si12  1  0.42300029  -0.26391139  0.14088577  1.0
  Si  Si13  1  1.26391139  0.57699971  0.64088577  1.0
  Si  Si14  1  0.73608861  -0.57699971  0.35911423  1.0
  Si  Si15  1  1.57699971  0.26391139  0.85911423  1.0
  Se  Se16  1  0.69947543  -0.19053356  0.10592003  1.0
  Se  Se17  1  1.19053356  0.30052457  0.60592003  1.0
  Se  Se18  1  0.80946644  -0.30052457  0.39407997  1.0
  Se  Se19  1  1.30052457  0.19053356  0.89407997  1.0
  Se  Se20  1  1.63033141  0.23973452  0.46720158  1.0
  Se  Se21  1  0.76026548  -0.63033141  0.96720158  1.0
  Se  Se22  1  1.23973452  0.63033141  0.03279842  1.0
  Se  Se23  1  0.36966859  -0.23973452  0.53279842  1.0
  Se  Se24  1  0.25751580  -0.00939809  0.17959547  1.0
  Se  Se25  1  1.00939809  0.74248420  0.67959547  1.0
  Se  Se26  1  0.99060191  -0.74248420  0.32040453  1.0
  Se  Se27  1  1.74248420  0.00939809  0.82040453  1.0
  Se  Se28  1  1.46359094  0.46359094  0.25000000  1.0
  Se  Se29  1  0.53640906  -0.46359094  0.75000000  1.0
