# generated using pymatgen
data_Ag6GeSO8
_symmetry_space_group_name_H-M   'P 1'
_cell_length_a   10.53354312
_cell_length_b   10.53354312
_cell_length_c   10.53354312
_cell_angle_alpha   140.67093448
_cell_angle_beta   140.67093448
_cell_angle_gamma   56.83598322
_symmetry_Int_Tables_number   1
_chemical_formula_structural   Ag6GeSO8
_chemical_formula_sum   'Ag12 Ge2 S2 O16'
_cell_volume   465.60862609
_cell_formula_units_Z   2
loop_
 _symmetry_equiv_pos_site_id
 _symmetry_equiv_pos_as_xyz
  1  'x, y, z'
loop_
 _atom_site_type_symbol
 _atom_site_label
 _atom_site_symmetry_multiplicity
 _atom_site_fract_x
 _atom_site_fract_y
 _atom_site_fract_z
 _atom_site_occupancy
  Ag  Ag0  1  1.66714659  1.12500000  1.04214659  1.0
  Ag  Ag1  1  1.08285341  1.12500000  0.45785341  1.0
  Ag  Ag2  1  0.87500000  0.91714659  0.54214659  1.0
  Ag  Ag3  1  1.37500000  0.91714659  1.04214659  1.0
  Ag  Ag4  1  1.66714659  1.62500000  1.54214659  1.0
  Ag  Ag5  1  1.08285341  1.62500000  0.95785341  1.0
  Ag  Ag6  1  0.87500000  1.33285341  0.95785341  1.0
  Ag  Ag7  1  1.37500000  1.33285341  1.45785341  1.0
  Ag  Ag8  1  1.23364927  1.23364927  1.00000000  1.0
  Ag  Ag9  1  0.98364927  1.48364927  0.50000000  1.0
  Ag  Ag10  1  0.51635073  0.01635073  0.50000000  1.0
  Ag  Ag11  1  0.76635073  0.76635073  0.00000000  1.0
  Ge  Ge12  1  0.00000000  0.00000000  0.00000000  1.0
  Ge  Ge13  1  0.75000000  1.25000000  0.50000000  1.0
  S  S14  1  0.50000000  0.50000000  1.00000000  1.0
  S  S15  1  1.25000000  0.75000000  0.50000000  1.0
  O  O16  1  0.05461634  0.84651717  0.79190083  1.0
  O  O17  1  1.59651717  1.30461634  1.29190083  1.0
  O  O18  1  1.01271551  1.30461634  0.70809917  1.0
  O  O19  1  0.05461634  0.26271551  0.20809917  1.0
  O  O20  1  0.69538366  1.40348283  0.70809917  1.0
  O  O21  1  1.15348283  0.94538366  0.20809917  1.0
  O  O22  1  1.73728449  0.94538366  0.79190083  1.0
  O  O23  1  0.69538366  0.98728449  0.29190083  1.0
  O  O24  1  1.45330252  1.27991966  0.82661714  1.0
  O  O25  1  1.02991966  0.70330252  0.32661714  1.0
  O  O26  1  1.37668538  0.70330252  0.67338286  1.0
  O  O27  1  1.45330252  1.62668538  1.17338286  1.0
  O  O28  1  1.29669748  0.97008034  0.67338286  1.0
  O  O29  1  0.72008034  0.54669748  1.17338286  1.0
  O  O30  1  0.37331462  0.54669748  0.82661714  1.0
  O  O31  1  1.29669748  1.62331462  1.32661714  1.0
