# generated using pymatgen
data_La(Ni2B)6
_symmetry_space_group_name_H-M   'P 1'
_cell_length_a   6.07012585
_cell_length_b   6.07012585
_cell_length_c   11.09708706
_cell_angle_alpha   90.00000000
_cell_angle_beta   90.00000000
_cell_angle_gamma   75.31738329
_symmetry_Int_Tables_number   1
_chemical_formula_structural   La(Ni2B)6
_chemical_formula_sum   'La2 Ni24 B12'
_cell_volume   395.53565562
_cell_formula_units_Z   2
loop_
 _symmetry_equiv_pos_site_id
 _symmetry_equiv_pos_as_xyz
  1  'x, y, z'
loop_
 _atom_site_type_symbol
 _atom_site_label
 _atom_site_symmetry_multiplicity
 _atom_site_fract_x
 _atom_site_fract_y
 _atom_site_fract_z
 _atom_site_occupancy
  La  La0  1  -0.33260956  1.33260956  0.36181705  1.0
  La  La1  1  0.33260956  0.66739044  0.86181705  1.0
  Ni  Ni2  1  0.03933868  0.69496444  0.09702656  1.0
  Ni  Ni3  1  -0.30503556  1.03933868  0.59702656  1.0
  Ni  Ni4  1  0.30503556  0.96066132  0.09702656  1.0
  Ni  Ni5  1  -0.03933868  1.30503556  0.59702656  1.0
  Ni  Ni6  1  0.12974276  0.50646195  0.29913743  1.0
  Ni  Ni7  1  -0.49353805  1.12974276  0.79913743  1.0
  Ni  Ni8  1  0.49353805  0.87025724  0.29913743  1.0
  Ni  Ni9  1  -0.12974276  1.49353805  0.79913743  1.0
  Ni  Ni10  1  -0.15628269  1.77548871  0.42887725  1.0
  Ni  Ni11  1  0.77548871  0.84371731  0.92887725  1.0
  Ni  Ni12  1  -0.77548871  1.15628269  0.42887725  1.0
  Ni  Ni13  1  0.15628269  0.22451129  0.92887725  1.0
  Ni  Ni14  1  -0.35335616  1.62019672  0.11821844  1.0
  Ni  Ni15  1  0.62019672  0.64664384  0.61821844  1.0
  Ni  Ni16  1  -0.62019672  1.35335616  0.11821844  1.0
  Ni  Ni17  1  0.35335616  0.37980328  0.61821844  1.0
  Ni  Ni18  1  -0.02482091  1.29007715  0.13627288  1.0
  Ni  Ni19  1  0.29007715  0.97517909  0.63627288  1.0
  Ni  Ni20  1  -0.29007715  1.02482091  0.13627288  1.0
  Ni  Ni21  1  0.02482091  0.70992285  0.63627288  1.0
  Ni  Ni22  1  0.07008157  0.92991843  0.27725375  1.0
  Ni  Ni23  1  -0.07008157  1.07008157  0.77725375  1.0
  Ni  Ni24  1  0.27634126  0.72365874  0.46188517  1.0
  Ni  Ni25  1  -0.27634126  1.27634126  0.96188517  1.0
  B  B26  1  0.10279186  0.48617705  0.48367067  1.0
  B  B27  1  -0.51382295  1.10279186  0.98367067  1.0
  B  B28  1  0.51382295  0.89720814  0.48367067  1.0
  B  B29  1  -0.10279186  1.51382295  0.98367067  1.0
  B  B30  1  -0.17643038  1.75010984  0.24782324  1.0
  B  B31  1  0.75010984  0.82356962  0.74782324  1.0
  B  B32  1  -0.75010984  1.17643038  0.24782324  1.0
  B  B33  1  0.17643038  0.24989016  0.74782324  1.0
  B  B34  1  -0.01408322  1.01408322  0.02387035  1.0
  B  B35  1  0.01408322  0.98591678  0.52387035  1.0
  B  B36  1  0.33554540  0.66445460  0.19412072  1.0
  B  B37  1  -0.33554540  1.33554540  0.69412072  1.0
