# generated using pymatgen
data_Ag3RuO4
_symmetry_space_group_name_H-M   'P 1'
_cell_length_a   7.29284552
_cell_length_b   7.29284552
_cell_length_c   8.37008818
_cell_angle_alpha   90.00000000
_cell_angle_beta   90.00000000
_cell_angle_gamma   90.00000000
_symmetry_Int_Tables_number   1
_chemical_formula_structural   Ag3RuO4
_chemical_formula_sum   'Ag12 Ru4 O16'
_cell_volume   445.16812634
_cell_formula_units_Z   4
loop_
 _symmetry_equiv_pos_site_id
 _symmetry_equiv_pos_as_xyz
  1  'x, y, z'
loop_
 _atom_site_type_symbol
 _atom_site_label
 _atom_site_symmetry_multiplicity
 _atom_site_fract_x
 _atom_site_fract_y
 _atom_site_fract_z
 _atom_site_occupancy
  Ag  Ag0  1  0.50000000  0.75488877  0.50000000  1.0
  Ag  Ag1  1  0.50000000  0.24511123  -0.00000000  1.0
  Ag  Ag2  1  0.75488877  0.50000000  0.25000000  1.0
  Ag  Ag3  1  0.24511123  0.50000000  0.75000000  1.0
  Ag  Ag4  1  0.50000000  0.31523379  0.50000000  1.0
  Ag  Ag5  1  0.50000000  0.68476621  0.00000000  1.0
  Ag  Ag6  1  0.31523379  0.50000000  0.25000000  1.0
  Ag  Ag7  1  0.68476621  0.50000000  0.75000000  1.0
  Ag  Ag8  1  0.00000000  0.69858984  0.50000000  1.0
  Ag  Ag9  1  0.00000000  0.30141016  -0.00000000  1.0
  Ag  Ag10  1  0.69858984  0.00000000  0.25000000  1.0
  Ag  Ag11  1  0.30141016  0.00000000  0.75000000  1.0
  Ru  Ru12  1  0.00000000  0.21536845  0.50000000  1.0
  Ru  Ru13  1  0.00000000  0.78463155  0.00000000  1.0
  Ru  Ru14  1  0.21536845  0.00000000  0.25000000  1.0
  Ru  Ru15  1  0.78463155  0.00000000  0.75000000  1.0
  O  O16  1  0.98205619  0.80795844  0.76508549  1.0
  O  O17  1  0.98205619  0.19204156  0.73491451  1.0
  O  O18  1  0.80795844  0.98205619  0.98491451  1.0
  O  O19  1  0.80795844  0.01794381  0.51508549  1.0
  O  O20  1  0.01794381  0.80795844  0.23491451  1.0
  O  O21  1  0.01794381  0.19204156  0.26508549  1.0
  O  O22  1  0.19204156  0.98205619  0.01508549  1.0
  O  O23  1  0.19204156  0.01794381  0.48491451  1.0
  O  O24  1  0.59812877  0.80969035  0.73675766  1.0
  O  O25  1  0.59812877  0.19030965  0.76324234  1.0
  O  O26  1  0.80969035  0.59812877  0.01324234  1.0
  O  O27  1  0.80969035  0.40187123  0.48675766  1.0
  O  O28  1  0.40187123  0.80969035  0.26324234  1.0
  O  O29  1  0.40187123  0.19030965  0.23675766  1.0
  O  O30  1  0.19030965  0.59812877  0.98675766  1.0
  O  O31  1  0.19030965  0.40187123  0.51324234  1.0
