# generated using pymatgen
data_Cs2Zr7Cl18
_symmetry_space_group_name_H-M   'P 1'
_cell_length_a   10.53105286
_cell_length_b   10.53105286
_cell_length_c   10.53105286
_cell_angle_alpha   56.14370129
_cell_angle_beta   56.14370129
_cell_angle_gamma   56.14370129
_symmetry_Int_Tables_number   1
_chemical_formula_structural   Cs2Zr7Cl18
_chemical_formula_sum   'Cs2 Zr7 Cl18'
_cell_volume   752.11610903
_cell_formula_units_Z   1
loop_
 _symmetry_equiv_pos_site_id
 _symmetry_equiv_pos_as_xyz
  1  'x, y, z'
loop_
 _atom_site_type_symbol
 _atom_site_label
 _atom_site_symmetry_multiplicity
 _atom_site_fract_x
 _atom_site_fract_y
 _atom_site_fract_z
 _atom_site_occupancy
  Cs  Cs0  1  0.27279688  0.27279688  0.27279688  1.0
  Cs  Cs1  1  0.72720312  -0.27279688  -0.27279688  1.0
  Zr  Zr2  1  0.30015236  0.65896469  -0.60509832  1.0
  Zr  Zr3  1  0.60509832  0.69984764  -0.65896469  1.0
  Zr  Zr4  1  0.34103531  0.60509832  -0.30015236  1.0
  Zr  Zr5  1  0.69984764  0.34103531  -0.39490168  1.0
  Zr  Zr6  1  0.39490168  0.30015236  -0.34103531  1.0
  Zr  Zr7  1  0.65896469  0.39490168  -0.69984764  1.0
  Zr  Zr8  1  0.00000000  0.00000000  0.00000000  1.0
  Cl  Cl9  1  0.56014972  0.15542662  -0.54772107  1.0
  Cl  Cl10  1  0.54772107  0.43985028  -0.15542662  1.0
  Cl  Cl11  1  0.84457338  0.54772107  -0.56014972  1.0
  Cl  Cl12  1  0.43985028  0.84457338  -0.45227893  1.0
  Cl  Cl13  1  0.45227893  0.56014972  -0.84457338  1.0
  Cl  Cl14  1  0.15542662  0.45227893  -0.43985028  1.0
  Cl  Cl15  1  0.38861083  0.90659878  -0.79178757  1.0
  Cl  Cl16  1  0.79178757  -0.38861083  0.09340122  1.0
  Cl  Cl17  1  1.09340122  -0.20821243  -0.38861083  1.0
  Cl  Cl18  1  0.61138917  0.09340122  -0.20821243  1.0
  Cl  Cl19  1  0.20821243  0.38861083  -0.09340122  1.0
  Cl  Cl20  1  0.90659878  0.20821243  -0.61138917  1.0
  Cl  Cl21  1  0.26512186  0.04628650  -0.14787802  1.0
  Cl  Cl22  1  1.14787802  -0.26512186  -0.04628650  1.0
  Cl  Cl23  1  0.95371350  0.14787802  -0.26512186  1.0
  Cl  Cl24  1  0.73487814  -0.04628650  0.14787802  1.0
  Cl  Cl25  1  0.85212198  -0.73487814  0.04628650  1.0
  Cl  Cl26  1  1.04628650  -0.14787802  -0.73487814  1.0
