# generated using pymatgen
data_BaV13O18
_symmetry_space_group_name_H-M   'P 1'
_cell_length_a   7.73253595
_cell_length_b   7.73253595
_cell_length_c   7.73253595
_cell_angle_alpha   111.57681713
_cell_angle_beta   111.57681713
_cell_angle_gamma   111.57681713
_symmetry_Int_Tables_number   1
_chemical_formula_structural   BaV13O18
_chemical_formula_sum   'Ba1 V13 O18'
_cell_volume   325.22777717
_cell_formula_units_Z   1
loop_
 _symmetry_equiv_pos_site_id
 _symmetry_equiv_pos_as_xyz
  1  'x, y, z'
loop_
 _atom_site_type_symbol
 _atom_site_label
 _atom_site_symmetry_multiplicity
 _atom_site_fract_x
 _atom_site_fract_y
 _atom_site_fract_z
 _atom_site_occupancy
  Ba  Ba0  1  0.50000000  0.50000000  0.50000000  1.0
  O  O1  1  1.00675934  0.28124555  0.17503825  1.0
  O  O2  1  0.82496175  0.99324066  -0.28124555  1.0
  O  O3  1  0.71875445  -0.17503825  -0.00675934  1.0
  O  O4  1  0.99324066  0.71875445  0.82496175  1.0
  O  O5  1  1.17503825  1.00675934  0.28124555  1.0
  O  O6  1  0.28124555  0.17503825  0.00675934  1.0
  O  O7  1  0.74573168  0.40629241  0.32987562  1.0
  O  O8  1  0.67012438  1.25426832  -0.40629241  1.0
  O  O9  1  0.59370759  0.67012438  -0.74573168  1.0
  O  O10  1  1.25426832  0.59370759  0.67012438  1.0
  O  O11  1  1.32987562  0.74573168  0.40629241  1.0
  O  O12  1  0.40629241  0.32987562  -0.25426832  1.0
  O  O13  1  0.90386010  0.11753050  0.44979822  1.0
  O  O14  1  0.55020178  0.09613990  -0.11753050  1.0
  O  O15  1  0.88246950  0.55020178  0.09613990  1.0
  O  O16  1  1.09613990  0.88246950  0.55020178  1.0
  O  O17  1  0.44979822  -0.09613990  0.11753050  1.0
  O  O18  1  1.11753050  1.44979822  -0.09613990  1.0
  V  V19  1  0.00000000  0.00000000  0.00000000  1.0
  V  V20  1  0.75440216  0.13665227  0.19332238  1.0
  V  V21  1  0.80667762  0.24559784  -0.13665227  1.0
  V  V22  1  0.86334773  0.80667762  0.24559784  1.0
  V  V23  1  1.24559784  0.86334773  0.80667762  1.0
  V  V24  1  0.19332238  0.75440216  -0.86334773  1.0
  V  V25  1  1.13665227  1.19332238  -0.24559784  1.0
  V  V26  1  0.57407131  0.40303922  0.05613139  1.0
  V  V27  1  0.94386861  0.42592869  0.59696078  1.0
  V  V28  1  0.59696078  0.94386861  -0.57407131  1.0
  V  V29  1  1.42592869  0.59696078  0.94386861  1.0
  V  V30  1  1.05613139  0.57407131  0.40303922  1.0
  V  V31  1  0.40303922  0.05613139  -0.42592869  1.0
