# generated using pymatgen
data_Gd2Sb5
_symmetry_space_group_name_H-M   'P 1'
_cell_length_a   13.35410229
_cell_length_b   4.24849044
_cell_length_c   14.88944361
_cell_angle_alpha   90.00000000
_cell_angle_beta   102.22325600
_cell_angle_gamma   90.00000000
_symmetry_Int_Tables_number   1
_chemical_formula_structural   Gd2Sb5
_chemical_formula_sum   'Gd8 Sb20'
_cell_volume   825.59881336
_cell_formula_units_Z   4
loop_
 _symmetry_equiv_pos_site_id
 _symmetry_equiv_pos_as_xyz
  1  'x, y, z'
loop_
 _atom_site_type_symbol
 _atom_site_label
 _atom_site_symmetry_multiplicity
 _atom_site_fract_x
 _atom_site_fract_y
 _atom_site_fract_z
 _atom_site_occupancy
  Gd  Gd0  1  0.95183759  0.25000000  0.63605990  1.0
  Gd  Gd1  1  0.04816241  0.75000000  0.36394010  1.0
  Gd  Gd2  1  0.66886802  0.25000000  0.42156404  1.0
  Gd  Gd3  1  0.33113198  0.75000000  0.57843596  1.0
  Gd  Gd4  1  0.66253695  0.25000000  0.14479124  1.0
  Gd  Gd5  1  0.33746305  0.75000000  0.85520876  1.0
  Gd  Gd6  1  0.39361909  0.25000000  0.22914531  1.0
  Gd  Gd7  1  0.60638091  0.75000000  0.77085469  1.0
  Sb  Sb8  1  0.96898982  0.25000000  0.89651306  1.0
  Sb  Sb9  1  0.03101018  0.75000000  0.10348694  1.0
  Sb  Sb10  1  0.86170040  0.25000000  0.32330923  1.0
  Sb  Sb11  1  0.13829960  0.75000000  0.67669077  1.0
  Sb  Sb12  1  0.71887516  0.25000000  0.93932638  1.0
  Sb  Sb13  1  0.28112484  0.75000000  0.06067362  1.0
  Sb  Sb14  1  0.71165248  0.25000000  0.64953468  1.0
  Sb  Sb15  1  0.28834752  0.75000000  0.35046532  1.0
  Sb  Sb16  1  0.42451128  0.25000000  0.73505192  1.0
  Sb  Sb17  1  0.57548872  0.75000000  0.26494808  1.0
  Sb  Sb18  1  0.42443331  0.25000000  0.44812478  1.0
  Sb  Sb19  1  0.57556669  0.75000000  0.55187522  1.0
  Sb  Sb20  1  0.41943804  0.25000000  0.02461679  1.0
  Sb  Sb21  1  0.58056196  0.75000000  0.97538321  1.0
  Sb  Sb22  1  0.15160626  0.25000000  0.82437735  1.0
  Sb  Sb23  1  0.84839374  0.75000000  0.17562265  1.0
  Sb  Sb24  1  0.14460938  0.25000000  0.51999999  1.0
  Sb  Sb25  1  0.85539062  0.75000000  0.48000001  1.0
  Sb  Sb26  1  0.14208735  0.25000000  0.22288722  1.0
  Sb  Sb27  1  0.85791265  0.75000000  0.77711278  1.0
