# generated using pymatgen
data_CoH6(SeO4)2
_symmetry_space_group_name_H-M   'P 1'
_cell_length_a   7.14473711
_cell_length_b   7.10184093
_cell_length_c   8.38439963
_cell_angle_alpha   90.00000000
_cell_angle_beta   115.55927098
_cell_angle_gamma   90.00000000
_symmetry_Int_Tables_number   1
_chemical_formula_structural   CoH6(SeO4)2
_chemical_formula_sum   'Co2 H12 Se4 O16'
_cell_volume   383.79811562
_cell_formula_units_Z   2
loop_
 _symmetry_equiv_pos_site_id
 _symmetry_equiv_pos_as_xyz
  1  'x, y, z'
loop_
 _atom_site_type_symbol
 _atom_site_label
 _atom_site_symmetry_multiplicity
 _atom_site_fract_x
 _atom_site_fract_y
 _atom_site_fract_z
 _atom_site_occupancy
  Co  Co0  1  -0.00000000  0.50000000  0.50000000  1.0
  Co  Co1  1  0.00000000  0.00000000  0.00000000  1.0
  H  H2  1  0.88577638  0.71792910  0.12407138  1.0
  H  H3  1  0.88577638  0.78207090  0.62407138  1.0
  H  H4  1  0.11422362  0.21792910  0.37592862  1.0
  H  H5  1  0.11422362  0.28207090  0.87592862  1.0
  H  H6  1  0.78464812  0.82618035  0.41909141  1.0
  H  H7  1  0.78464812  0.67381965  0.91909141  1.0
  H  H8  1  0.21535188  0.32618035  0.08090859  1.0
  H  H9  1  0.21535188  0.17381965  0.58090859  1.0
  H  H10  1  0.50279116  0.00230186  0.24808483  1.0
  H  H11  1  0.50279116  0.49769814  0.74808483  1.0
  H  H12  1  0.49720884  0.50230186  0.25191517  1.0
  H  H13  1  0.49720884  0.99769814  0.75191517  1.0
  Se  Se14  1  0.68791336  0.21249183  0.14470773  1.0
  Se  Se15  1  0.68791336  0.28750817  0.64470773  1.0
  Se  Se16  1  0.31208664  0.71249183  0.35529227  1.0
  Se  Se17  1  0.31208664  0.78750817  0.85529227  1.0
  O  O18  1  0.93271200  0.15193866  0.17783138  1.0
  O  O19  1  0.93271200  0.34806134  0.67783138  1.0
  O  O20  1  0.06728800  0.65193866  0.32216862  1.0
  O  O21  1  0.06728800  0.84806134  0.82216862  1.0
  O  O22  1  0.80700384  0.72345383  0.50484555  1.0
  O  O23  1  0.80700384  0.77654617  1.00484555  1.0
  O  O24  1  0.19299616  0.22345383  -0.00484555  1.0
  O  O25  1  0.19299616  0.27654617  0.49515445  1.0
  O  O26  1  0.72641891  0.40407044  0.27741432  1.0
  O  O27  1  0.72641891  0.09592956  0.77741432  1.0
  O  O28  1  0.27358109  0.90407044  0.22258568  1.0
  O  O29  1  0.27358109  0.59592956  0.72258568  1.0
  O  O30  1  0.65441954  0.03082072  0.28529541  1.0
  O  O31  1  0.65441954  0.46917928  0.78529541  1.0
  O  O32  1  0.34558046  0.53082072  0.21470459  1.0
  O  O33  1  0.34558046  0.96917928  0.71470459  1.0
