# generated using pymatgen
data_Y2Ge5Ru3
_symmetry_space_group_name_H-M   'P 1'
_cell_length_a   8.47201893
_cell_length_b   8.47201893
_cell_length_c   8.47201893
_cell_angle_alpha   108.68929425
_cell_angle_beta   84.95234123
_cell_angle_gamma   140.13424053
_symmetry_Int_Tables_number   1
_chemical_formula_structural   Y2Ge5Ru3
_chemical_formula_sum   'Y4 Ge10 Ru6'
_cell_volume   356.50741899
_cell_formula_units_Z   2
loop_
 _symmetry_equiv_pos_site_id
 _symmetry_equiv_pos_as_xyz
  1  'x, y, z'
loop_
 _atom_site_type_symbol
 _atom_site_label
 _atom_site_symmetry_multiplicity
 _atom_site_fract_x
 _atom_site_fract_y
 _atom_site_fract_z
 _atom_site_occupancy
  Y  Y0  1  0.64011897  0.73092863  0.37104761  1.0
  Y  Y1  1  0.85988103  0.23092863  1.09080966  1.0
  Y  Y2  1  0.14011897  0.76907137  0.90919034  1.0
  Y  Y3  1  1.35988103  1.26907137  1.62895239  1.0
  Ge  Ge4  1  0.91276079  0.67592803  1.58868882  1.0
  Ge  Ge5  1  0.58723921  1.17592803  0.76316723  1.0
  Ge  Ge6  1  1.41276079  0.82407197  1.23683277  1.0
  Ge  Ge7  1  0.08723921  0.32407197  0.41131118  1.0
  Ge  Ge8  1  0.45715721  0.75000000  0.70715721  1.0
  Ge  Ge9  1  0.95715721  1.25000000  0.70715721  1.0
  Ge  Ge10  1  1.54284279  1.25000000  1.29284279  1.0
  Ge  Ge11  1  1.04284279  0.75000000  1.29284279  1.0
  Ge  Ge12  1  0.75000000  0.75000000  0.00000000  1.0
  Ge  Ge13  1  0.25000000  0.25000000  0.00000000  1.0
  Ru  Ru14  1  0.85256920  0.90853172  0.76110092  1.0
  Ru  Ru15  1  0.64743080  0.40853172  1.05596251  1.0
  Ru  Ru16  1  0.35256920  0.59146828  0.94403749  1.0
  Ru  Ru17  1  1.14743080  1.09146828  1.23889908  1.0
  Ru  Ru18  1  0.75000000  1.25000000  0.50000000  1.0
  Ru  Ru19  1  0.25000000  0.75000000  0.50000000  1.0
