# generated using pymatgen
data_K2HgS4
_symmetry_space_group_name_H-M   'P 1'
_cell_length_a   6.46425539
_cell_length_b   6.46425539
_cell_length_c   11.02431886
_cell_angle_alpha   105.84109348
_cell_angle_beta   74.15890652
_cell_angle_gamma   86.46154199
_symmetry_Int_Tables_number   1
_chemical_formula_structural   K2HgS4
_chemical_formula_sum   'K4 Hg2 S8'
_cell_volume   421.69883405
_cell_formula_units_Z   2
loop_
 _symmetry_equiv_pos_site_id
 _symmetry_equiv_pos_as_xyz
  1  'x, y, z'
loop_
 _atom_site_type_symbol
 _atom_site_label
 _atom_site_symmetry_multiplicity
 _atom_site_fract_x
 _atom_site_fract_y
 _atom_site_fract_z
 _atom_site_occupancy
  K  K0  1  0.72030467  0.21984159  0.99975642  1.0
  K  K1  1  1.21984159  -0.27969533  0.50024358  1.0
  K  K2  1  1.27969533  -0.21984159  0.00024358  1.0
  K  K3  1  0.78015841  0.27969533  0.49975642  1.0
  Hg  Hg4  1  0.25016524  0.25016524  0.75000000  1.0
  Hg  Hg5  1  -0.25016524  -0.25016524  0.25000000  1.0
  S  S6  1  0.80606712  0.69364712  0.95953533  1.0
  S  S7  1  1.69364712  -0.19393288  0.54046467  1.0
  S  S8  1  1.19393288  -0.69364712  0.04046467  1.0
  S  S9  1  0.30635288  0.19393288  0.45953533  1.0
  S  S10  1  1.52858714  -0.02816335  0.73887902  1.0
  S  S11  1  0.97183665  0.52858714  0.76112098  1.0
  S  S12  1  0.47141286  0.02816335  0.26112098  1.0
  S  S13  1  1.02816335  -0.52858714  0.23887902  1.0
