# generated using pymatgen
data_La2Zn15Ni2
_symmetry_space_group_name_H-M   'P 1'
_cell_length_a   6.81405459
_cell_length_b   6.81405459
_cell_length_c   6.81405459
_cell_angle_alpha   82.77903941
_cell_angle_beta   82.77903941
_cell_angle_gamma   82.77903941
_symmetry_Int_Tables_number   1
_chemical_formula_structural   La2Zn15Ni2
_chemical_formula_sum   'La2 Zn15 Ni2'
_cell_volume   309.43964322
_cell_formula_units_Z   1
loop_
 _symmetry_equiv_pos_site_id
 _symmetry_equiv_pos_as_xyz
  1  'x, y, z'
loop_
 _atom_site_type_symbol
 _atom_site_label
 _atom_site_symmetry_multiplicity
 _atom_site_fract_x
 _atom_site_fract_y
 _atom_site_fract_z
 _atom_site_occupancy
  La  La0  1  0.66431436  0.66431436  -0.33568564  1.0
  La  La1  1  0.33568564  0.33568564  -0.66431436  1.0
  Zn  Zn2  1  0.34596803  0.34596803  -0.15157078  1.0
  Zn  Zn3  1  0.34596803  0.84842922  -0.65403197  1.0
  Zn  Zn4  1  0.15157078  0.65403197  -0.34596803  1.0
  Zn  Zn5  1  0.65403197  0.15157078  -0.34596803  1.0
  Zn  Zn6  1  0.65403197  -0.34596803  0.15157078  1.0
  Zn  Zn7  1  0.84842922  0.34596803  -0.65403197  1.0
  Zn  Zn8  1  0.72100655  -0.00000000  0.27899345  1.0
  Zn  Zn9  1  0.72100655  -0.72100655  0.00000000  1.0
  Zn  Zn10  1  -0.00000000  0.72100655  -0.72100655  1.0
  Zn  Zn11  1  0.00000000  0.27899345  -0.27899345  1.0
  Zn  Zn12  1  1.27899345  0.00000000  -0.27899345  1.0
  Zn  Zn13  1  0.27899345  -0.27899345  0.00000000  1.0
  Zn  Zn14  1  1.00000000  1.50000000  0.00000000  1.0
  Zn  Zn15  1  1.00000000  0.00000000  -0.50000000  1.0
  Zn  Zn16  1  0.50000000  0.00000000  0.00000000  1.0
  Ni  Ni17  1  0.89686307  0.89686307  -0.10313693  1.0
  Ni  Ni18  1  1.10313693  1.10313693  0.10313693  1.0
