# generated using pymatgen
data_Ge3N4
_symmetry_space_group_name_H-M   'P 1'
_cell_length_a   10.09883079
_cell_length_b   5.96433375
_cell_length_c   4.90049801
_cell_angle_alpha   90.00000000
_cell_angle_beta   90.00000000
_cell_angle_gamma   90.00000000
_symmetry_Int_Tables_number   1
_chemical_formula_structural   Ge3N4
_chemical_formula_sum   'Ge12 N16'
_cell_volume   295.17070322
_cell_formula_units_Z   4
loop_
 _symmetry_equiv_pos_site_id
 _symmetry_equiv_pos_as_xyz
  1  'x, y, z'
loop_
 _atom_site_type_symbol
 _atom_site_label
 _atom_site_symmetry_multiplicity
 _atom_site_fract_x
 _atom_site_fract_y
 _atom_site_fract_z
 _atom_site_occupancy
  Ge  Ge0  1  0.00000000  0.50000000  0.00000000  1.0
  Ge  Ge1  1  0.50000000  0.00000000  0.50000000  1.0
  Ge  Ge2  1  0.00000000  0.00000000  0.00000000  1.0
  Ge  Ge3  1  0.50000000  0.50000000  0.50000000  1.0
  Ge  Ge4  1  0.27915141  0.75000000  0.01501351  1.0
  Ge  Ge5  1  0.77915141  0.75000000  0.48498649  1.0
  Ge  Ge6  1  0.72084859  0.25000000  0.98498649  1.0
  Ge  Ge7  1  0.22084859  0.25000000  0.51501351  1.0
  Ge  Ge8  1  0.09529141  0.75000000  0.55301535  1.0
  Ge  Ge9  1  0.59529141  0.75000000  0.94698465  1.0
  Ge  Ge10  1  0.90470859  0.25000000  0.44698465  1.0
  Ge  Ge11  1  0.40470859  0.25000000  0.05301535  1.0
  N  N12  1  0.09454109  0.75000000  0.18055968  1.0
  N  N13  1  0.59454109  0.75000000  0.31944032  1.0
  N  N14  1  0.90545891  0.25000000  0.81944032  1.0
  N  N15  1  0.40545891  0.25000000  0.68055968  1.0
  N  N16  1  0.43060524  0.75000000  0.75736575  1.0
  N  N17  1  0.93060524  0.75000000  0.74263425  1.0
  N  N18  1  0.56939476  0.25000000  0.24263425  1.0
  N  N19  1  0.06939476  0.25000000  0.25736575  1.0
  N  N20  1  0.16228597  0.50431007  0.74417558  1.0
  N  N21  1  0.66228597  0.99568993  0.75582442  1.0
  N  N22  1  0.83771403  0.00431007  0.25582442  1.0
  N  N23  1  0.33771403  0.49568993  0.24417558  1.0
  N  N24  1  0.83771403  0.49568993  0.25582442  1.0
  N  N25  1  0.33771403  0.00431007  0.24417558  1.0
  N  N26  1  0.16228597  0.99568993  0.74417558  1.0
  N  N27  1  0.66228597  0.50431007  0.75582442  1.0
