# generated using pymatgen
data_Bi3BTeO9
_symmetry_space_group_name_H-M   'P 1'
_cell_length_a   9.02009758
_cell_length_b   9.02009758
_cell_length_c   5.87676851
_cell_angle_alpha   90.00000000
_cell_angle_beta   90.00000000
_cell_angle_gamma   120.00000000
_symmetry_Int_Tables_number   1
_chemical_formula_structural   Bi3BTeO9
_chemical_formula_sum   'Bi6 B2 Te2 O18'
_cell_volume   414.08708650
_cell_formula_units_Z   2
loop_
 _symmetry_equiv_pos_site_id
 _symmetry_equiv_pos_as_xyz
  1  'x, y, z'
loop_
 _atom_site_type_symbol
 _atom_site_label
 _atom_site_symmetry_multiplicity
 _atom_site_fract_x
 _atom_site_fract_y
 _atom_site_fract_z
 _atom_site_occupancy
  Bi  Bi0  1  0.95476605  0.29830166  0.61037147  1.0
  Bi  Bi1  1  0.34353561  0.04523395  0.61037147  1.0
  Bi  Bi2  1  0.70169834  0.65646439  0.61037147  1.0
  Bi  Bi3  1  0.04523395  0.70169834  0.11037147  1.0
  Bi  Bi4  1  0.65646439  0.95476605  0.11037147  1.0
  Bi  Bi5  1  0.29830166  0.34353561  0.11037147  1.0
  B  B6  1  -0.00000000  -0.00000000  0.92115556  1.0
  B  B7  1  -0.00000000  -0.00000000  0.42115556  1.0
  Te  Te8  1  0.33333333  0.66666667  0.58411739  1.0
  Te  Te9  1  0.66666667  0.33333333  0.08411739  1.0
  O  O10  1  0.21300835  0.45724988  0.77936310  1.0
  O  O11  1  0.24424153  0.78699165  0.77936310  1.0
  O  O12  1  0.54275012  0.75575847  0.77936310  1.0
  O  O13  1  0.78699165  0.54275012  0.27936310  1.0
  O  O14  1  0.75575847  0.21300835  0.27936310  1.0
  O  O15  1  0.45724988  0.24424153  0.27936310  1.0
  O  O16  1  0.12306118  0.53704826  0.38920551  1.0
  O  O17  1  0.41398708  0.87693882  0.38920551  1.0
  O  O18  1  0.46295174  0.58601292  0.38920551  1.0
  O  O19  1  0.87693882  0.46295174  0.88920551  1.0
  O  O20  1  0.58601292  0.12306118  0.88920551  1.0
  O  O21  1  0.53704826  0.41398708  0.88920551  1.0
  O  O22  1  0.91820763  0.09532617  0.92529227  1.0
  O  O23  1  0.17711854  0.08179237  0.92529227  1.0
  O  O24  1  0.90467383  0.82288146  0.92529227  1.0
  O  O25  1  0.08179237  0.90467383  0.42529227  1.0
  O  O26  1  0.82288146  0.91820763  0.42529227  1.0
  O  O27  1  0.09532617  0.17711854  0.42529227  1.0
