# generated using pymatgen
data_LaIn2Pd
_symmetry_space_group_name_H-M   'P 1'
_cell_length_a   5.89946806
_cell_length_b   5.89946806
_cell_length_c   7.62695637
_cell_angle_alpha   90.00000000
_cell_angle_beta   90.00000000
_cell_angle_gamma   132.90913938
_symmetry_Int_Tables_number   1
_chemical_formula_structural   LaIn2Pd
_chemical_formula_sum   'La2 In4 Pd2'
_cell_volume   194.42210843
_cell_formula_units_Z   2
loop_
 _symmetry_equiv_pos_site_id
 _symmetry_equiv_pos_as_xyz
  1  'x, y, z'
loop_
 _atom_site_type_symbol
 _atom_site_label
 _atom_site_symmetry_multiplicity
 _atom_site_fract_x
 _atom_site_fract_y
 _atom_site_fract_z
 _atom_site_occupancy
  La  La0  1  0.42378938  0.57621062  0.75000000  1.0
  La  La1  1  -0.42378938  0.42378938  0.25000000  1.0
  In  In2  1  0.13919519  0.86080481  0.94946036  1.0
  In  In3  1  0.13919519  0.86080481  0.55053964  1.0
  In  In4  1  -0.13919519  0.13919519  0.44946036  1.0
  In  In5  1  -0.13919519  0.13919519  0.05053964  1.0
  Pd  Pd6  1  -0.29412899  0.29412899  0.75000000  1.0
  Pd  Pd7  1  0.29412899  0.70587101  0.25000000  1.0
