# generated using pymatgen
data_TiSb2
_symmetry_space_group_name_H-M   'P 1'
_cell_length_a   5.57367451
_cell_length_b   5.57367451
_cell_length_c   5.57367451
_cell_angle_alpha   105.76941055
_cell_angle_beta   105.76941055
_cell_angle_gamma   117.15936430
_symmetry_Int_Tables_number   1
_chemical_formula_structural   TiSb2
_chemical_formula_sum   'Ti2 Sb4'
_cell_volume   131.46901738
_cell_formula_units_Z   2
loop_
 _symmetry_equiv_pos_site_id
 _symmetry_equiv_pos_as_xyz
  1  'x, y, z'
loop_
 _atom_site_type_symbol
 _atom_site_label
 _atom_site_symmetry_multiplicity
 _atom_site_fract_x
 _atom_site_fract_y
 _atom_site_fract_z
 _atom_site_occupancy
  Ti  Ti0  1  0.25000000  0.25000000  0.00000000  1.0
  Ti  Ti1  1  0.75000000  0.75000000  0.00000000  1.0
  Sb  Sb2  1  0.84737158  0.34737158  1.19474316  1.0
  Sb  Sb3  1  0.65262842  0.84737158  0.50000000  1.0
  Sb  Sb4  1  0.34737158  0.15262842  0.50000000  1.0
  Sb  Sb5  1  1.15262842  0.65262842  0.80525684  1.0
