# generated using pymatgen
data_Hf2Si
_symmetry_space_group_name_H-M   'P 1'
_cell_length_a   5.32669974
_cell_length_b   5.32669974
_cell_length_c   5.32669974
_cell_angle_alpha   103.74716046
_cell_angle_beta   103.74716046
_cell_angle_gamma   121.64969817
_symmetry_Int_Tables_number   1
_chemical_formula_structural   Hf2Si
_chemical_formula_sum   'Hf4 Si2'
_cell_volume   112.33723908
_cell_formula_units_Z   2
loop_
 _symmetry_equiv_pos_site_id
 _symmetry_equiv_pos_as_xyz
  1  'x, y, z'
loop_
 _atom_site_type_symbol
 _atom_site_label
 _atom_site_symmetry_multiplicity
 _atom_site_fract_x
 _atom_site_fract_y
 _atom_site_fract_z
 _atom_site_occupancy
  Hf  Hf0  1  0.84300120  0.34300120  1.18600240  1.0
  Hf  Hf1  1  0.65699880  0.84300120  0.50000000  1.0
  Hf  Hf2  1  1.34300120  1.15699880  1.50000000  1.0
  Hf  Hf3  1  0.15699880  0.65699880  0.81399760  1.0
  Si  Si4  1  0.25000000  0.25000000  -0.00000000  1.0
  Si  Si5  1  0.75000000  0.75000000  -0.00000000  1.0
