# generated using pymatgen
data_Ca3WCl2O5
_symmetry_space_group_name_H-M   'P 1'
_cell_length_a   11.95332868
_cell_length_b   5.64644004
_cell_length_c   11.21947108
_cell_angle_alpha   90.00000000
_cell_angle_beta   90.00000000
_cell_angle_gamma   90.00000000
_symmetry_Int_Tables_number   1
_chemical_formula_structural   Ca3WCl2O5
_chemical_formula_sum   'Ca12 W4 Cl8 O20'
_cell_volume   757.24421739
_cell_formula_units_Z   4
loop_
 _symmetry_equiv_pos_site_id
 _symmetry_equiv_pos_as_xyz
  1  'x, y, z'
loop_
 _atom_site_type_symbol
 _atom_site_label
 _atom_site_symmetry_multiplicity
 _atom_site_fract_x
 _atom_site_fract_y
 _atom_site_fract_z
 _atom_site_occupancy
  Ca  Ca0  1  0.34050198  0.75000000  0.07929638  1.0
  Ca  Ca1  1  0.84050198  0.75000000  0.42070362  1.0
  Ca  Ca2  1  0.65949802  0.25000000  0.92070362  1.0
  Ca  Ca3  1  0.15949802  0.25000000  0.57929638  1.0
  Ca  Ca4  1  0.16832196  0.75000000  0.33046554  1.0
  Ca  Ca5  1  0.66832196  0.75000000  0.16953446  1.0
  Ca  Ca6  1  0.83167804  0.25000000  0.66953446  1.0
  Ca  Ca7  1  0.33167804  0.25000000  0.83046554  1.0
  Ca  Ca8  1  0.13822303  0.75000000  0.83368382  1.0
  Ca  Ca9  1  0.63822303  0.75000000  0.66631618  1.0
  Ca  Ca10  1  0.86177697  0.25000000  0.16631618  1.0
  Ca  Ca11  1  0.36177697  0.25000000  0.33368382  1.0
  W  W12  1  0.30804069  0.75000000  0.58511742  1.0
  W  W13  1  0.80804069  0.75000000  0.91488258  1.0
  W  W14  1  0.69195931  0.25000000  0.41488258  1.0
  W  W15  1  0.19195931  0.25000000  0.08511742  1.0
  Cl  Cl16  1  0.46771474  0.75000000  0.28316645  1.0
  Cl  Cl17  1  0.96771474  0.75000000  0.21683355  1.0
  Cl  Cl18  1  0.53228526  0.25000000  0.71683355  1.0
  Cl  Cl19  1  0.03228526  0.25000000  0.78316645  1.0
  Cl  Cl20  1  0.02597481  0.75000000  0.58112172  1.0
  Cl  Cl21  1  0.52597481  0.75000000  0.91887828  1.0
  Cl  Cl22  1  0.97402519  0.25000000  0.41887828  1.0
  Cl  Cl23  1  0.47402519  0.25000000  0.08112172  1.0
  O  O24  1  0.25798874  0.97733780  0.69952909  1.0
  O  O25  1  0.25798874  0.52266220  0.69952909  1.0
  O  O26  1  0.75798874  0.97733780  0.80047091  1.0
  O  O27  1  0.75798874  0.52266220  0.80047091  1.0
  O  O28  1  0.74201126  0.47733780  0.30047091  1.0
  O  O29  1  0.74201126  0.02266220  0.30047091  1.0
  O  O30  1  0.24201126  0.47733780  0.19952909  1.0
  O  O31  1  0.24201126  0.02266220  0.19952909  1.0
  O  O32  1  0.23472852  0.48228047  0.96758295  1.0
  O  O33  1  0.23472852  0.01771953  0.96758295  1.0
  O  O34  1  0.73472852  0.48228047  0.53241705  1.0
  O  O35  1  0.73472852  0.01771953  0.53241705  1.0
  O  O36  1  0.76527148  0.98228047  0.03241705  1.0
  O  O37  1  0.76527148  0.51771953  0.03241705  1.0
  O  O38  1  0.26527148  0.98228047  0.46758295  1.0
  O  O39  1  0.26527148  0.51771953  0.46758295  1.0
  O  O40  1  0.45474923  0.75000000  0.59204333  1.0
  O  O41  1  0.95474923  0.75000000  0.90795667  1.0
  O  O42  1  0.54525077  0.25000000  0.40795667  1.0
  O  O43  1  0.04525077  0.25000000  0.09204333  1.0
