# generated using pymatgen
data_BaCuAs2O7
_symmetry_space_group_name_H-M   'P 1'
_cell_length_a   6.01245276
_cell_length_b   8.54290069
_cell_length_c   14.36666600
_cell_angle_alpha   90.00000000
_cell_angle_beta   112.67527063
_cell_angle_gamma   90.00000000
_symmetry_Int_Tables_number   1
_chemical_formula_structural   BaCuAs2O7
_chemical_formula_sum   'Ba4 Cu4 As8 O28'
_cell_volume   680.88802872
_cell_formula_units_Z   4
loop_
 _symmetry_equiv_pos_site_id
 _symmetry_equiv_pos_as_xyz
  1  'x, y, z'
loop_
 _atom_site_type_symbol
 _atom_site_label
 _atom_site_symmetry_multiplicity
 _atom_site_fract_x
 _atom_site_fract_y
 _atom_site_fract_z
 _atom_site_occupancy
  Ba  Ba0  1  0.99753744  0.15140721  0.28712282  1.0
  Ba  Ba1  1  0.99753744  0.34859279  0.78712282  1.0
  Ba  Ba2  1  0.00246256  0.65140721  0.21287718  1.0
  Ba  Ba3  1  0.00246256  0.84859279  0.71287718  1.0
  Cu  Cu4  1  0.65461404  0.85884540  0.37913781  1.0
  Cu  Cu5  1  0.65461404  0.64115460  0.87913781  1.0
  Cu  Cu6  1  0.34538596  0.35884540  0.12086219  1.0
  Cu  Cu7  1  0.34538596  0.14115460  0.62086219  1.0
  As  As8  1  0.66508235  0.18067193  0.49463851  1.0
  As  As9  1  0.66508235  0.31932807  0.99463851  1.0
  As  As10  1  0.33491765  0.68067193  0.00536149  1.0
  As  As11  1  0.33491765  0.81932807  0.50536149  1.0
  As  As12  1  0.59451435  0.46635376  0.34254353  1.0
  As  As13  1  0.59451435  0.03364624  0.84254353  1.0
  As  As14  1  0.40548565  0.96635376  0.15745647  1.0
  As  As15  1  0.40548565  0.53364624  0.65745647  1.0
  O  O16  1  0.89501028  0.34218253  0.10870706  1.0
  O  O17  1  0.89501028  0.15781747  0.60870706  1.0
  O  O18  1  0.10498972  0.84218253  0.39129294  1.0
  O  O19  1  0.10498972  0.65781747  0.89129294  1.0
  O  O20  1  0.83511980  0.44387898  0.30917819  1.0
  O  O21  1  0.83511980  0.05612102  0.80917819  1.0
  O  O22  1  0.16488020  0.94387898  0.19082181  1.0
  O  O23  1  0.16488020  0.55612102  0.69082181  1.0
  O  O24  1  0.70126108  0.08794117  0.39300305  1.0
  O  O25  1  0.70126108  0.41205883  0.89300305  1.0
  O  O26  1  0.29873892  0.58794117  0.10699695  1.0
  O  O27  1  0.29873892  0.91205883  0.60699695  1.0
  O  O28  1  0.67497468  0.38851856  0.46778111  1.0
  O  O29  1  0.67497468  0.11148144  0.96778111  1.0
  O  O30  1  0.32502532  0.88851856  0.03221889  1.0
  O  O31  1  0.32502532  0.61148144  0.53221889  1.0
  O  O32  1  0.50075577  0.15540419  0.15171518  1.0
  O  O33  1  0.50075577  0.34459581  0.65171518  1.0
  O  O34  1  0.49924423  0.65540419  0.34828482  1.0
  O  O35  1  0.49924423  0.84459581  0.84828482  1.0
  O  O36  1  0.37031083  0.14925693  0.48678786  1.0
  O  O37  1  0.37031083  0.35074307  0.98678786  1.0
  O  O38  1  0.62968917  0.64925693  0.01321214  1.0
  O  O39  1  0.62968917  0.85074307  0.51321214  1.0
  O  O40  1  0.33437685  0.37241055  0.26053309  1.0
  O  O41  1  0.33437685  0.12758945  0.76053309  1.0
  O  O42  1  0.66562315  0.87241055  0.23946691  1.0
  O  O43  1  0.66562315  0.62758945  0.73946691  1.0
