# generated using pymatgen
data_Cu3Sb
_symmetry_space_group_name_H-M   'P 1'
_cell_length_a   4.27120003
_cell_length_b   5.45210264
_cell_length_c   5.21333726
_cell_angle_alpha   90.00000000
_cell_angle_beta   90.00000000
_cell_angle_gamma   90.00000000
_symmetry_Int_Tables_number   1
_chemical_formula_structural   Cu3Sb
_chemical_formula_sum   'Cu6 Sb2'
_cell_volume   121.40309412
_cell_formula_units_Z   2
loop_
 _symmetry_equiv_pos_site_id
 _symmetry_equiv_pos_as_xyz
  1  'x, y, z'
loop_
 _atom_site_type_symbol
 _atom_site_label
 _atom_site_symmetry_multiplicity
 _atom_site_fract_x
 _atom_site_fract_y
 _atom_site_fract_z
 _atom_site_occupancy
  Cu  Cu0  1  0.00000000  0.25364956  0.64417857  1.0
  Cu  Cu1  1  0.00000000  0.74635044  0.64417857  1.0
  Cu  Cu2  1  0.50000000  0.75364956  0.35582143  1.0
  Cu  Cu3  1  0.50000000  0.24635044  0.35582143  1.0
  Cu  Cu4  1  0.00000000  0.00000000  0.22583695  1.0
  Cu  Cu5  1  0.50000000  0.50000000  0.77416305  1.0
  Sb  Sb6  1  0.00000000  0.50000000  0.15112256  1.0
  Sb  Sb7  1  0.50000000  0.00000000  0.84887744  1.0
