# generated using pymatgen
data_SrMoO2
_symmetry_space_group_name_H-M   'P 1'
_cell_length_a   7.50985441
_cell_length_b   7.50985441
_cell_length_c   7.50985441
_cell_angle_alpha   130.64141198
_cell_angle_beta   130.64141198
_cell_angle_gamma   72.38342291
_symmetry_Int_Tables_number   1
_chemical_formula_structural   SrMoO2
_chemical_formula_sum   'Sr4 Mo4 O8'
_cell_volume   238.36704458
_cell_formula_units_Z   4
loop_
 _symmetry_equiv_pos_site_id
 _symmetry_equiv_pos_as_xyz
  1  'x, y, z'
loop_
 _atom_site_type_symbol
 _atom_site_label
 _atom_site_symmetry_multiplicity
 _atom_site_fract_x
 _atom_site_fract_y
 _atom_site_fract_z
 _atom_site_occupancy
  Sr  Sr0  1  0.37500000  0.62500000  0.75000000  1.0
  Sr  Sr1  1  0.87500000  0.62500000  1.25000000  1.0
  Sr  Sr2  1  0.37500000  1.12500000  0.75000000  1.0
  Sr  Sr3  1  0.37500000  0.62500000  0.25000000  1.0
  Mo  Mo4  1  0.87500000  0.12500000  0.75000000  1.0
  Mo  Mo5  1  0.37500000  0.12500000  0.25000000  1.0
  Mo  Mo6  1  0.87500000  0.62500000  0.75000000  1.0
  Mo  Mo7  1  0.87500000  1.12500000  1.25000000  1.0
  O  O8  1  1.17274375  0.97197537  1.79923140  1.0
  O  O9  1  0.57725603  0.87648765  1.29923140  1.0
  O  O10  1  1.02802463  0.82725603  1.20076839  1.0
  O  O11  1  1.12351235  1.42274375  1.70076839  1.0
  O  O12  1  0.17274397  0.37351235  0.20076860  1.0
  O  O13  1  0.57725625  0.27802463  0.70076860  1.0
  O  O14  1  0.62648765  0.82725625  0.79923161  1.0
  O  O15  1  0.72197537  0.42274397  0.29923161  1.0
