# generated using pymatgen
data_BiSCl
_symmetry_space_group_name_H-M   'P 1'
_cell_length_a   7.67573048
_cell_length_b   3.98865228
_cell_length_c   11.54142157
_cell_angle_alpha   90.00000000
_cell_angle_beta   90.00000000
_cell_angle_gamma   90.00000000
_symmetry_Int_Tables_number   1
_chemical_formula_structural   BiSCl
_chemical_formula_sum   'Bi4 S4 Cl4'
_cell_volume   353.35008438
_cell_formula_units_Z   4
loop_
 _symmetry_equiv_pos_site_id
 _symmetry_equiv_pos_as_xyz
  1  'x, y, z'
loop_
 _atom_site_type_symbol
 _atom_site_label
 _atom_site_symmetry_multiplicity
 _atom_site_fract_x
 _atom_site_fract_y
 _atom_site_fract_z
 _atom_site_occupancy
  Bi  Bi0  1  0.88788594  0.75000000  0.12736060  1.0
  Bi  Bi1  1  0.38788594  0.75000000  0.37263940  1.0
  Bi  Bi2  1  0.11211406  0.25000000  0.87263940  1.0
  Bi  Bi3  1  0.61211406  0.25000000  0.62736060  1.0
  S  S4  1  0.69439569  0.75000000  0.47470127  1.0
  S  S5  1  0.19439569  0.75000000  0.02529873  1.0
  S  S6  1  0.30560431  0.25000000  0.52529873  1.0
  S  S7  1  0.80560431  0.25000000  0.97470127  1.0
  Cl  Cl8  1  -0.05859893  0.75000000  0.72665744  1.0
  Cl  Cl9  1  0.44140107  0.75000000  0.77334256  1.0
  Cl  Cl10  1  0.05859893  0.25000000  0.27334256  1.0
  Cl  Cl11  1  0.55859893  0.25000000  0.22665744  1.0
