# generated using pymatgen
data_TlCuHCO4
_symmetry_space_group_name_H-M   'P 1'
_cell_length_a   11.84391441
_cell_length_b   11.84391441
_cell_length_c   5.94829872
_cell_angle_alpha   90.00000000
_cell_angle_beta   90.00000000
_cell_angle_gamma   120.00000000
_symmetry_Int_Tables_number   1
_chemical_formula_structural   TlCuHCO4
_chemical_formula_sum   'Tl6 Cu6 H6 C6 O24'
_cell_volume   722.62656423
_cell_formula_units_Z   6
loop_
 _symmetry_equiv_pos_site_id
 _symmetry_equiv_pos_as_xyz
  1  'x, y, z'
loop_
 _atom_site_type_symbol
 _atom_site_label
 _atom_site_symmetry_multiplicity
 _atom_site_fract_x
 _atom_site_fract_y
 _atom_site_fract_z
 _atom_site_occupancy
  C  C0  1  0.74721997  0.57728246  0.25000000  1.0
  C  C1  1  0.57728246  0.83006249  0.75000000  1.0
  C  C2  1  0.83006249  0.25278003  0.25000000  1.0
  C  C3  1  0.42271754  0.16993751  0.25000000  1.0
  C  C4  1  0.25278003  0.42271754  0.75000000  1.0
  C  C5  1  0.16993751  0.74721997  0.75000000  1.0
  H  H6  1  0.40285942  0.81623508  0.25000000  1.0
  H  H7  1  0.81623508  0.41337565  0.75000000  1.0
  H  H8  1  0.41337565  0.59714058  0.25000000  1.0
  H  H9  1  0.18376492  0.58662435  0.25000000  1.0
  H  H10  1  0.59714058  0.18376492  0.75000000  1.0
  H  H11  1  0.58662435  0.40285942  0.75000000  1.0
  O  O12  1  0.68356979  0.55047397  0.44180673  1.0
  O  O13  1  0.68356979  0.55047397  0.05819327  1.0
  O  O14  1  0.55047397  0.86690419  0.94180673  1.0
  O  O15  1  0.55047397  0.86690419  0.55819327  1.0
  O  O16  1  0.86690419  0.31643021  0.44180673  1.0
  O  O17  1  0.86690419  0.31643021  0.05819327  1.0
  O  O18  1  0.44952603  0.13309581  0.44180673  1.0
  O  O19  1  0.44952603  0.13309581  0.05819327  1.0
  O  O20  1  0.31643021  0.44952603  0.94180673  1.0
  O  O21  1  0.31643021  0.44952603  0.55819327  1.0
  O  O22  1  0.13309581  0.68356979  0.94180673  1.0
  O  O23  1  0.13309581  0.68356979  0.55819327  1.0
  O  O24  1  0.87025502  0.63035576  0.25000000  1.0
  O  O25  1  0.63035576  0.76010074  0.75000000  1.0
  O  O26  1  0.76010074  0.12974498  0.25000000  1.0
  O  O27  1  0.36964424  0.23989926  0.25000000  1.0
  O  O28  1  0.12974498  0.36964424  0.75000000  1.0
  O  O29  1  0.23989926  0.87025502  0.75000000  1.0
  O  O30  1  0.39526433  0.89443175  0.25000000  1.0
  O  O31  1  0.89443175  0.49916742  0.75000000  1.0
  O  O32  1  0.49916742  0.60473567  0.25000000  1.0
  O  O33  1  0.10556825  0.50083258  0.25000000  1.0
  O  O34  1  0.60473567  0.10556825  0.75000000  1.0
  O  O35  1  0.50083258  0.39526433  0.75000000  1.0
  Cu  Cu36  1  0.50000000  0.50000000  0.50000000  1.0
  Cu  Cu37  1  0.50000000  0.50000000  -0.00000000  1.0
  Cu  Cu38  1  0.50000000  0.00000000  0.00000000  1.0
  Cu  Cu39  1  0.50000000  0.00000000  0.50000000  1.0
  Cu  Cu40  1  -0.00000000  0.50000000  0.50000000  1.0
  Cu  Cu41  1  -0.00000000  0.50000000  -0.00000000  1.0
  Tl  Tl42  1  0.15386554  0.85854703  0.25000000  1.0
  Tl  Tl43  1  0.85854703  0.70468149  0.75000000  1.0
  Tl  Tl44  1  0.70468149  0.84613446  0.25000000  1.0
  Tl  Tl45  1  0.14145297  0.29531851  0.25000000  1.0
  Tl  Tl46  1  0.84613446  0.14145297  0.75000000  1.0
  Tl  Tl47  1  0.29531851  0.15386554  0.75000000  1.0
