# generated using pymatgen
data_KC4S(OF3)3
_symmetry_space_group_name_H-M   'P 1'
_cell_length_a   5.23018181
_cell_length_b   17.62758257
_cell_length_c   5.76563843
_cell_angle_alpha   84.12313663
_cell_angle_beta   86.14100762
_cell_angle_gamma   86.51348684
_symmetry_Int_Tables_number   1
_chemical_formula_structural   KC4S(OF3)3
_chemical_formula_sum   'K2 C8 S2 O6 F18'
_cell_volume   526.79380992
_cell_formula_units_Z   2
loop_
 _symmetry_equiv_pos_site_id
 _symmetry_equiv_pos_as_xyz
  1  'x, y, z'
loop_
 _atom_site_type_symbol
 _atom_site_label
 _atom_site_symmetry_multiplicity
 _atom_site_fract_x
 _atom_site_fract_y
 _atom_site_fract_z
 _atom_site_occupancy
  K  K0  1  -0.98079116  -0.92142898  -0.25360025  1.0
  K  K1  1  -0.01920884  -0.07857102  -0.74639975  1.0
  C  C2  1  -0.68203615  -0.58758531  -0.70085966  1.0
  C  C3  1  -0.31796385  -0.41241469  -0.29914034  1.0
  C  C4  1  -0.67064477  -0.65671238  -0.85359317  1.0
  C  C5  1  -0.32935523  -0.34328762  -0.14640683  1.0
  C  C6  1  -0.60353283  -0.73690461  -0.71821002  1.0
  C  C7  1  -0.39646717  -0.26309539  -0.28178998  1.0
  C  C8  1  -0.51471543  -0.80135148  -0.87790791  1.0
  C  C9  1  -0.48528457  -0.19864852  -0.12209209  1.0
  S  S10  1  -0.51428995  -0.90251977  -0.72614453  1.0
  S  S11  1  -0.48571005  -0.09748023  -0.27385547  1.0
  O  O12  1  -0.78097566  -0.92363080  -0.73410585  1.0
  O  O13  1  -0.21902434  -0.07636920  -0.26589415  1.0
  O  O14  1  -0.43708028  -0.89572287  -0.48933301  1.0
  O  O15  1  -0.56291972  -0.10427713  -0.51066699  1.0
  O  O16  1  -0.32677551  -0.94360613  -0.87446831  1.0
  O  O17  1  -0.67322449  -0.05639387  -0.12553169  1.0
  F  F18  1  -0.90434711  -0.65828333  -0.94334731  1.0
  F  F19  1  -0.09565289  -0.34171667  -0.05665269  1.0
  F  F20  1  -0.83459288  -0.60173552  -0.50427123  1.0
  F  F21  1  -0.16540712  -0.39826448  -0.49572877  1.0
  F  F22  1  -0.81857631  -0.75885444  -0.58525834  1.0
  F  F23  1  -0.18142369  -0.24114556  -0.41474166  1.0
  F  F24  1  -0.77985881  -0.52480624  -0.82616168  1.0
  F  F25  1  -0.22014119  -0.47519376  -0.17383832  1.0
  F  F26  1  -0.67265856  -0.79734912  -0.06001777  1.0
  F  F27  1  -0.32734144  -0.20265088  -0.93998223  1.0
  F  F28  1  -0.50918189  -0.35753072  -0.96693967  1.0
  F  F29  1  -0.49081811  -0.64246928  -0.03306033  1.0
  F  F30  1  -0.44561192  -0.57332004  -0.64148942  1.0
  F  F31  1  -0.55438808  -0.42667996  -0.35851058  1.0
  F  F32  1  -0.41343581  -0.72893547  -0.57333834  1.0
  F  F33  1  -0.58656419  -0.27106453  -0.42666166  1.0
  F  F34  1  -0.27160108  -0.78861191  -0.96960009  1.0
  F  F35  1  -0.72839892  -0.21138809  -0.03039991  1.0
