# generated using pymatgen
data_MnSnO3
_symmetry_space_group_name_H-M   'P 1'
_cell_length_a   5.78501308
_cell_length_b   5.78501308
_cell_length_c   5.78501308
_cell_angle_alpha   56.00047542
_cell_angle_beta   56.00047542
_cell_angle_gamma   56.00047542
_symmetry_Int_Tables_number   1
_chemical_formula_structural   MnSnO3
_chemical_formula_sum   'Mn2 Sn2 O6'
_cell_volume   124.21370298
_cell_formula_units_Z   2
loop_
 _symmetry_equiv_pos_site_id
 _symmetry_equiv_pos_as_xyz
  1  'x, y, z'
loop_
 _atom_site_type_symbol
 _atom_site_label
 _atom_site_symmetry_multiplicity
 _atom_site_fract_x
 _atom_site_fract_y
 _atom_site_fract_z
 _atom_site_occupancy
  Mn  Mn0  1  0.36419629  0.36419629  -0.63580371  1.0
  Mn  Mn1  1  0.63580371  0.63580371  -0.36419629  1.0
  Sn  Sn2  1  0.15087884  0.15087884  0.15087884  1.0
  Sn  Sn3  1  0.84912116  -0.15087884  -0.15087884  1.0
  O  O4  1  0.44517832  0.04776380  -0.23385651  1.0
  O  O5  1  1.23385651  -0.44517832  -0.04776380  1.0
  O  O6  1  0.95223620  0.23385651  -0.44517832  1.0
  O  O7  1  0.55482168  -0.04776380  0.23385651  1.0
  O  O8  1  0.76614349  -0.55482168  0.04776380  1.0
  O  O9  1  1.04776380  -0.23385651  -0.55482168  1.0
