# generated using pymatgen
data_LaAsO4
_symmetry_space_group_name_H-M   'P 1'
_cell_length_a   7.06952580
_cell_length_b   7.06952580
_cell_length_c   7.06952580
_cell_angle_alpha   136.36004926
_cell_angle_beta   136.36004926
_cell_angle_gamma   63.42418194
_symmetry_Int_Tables_number   1
_chemical_formula_structural   LaAsO4
_chemical_formula_sum   'La2 As2 O8'
_cell_volume   166.10116392
_cell_formula_units_Z   2
loop_
 _symmetry_equiv_pos_site_id
 _symmetry_equiv_pos_as_xyz
  1  'x, y, z'
loop_
 _atom_site_type_symbol
 _atom_site_label
 _atom_site_symmetry_multiplicity
 _atom_site_fract_x
 _atom_site_fract_y
 _atom_site_fract_z
 _atom_site_occupancy
  La  La0  1  0.25000000  0.75000000  0.50000000  1.0
  La  La1  1  0.50000000  0.50000000  -0.00000000  1.0
  As  As2  1  0.75000000  0.25000000  0.50000000  1.0
  As  As3  1  1.00000000  1.00000000  1.00000000  1.0
  O  O4  1  0.80693267  0.42018964  0.88125745  1.0
  O  O5  1  0.53893219  0.92567522  1.11874255  1.0
  O  O6  1  0.67567522  1.05693267  0.88674303  1.0
  O  O7  1  1.17018964  0.78893219  1.11325697  1.0
  O  O8  1  0.94306733  0.82981036  0.61874255  1.0
  O  O9  1  1.21106781  1.32432478  1.38125745  1.0
  O  O10  1  1.07432478  1.19306733  1.61325697  1.0
  O  O11  1  0.57981036  0.46106781  0.38674303  1.0
