# generated using pymatgen
data_Ba3NbAs3O
_symmetry_space_group_name_H-M   'P 1'
_cell_length_a   6.79667133
_cell_length_b   11.22728095
_cell_length_c   13.64537375
_cell_angle_alpha   90.00000000
_cell_angle_beta   90.00000000
_cell_angle_gamma   90.00000000
_symmetry_Int_Tables_number   1
_chemical_formula_structural   Ba3NbAs3O
_chemical_formula_sum   'Ba12 Nb4 As12 O4'
_cell_volume   1041.25307069
_cell_formula_units_Z   4
loop_
 _symmetry_equiv_pos_site_id
 _symmetry_equiv_pos_as_xyz
  1  'x, y, z'
loop_
 _atom_site_type_symbol
 _atom_site_label
 _atom_site_symmetry_multiplicity
 _atom_site_fract_x
 _atom_site_fract_y
 _atom_site_fract_z
 _atom_site_occupancy
  Ba  Ba0  1  0.24372834  0.95476936  0.86953508  1.0
  Ba  Ba1  1  0.24372834  0.54523064  0.86953508  1.0
  Ba  Ba2  1  0.74372834  0.95476936  0.63046492  1.0
  Ba  Ba3  1  0.74372834  0.54523064  0.63046492  1.0
  Ba  Ba4  1  0.75627166  0.45476936  0.13046492  1.0
  Ba  Ba5  1  0.75627166  0.04523064  0.13046492  1.0
  Ba  Ba6  1  0.25627166  0.45476936  0.36953508  1.0
  Ba  Ba7  1  0.25627166  0.04523064  0.36953508  1.0
  Ba  Ba8  1  0.27163378  0.75000000  0.12838526  1.0
  Ba  Ba9  1  0.77163378  0.75000000  0.37161474  1.0
  Ba  Ba10  1  0.72836622  0.25000000  0.87161474  1.0
  Ba  Ba11  1  0.22836622  0.25000000  0.62838526  1.0
  Nb  Nb12  1  0.34011740  0.75000000  0.54573937  1.0
  Nb  Nb13  1  0.84011740  0.75000000  0.95426063  1.0
  Nb  Nb14  1  0.65988260  0.25000000  0.45426063  1.0
  Nb  Nb15  1  0.15988260  0.25000000  0.04573937  1.0
  As  As16  1  0.23746527  0.94430661  0.61789045  1.0
  As  As17  1  0.23746527  0.55569339  0.61789045  1.0
  As  As18  1  0.73746527  0.94430661  0.88210955  1.0
  As  As19  1  0.73746527  0.55569339  0.88210955  1.0
  As  As20  1  0.76253473  0.44430661  0.38210955  1.0
  As  As21  1  0.76253473  0.05569339  0.38210955  1.0
  As  As22  1  0.26253473  0.44430661  0.11789045  1.0
  As  As23  1  0.26253473  0.05569339  0.11789045  1.0
  As  As24  1  0.27140292  0.75000000  0.36699549  1.0
  As  As25  1  0.77140292  0.75000000  0.13300451  1.0
  As  As26  1  0.72859708  0.25000000  0.63300451  1.0
  As  As27  1  0.22859708  0.25000000  0.86699549  1.0
  O  O28  1  0.11651950  0.75000000  0.94692347  1.0
  O  O29  1  0.61651950  0.75000000  0.55307653  1.0
  O  O30  1  0.88348050  0.25000000  0.05307653  1.0
  O  O31  1  0.38348050  0.25000000  0.44692347  1.0
