# generated using pymatgen
data_BaSi3Pt
_symmetry_space_group_name_H-M   'P 1'
_cell_length_a   5.94675916
_cell_length_b   5.94675916
_cell_length_c   5.94675916
_cell_angle_alpha   136.12815961
_cell_angle_beta   136.12815961
_cell_angle_gamma   63.78226060
_symmetry_Int_Tables_number   1
_chemical_formula_structural   BaSi3Pt
_chemical_formula_sum   'Ba1 Si3 Pt1'
_cell_volume   99.67326053
_cell_formula_units_Z   1
loop_
 _symmetry_equiv_pos_site_id
 _symmetry_equiv_pos_as_xyz
  1  'x, y, z'
loop_
 _atom_site_type_symbol
 _atom_site_label
 _atom_site_symmetry_multiplicity
 _atom_site_fract_x
 _atom_site_fract_y
 _atom_site_fract_z
 _atom_site_occupancy
  Ba  Ba0  1  0.60128069  0.60128069  1.00000000  1.0
  Si  Si1  1  0.85703420  0.35703420  0.50000000  1.0
  Si  Si2  1  0.35703420  0.85703420  0.50000000  1.0
  Si  Si3  1  -0.00595556  -0.00595556  0.00000000  1.0
  Pt  Pt4  1  0.24940647  0.24940647  -0.00000000  1.0
