# generated using pymatgen
data_FeHO2
_symmetry_space_group_name_H-M   'P 1'
_cell_length_a   2.83052235
_cell_length_b   4.27537732
_cell_length_c   4.76187694
_cell_angle_alpha   90.00000000
_cell_angle_beta   90.00000000
_cell_angle_gamma   90.00000000
_symmetry_Int_Tables_number   1
_chemical_formula_structural   FeHO2
_chemical_formula_sum   'Fe2 H2 O4'
_cell_volume   57.62609698
_cell_formula_units_Z   2
loop_
 _symmetry_equiv_pos_site_id
 _symmetry_equiv_pos_as_xyz
  1  'x, y, z'
loop_
 _atom_site_type_symbol
 _atom_site_label
 _atom_site_symmetry_multiplicity
 _atom_site_fract_x
 _atom_site_fract_y
 _atom_site_fract_z
 _atom_site_occupancy
  Fe  Fe0  1  0.50000000  0.73260654  0.14242904  1.0
  Fe  Fe1  1  0.00000000  0.26739346  0.64242904  1.0
  H  H2  1  0.50000000  0.79826313  0.62721994  1.0
  H  H3  1  0.00000000  0.20173687  0.12721994  1.0
  O  O4  1  0.50000000  0.99010375  0.49398366  1.0
  O  O5  1  0.00000000  0.00989625  -0.00601634  1.0
  O  O6  1  0.50000000  0.50929515  0.79686737  1.0
  O  O7  1  0.00000000  0.49070485  0.29686737  1.0
