# generated using pymatgen
data_Ba4Y(CuO3)3
_symmetry_space_group_name_H-M   'P 1'
_cell_length_a   8.30078142
_cell_length_b   8.30078142
_cell_length_c   3.89162108
_cell_angle_alpha   90.00000000
_cell_angle_beta   90.00000000
_cell_angle_gamma   90.00000000
_symmetry_Int_Tables_number   1
_chemical_formula_structural   Ba4Y(CuO3)3
_chemical_formula_sum   'Ba4 Y1 Cu3 O9'
_cell_volume   268.14425940
_cell_formula_units_Z   1
loop_
 _symmetry_equiv_pos_site_id
 _symmetry_equiv_pos_as_xyz
  1  'x, y, z'
loop_
 _atom_site_type_symbol
 _atom_site_label
 _atom_site_symmetry_multiplicity
 _atom_site_fract_x
 _atom_site_fract_y
 _atom_site_fract_z
 _atom_site_occupancy
  Ba  Ba0  1  0.76998995  0.76998995  0.50000000  1.0
  Ba  Ba1  1  0.76998995  0.23001005  0.50000000  1.0
  Ba  Ba2  1  0.23001005  0.76998995  0.50000000  1.0
  Ba  Ba3  1  0.23001005  0.23001005  0.50000000  1.0
  Y  Y4  1  0.50000000  0.50000000  0.00000000  1.0
  Cu  Cu5  1  0.00000000  0.50000000  0.00000000  1.0
  Cu  Cu6  1  0.50000000  0.00000000  0.00000000  1.0
  Cu  Cu7  1  0.00000000  0.00000000  0.00000000  1.0
  O  O8  1  0.76551080  0.50000000  0.00000000  1.0
  O  O9  1  0.50000000  0.76551080  0.00000000  1.0
  O  O10  1  0.50000000  0.23448920  0.00000000  1.0
  O  O11  1  0.23448920  0.50000000  0.00000000  1.0
  O  O12  1  0.72917278  0.00000000  0.00000000  1.0
  O  O13  1  0.00000000  0.72917278  0.00000000  1.0
  O  O14  1  0.00000000  0.27082722  0.00000000  1.0
  O  O15  1  0.27082722  0.00000000  0.00000000  1.0
  O  O16  1  0.00000000  0.00000000  0.50000000  1.0
