# generated using pymatgen
data_Cr8O21
_symmetry_space_group_name_H-M   'P 1'
_cell_length_a   5.41351539
_cell_length_b   12.90874964
_cell_length_c   6.65406439
_cell_angle_alpha   105.76524862
_cell_angle_beta   102.31847245
_cell_angle_gamma   88.88675110
_symmetry_Int_Tables_number   1
_chemical_formula_structural   Cr8O21
_chemical_formula_sum   'Cr8 O21'
_cell_volume   436.83523015
_cell_formula_units_Z   1
loop_
 _symmetry_equiv_pos_site_id
 _symmetry_equiv_pos_as_xyz
  1  'x, y, z'
loop_
 _atom_site_type_symbol
 _atom_site_label
 _atom_site_symmetry_multiplicity
 _atom_site_fract_x
 _atom_site_fract_y
 _atom_site_fract_z
 _atom_site_occupancy
  O  O0  1  0.88628198  0.87384309  -0.43805605  1.0
  O  O1  1  0.11371802  0.12615691  -0.56194395  1.0
  O  O2  1  0.86842656  0.31541898  -0.41474384  1.0
  O  O3  1  0.13157344  0.68458102  -0.58525616  1.0
  O  O4  1  0.76002741  0.74803480  -0.84935963  1.0
  O  O5  1  0.23997259  0.25196520  -0.15064037  1.0
  O  O6  1  0.64172266  0.66968992  -0.55458946  1.0
  O  O7  1  0.35827734  0.33031008  -0.44541054  1.0
  O  O8  1  0.58866330  0.44675202  -0.65906704  1.0
  O  O9  1  0.41133670  0.55324798  -0.34093296  1.0
  O  O10  1  0.52529105  0.91593195  -0.20143985  1.0
  O  O11  1  0.47470895  0.08406805  -0.79856015  1.0
  O  O12  1  0.30243867  0.92790042  -0.68922776  1.0
  O  O13  1  0.69756133  0.07209958  -0.31077224  1.0
  O  O14  1  0.32078648  0.56829805  -0.93147354  1.0
  O  O15  1  0.67921352  0.43170195  -0.06852646  1.0
  O  O16  1  0.00000000  0.00000000  0.00000000  1.0
  O  O17  1  -0.16852476  0.27847505  -0.87544913  1.0
  O  O18  1  1.16852476  0.72152495  -0.12455087  1.0
  O  O19  1  0.92735811  0.53193947  -0.27720760  1.0
  O  O20  1  0.07264189  0.46806053  -0.72279240  1.0
  Cr  Cr21  1  0.76954558  0.96661187  -0.23747012  1.0
  Cr  Cr22  1  0.23045442  0.03338813  -0.76252988  1.0
  Cr  Cr23  1  0.35482273  0.56979481  -0.63995909  1.0
  Cr  Cr24  1  0.64517727  0.43020519  -0.36004091  1.0
  Cr  Cr25  1  0.79476851  0.40319455  -0.83779888  1.0
  Cr  Cr26  1  0.20523149  0.59680545  -0.16220112  1.0
  Cr  Cr27  1  0.85266864  0.74275386  -0.61147289  1.0
  Cr  Cr28  1  0.14733136  0.25724614  -0.38852711  1.0
