# generated using pymatgen
data_P4N3Cl11
_symmetry_space_group_name_H-M   'P 1'
_cell_length_a   8.21985219
_cell_length_b   8.21985219
_cell_length_c   8.21985219
_cell_angle_alpha   83.36994196
_cell_angle_beta   83.36994196
_cell_angle_gamma   83.36994196
_symmetry_Int_Tables_number   1
_chemical_formula_structural   P4N3Cl11
_chemical_formula_sum   'P4 N3 Cl11'
_cell_volume   545.03532895
_cell_formula_units_Z   1
loop_
 _symmetry_equiv_pos_site_id
 _symmetry_equiv_pos_as_xyz
  1  'x, y, z'
loop_
 _atom_site_type_symbol
 _atom_site_label
 _atom_site_symmetry_multiplicity
 _atom_site_fract_x
 _atom_site_fract_y
 _atom_site_fract_z
 _atom_site_occupancy
  P  P0  1  0.49834106  0.59441925  -0.91212881  1.0
  P  P1  1  0.59441925  0.08787119  -0.50165894  1.0
  P  P2  1  0.08787119  0.49834106  -0.40558075  1.0
  P  P3  1  0.38217435  0.38217435  -0.61782565  1.0
  N  N4  1  0.48369690  0.25490238  -0.49359552  1.0
  N  N5  1  0.25490238  0.50640448  -0.51630310  1.0
  N  N6  1  0.50640448  0.48369690  -0.74509762  1.0
  Cl  Cl7  1  0.29335451  0.75057377  -0.93891188  1.0
  Cl  Cl8  1  0.75057377  0.06108812  -0.70664549  1.0
  Cl  Cl9  1  0.06108812  0.29335451  -0.24942623  1.0
  Cl  Cl10  1  0.46234237  0.89175228  -0.48015213  1.0
  Cl  Cl11  1  0.89175228  0.51984787  -0.53765763  1.0
  Cl  Cl12  1  0.51984787  0.46234237  -0.10824772  1.0
  Cl  Cl13  1  0.73063933  0.04848049  -0.31142089  1.0
  Cl  Cl14  1  1.04848049  -0.31142089  -0.26936067  1.0
  Cl  Cl15  1  0.68857911  -0.26936067  0.04848049  1.0
  Cl  Cl16  1  -0.03307321  -0.03307321  -0.03307321  1.0
  Cl  Cl17  1  1.25210576  1.25210576  0.25210576  1.0
