# generated using pymatgen
data_InPS4
_symmetry_space_group_name_H-M   'P 1'
_cell_length_a   6.16902460
_cell_length_b   6.16902460
_cell_length_c   6.16902460
_cell_angle_alpha   123.49114947
_cell_angle_beta   123.49114947
_cell_angle_gamma   84.05254642
_symmetry_Int_Tables_number   1
_chemical_formula_structural   InPS4
_chemical_formula_sum   'In1 P1 S4'
_cell_volume   156.32826286
_cell_formula_units_Z   1
loop_
 _symmetry_equiv_pos_site_id
 _symmetry_equiv_pos_as_xyz
  1  'x, y, z'
loop_
 _atom_site_type_symbol
 _atom_site_label
 _atom_site_symmetry_multiplicity
 _atom_site_fract_x
 _atom_site_fract_y
 _atom_site_fract_z
 _atom_site_occupancy
  In  In0  1  0.00000000  0.00000000  0.00000000  1.0
  P  P1  1  0.25000000  0.75000000  0.50000000  1.0
  S  S2  1  0.35978993  0.82830635  0.92442383  1.0
  S  S3  1  1.17169365  1.09611748  1.53148358  1.0
  S  S4  1  0.90388252  0.43536610  1.07557617  1.0
  S  S5  1  0.56463390  0.64021007  0.46851642  1.0
