# generated using pymatgen
data_Hf(GaFe)6
_symmetry_space_group_name_H-M   'P 1'
_cell_length_a   6.49296004
_cell_length_b   6.49296004
_cell_length_c   6.49296004
_cell_angle_alpha   134.89135399
_cell_angle_beta   99.47854735
_cell_angle_gamma   97.44399477
_symmetry_Int_Tables_number   1
_chemical_formula_structural   Hf(GaFe)6
_chemical_formula_sum   'Hf1 Ga6 Fe6'
_cell_volume   179.05548923
_cell_formula_units_Z   1
loop_
 _symmetry_equiv_pos_site_id
 _symmetry_equiv_pos_as_xyz
  1  'x, y, z'
loop_
 _atom_site_type_symbol
 _atom_site_label
 _atom_site_symmetry_multiplicity
 _atom_site_fract_x
 _atom_site_fract_y
 _atom_site_fract_z
 _atom_site_occupancy
  Hf  Hf0  1  0.00000000  0.00000000  0.00000000  1.0
  Ga  Ga1  1  0.33169811  -0.00000000  0.33169811  1.0
  Ga  Ga2  1  0.66830189  -0.00000000  0.66830189  1.0
  Ga  Ga3  1  0.65863675  0.65863675  1.00000000  1.0
  Ga  Ga4  1  1.34136325  1.34136325  1.00000000  1.0
  Ga  Ga5  1  1.17671469  0.67671469  0.50000000  1.0
  Ga  Ga6  1  0.82328531  0.32328531  0.50000000  1.0
  Fe  Fe7  1  0.75742323  0.50000000  1.25742323  1.0
  Fe  Fe8  1  0.24257677  0.50000000  0.74257677  1.0
  Fe  Fe9  1  1.00000000  1.00000000  1.50000000  1.0
  Fe  Fe10  1  1.00000000  0.50000000  1.00000000  1.0
  Fe  Fe11  1  1.50000000  1.00000000  1.00000000  1.0
  Fe  Fe12  1  1.50000000  1.50000000  1.50000000  1.0
