# generated using pymatgen
data_V2Co2O7
_symmetry_space_group_name_H-M   'P 1'
_cell_length_a   6.63038832
_cell_length_b   8.33217591
_cell_length_c   9.38255246
_cell_angle_alpha   90.00000000
_cell_angle_beta   99.34324163
_cell_angle_gamma   90.00000000
_symmetry_Int_Tables_number   1
_chemical_formula_structural   V2Co2O7
_chemical_formula_sum   'V8 Co8 O28'
_cell_volume   511.46775173
_cell_formula_units_Z   4
loop_
 _symmetry_equiv_pos_site_id
 _symmetry_equiv_pos_as_xyz
  1  'x, y, z'
loop_
 _atom_site_type_symbol
 _atom_site_label
 _atom_site_symmetry_multiplicity
 _atom_site_fract_x
 _atom_site_fract_y
 _atom_site_fract_z
 _atom_site_occupancy
  Co  Co0  1  0.63961363  0.88260189  0.96365947  1.0
  Co  Co1  1  0.63961363  0.61739811  0.46365947  1.0
  Co  Co2  1  0.36038637  0.38260189  0.53634053  1.0
  Co  Co3  1  0.36038637  0.11739811  0.03634053  1.0
  Co  Co4  1  0.79706748  0.88551506  0.68163332  1.0
  Co  Co5  1  0.79706748  0.61448494  0.18163332  1.0
  Co  Co6  1  0.20293252  0.38551506  0.81836668  1.0
  Co  Co7  1  0.20293252  0.11448494  0.31836668  1.0
  O  O8  1  0.52569014  0.91771504  0.74843304  1.0
  O  O9  1  0.52569014  0.58228496  0.24843304  1.0
  O  O10  1  0.47430986  0.41771504  0.75156696  1.0
  O  O11  1  0.47430986  0.08228496  0.25156696  1.0
  O  O12  1  0.67011674  0.63209312  0.96201241  1.0
  O  O13  1  0.67011674  0.86790688  0.46201241  1.0
  O  O14  1  0.32988326  0.13209312  0.53798759  1.0
  O  O15  1  0.32988326  0.36790688  0.03798759  1.0
  O  O16  1  0.89542958  0.36772722  0.87453595  1.0
  O  O17  1  0.89542958  0.13227277  0.37453595  1.0
  O  O18  1  0.10457042  0.86772722  0.62546405  1.0
  O  O19  1  0.10457042  0.63227277  0.12546405  1.0
  O  O20  1  0.17524781  0.61745430  0.84877965  1.0
  O  O21  1  0.17524781  0.88254570  0.34877965  1.0
  O  O22  1  0.82475219  0.11745430  0.65122035  1.0
  O  O23  1  0.82475219  0.38254570  0.15122035  1.0
  O  O24  1  0.65012436  0.37696185  0.49585866  1.0
  O  O25  1  0.65012436  0.12303815  0.99585866  1.0
  O  O26  1  0.34987564  0.87696185  0.00414134  1.0
  O  O27  1  0.34987564  0.62303815  0.50414134  1.0
  O  O28  1  0.75274137  0.64344944  0.67886653  1.0
  O  O29  1  0.75274137  0.85655056  0.17886653  1.0
  O  O30  1  0.24725863  0.14344944  0.82113347  1.0
  O  O31  1  0.24725863  0.35655056  0.32113347  1.0
  O  O32  1  0.92166245  0.86992303  0.89409117  1.0
  O  O33  1  0.92166245  0.63007697  0.39409117  1.0
  O  O34  1  0.07833755  0.36992303  0.60590883  1.0
  O  O35  1  0.07833755  0.13007697  0.10590883  1.0
  V  V36  1  0.69607579  0.51906011  0.81366490  1.0
  V  V37  1  0.69607579  0.98093989  0.31366490  1.0
  V  V38  1  0.30392421  0.01906011  0.68633510  1.0
  V  V39  1  0.30392421  0.48093989  0.18633510  1.0
  V  V40  1  0.86628122  0.25636048  0.53232176  1.0
  V  V41  1  0.86628122  0.24363952  0.03232176  1.0
  V  V42  1  0.13371878  0.75636048  0.96767824  1.0
  V  V43  1  0.13371878  0.74363952  0.46767824  1.0
