# generated using pymatgen
data_CsIrF6
_symmetry_space_group_name_H-M   'P 1'
_cell_length_a   5.46786824
_cell_length_b   5.46786824
_cell_length_c   5.46786824
_cell_angle_alpha   97.00276608
_cell_angle_beta   97.00276608
_cell_angle_gamma   97.00276608
_symmetry_Int_Tables_number   1
_chemical_formula_structural   CsIrF6
_chemical_formula_sum   'Cs1 Ir1 F6'
_cell_volume   159.48629683
_cell_formula_units_Z   1
loop_
 _symmetry_equiv_pos_site_id
 _symmetry_equiv_pos_as_xyz
  1  'x, y, z'
loop_
 _atom_site_type_symbol
 _atom_site_label
 _atom_site_symmetry_multiplicity
 _atom_site_fract_x
 _atom_site_fract_y
 _atom_site_fract_z
 _atom_site_occupancy
  Cs  Cs0  1  0.50000000  0.50000000  0.50000000  1.0
  Ir  Ir1  1  0.00000000  0.00000000  0.00000000  1.0
  F  F2  1  0.77682659  0.73352562  0.08077795  1.0
  F  F3  1  1.26647438  -0.08077795  0.22317341  1.0
  F  F4  1  0.91922205  0.22317341  0.26647438  1.0
  F  F5  1  1.22317341  0.26647438  -0.08077795  1.0
  F  F6  1  0.73352562  1.08077795  -0.22317341  1.0
  F  F7  1  1.08077795  0.77682659  -0.26647438  1.0
