# generated using pymatgen
data_Na2Si2O5
_symmetry_space_group_name_H-M   'P 1'
_cell_length_a   9.56200662
_cell_length_b   5.67645542
_cell_length_c   8.49041810
_cell_angle_alpha   90.00000000
_cell_angle_beta   90.00000000
_cell_angle_gamma   90.00000000
_symmetry_Int_Tables_number   1
_chemical_formula_structural   Na2Si2O5
_chemical_formula_sum   'Na8 Si8 O20'
_cell_volume   460.84549698
_cell_formula_units_Z   4
loop_
 _symmetry_equiv_pos_site_id
 _symmetry_equiv_pos_as_xyz
  1  'x, y, z'
loop_
 _atom_site_type_symbol
 _atom_site_label
 _atom_site_symmetry_multiplicity
 _atom_site_fract_x
 _atom_site_fract_y
 _atom_site_fract_z
 _atom_site_occupancy
  Na  Na0  1  0.48908172  0.06516048  0.52246511  1.0
  Na  Na1  1  0.98908172  0.93483952  0.52246511  1.0
  Na  Na2  1  0.51091828  0.93483952  0.02246511  1.0
  Na  Na3  1  0.01091828  0.06516048  0.02246511  1.0
  Na  Na4  1  0.75559024  0.08798983  0.74738732  1.0
  Na  Na5  1  0.25559024  0.91201017  0.74738732  1.0
  Na  Na6  1  0.24440976  0.91201017  0.24738732  1.0
  Na  Na7  1  0.74440976  0.08798983  0.24738732  1.0
  Si  Si8  1  0.31075699  0.36799694  0.94192698  1.0
  Si  Si9  1  0.81075699  0.63200306  0.94192698  1.0
  Si  Si10  1  0.68924301  0.63200306  0.44192698  1.0
  Si  Si11  1  0.18924301  0.36799694  0.44192698  1.0
  Si  Si12  1  0.04909201  0.45026152  0.75085848  1.0
  Si  Si13  1  0.54909201  0.54973848  0.75085848  1.0
  Si  Si14  1  0.95090799  0.54973848  0.25085848  1.0
  Si  Si15  1  0.45090799  0.45026152  0.25085848  1.0
  O  O16  1  0.42443176  0.35543124  0.79209270  1.0
  O  O17  1  0.92443176  0.64456876  0.79209270  1.0
  O  O18  1  0.57556824  0.64456876  0.29209270  1.0
  O  O19  1  0.07556824  0.35543124  0.29209270  1.0
  O  O20  1  0.23106184  0.10868167  0.49698157  1.0
  O  O21  1  0.73106184  0.89131833  0.49698157  1.0
  O  O22  1  0.76893816  0.89131833  -0.00301843  1.0
  O  O23  1  0.26893816  0.10868167  -0.00301843  1.0
  O  O24  1  0.17579362  0.52436304  0.87751629  1.0
  O  O25  1  0.67579362  0.47563696  0.87751629  1.0
  O  O26  1  0.82420638  0.47563696  0.37751629  1.0
  O  O27  1  0.32420638  0.52436304  0.37751629  1.0
  O  O28  1  0.11391822  0.54014034  0.57783269  1.0
  O  O29  1  0.61391822  0.45985966  0.57783269  1.0
  O  O30  1  0.88608178  0.45985966  0.07783269  1.0
  O  O31  1  0.38608178  0.54014034  0.07783269  1.0
  O  O32  1  0.99936458  0.18286681  0.75403886  1.0
  O  O33  1  0.49936458  0.81713319  0.75403886  1.0
  O  O34  1  0.00063542  0.81713319  0.25403886  1.0
  O  O35  1  0.50063542  0.18286681  0.25403886  1.0
