# generated using pymatgen
data_PBr2N
_symmetry_space_group_name_H-M   'P 1'
_cell_length_a   15.56623212
_cell_length_b   14.46199519
_cell_length_c   7.16014462
_cell_angle_alpha   90.00000000
_cell_angle_beta   90.00000000
_cell_angle_gamma   90.00000000
_symmetry_Int_Tables_number   1
_chemical_formula_structural   PBr2N
_chemical_formula_sum   'P12 Br24 N12'
_cell_volume   1611.88297899
_cell_formula_units_Z   12
loop_
 _symmetry_equiv_pos_site_id
 _symmetry_equiv_pos_as_xyz
  1  'x, y, z'
loop_
 _atom_site_type_symbol
 _atom_site_label
 _atom_site_symmetry_multiplicity
 _atom_site_fract_x
 _atom_site_fract_y
 _atom_site_fract_z
 _atom_site_occupancy
  P  P0  1  0.90454567  0.84652834  0.09774619  1.0
  P  P1  1  0.90454567  0.65347166  0.09774619  1.0
  P  P2  1  0.40454567  0.84652834  0.40225381  1.0
  P  P3  1  0.40454567  0.65347166  0.40225381  1.0
  P  P4  1  0.09545433  0.34652834  0.90225381  1.0
  P  P5  1  0.09545433  0.15347166  0.90225381  1.0
  P  P6  1  0.59545433  0.34652834  0.59774619  1.0
  P  P7  1  0.59545433  0.15347166  0.59774619  1.0
  P  P8  1  0.95207721  0.25000000  0.03150498  1.0
  P  P9  1  0.45207721  0.25000000  0.46849502  1.0
  P  P10  1  0.04792279  0.75000000  0.96849502  1.0
  P  P11  1  0.54792279  0.75000000  0.53150498  1.0
  Br  Br12  1  0.90904709  0.92606737  0.36136539  1.0
  Br  Br13  1  0.90904709  0.57393263  0.36136539  1.0
  Br  Br14  1  0.40904709  0.92606737  0.13863461  1.0
  Br  Br15  1  0.40904709  0.57393263  0.13863461  1.0
  Br  Br16  1  0.09095291  0.42606737  0.63863461  1.0
  Br  Br17  1  0.09095291  0.07393263  0.63863461  1.0
  Br  Br18  1  0.59095291  0.42606737  0.86136539  1.0
  Br  Br19  1  0.59095291  0.07393263  0.86136539  1.0
  Br  Br20  1  0.68046480  0.43181627  0.42163662  1.0
  Br  Br21  1  0.68046480  0.06818373  0.42163662  1.0
  Br  Br22  1  0.18046480  0.43181627  0.07836338  1.0
  Br  Br23  1  0.18046480  0.06818373  0.07836338  1.0
  Br  Br24  1  0.31953520  0.93181627  0.57836338  1.0
  Br  Br25  1  0.31953520  0.56818373  0.57836338  1.0
  Br  Br26  1  0.81953520  0.93181627  0.92163662  1.0
  Br  Br27  1  0.81953520  0.56818373  0.92163662  1.0
  Br  Br28  1  0.90747707  0.25000000  0.32359823  1.0
  Br  Br29  1  0.40747707  0.25000000  0.17640177  1.0
  Br  Br30  1  0.09252293  0.75000000  0.67640177  1.0
  Br  Br31  1  0.59252293  0.75000000  0.82359823  1.0
  Br  Br32  1  0.33029341  0.25000000  0.62745616  1.0
  Br  Br33  1  0.83029341  0.25000000  0.87254384  1.0
  Br  Br34  1  0.66970659  0.75000000  0.37254384  1.0
  Br  Br35  1  0.16970659  0.75000000  0.12745616  1.0
  N  N36  1  1.00143122  0.34548765  -0.00733573  1.0
  N  N37  1  1.00143122  0.15451235  -0.00733573  1.0
  N  N38  1  0.50143122  0.34548765  0.50733573  1.0
  N  N39  1  0.50143122  0.15451235  0.50733573  1.0
  N  N40  1  -0.00143122  0.84548765  1.00733573  1.0
  N  N41  1  -0.00143122  0.65451235  1.00733573  1.0
  N  N42  1  0.49856878  0.84548765  0.49266427  1.0
  N  N43  1  0.49856878  0.65451235  0.49266427  1.0
  N  N44  1  0.64308124  0.25000000  0.63805875  1.0
  N  N45  1  0.14308124  0.25000000  0.86194125  1.0
  N  N46  1  0.35691876  0.75000000  0.36194125  1.0
  N  N47  1  0.85691876  0.75000000  0.13805875  1.0
