# generated using pymatgen
data_Ca5Sn3
_symmetry_space_group_name_H-M   'P 1'
_cell_length_a   9.64506061
_cell_length_b   9.64506061
_cell_length_c   9.64506061
_cell_angle_alpha   129.92547528
_cell_angle_beta   129.92547528
_cell_angle_gamma   73.52593279
_symmetry_Int_Tables_number   1
_chemical_formula_structural   Ca5Sn3
_chemical_formula_sum   'Ca10 Sn6'
_cell_volume   514.96589898
_cell_formula_units_Z   2
loop_
 _symmetry_equiv_pos_site_id
 _symmetry_equiv_pos_as_xyz
  1  'x, y, z'
loop_
 _atom_site_type_symbol
 _atom_site_label
 _atom_site_symmetry_multiplicity
 _atom_site_fract_x
 _atom_site_fract_y
 _atom_site_fract_z
 _atom_site_occupancy
  Ca  Ca0  1  0.00000000  0.00000000  0.00000000  1.0
  Ca  Ca1  1  0.50000000  0.50000000  1.00000000  1.0
  Ca  Ca2  1  1.18204877  0.68204877  1.14926627  1.0
  Ca  Ca3  1  0.46721750  0.96721750  1.14926627  1.0
  Ca  Ca4  1  1.03278250  1.18204877  1.50000000  1.0
  Ca  Ca5  1  0.31795123  0.46721750  0.50000000  1.0
  Ca  Ca6  1  0.68204877  0.53278250  0.50000000  1.0
  Ca  Ca7  1  0.96721750  0.81795123  1.50000000  1.0
  Ca  Ca8  1  0.53278250  1.03278250  0.85073373  1.0
  Ca  Ca9  1  0.81795123  0.31795123  0.85073373  1.0
  Sn  Sn10  1  0.87446710  0.37446710  1.24893419  1.0
  Sn  Sn11  1  0.62553290  0.87446710  1.50000000  1.0
  Sn  Sn12  1  0.37446710  0.12553290  0.50000000  1.0
  Sn  Sn13  1  0.12553290  0.62553290  0.75106581  1.0
  Sn  Sn14  1  0.75000000  0.75000000  1.00000000  1.0
  Sn  Sn15  1  0.25000000  0.25000000  -0.00000000  1.0
