# generated using pymatgen
data_Na3AlP2
_symmetry_space_group_name_H-M   'P 1'
_cell_length_a   8.04756422
_cell_length_b   8.04756422
_cell_length_c   8.04756422
_cell_angle_alpha   129.67797129
_cell_angle_beta   69.26989049
_cell_angle_gamma   135.68373364
_symmetry_Int_Tables_number   1
_chemical_formula_structural   Na3AlP2
_chemical_formula_sum   'Na6 Al2 P4'
_cell_volume   275.06078554
_cell_formula_units_Z   2
loop_
 _symmetry_equiv_pos_site_id
 _symmetry_equiv_pos_as_xyz
  1  'x, y, z'
loop_
 _atom_site_type_symbol
 _atom_site_label
 _atom_site_symmetry_multiplicity
 _atom_site_fract_x
 _atom_site_fract_y
 _atom_site_fract_z
 _atom_site_occupancy
  Na  Na0  1  0.19279824  0.18249494  0.37529318  1.0
  Na  Na1  1  0.30720176  0.68249494  0.98969671  1.0
  Na  Na2  1  0.69279824  1.31750506  1.01030329  1.0
  Na  Na3  1  0.80720176  0.81750506  0.62470682  1.0
  Na  Na4  1  0.25000000  0.75000000  0.50000000  1.0
  Na  Na5  1  0.75000000  1.25000000  0.50000000  1.0
  Al  Al6  1  0.25000000  0.25000000  0.00000000  1.0
  Al  Al7  1  0.75000000  0.75000000  -0.00000000  1.0
  P  P8  1  0.39930380  0.30311635  0.70242015  1.0
  P  P9  1  0.10069620  0.80311635  0.90381255  1.0
  P  P10  1  0.89930380  1.19688365  1.09618745  1.0
  P  P11  1  0.60069620  0.69688365  0.29757985  1.0
