# generated using pymatgen
data_Zn5B3Ir7
_symmetry_space_group_name_H-M   'P 1'
_cell_length_a   11.24696719
_cell_length_b   2.85981763
_cell_length_c   11.86067612
_cell_angle_alpha   90.00000000
_cell_angle_beta   90.00000000
_cell_angle_gamma   90.00000000
_symmetry_Int_Tables_number   1
_chemical_formula_structural   Zn5B3Ir7
_chemical_formula_sum   'Zn10 B6 Ir14'
_cell_volume   381.49004919
_cell_formula_units_Z   2
loop_
 _symmetry_equiv_pos_site_id
 _symmetry_equiv_pos_as_xyz
  1  'x, y, z'
loop_
 _atom_site_type_symbol
 _atom_site_label
 _atom_site_symmetry_multiplicity
 _atom_site_fract_x
 _atom_site_fract_y
 _atom_site_fract_z
 _atom_site_occupancy
  Zn  Zn0  1  0.95133797  0.50000000  0.63623072  1.0
  Zn  Zn1  1  0.45133797  0.50000000  0.36376928  1.0
  Zn  Zn2  1  0.04866203  0.50000000  0.36376928  1.0
  Zn  Zn3  1  0.54866203  0.50000000  0.63623072  1.0
  Zn  Zn4  1  0.36828362  0.50000000  0.15435442  1.0
  Zn  Zn5  1  0.86828362  0.50000000  0.84564558  1.0
  Zn  Zn6  1  0.63171638  0.50000000  0.84564558  1.0
  Zn  Zn7  1  0.13171638  0.50000000  0.15435442  1.0
  Zn  Zn8  1  0.75000000  0.50000000  0.31089381  1.0
  Zn  Zn9  1  0.25000000  0.50000000  0.68910619  1.0
  B  B10  1  0.88202430  0.50000000  0.09248883  1.0
  B  B11  1  0.38202430  0.50000000  0.90751117  1.0
  B  B12  1  0.11797570  0.50000000  0.90751117  1.0
  B  B13  1  0.61797570  0.50000000  0.09248883  1.0
  B  B14  1  0.75000000  0.50000000  0.53649847  1.0
  B  B15  1  0.25000000  0.50000000  0.46350153  1.0
  Ir  Ir16  1  0.91927812  0.00000000  0.22121850  1.0
  Ir  Ir17  1  0.41927812  0.00000000  0.77878150  1.0
  Ir  Ir18  1  0.08072188  0.00000000  0.77878150  1.0
  Ir  Ir19  1  0.58072188  0.00000000  0.22121850  1.0
  Ir  Ir20  1  0.87551379  0.00000000  0.46196061  1.0
  Ir  Ir21  1  0.37551379  -0.00000000  0.53803939  1.0
  Ir  Ir22  1  0.12448621  0.00000000  0.53803939  1.0
  Ir  Ir23  1  0.62448621  0.00000000  0.46196061  1.0
  Ir  Ir24  1  0.75000000  0.00000000  0.02414238  1.0
  Ir  Ir25  1  0.25000000  0.00000000  0.97585762  1.0
  Ir  Ir26  1  0.75000000  0.00000000  0.67952252  1.0
  Ir  Ir27  1  0.25000000  0.00000000  0.32047748  1.0
  Ir  Ir28  1  0.00000000  0.00000000  0.00000000  1.0
  Ir  Ir29  1  0.50000000  0.00000000  0.00000000  1.0
