# generated using pymatgen
data_SiO2
_symmetry_space_group_name_H-M   'P 1'
_cell_length_a   5.33089797
_cell_length_b   5.20342037
_cell_length_c   7.01975237
_cell_angle_alpha   104.21153906
_cell_angle_beta   106.84176421
_cell_angle_gamma   84.42187486
_symmetry_Int_Tables_number   1
_chemical_formula_structural   SiO2
_chemical_formula_sum   'Si4 O8'
_cell_volume   180.59341584
_cell_formula_units_Z   4
loop_
 _symmetry_equiv_pos_site_id
 _symmetry_equiv_pos_as_xyz
  1  'x, y, z'
loop_
 _atom_site_type_symbol
 _atom_site_label
 _atom_site_symmetry_multiplicity
 _atom_site_fract_x
 _atom_site_fract_y
 _atom_site_fract_z
 _atom_site_occupancy
  Si  Si0  1  0.68530761  0.85721439  -0.25304703  1.0
  Si  Si1  1  0.72445430  0.39722103  -0.59023845  1.0
  Si  Si2  1  0.62863534  0.42346791  -0.05426194  1.0
  Si  Si3  1  0.28363666  0.19324846  -0.43297175  1.0
  O  O4  1  0.37718667  0.90040947  -0.38276010  1.0
  O  O5  1  0.97951145  0.19302678  -0.56637565  1.0
  O  O6  1  0.73461693  0.69884402  -0.07036910  1.0
  O  O7  1  0.32828242  0.39675579  -0.20634523  1.0
  O  O8  1  0.79893471  0.15731809  -0.14019063  1.0
  O  O9  1  0.81869392  0.67804904  -0.42621514  1.0
  O  O10  1  0.47563359  0.27419292  -0.55413973  1.0
  O  O11  1  0.63356639  0.44470210  -0.82040526  1.0
