# generated using pymatgen
data_C
_symmetry_space_group_name_H-M   'P 1'
_cell_length_a   3.87770483
_cell_length_b   3.87770483
_cell_length_c   3.87770483
_cell_angle_alpha   109.47122063
_cell_angle_beta   109.47122063
_cell_angle_gamma   109.47122063
_symmetry_Int_Tables_number   1
_chemical_formula_structural   C
_chemical_formula_sum   C8
_cell_volume   44.88511600
_cell_formula_units_Z   8
loop_
 _symmetry_equiv_pos_site_id
 _symmetry_equiv_pos_as_xyz
  1  'x, y, z'
loop_
 _atom_site_type_symbol
 _atom_site_label
 _atom_site_symmetry_multiplicity
 _atom_site_fract_x
 _atom_site_fract_y
 _atom_site_fract_z
 _atom_site_occupancy
  C  C0  1  0.81232312  1.50000000  1.00000000  1.0
  C  C1  1  1.31232312  1.31232312  1.31232312  1.0
  C  C2  1  1.00000000  0.81232312  1.50000000  1.0
  C  C3  1  1.50000000  1.00000000  1.18767688  1.0
  C  C4  1  1.00000000  1.18767688  1.50000000  1.0
  C  C5  1  0.50000000  1.00000000  0.81232312  1.0
  C  C6  1  1.18767688  0.50000000  1.00000000  1.0
  C  C7  1  0.68767688  0.68767688  0.68767688  1.0
