# generated using pymatgen
data_Pd17Se15
_symmetry_space_group_name_H-M   'P 1'
_cell_length_a   10.75274951
_cell_length_b   10.75274951
_cell_length_c   10.75274951
_cell_angle_alpha   90.00000000
_cell_angle_beta   90.00000000
_cell_angle_gamma   90.00000000
_symmetry_Int_Tables_number   1
_chemical_formula_structural   Pd17Se15
_chemical_formula_sum   'Pd34 Se30'
_cell_volume   1243.25033961
_cell_formula_units_Z   2
loop_
 _symmetry_equiv_pos_site_id
 _symmetry_equiv_pos_as_xyz
  1  'x, y, z'
loop_
 _atom_site_type_symbol
 _atom_site_label
 _atom_site_symmetry_multiplicity
 _atom_site_fract_x
 _atom_site_fract_y
 _atom_site_fract_z
 _atom_site_occupancy
  Pd  Pd0  1  0.85209104  0.85209104  0.65067473  1.0
  Pd  Pd1  1  0.85209104  0.85209104  0.34932527  1.0
  Pd  Pd2  1  0.85209104  0.65067473  0.85209104  1.0
  Pd  Pd3  1  0.85209104  0.65067473  0.14790896  1.0
  Pd  Pd4  1  0.85209104  0.14790896  0.65067473  1.0
  Pd  Pd5  1  0.85209104  0.14790896  0.34932527  1.0
  Pd  Pd6  1  0.85209104  0.34932527  0.85209104  1.0
  Pd  Pd7  1  0.85209104  0.34932527  0.14790896  1.0
  Pd  Pd8  1  0.65067473  0.85209104  0.85209104  1.0
  Pd  Pd9  1  0.65067473  0.85209104  0.14790896  1.0
  Pd  Pd10  1  0.65067473  0.14790896  0.85209104  1.0
  Pd  Pd11  1  0.65067473  0.14790896  0.14790896  1.0
  Pd  Pd12  1  0.14790896  0.85209104  0.65067473  1.0
  Pd  Pd13  1  0.14790896  0.85209104  0.34932527  1.0
  Pd  Pd14  1  0.14790896  0.65067473  0.85209104  1.0
  Pd  Pd15  1  0.14790896  0.65067473  0.14790896  1.0
  Pd  Pd16  1  0.14790896  0.14790896  0.65067473  1.0
  Pd  Pd17  1  0.14790896  0.14790896  0.34932527  1.0
  Pd  Pd18  1  0.14790896  0.34932527  0.85209104  1.0
  Pd  Pd19  1  0.14790896  0.34932527  0.14790896  1.0
  Pd  Pd20  1  0.34932527  0.85209104  0.85209104  1.0
  Pd  Pd21  1  0.34932527  0.85209104  0.14790896  1.0
  Pd  Pd22  1  0.34932527  0.14790896  0.85209104  1.0
  Pd  Pd23  1  0.34932527  0.14790896  0.14790896  1.0
  Pd  Pd24  1  0.74067825  0.50000000  0.50000000  1.0
  Pd  Pd25  1  0.50000000  0.74067825  0.50000000  1.0
  Pd  Pd26  1  0.50000000  0.50000000  0.74067825  1.0
  Pd  Pd27  1  0.50000000  0.50000000  0.25932175  1.0
  Pd  Pd28  1  0.50000000  0.25932175  0.50000000  1.0
  Pd  Pd29  1  0.25932175  0.50000000  0.50000000  1.0
  Pd  Pd30  1  0.00000000  0.50000000  0.50000000  1.0
  Pd  Pd31  1  0.50000000  0.00000000  0.50000000  1.0
  Pd  Pd32  1  0.50000000  0.50000000  0.00000000  1.0
  Pd  Pd33  1  0.00000000  0.00000000  0.00000000  1.0
  Se  Se34  1  0.50000000  0.73068927  0.73068927  1.0
  Se  Se35  1  0.50000000  0.73068927  0.26931073  1.0
  Se  Se36  1  0.50000000  0.26931073  0.73068927  1.0
  Se  Se37  1  0.50000000  0.26931073  0.26931073  1.0
  Se  Se38  1  0.73068927  0.50000000  0.73068927  1.0
  Se  Se39  1  0.73068927  0.50000000  0.26931073  1.0
  Se  Se40  1  0.73068927  0.73068927  0.50000000  1.0
  Se  Se41  1  0.73068927  0.26931073  0.50000000  1.0
  Se  Se42  1  0.26931073  0.50000000  0.73068927  1.0
  Se  Se43  1  0.26931073  0.50000000  0.26931073  1.0
  Se  Se44  1  0.26931073  0.73068927  0.50000000  1.0
  Se  Se45  1  0.26931073  0.26931073  0.50000000  1.0
  Se  Se46  1  0.00000000  0.66923195  0.66923195  1.0
  Se  Se47  1  0.00000000  0.66923195  0.33076805  1.0
  Se  Se48  1  0.00000000  0.33076805  0.66923195  1.0
  Se  Se49  1  0.00000000  0.33076805  0.33076805  1.0
  Se  Se50  1  0.66923195  0.00000000  0.66923195  1.0
  Se  Se51  1  0.66923195  -0.00000000  0.33076805  1.0
  Se  Se52  1  0.66923195  0.66923195  0.00000000  1.0
  Se  Se53  1  0.66923195  0.33076805  0.00000000  1.0
  Se  Se54  1  0.33076805  -0.00000000  0.66923195  1.0
  Se  Se55  1  0.33076805  0.00000000  0.33076805  1.0
  Se  Se56  1  0.33076805  0.66923195  0.00000000  1.0
  Se  Se57  1  0.33076805  0.33076805  0.00000000  1.0
  Se  Se58  1  0.75950695  -0.00000000  0.00000000  1.0
  Se  Se59  1  0.00000000  0.75950695  0.00000000  1.0
  Se  Se60  1  0.00000000  0.00000000  0.75950695  1.0
  Se  Se61  1  0.00000000  0.00000000  0.24049305  1.0
  Se  Se62  1  0.00000000  0.24049305  0.00000000  1.0
  Se  Se63  1  0.24049305  0.00000000  0.00000000  1.0
