# generated using pymatgen
data_Te3As2
_symmetry_space_group_name_H-M   'P 1'
_cell_length_a   10.30558427
_cell_length_b   10.30558427
_cell_length_c   10.30558427
_cell_angle_alpha   22.94503813
_cell_angle_beta   22.94503813
_cell_angle_gamma   22.94503813
_symmetry_Int_Tables_number   1
_chemical_formula_structural   Te3As2
_chemical_formula_sum   'Te3 As2'
_cell_volume   145.98285870
_cell_formula_units_Z   1
loop_
 _symmetry_equiv_pos_site_id
 _symmetry_equiv_pos_as_xyz
  1  'x, y, z'
loop_
 _atom_site_type_symbol
 _atom_site_label
 _atom_site_symmetry_multiplicity
 _atom_site_fract_x
 _atom_site_fract_y
 _atom_site_fract_z
 _atom_site_occupancy
  Te  Te0  1  0.78138076  0.78138076  0.78138076  1.0
  Te  Te1  1  1.21861924  1.21861924  0.21861924  1.0
  Te  Te2  1  0.00000000  0.00000000  0.00000000  1.0
  As  As3  1  1.60502177  0.60502177  0.60502177  1.0
  As  As4  1  1.39497823  0.39497823  0.39497823  1.0
