# generated using pymatgen
data_BH17C6NCl
_symmetry_space_group_name_H-M   'P 1'
_cell_length_a   6.39971618
_cell_length_b   11.68961063
_cell_length_c   7.62299391
_cell_angle_alpha   90.00000000
_cell_angle_beta   115.45329463
_cell_angle_gamma   90.00000000
_symmetry_Int_Tables_number   1
_chemical_formula_structural   BH17C6NCl
_chemical_formula_sum   'B2 H34 C12 N2 Cl2'
_cell_volume   514.92415255
_cell_formula_units_Z   2
loop_
 _symmetry_equiv_pos_site_id
 _symmetry_equiv_pos_as_xyz
  1  'x, y, z'
loop_
 _atom_site_type_symbol
 _atom_site_label
 _atom_site_symmetry_multiplicity
 _atom_site_fract_x
 _atom_site_fract_y
 _atom_site_fract_z
 _atom_site_occupancy
  B  B0  1  0.98786870  0.55302151  0.74416742  1.0
  B  B1  1  0.01213130  0.05302151  0.25583258  1.0
  H  H2  1  0.04210534  0.48360022  0.11764603  1.0
  H  H3  1  0.95789466  0.98360022  0.88235397  1.0
  H  H4  1  0.81317209  0.45409858  0.18326193  1.0
  H  H5  1  0.18682791  0.95409858  0.81673807  1.0
  H  H6  1  0.89194708  0.59733646  0.16894486  1.0
  H  H7  1  0.10805292  0.09733646  0.83105514  1.0
  H  H8  1  0.52319753  0.53623760  0.87787748  1.0
  H  H9  1  0.47680247  0.03623760  0.12212252  1.0
  H  H10  1  0.67901216  0.42536115  0.82950236  1.0
  H  H11  1  0.32098784  0.92536115  0.17049764  1.0
  H  H12  1  0.41793733  0.77240825  0.70041573  1.0
  H  H13  1  0.58206267  0.27240825  0.29958427  1.0
  H  H14  1  0.62285488  0.85276160  0.89691053  1.0
  H  H15  1  0.37714512  0.35276160  0.10308947  1.0
  H  H16  1  0.52383810  0.72050957  0.94280880  1.0
  H  H17  1  0.47616190  0.22050957  0.05719120  1.0
  H  H18  1  0.82246298  0.75897256  0.71790977  1.0
  H  H19  1  0.17753702  0.25897256  0.28209023  1.0
  H  H20  1  0.93085697  0.71327847  0.96080079  1.0
  H  H21  1  0.06914303  0.21327847  0.03919921  1.0
  H  H22  1  0.50130305  0.74606463  0.42568600  1.0
  H  H23  1  0.49869695  0.24606463  0.57431400  1.0
  H  H24  1  0.39337631  0.63102562  0.26101466  1.0
  H  H25  1  0.60662369  0.13102562  0.73898534  1.0
  H  H26  1  0.69643116  0.65499972  0.38082250  1.0
  H  H27  1  0.30356884  0.15499972  0.61917750  1.0
  H  H28  1  0.54909996  0.48690478  0.51337497  1.0
  H  H29  1  0.45090004  0.98690478  0.48662503  1.0
  H  H30  1  0.38415763  0.58522793  0.57908176  1.0
  H  H31  1  0.61584237  0.08522793  0.42091824  1.0
  H  H32  1  0.14284066  0.56467125  0.90520074  1.0
  H  H33  1  0.85715934  0.06467125  0.09479926  1.0
  H  H34  1  0.01131055  0.61328647  0.62532917  1.0
  H  H35  1  0.98868945  0.11328647  0.37467083  1.0
  C  C36  1  0.87195436  0.51275133  0.10112124  1.0
  C  C37  1  0.12804564  0.01275133  0.89887876  1.0
  C  C38  1  0.69458374  0.51175919  0.89004731  1.0
  C  C39  1  0.30541626  0.01175919  0.10995269  1.0
  C  C40  1  0.57199728  0.76587035  0.83959654  1.0
  C  C41  1  0.42800272  0.26587035  0.16040346  1.0
  C  C42  1  0.77752048  0.71143856  0.82095401  1.0
  C  C43  1  0.22247952  0.21143856  0.17904599  1.0
  C  C44  1  0.53575156  0.65737742  0.39895078  1.0
  C  C45  1  0.46424844  0.15737742  0.60104922  1.0
  C  C46  1  0.54160657  0.57585194  0.55632232  1.0
  C  C47  1  0.45839343  0.07585194  0.44367768  1.0
  N  N48  1  0.74686100  0.58841177  0.75327932  1.0
  N  N49  1  0.25313900  0.08841177  0.24672068  1.0
  Cl  Cl50  1  -0.02325718  0.39830306  0.66746096  1.0
  Cl  Cl51  1  1.02325718  0.89830306  0.33253904  1.0
