# generated using pymatgen
data_SrPb
_symmetry_space_group_name_H-M   'P 1'
_cell_length_a   6.69778746
_cell_length_b   6.69778746
_cell_length_c   4.69057271
_cell_angle_alpha   90.00000000
_cell_angle_beta   90.00000000
_cell_angle_gamma   135.07925158
_symmetry_Int_Tables_number   1
_chemical_formula_structural   SrPb
_chemical_formula_sum   'Sr2 Pb2'
_cell_volume   148.58400160
_cell_formula_units_Z   2
loop_
 _symmetry_equiv_pos_site_id
 _symmetry_equiv_pos_as_xyz
  1  'x, y, z'
loop_
 _atom_site_type_symbol
 _atom_site_label
 _atom_site_symmetry_multiplicity
 _atom_site_fract_x
 _atom_site_fract_y
 _atom_site_fract_z
 _atom_site_occupancy
  Sr  Sr0  1  0.36652242  0.63347758  0.75000000  1.0
  Sr  Sr1  1  -0.36652242  0.36652242  0.25000000  1.0
  Pb  Pb2  1  0.08495013  0.91504987  0.75000000  1.0
  Pb  Pb3  1  -0.08495013  0.08495013  0.25000000  1.0
