# generated using pymatgen
data_NaAlTe2
_symmetry_space_group_name_H-M   'P 1'
_cell_length_a   6.80649503
_cell_length_b   6.80649503
_cell_length_c   6.80649503
_cell_angle_alpha   104.73742334
_cell_angle_beta   104.73742334
_cell_angle_gamma   119.42084344
_symmetry_Int_Tables_number   1
_chemical_formula_structural   NaAlTe2
_chemical_formula_sum   'Na2 Al2 Te4'
_cell_volume   237.17136000
_cell_formula_units_Z   2
loop_
 _symmetry_equiv_pos_site_id
 _symmetry_equiv_pos_as_xyz
  1  'x, y, z'
loop_
 _atom_site_type_symbol
 _atom_site_label
 _atom_site_symmetry_multiplicity
 _atom_site_fract_x
 _atom_site_fract_y
 _atom_site_fract_z
 _atom_site_occupancy
  Na  Na0  1  0.25000000  0.25000000  0.00000000  1.0
  Na  Na1  1  0.75000000  0.75000000  0.00000000  1.0
  Al  Al2  1  0.75000000  1.25000000  0.50000000  1.0
  Al  Al3  1  0.25000000  0.75000000  0.50000000  1.0
  Te  Te4  1  0.82665002  0.32665002  1.15330005  1.0
  Te  Te5  1  0.67334998  0.82665002  0.50000000  1.0
  Te  Te6  1  1.32665002  1.17334998  1.50000000  1.0
  Te  Te7  1  0.17334998  0.67334998  0.84669995  1.0
