# generated using pymatgen
data_SiO2
_symmetry_space_group_name_H-M   'P 1'
_cell_length_a   5.02848603
_cell_length_b   5.02848603
_cell_length_c   5.51861750
_cell_angle_alpha   90.00000000
_cell_angle_beta   90.00000000
_cell_angle_gamma   120.00000000
_symmetry_Int_Tables_number   1
_chemical_formula_structural   SiO2
_chemical_formula_sum   'Si3 O6'
_cell_volume   120.84687408
_cell_formula_units_Z   3
loop_
 _symmetry_equiv_pos_site_id
 _symmetry_equiv_pos_as_xyz
  1  'x, y, z'
loop_
 _atom_site_type_symbol
 _atom_site_label
 _atom_site_symmetry_multiplicity
 _atom_site_fract_x
 _atom_site_fract_y
 _atom_site_fract_z
 _atom_site_occupancy
  Si  Si0  1  0.47704716  0.47704716  -0.00000000  1.0
  Si  Si1  1  0.52295284  -0.00000000  0.66666667  1.0
  Si  Si2  1  -0.00000000  0.52295284  0.33333333  1.0
  O  O3  1  0.41468163  0.15991839  0.87121081  1.0
  O  O4  1  0.84008161  0.25476324  0.53787748  1.0
  O  O5  1  0.74523676  0.58531837  0.20454414  1.0
  O  O6  1  0.15991839  0.41468163  0.12878919  1.0
  O  O7  1  0.25476324  0.84008161  0.46212252  1.0
  O  O8  1  0.58531837  0.74523676  0.79545586  1.0
