# generated using pymatgen
data_Na2Hf(HO)6
_symmetry_space_group_name_H-M   'P 1'
_cell_length_a   5.97124275
_cell_length_b   5.97124275
_cell_length_c   5.97124275
_cell_angle_alpha   61.10593831
_cell_angle_beta   61.10593831
_cell_angle_gamma   61.10593831
_symmetry_Int_Tables_number   1
_chemical_formula_structural   Na2Hf(HO)6
_chemical_formula_sum   'Na2 Hf1 H6 O6'
_cell_volume   154.29711067
_cell_formula_units_Z   1
loop_
 _symmetry_equiv_pos_site_id
 _symmetry_equiv_pos_as_xyz
  1  'x, y, z'
loop_
 _atom_site_type_symbol
 _atom_site_label
 _atom_site_symmetry_multiplicity
 _atom_site_fract_x
 _atom_site_fract_y
 _atom_site_fract_z
 _atom_site_occupancy
  Na  Na0  1  0.66729847  0.66729847  -0.33270153  1.0
  Na  Na1  1  1.33270153  1.33270153  0.33270153  1.0
  Hf  Hf2  1  0.00000000  0.00000000  0.00000000  1.0
  H  H3  1  0.41572375  -0.14539017  0.16756871  1.0
  H  H4  1  1.14539017  -0.16756871  -0.41572375  1.0
  H  H5  1  0.83243129  -0.41572375  0.14539017  1.0
  H  H6  1  0.58427625  0.14539017  -0.16756871  1.0
  H  H7  1  0.85460983  0.16756871  -0.58427625  1.0
  H  H8  1  1.16756871  -0.58427625  -0.14539017  1.0
  O  O9  1  0.91882925  -0.36770536  0.21053596  1.0
  O  O10  1  0.36770536  0.78946404  -0.91882925  1.0
  O  O11  1  0.78946404  0.08117075  -0.63229464  1.0
  O  O12  1  0.08117075  0.36770536  -0.21053596  1.0
  O  O13  1  0.63229464  0.21053596  -0.08117075  1.0
  O  O14  1  1.21053596  -0.08117075  -0.36770536  1.0
