# generated using pymatgen
data_K2In3AgSe6
_symmetry_space_group_name_H-M   'P 1'
_cell_length_a   8.40226202
_cell_length_b   8.40226202
_cell_length_c   21.80136414
_cell_angle_alpha   84.22368349
_cell_angle_beta   95.77631651
_cell_angle_gamma   90.10314997
_symmetry_Int_Tables_number   1
_chemical_formula_structural   K2In3AgSe6
_chemical_formula_sum   'K8 In12 Ag4 Se24'
_cell_volume   1523.48839278
_cell_formula_units_Z   4
loop_
 _symmetry_equiv_pos_site_id
 _symmetry_equiv_pos_as_xyz
  1  'x, y, z'
loop_
 _atom_site_type_symbol
 _atom_site_label
 _atom_site_symmetry_multiplicity
 _atom_site_fract_x
 _atom_site_fract_y
 _atom_site_fract_z
 _atom_site_occupancy
  K  K0  1  1.20241275  -0.10558053  0.91735856  1.0
  K  K1  1  1.10558053  -0.20241275  0.41735856  1.0
  K  K2  1  0.89441947  0.20241275  0.58264144  1.0
  K  K3  1  0.79758725  0.10558053  0.08264144  1.0
  K  K4  1  1.25653339  -0.60859473  0.91744900  1.0
  K  K5  1  1.60859473  -0.25653339  0.41744900  1.0
  K  K6  1  0.39140527  0.25653339  0.58255100  1.0
  K  K7  1  0.74346661  0.60859473  0.08255100  1.0
  In  In8  1  1.64921096  -0.27939446  0.61164401  1.0
  In  In9  1  1.27939446  -0.64921096  0.11164401  1.0
  In  In10  1  0.72060554  0.64921096  0.88835599  1.0
  In  In11  1  0.35078904  0.27939446  0.38835599  1.0
  In  In12  1  0.72281595  0.14962401  0.88760301  1.0
  In  In13  1  0.85037599  0.27718405  0.38760301  1.0
  In  In14  1  1.14962401  -0.27718405  0.61239699  1.0
  In  In15  1  1.27718405  -0.14962401  0.11239699  1.0
  In  In16  1  1.43954315  -0.06744927  0.74997774  1.0
  In  In17  1  1.06744927  -0.43954315  0.24997774  1.0
  In  In18  1  0.93255073  0.43954315  0.75002226  1.0
  In  In19  1  0.56045685  0.06744927  0.25002226  1.0
  Ag  Ag20  1  0.93461112  0.93461112  0.75000000  1.0
  Ag  Ag21  1  0.06538888  0.06538888  0.25000000  1.0
  Ag  Ag22  1  0.43681638  0.43681638  0.75000000  1.0
  Ag  Ag23  1  0.56318362  0.56318362  0.25000000  1.0
  Se  Se24  1  1.78960163  -0.11916405  0.95963099  1.0
  Se  Se25  1  1.11916405  -0.78960163  0.45963099  1.0
  Se  Se26  1  0.88083595  0.78960163  0.54036901  1.0
  Se  Se27  1  0.21039837  0.11916405  0.04036901  1.0
  Se  Se28  1  1.43695987  -0.32966158  0.82511796  1.0
  Se  Se29  1  1.32966158  -0.43695987  0.32511796  1.0
  Se  Se30  1  0.67033842  0.43695987  0.67488204  1.0
  Se  Se31  1  0.56304013  0.32966158  0.17488204  1.0
  Se  Se32  1  1.66207920  -0.02790452  0.67457548  1.0
  Se  Se33  1  1.02790452  -0.66207920  0.17457548  1.0
  Se  Se34  1  0.97209548  0.66207920  0.82542452  1.0
  Se  Se35  1  0.33792080  0.02790452  0.32542452  1.0
  Se  Se36  1  0.62000630  0.30881275  0.45975655  1.0
  Se  Se37  1  0.69118725  0.37999370  0.95975655  1.0
  Se  Se38  1  1.30881275  -0.37999370  0.04024345  1.0
  Se  Se39  1  1.37999370  -0.30881275  0.54024345  1.0
  Se  Se40  1  0.43905727  0.15894954  0.82477351  1.0
  Se  Se41  1  0.84105046  0.56094273  0.32477351  1.0
  Se  Se42  1  1.15894954  -0.56094273  0.67522649  1.0
  Se  Se43  1  1.56094273  -0.15894954  0.17522649  1.0
  Se  Se44  1  1.17371171  -0.02683587  0.67545824  1.0
  Se  Se45  1  1.02683587  -0.17371171  0.17545824  1.0
  Se  Se46  1  0.97316413  0.17371171  0.82454176  1.0
  Se  Se47  1  0.82628829  0.02683587  0.32454176  1.0
