# generated using pymatgen
data_KCaH3
_symmetry_space_group_name_H-M   'P 1'
_cell_length_a   6.32132276
_cell_length_b   8.92864401
_cell_length_c   6.30688399
_cell_angle_alpha   90.00000000
_cell_angle_beta   90.00000000
_cell_angle_gamma   90.00000000
_symmetry_Int_Tables_number   1
_chemical_formula_structural   KCaH3
_chemical_formula_sum   'K4 Ca4 H12'
_cell_volume   355.96583397
_cell_formula_units_Z   4
loop_
 _symmetry_equiv_pos_site_id
 _symmetry_equiv_pos_as_xyz
  1  'x, y, z'
loop_
 _atom_site_type_symbol
 _atom_site_label
 _atom_site_symmetry_multiplicity
 _atom_site_fract_x
 _atom_site_fract_y
 _atom_site_fract_z
 _atom_site_occupancy
  K  K0  1  0.51649242  0.25000000  0.50339978  1.0
  K  K1  1  0.01649242  0.25000000  0.99660022  1.0
  K  K2  1  0.48350758  0.75000000  0.49660022  1.0
  K  K3  1  0.98350758  0.75000000  0.00339978  1.0
  Ca  Ca4  1  0.50000000  0.00000000  0.00000000  1.0
  Ca  Ca5  1  0.00000000  0.50000000  0.50000000  1.0
  Ca  Ca6  1  0.50000000  0.50000000  0.00000000  1.0
  Ca  Ca7  1  0.00000000  0.00000000  0.50000000  1.0
  H  H8  1  0.48600247  0.25000000  0.05610489  1.0
  H  H9  1  0.98600247  0.25000000  0.44389511  1.0
  H  H10  1  0.51399753  0.75000000  0.94389511  1.0
  H  H11  1  0.01399753  0.75000000  0.55610489  1.0
  H  H12  1  0.72190520  0.97049743  0.27820478  1.0
  H  H13  1  0.22190520  0.52950257  0.22179522  1.0
  H  H14  1  0.27809480  0.47049743  0.72179522  1.0
  H  H15  1  0.77809480  0.02950257  0.77820478  1.0
  H  H16  1  0.27809480  0.02950257  0.72179522  1.0
  H  H17  1  0.77809480  0.47049743  0.77820478  1.0
  H  H18  1  0.72190520  0.52950257  0.27820478  1.0
  H  H19  1  0.22190520  0.97049743  0.22179522  1.0
