# generated using pymatgen
data_Cs3SiF7
_symmetry_space_group_name_H-M   'P 1'
_cell_length_a   8.47995443
_cell_length_b   8.47995443
_cell_length_c   6.24259105
_cell_angle_alpha   90.00000000
_cell_angle_beta   90.00000000
_cell_angle_gamma   90.00000000
_symmetry_Int_Tables_number   1
_chemical_formula_structural   Cs3SiF7
_chemical_formula_sum   'Cs6 Si2 F14'
_cell_volume   448.90239482
_cell_formula_units_Z   2
loop_
 _symmetry_equiv_pos_site_id
 _symmetry_equiv_pos_as_xyz
  1  'x, y, z'
loop_
 _atom_site_type_symbol
 _atom_site_label
 _atom_site_symmetry_multiplicity
 _atom_site_fract_x
 _atom_site_fract_y
 _atom_site_fract_z
 _atom_site_occupancy
  Cs  Cs0  1  0.30370733  0.19629267  0.50000000  1.0
  Cs  Cs1  1  0.80370733  0.30370733  0.50000000  1.0
  Cs  Cs2  1  0.69629267  0.80370733  0.50000000  1.0
  Cs  Cs3  1  0.19629267  0.69629267  0.50000000  1.0
  Cs  Cs4  1  0.50000000  0.50000000  0.00000000  1.0
  Cs  Cs5  1  0.00000000  0.00000000  0.00000000  1.0
  Si  Si6  1  0.50000000  0.00000000  0.00000000  1.0
  Si  Si7  1  0.00000000  0.50000000  0.00000000  1.0
  F  F8  1  0.89871324  0.60128676  0.80371789  1.0
  F  F9  1  0.89871324  0.60128676  0.19628211  1.0
  F  F10  1  0.39871324  0.89871324  0.80371789  1.0
  F  F11  1  0.39871324  0.89871324  0.19628211  1.0
  F  F12  1  0.10128676  0.39871324  0.80371789  1.0
  F  F13  1  0.10128676  0.39871324  0.19628211  1.0
  F  F14  1  0.60128676  0.10128676  0.80371789  1.0
  F  F15  1  0.60128676  0.10128676  0.19628211  1.0
  F  F16  1  0.35647558  0.14352442  0.00000000  1.0
  F  F17  1  0.85647558  0.35647558  0.00000000  1.0
  F  F18  1  0.64352442  0.85647558  0.00000000  1.0
  F  F19  1  0.14352442  0.64352442  0.00000000  1.0
  F  F20  1  0.50000000  0.50000000  0.50000000  1.0
  F  F21  1  0.00000000  0.00000000  0.50000000  1.0
