# generated using pymatgen
data_Mn(PtO2)3
_symmetry_space_group_name_H-M   'P 1'
_cell_length_a   6.18220458
_cell_length_b   6.18220458
_cell_length_c   3.23690449
_cell_angle_alpha   90.00000000
_cell_angle_beta   90.00000000
_cell_angle_gamma   109.07652429
_symmetry_Int_Tables_number   1
_chemical_formula_structural   Mn(PtO2)3
_chemical_formula_sum   'Mn1 Pt3 O6'
_cell_volume   116.91938903
_cell_formula_units_Z   1
loop_
 _symmetry_equiv_pos_site_id
 _symmetry_equiv_pos_as_xyz
  1  'x, y, z'
loop_
 _atom_site_type_symbol
 _atom_site_label
 _atom_site_symmetry_multiplicity
 _atom_site_fract_x
 _atom_site_fract_y
 _atom_site_fract_z
 _atom_site_occupancy
  Mn  Mn0  1  0.50000000  0.50000000  0.00000000  1.0
  Pt  Pt1  1  0.00000000  0.00000000  0.00000000  1.0
  Pt  Pt2  1  0.50000000  1.00000000  0.50000000  1.0
  Pt  Pt3  1  -0.00000000  1.50000000  0.50000000  1.0
  O  O4  1  0.35124626  0.64875374  0.50000000  1.0
  O  O5  1  -0.35124626  1.35124626  0.50000000  1.0
  O  O6  1  -0.66098175  1.08399358  0.00000000  1.0
  O  O7  1  0.66098175  0.91600642  0.00000000  1.0
  O  O8  1  0.08399358  0.33901825  0.00000000  1.0
  O  O9  1  -0.08399358  1.66098175  0.00000000  1.0
