# generated using pymatgen
data_C2ClF
_symmetry_space_group_name_H-M   'P 1'
_cell_length_a   8.97411759
_cell_length_b   8.97411759
_cell_length_c   7.04384188
_cell_angle_alpha   90.00000000
_cell_angle_beta   90.00000000
_cell_angle_gamma   120.00000000
_symmetry_Int_Tables_number   1
_chemical_formula_structural   C2ClF
_chemical_formula_sum   'C12 Cl6 F6'
_cell_volume   491.27395595
_cell_formula_units_Z   6
loop_
 _symmetry_equiv_pos_site_id
 _symmetry_equiv_pos_as_xyz
  1  'x, y, z'
loop_
 _atom_site_type_symbol
 _atom_site_label
 _atom_site_symmetry_multiplicity
 _atom_site_fract_x
 _atom_site_fract_y
 _atom_site_fract_z
 _atom_site_occupancy
  C  C0  1  0.37680707  0.83808917  0.25000000  1.0
  C  C1  1  0.83808917  0.46128210  0.75000000  1.0
  C  C2  1  0.46128210  0.62319293  0.25000000  1.0
  C  C3  1  0.16191083  0.53871790  0.25000000  1.0
  C  C4  1  0.62319293  0.16191083  0.75000000  1.0
  C  C5  1  0.53871790  0.37680707  0.75000000  1.0
  C  C6  1  0.20309918  0.71096019  0.25000000  1.0
  C  C7  1  0.71096019  0.50786101  0.75000000  1.0
  C  C8  1  0.50786101  0.79690082  0.25000000  1.0
  C  C9  1  0.28903981  0.49213899  0.25000000  1.0
  C  C10  1  0.79690082  0.28903981  0.75000000  1.0
  C  C11  1  0.49213899  0.20309918  0.75000000  1.0
  Cl  Cl12  1  0.04403826  0.76418091  0.25000000  1.0
  Cl  Cl13  1  0.76418091  0.72014265  0.75000000  1.0
  Cl  Cl14  1  0.72014265  0.95596174  0.25000000  1.0
  Cl  Cl15  1  0.23581909  0.27985735  0.25000000  1.0
  Cl  Cl16  1  0.95596174  0.23581909  0.75000000  1.0
  Cl  Cl17  1  0.27985735  0.04403826  0.75000000  1.0
  F  F18  1  0.58550833  0.58071350  0.25000000  1.0
  F  F19  1  0.58071350  0.99520518  0.75000000  1.0
  F  F20  1  0.99520518  0.41449167  0.25000000  1.0
  F  F21  1  0.41928650  0.00479482  0.25000000  1.0
  F  F22  1  0.41449167  0.41928650  0.75000000  1.0
  F  F23  1  0.00479482  0.58550833  0.75000000  1.0
