# generated using pymatgen
data_K4ZnBi2
_symmetry_space_group_name_H-M   'P 1'
_cell_length_a   6.19200160
_cell_length_b   6.19200160
_cell_length_c   17.51836392
_cell_angle_alpha   90.00000000
_cell_angle_beta   90.00000000
_cell_angle_gamma   118.53197565
_symmetry_Int_Tables_number   1
_chemical_formula_structural   K4ZnBi2
_chemical_formula_sum   'K8 Zn2 Bi4'
_cell_volume   590.09574705
_cell_formula_units_Z   2
loop_
 _symmetry_equiv_pos_site_id
 _symmetry_equiv_pos_as_xyz
  1  'x, y, z'
loop_
 _atom_site_type_symbol
 _atom_site_label
 _atom_site_symmetry_multiplicity
 _atom_site_fract_x
 _atom_site_fract_y
 _atom_site_fract_z
 _atom_site_occupancy
  K  K0  1  -0.43257322  1.23870530  0.10434400  1.0
  K  K1  1  0.23870530  0.56742678  0.89565600  1.0
  K  K2  1  -0.23870530  1.43257322  0.39565600  1.0
  K  K3  1  0.43257322  0.76129470  0.60434400  1.0
  K  K4  1  -0.00519364  1.00519364  0.25000000  1.0
  K  K5  1  0.00519364  0.99480636  0.75000000  1.0
  K  K6  1  0.89072973  0.89072973  0.00000000  1.0
  K  K7  1  0.10927027  0.10927027  0.50000000  1.0
  Zn  Zn8  1  0.33220198  0.66779802  0.25000000  1.0
  Zn  Zn9  1  -0.33220198  1.33220198  0.75000000  1.0
  Bi  Bi10  1  0.22059030  0.56773625  0.10701547  1.0
  Bi  Bi11  1  -0.43226375  1.22059030  0.89298453  1.0
  Bi  Bi12  1  0.43226375  0.77940970  0.39298453  1.0
  Bi  Bi13  1  -0.22059030  1.43226375  0.60701547  1.0
