# generated using pymatgen
data_CaTi4(CuO4)3
_symmetry_space_group_name_H-M   'P 1'
_cell_length_a   7.45005302
_cell_length_b   7.45005302
_cell_length_c   7.45005302
_cell_angle_alpha   89.99985944
_cell_angle_beta   89.99985944
_cell_angle_gamma   89.99985944
_symmetry_Int_Tables_number   1
_chemical_formula_structural   CaTi4(CuO4)3
_chemical_formula_sum   'Ca2 Ti8 Cu6 O24'
_cell_volume   413.50245366
_cell_formula_units_Z   2
loop_
 _symmetry_equiv_pos_site_id
 _symmetry_equiv_pos_as_xyz
  1  'x, y, z'
loop_
 _atom_site_type_symbol
 _atom_site_label
 _atom_site_symmetry_multiplicity
 _atom_site_fract_x
 _atom_site_fract_y
 _atom_site_fract_z
 _atom_site_occupancy
  Ca  Ca0  1  0.50000000  0.50000000  -0.50000000  1.0
  Ca  Ca1  1  0.00000000  0.00000000  0.00000000  1.0
  Ti  Ti2  1  0.74975734  -0.24964428  0.25003946  1.0
  Ti  Ti3  1  0.24964428  0.74996054  -0.74975734  1.0
  Ti  Ti4  1  0.74996054  0.25024266  -0.75035572  1.0
  Ti  Ti5  1  0.25024266  0.24964428  -0.25003946  1.0
  Ti  Ti6  1  0.75035572  0.25003946  -0.25024266  1.0
  Ti  Ti7  1  1.25003946  -0.25024266  -0.24964428  1.0
  Ti  Ti8  1  0.74988716  0.74988716  -0.25011284  1.0
  Ti  Ti9  1  1.25011284  1.25011284  0.25011284  1.0
  Cu  Cu10  1  0.50000000  -0.50000000  -0.00000000  1.0
  Cu  Cu11  1  0.50000000  1.00000000  -0.50000000  1.0
  Cu  Cu12  1  0.00000000  0.50000000  -0.50000000  1.0
  Cu  Cu13  1  1.00000000  0.00000000  -0.50000000  1.0
  Cu  Cu14  1  1.00000000  1.50000000  0.00000000  1.0
  Cu  Cu15  1  0.50000000  0.00000000  0.00000000  1.0
  O  O16  1  0.67758315  0.50001081  -0.80244115  1.0
  O  O17  1  0.49998919  0.80244115  -0.67758315  1.0
  O  O18  1  0.80244115  0.32241685  -0.50001081  1.0
  O  O19  1  0.32241685  0.49998919  -0.19755885  1.0
  O  O20  1  0.50001081  0.19755885  -0.32241685  1.0
  O  O21  1  0.19755885  0.67758315  -0.49998919  1.0
  O  O22  1  0.69751741  0.82235354  0.00001044  1.0
  O  O23  1  1.17764646  0.99998956  0.30248259  1.0
  O  O24  1  0.99998956  1.30248259  0.17764646  1.0
  O  O25  1  1.30248259  1.17764646  -0.00001044  1.0
  O  O26  1  0.82235354  1.00001044  -0.30248259  1.0
  O  O27  1  1.00001044  0.69751741  -0.17764646  1.0
  O  O28  1  0.50000774  0.80242171  -0.32240873  1.0
  O  O29  1  1.19757829  1.32240873  0.49999226  1.0
  O  O30  1  1.32240873  1.49999226  0.19757829  1.0
  O  O31  1  1.49999226  1.19757829  0.32240873  1.0
  O  O32  1  0.80242171  0.67759127  -0.49999226  1.0
  O  O33  1  0.67759127  0.50000774  -0.19757829  1.0
  O  O34  1  0.69755202  0.17762400  -0.00000903  1.0
  O  O35  1  0.82237600  0.00000903  -0.69755202  1.0
  O  O36  1  1.00000903  -0.69755202  -0.17762400  1.0
  O  O37  1  0.30244798  -0.17762400  0.00000903  1.0
  O  O38  1  1.17762400  -0.00000903  -0.30244798  1.0
  O  O39  1  0.99999097  -0.30244798  0.17762400  1.0
