# generated using pymatgen
data_CdCu2GeTe4
_symmetry_space_group_name_H-M   'P 1'
_cell_length_a   7.51294402
_cell_length_b   7.51294402
_cell_length_c   7.51294402
_cell_angle_alpha   130.79109686
_cell_angle_beta   130.79109686
_cell_angle_gamma   72.14519311
_symmetry_Int_Tables_number   1
_chemical_formula_structural   CdCu2GeTe4
_chemical_formula_sum   'Cd1 Cu2 Ge1 Te4'
_cell_volume   237.66645832
_cell_formula_units_Z   1
loop_
 _symmetry_equiv_pos_site_id
 _symmetry_equiv_pos_as_xyz
  1  'x, y, z'
loop_
 _atom_site_type_symbol
 _atom_site_label
 _atom_site_symmetry_multiplicity
 _atom_site_fract_x
 _atom_site_fract_y
 _atom_site_fract_z
 _atom_site_occupancy
  Cd  Cd0  1  0.00000000  0.00000000  0.00000000  1.0
  Cu  Cu1  1  0.25000000  0.75000000  0.50000000  1.0
  Cu  Cu2  1  0.75000000  0.25000000  0.50000000  1.0
  Ge  Ge3  1  0.50000000  0.50000000  1.00000000  1.0
  Te  Te4  1  0.40131225  0.87464122  1.00000000  1.0
  Te  Te5  1  1.12535878  1.12535878  1.52667103  1.0
  Te  Te6  1  0.59868775  0.59868775  0.47332897  1.0
  Te  Te7  1  0.87464122  0.40131225  1.00000000  1.0
