# generated using pymatgen
data_K2B2S7
_symmetry_space_group_name_H-M   'P 1'
_cell_length_a   8.34263403
_cell_length_b   8.34263403
_cell_length_c   12.08582636
_cell_angle_alpha   59.59076351
_cell_angle_beta   120.40923649
_cell_angle_gamma   130.59237777
_symmetry_Int_Tables_number   1
_chemical_formula_structural   K2B2S7
_chemical_formula_sum   'K4 B4 S14'
_cell_volume   530.41742292
_cell_formula_units_Z   2
loop_
 _symmetry_equiv_pos_site_id
 _symmetry_equiv_pos_as_xyz
  1  'x, y, z'
loop_
 _atom_site_type_symbol
 _atom_site_label
 _atom_site_symmetry_multiplicity
 _atom_site_fract_x
 _atom_site_fract_y
 _atom_site_fract_z
 _atom_site_occupancy
  K  K0  1  0.62675961  -0.16761424  0.97483176  1.0
  K  K1  1  1.16761424  -0.62675961  0.47483176  1.0
  K  K2  1  0.83238576  0.62675961  0.52516824  1.0
  K  K3  1  1.37324039  0.16761424  0.02516824  1.0
  B  B4  1  1.65764009  -0.10995224  0.64854185  1.0
  B  B5  1  1.10995224  -0.65764009  0.14854185  1.0
  B  B6  1  0.89004776  0.65764009  0.85145815  1.0
  B  B7  1  0.34235991  0.10995224  0.35145815  1.0
  S  S8  1  1.44453059  -0.40024347  0.72728018  1.0
  S  S9  1  1.40024347  -0.44453059  0.22728018  1.0
  S  S10  1  0.59975653  0.44453059  0.77271982  1.0
  S  S11  1  0.55546941  0.40024347  0.27271982  1.0
  S  S12  1  1.66003193  -0.06673217  0.47790752  1.0
  S  S13  1  1.06673217  0.33996807  0.97790752  1.0
  S  S14  1  0.93326783  -0.33996807  0.02209248  1.0
  S  S15  1  0.33996807  0.06673217  0.52209248  1.0
  S  S16  1  0.64192656  0.10138865  0.65792027  1.0
  S  S17  1  0.89861135  -0.64192656  0.15792027  1.0
  S  S18  1  1.10138865  0.64192656  0.84207973  1.0
  S  S19  1  1.35807344  -0.10138865  0.34207973  1.0
  S  S20  1  0.95051271  0.95051271  0.75000000  1.0
  S  S21  1  0.04948729  0.04948729  0.25000000  1.0
