# generated using pymatgen
data_Ba6GdIn(BO3)6
_symmetry_space_group_name_H-M   'P 1'
_cell_length_a   8.17641773
_cell_length_b   8.17641773
_cell_length_c   8.17641773
_cell_angle_alpha   105.81272044
_cell_angle_beta   105.81272044
_cell_angle_gamma   105.81272044
_symmetry_Int_Tables_number   1
_chemical_formula_structural   Ba6GdIn(BO3)6
_chemical_formula_sum   'Ba6 Gd1 In1 B6 O18'
_cell_volume   469.19833703
_cell_formula_units_Z   1
loop_
 _symmetry_equiv_pos_site_id
 _symmetry_equiv_pos_as_xyz
  1  'x, y, z'
loop_
 _atom_site_type_symbol
 _atom_site_label
 _atom_site_symmetry_multiplicity
 _atom_site_fract_x
 _atom_site_fract_y
 _atom_site_fract_z
 _atom_site_occupancy
  Ba  Ba0  1  0.76724309  0.66422543  0.15380972  1.0
  Ba  Ba1  1  1.33577457  -0.15380972  0.23275691  1.0
  Ba  Ba2  1  0.84619028  0.23275691  0.33577457  1.0
  Ba  Ba3  1  1.23275691  0.33577457  -0.15380972  1.0
  Ba  Ba4  1  0.66422543  1.15380972  -0.23275691  1.0
  Ba  Ba5  1  1.15380972  0.76724309  -0.33577457  1.0
  Gd  Gd6  1  0.50000000  0.50000000  0.50000000  1.0
  In  In7  1  0.00000000  0.00000000  0.00000000  1.0
  B  B8  1  1.54919234  0.79453449  -0.12376847  1.0
  B  B9  1  1.20546551  0.12376847  -0.54919234  1.0
  B  B10  1  1.12376847  -0.54919234  0.20546551  1.0
  B  B11  1  0.45080766  0.20546551  0.12376847  1.0
  B  B12  1  0.79453449  0.87623153  0.54919234  1.0
  B  B13  1  0.87623153  1.54919234  -0.20546551  1.0
  O  O14  1  0.72054212  0.92871180  -0.00083467  1.0
  O  O15  1  1.07128820  0.00083467  -0.72054212  1.0
  O  O16  1  1.00083467  -0.72054212  0.07128820  1.0
  O  O17  1  0.27945788  0.07128820  0.00083467  1.0
  O  O18  1  0.92871180  0.99916533  -0.27945788  1.0
  O  O19  1  0.99916533  0.72054212  -0.07128820  1.0
  O  O20  1  1.49284283  0.76870215  -0.30932570  1.0
  O  O21  1  1.23129785  0.30932570  -0.49284283  1.0
  O  O22  1  1.30932570  -0.49284283  0.23129785  1.0
  O  O23  1  0.50715717  0.23129785  0.30932570  1.0
  O  O24  1  0.76870215  0.69067430  0.49284283  1.0
  O  O25  1  0.69067430  1.49284283  -0.23129785  1.0
  O  O26  1  0.56502943  0.30120597  0.05708115  1.0
  O  O27  1  0.69879403  0.94291885  0.43497057  1.0
  O  O28  1  0.94291885  1.43497057  -0.30120597  1.0
  O  O29  1  1.43497057  0.69879403  -0.05708115  1.0
  O  O30  1  1.30120597  0.05708115  -0.43497057  1.0
  O  O31  1  1.05708115  -0.43497057  0.30120597  1.0
