# generated using pymatgen
data_AlS2NCl4
_symmetry_space_group_name_H-M   'P 1'
_cell_length_a   12.02352829
_cell_length_b   7.58951079
_cell_length_c   10.89316719
_cell_angle_alpha   90.00000000
_cell_angle_beta   90.00000000
_cell_angle_gamma   90.00000000
_symmetry_Int_Tables_number   1
_chemical_formula_structural   AlS2NCl4
_chemical_formula_sum   'Al4 S8 N4 Cl16'
_cell_volume   994.03089236
_cell_formula_units_Z   4
loop_
 _symmetry_equiv_pos_site_id
 _symmetry_equiv_pos_as_xyz
  1  'x, y, z'
loop_
 _atom_site_type_symbol
 _atom_site_label
 _atom_site_symmetry_multiplicity
 _atom_site_fract_x
 _atom_site_fract_y
 _atom_site_fract_z
 _atom_site_occupancy
  Al  Al0  1  0.88954673  0.75000000  0.20282277  1.0
  Al  Al1  1  0.38954673  0.75000000  0.29717723  1.0
  Al  Al2  1  0.11045327  0.25000000  0.79717723  1.0
  Al  Al3  1  0.61045327  0.25000000  0.70282277  1.0
  S  S4  1  0.87568181  0.75000000  0.84348594  1.0
  S  S5  1  0.37568181  0.75000000  0.65651406  1.0
  S  S6  1  0.12431819  0.25000000  0.15651406  1.0
  S  S7  1  0.62431819  0.25000000  0.34348594  1.0
  S  S8  1  0.85513178  0.75000000  0.56736690  1.0
  S  S9  1  0.35513178  0.75000000  0.93263310  1.0
  S  S10  1  0.14486822  0.25000000  0.43263310  1.0
  S  S11  1  0.64486822  0.25000000  0.06736690  1.0
  N  N12  1  0.86419938  0.75000000  0.70569981  1.0
  N  N13  1  0.36419938  0.75000000  0.79430019  1.0
  N  N14  1  0.13580062  0.25000000  0.29430019  1.0
  N  N15  1  0.63580062  0.25000000  0.20569981  1.0
  Cl  Cl16  1  0.88906949  0.97966285  0.32040081  1.0
  Cl  Cl17  1  0.88906949  0.52033715  0.32040081  1.0
  Cl  Cl18  1  0.38906949  0.97966285  0.17959919  1.0
  Cl  Cl19  1  0.38906949  0.52033715  0.17959919  1.0
  Cl  Cl20  1  0.11093051  0.47966285  0.67959919  1.0
  Cl  Cl21  1  0.11093051  0.02033715  0.67959919  1.0
  Cl  Cl22  1  0.61093051  0.47966285  0.82040081  1.0
  Cl  Cl23  1  0.61093051  0.02033715  0.82040081  1.0
  Cl  Cl24  1  0.74212543  0.75000000  0.08880324  1.0
  Cl  Cl25  1  0.24212543  0.75000000  0.41119676  1.0
  Cl  Cl26  1  0.25787457  0.25000000  0.91119676  1.0
  Cl  Cl27  1  0.75787457  0.25000000  0.58880324  1.0
  Cl  Cl28  1  0.53248690  0.75000000  0.41753481  1.0
  Cl  Cl29  1  0.03248690  0.75000000  0.08246519  1.0
  Cl  Cl30  1  0.46751310  0.25000000  0.58246519  1.0
  Cl  Cl31  1  0.96751310  0.25000000  0.91753481  1.0
