# generated using pymatgen
data_Na3Rh(NO2)6
_symmetry_space_group_name_H-M   'P 1'
_cell_length_a   6.85284917
_cell_length_b   6.85284917
_cell_length_c   6.85284917
_cell_angle_alpha   72.22533278
_cell_angle_beta   72.22533278
_cell_angle_gamma   72.22533278
_symmetry_Int_Tables_number   1
_chemical_formula_structural   Na3Rh(NO2)6
_chemical_formula_sum   'Na3 Rh1 N6 O12'
_cell_volume   283.73558221
_cell_formula_units_Z   1
loop_
 _symmetry_equiv_pos_site_id
 _symmetry_equiv_pos_as_xyz
  1  'x, y, z'
loop_
 _atom_site_type_symbol
 _atom_site_label
 _atom_site_symmetry_multiplicity
 _atom_site_fract_x
 _atom_site_fract_y
 _atom_site_fract_z
 _atom_site_occupancy
  Na  Na0  1  0.76524218  0.76524218  -0.23475782  1.0
  Na  Na1  1  1.23475782  1.23475782  0.23475782  1.0
  Na  Na2  1  0.00000000  -0.00000000  -0.00000000  1.0
  Rh  Rh3  1  0.50000000  0.50000000  -0.50000000  1.0
  N  N4  1  0.29883526  0.29883526  -0.32558029  1.0
  N  N5  1  0.29883526  0.67441971  -0.70116474  1.0
  N  N6  1  0.32558029  0.70116474  -0.29883526  1.0
  N  N7  1  0.70116474  0.32558029  -0.29883526  1.0
  N  N8  1  0.70116474  0.70116474  -0.67441971  1.0
  N  N9  1  0.67441971  0.29883526  -0.70116474  1.0
  O  O10  1  0.21851817  0.21851817  -0.41131109  1.0
  O  O11  1  0.21851817  0.58868891  -0.78148183  1.0
  O  O12  1  0.41131109  0.78148183  -0.21851817  1.0
  O  O13  1  0.78148183  0.41131109  -0.21851817  1.0
  O  O14  1  0.78148183  0.78148183  -0.58868891  1.0
  O  O15  1  0.58868891  0.21851817  -0.78148183  1.0
  O  O16  1  0.25912944  0.25912944  -0.12931938  1.0
  O  O17  1  0.25912944  0.87068062  -0.74087056  1.0
  O  O18  1  1.12931938  -0.25912944  -0.25912944  1.0
  O  O19  1  0.74087056  0.12931938  -0.25912944  1.0
  O  O20  1  0.74087056  -0.25912944  0.12931938  1.0
  O  O21  1  0.87068062  0.25912944  -0.74087056  1.0
