# generated using pymatgen
data_NaP3PbO9
_symmetry_space_group_name_H-M   'P 1'
_cell_length_a   5.77741178
_cell_length_b   11.11235533
_cell_length_c   12.37803647
_cell_angle_alpha   90.00000000
_cell_angle_beta   90.00000000
_cell_angle_gamma   90.00000000
_symmetry_Int_Tables_number   1
_chemical_formula_structural   NaP3PbO9
_chemical_formula_sum   'Na4 P12 Pb4 O36'
_cell_volume   794.67801905
_cell_formula_units_Z   4
loop_
 _symmetry_equiv_pos_site_id
 _symmetry_equiv_pos_as_xyz
  1  'x, y, z'
loop_
 _atom_site_type_symbol
 _atom_site_label
 _atom_site_symmetry_multiplicity
 _atom_site_fract_x
 _atom_site_fract_y
 _atom_site_fract_z
 _atom_site_occupancy
  Na  Na0  1  0.10235243  0.53331964  0.86645706  1.0
  Na  Na1  1  0.60235243  0.96668036  0.13354294  1.0
  Na  Na2  1  0.89764757  0.03331964  0.63354294  1.0
  Na  Na3  1  0.39764757  0.46668036  0.36645706  1.0
  P  P4  1  0.40824124  0.21160075  0.68349760  1.0
  P  P5  1  0.90824124  0.28839925  0.31650240  1.0
  P  P6  1  0.59175876  0.71160075  0.81650240  1.0
  P  P7  1  0.09175876  0.78839925  0.18349760  1.0
  P  P8  1  0.38980068  0.59100853  0.62931278  1.0
  P  P9  1  0.88980068  0.90899147  0.37068722  1.0
  P  P10  1  0.61019932  0.09100853  0.87068722  1.0
  P  P11  1  0.11019932  0.40899147  0.12931278  1.0
  P  P12  1  0.39218269  0.85589515  0.64492459  1.0
  P  P13  1  0.89218269  0.64410485  0.35507541  1.0
  P  P14  1  0.60781731  0.35589515  0.85507541  1.0
  P  P15  1  0.10781731  0.14410485  0.14492459  1.0
  Pb  Pb16  1  0.10330977  0.89618339  0.91086114  1.0
  Pb  Pb17  1  0.60330977  0.60381661  0.08913886  1.0
  Pb  Pb18  1  0.89669023  0.39618339  0.58913886  1.0
  Pb  Pb19  1  0.39669023  0.10381661  0.41086114  1.0
  O  O20  1  0.49886083  0.94650068  0.57018945  1.0
  O  O21  1  0.99886083  0.55349932  0.42981055  1.0
  O  O22  1  0.50113917  0.44650068  0.92981055  1.0
  O  O23  1  0.00113917  0.05349932  0.07018945  1.0
  O  O24  1  0.42226134  0.10412155  0.77233008  1.0
  O  O25  1  0.92226134  0.39587845  0.22766992  1.0
  O  O26  1  0.57773866  0.60412155  0.72766992  1.0
  O  O27  1  0.07773866  0.89587845  0.27233008  1.0
  O  O28  1  0.41084776  0.32869717  0.76185644  1.0
  O  O29  1  0.91084776  0.17130283  0.23814356  1.0
  O  O30  1  0.58915224  0.82869717  0.73814356  1.0
  O  O31  1  0.08915224  0.67130283  0.26185644  1.0
  O  O32  1  0.38166202  0.72681188  0.58146139  1.0
  O  O33  1  0.88166202  0.77318812  0.41853861  1.0
  O  O34  1  0.61833798  0.22681188  0.91853861  1.0
  O  O35  1  0.11833798  0.27318812  0.08146139  1.0
  O  O36  1  0.37689520  0.70971434  0.88710837  1.0
  O  O37  1  0.87689520  0.79028566  0.11289163  1.0
  O  O38  1  0.62310480  0.20971434  0.61289163  1.0
  O  O39  1  0.12310480  0.29028566  0.38710837  1.0
  O  O40  1  0.32322825  0.79488234  0.12784952  1.0
  O  O41  1  0.82322825  0.70511766  0.87215048  1.0
  O  O42  1  0.67677175  0.29488234  0.37215048  1.0
  O  O43  1  0.17677175  0.20511766  0.62784952  1.0
  O  O44  1  0.15773451  0.55502110  0.67526584  1.0
  O  O45  1  0.65773451  0.94497890  0.32473416  1.0
  O  O46  1  0.84226549  0.05502110  0.82473416  1.0
  O  O47  1  0.34226549  0.44497890  0.17526584  1.0
  O  O48  1  0.16496497  0.88133583  0.70105653  1.0
  O  O49  1  0.66496497  0.61866417  0.29894347  1.0
  O  O50  1  0.83503503  0.38133583  0.79894347  1.0
  O  O51  1  0.33503503  0.11866417  0.20105653  1.0
  O  O52  1  0.99605593  0.49119998  0.04813544  1.0
  O  O53  1  0.49605593  0.00880002  0.95186456  1.0
  O  O54  1  0.00394407  0.99119998  0.45186456  1.0
  O  O55  1  0.50394407  0.50880002  0.54813544  1.0
