# generated using pymatgen
data_Ba2WO5
_symmetry_space_group_name_H-M   'P 1'
_cell_length_a   7.52542638
_cell_length_b   5.78799528
_cell_length_c   11.62875807
_cell_angle_alpha   90.00000000
_cell_angle_beta   90.00000000
_cell_angle_gamma   90.00000000
_symmetry_Int_Tables_number   1
_chemical_formula_structural   Ba2WO5
_chemical_formula_sum   'Ba8 W4 O20'
_cell_volume   506.51535451
_cell_formula_units_Z   4
loop_
 _symmetry_equiv_pos_site_id
 _symmetry_equiv_pos_as_xyz
  1  'x, y, z'
loop_
 _atom_site_type_symbol
 _atom_site_label
 _atom_site_symmetry_multiplicity
 _atom_site_fract_x
 _atom_site_fract_y
 _atom_site_fract_z
 _atom_site_occupancy
  Ba  Ba0  1  0.82114588  0.75000000  0.41570856  1.0
  Ba  Ba1  1  0.32114588  0.75000000  0.08429144  1.0
  Ba  Ba2  1  0.17885412  0.25000000  0.58429144  1.0
  Ba  Ba3  1  0.67885412  0.25000000  0.91570856  1.0
  Ba  Ba4  1  0.52371866  0.75000000  0.71345469  1.0
  Ba  Ba5  1  0.02371866  0.75000000  0.78654531  1.0
  Ba  Ba6  1  0.47628134  0.25000000  0.28654531  1.0
  Ba  Ba7  1  0.97628134  0.25000000  0.21345469  1.0
  W  W8  1  0.82168373  0.75000000  0.06440772  1.0
  W  W9  1  0.32168373  0.75000000  0.43559228  1.0
  W  W10  1  0.17831627  0.25000000  0.93559228  1.0
  W  W11  1  0.67831627  0.25000000  0.56440772  1.0
  O  O12  1  0.67603829  0.98969260  0.11228646  1.0
  O  O13  1  0.67603829  0.51030740  0.11228646  1.0
  O  O14  1  0.17603829  0.98969260  0.38771354  1.0
  O  O15  1  0.17603829  0.51030740  0.38771354  1.0
  O  O16  1  0.32396171  0.48969260  0.88771354  1.0
  O  O17  1  0.32396171  0.01030740  0.88771354  1.0
  O  O18  1  0.82396171  0.48969260  0.61228646  1.0
  O  O19  1  0.82396171  0.01030740  0.61228646  1.0
  O  O20  1  0.96980263  0.75000000  0.19507766  1.0
  O  O21  1  0.46980263  0.75000000  0.30492234  1.0
  O  O22  1  0.03019737  0.25000000  0.80492234  1.0
  O  O23  1  0.53019737  0.25000000  0.69507766  1.0
  O  O24  1  0.72799120  0.75000000  0.90687419  1.0
  O  O25  1  0.22799120  0.75000000  0.59312581  1.0
  O  O26  1  0.27200880  0.25000000  0.09312581  1.0
  O  O27  1  0.77200880  0.25000000  0.40687419  1.0
  O  O28  1  0.00000000  0.00000000  0.00000000  1.0
  O  O29  1  0.00000000  0.50000000  0.00000000  1.0
  O  O30  1  0.50000000  0.00000000  0.50000000  1.0
  O  O31  1  0.50000000  0.50000000  0.50000000  1.0
