# generated using pymatgen
data_Zr2Re
_symmetry_space_group_name_H-M   'P 1'
_cell_length_a   10.23436101
_cell_length_b   10.23436101
_cell_length_c   5.63797739
_cell_angle_alpha   90.00000000
_cell_angle_beta   90.00000000
_cell_angle_gamma   90.00000000
_symmetry_Int_Tables_number   1
_chemical_formula_structural   Zr2Re
_chemical_formula_sum   'Zr20 Re10'
_cell_volume   590.53384774
_cell_formula_units_Z   10
loop_
 _symmetry_equiv_pos_site_id
 _symmetry_equiv_pos_as_xyz
  1  'x, y, z'
loop_
 _atom_site_type_symbol
 _atom_site_label
 _atom_site_symmetry_multiplicity
 _atom_site_fract_x
 _atom_site_fract_y
 _atom_site_fract_z
 _atom_site_occupancy
  Zr  Zr0  1  0.10166120  0.89833880  0.50000000  1.0
  Zr  Zr1  1  0.89833880  0.10166120  0.50000000  1.0
  Zr  Zr2  1  0.39833880  0.39833880  0.00000000  1.0
  Zr  Zr3  1  0.60166120  0.60166120  0.00000000  1.0
  Zr  Zr4  1  0.37024364  0.96712528  0.50000000  1.0
  Zr  Zr5  1  0.62975636  0.03287472  0.50000000  1.0
  Zr  Zr6  1  0.12975636  0.46712528  0.00000000  1.0
  Zr  Zr7  1  0.87024364  0.53287472  -0.00000000  1.0
  Zr  Zr8  1  0.96712528  0.37024364  0.50000000  1.0
  Zr  Zr9  1  0.03287472  0.62975636  0.50000000  1.0
  Zr  Zr10  1  0.46712528  0.12975636  0.00000000  1.0
  Zr  Zr11  1  0.53287472  0.87024364  -0.00000000  1.0
  Zr  Zr12  1  0.31656929  0.68343071  0.24944744  1.0
  Zr  Zr13  1  0.68343071  0.31656929  0.24944744  1.0
  Zr  Zr14  1  0.18343071  0.18343071  0.74944744  1.0
  Zr  Zr15  1  0.81656929  0.81656929  0.74944744  1.0
  Zr  Zr16  1  0.68343071  0.31656929  0.75055256  1.0
  Zr  Zr17  1  0.31656929  0.68343071  0.75055256  1.0
  Zr  Zr18  1  0.81656929  0.81656929  0.25055256  1.0
  Zr  Zr19  1  0.18343071  0.18343071  0.25055256  1.0
  Re  Re20  1  0.50000000  0.50000000  0.50000000  1.0
  Re  Re21  1  0.00000000  0.00000000  -0.00000000  1.0
  Re  Re22  1  0.43325887  0.25258778  0.50000000  1.0
  Re  Re23  1  0.56674113  0.74741222  0.50000000  1.0
  Re  Re24  1  0.06674113  0.75258778  0.00000000  1.0
  Re  Re25  1  0.93325887  0.24741222  -0.00000000  1.0
  Re  Re26  1  0.25258778  0.43325887  0.50000000  1.0
  Re  Re27  1  0.74741222  0.56674113  0.50000000  1.0
  Re  Re28  1  0.75258778  0.06674113  0.00000000  1.0
  Re  Re29  1  0.24741222  0.93325887  0.00000000  1.0
