# generated using pymatgen
data_AgBi2Se3Cl
_symmetry_space_group_name_H-M   'P 1'
_cell_length_a   8.20949964
_cell_length_b   4.15902615
_cell_length_c   11.22991258
_cell_angle_alpha   90.00000000
_cell_angle_beta   103.91264150
_cell_angle_gamma   90.00000000
_symmetry_Int_Tables_number   1
_chemical_formula_structural   AgBi2Se3Cl
_chemical_formula_sum   'Ag2 Bi4 Se6 Cl2'
_cell_volume   372.18031088
_cell_formula_units_Z   2
loop_
 _symmetry_equiv_pos_site_id
 _symmetry_equiv_pos_as_xyz
  1  'x, y, z'
loop_
 _atom_site_type_symbol
 _atom_site_label
 _atom_site_symmetry_multiplicity
 _atom_site_fract_x
 _atom_site_fract_y
 _atom_site_fract_z
 _atom_site_occupancy
  Ag  Ag0  1  0.94864515  0.25000000  0.08811727  1.0
  Ag  Ag1  1  0.05135485  0.75000000  0.91188273  1.0
  Bi  Bi2  1  0.80786218  0.25000000  0.56300533  1.0
  Bi  Bi3  1  0.19213782  0.75000000  0.43699467  1.0
  Bi  Bi4  1  0.45961103  0.25000000  0.15397575  1.0
  Bi  Bi5  1  0.54038897  0.75000000  0.84602425  1.0
  Se  Se6  1  0.96032662  0.25000000  0.34965484  1.0
  Se  Se7  1  0.03967338  0.75000000  0.65034516  1.0
  Se  Se8  1  0.79964551  0.25000000  0.83629657  1.0
  Se  Se9  1  0.20035449  0.75000000  0.16370343  1.0
  Se  Se10  1  0.31253725  0.25000000  0.90831388  1.0
  Se  Se11  1  0.68746275  0.75000000  0.09168612  1.0
  Cl  Cl12  1  0.40281370  0.25000000  0.59717399  1.0
  Cl  Cl13  1  0.59718630  0.75000000  0.40282601  1.0
