# generated using pymatgen
data_YNi5Ge3
_symmetry_space_group_name_H-M   'P 1'
_cell_length_a   19.14095079
_cell_length_b   3.86995836
_cell_length_c   6.83115306
_cell_angle_alpha   90.00000000
_cell_angle_beta   90.00000000
_cell_angle_gamma   90.00000000
_symmetry_Int_Tables_number   1
_chemical_formula_structural   YNi5Ge3
_chemical_formula_sum   'Y4 Ni20 Ge12'
_cell_volume   506.01549399
_cell_formula_units_Z   4
loop_
 _symmetry_equiv_pos_site_id
 _symmetry_equiv_pos_as_xyz
  1  'x, y, z'
loop_
 _atom_site_type_symbol
 _atom_site_label
 _atom_site_symmetry_multiplicity
 _atom_site_fract_x
 _atom_site_fract_y
 _atom_site_fract_z
 _atom_site_occupancy
  Y  Y0  1  0.14502973  0.75000000  0.37858797  1.0
  Y  Y1  1  0.64502973  0.75000000  0.12141203  1.0
  Y  Y2  1  0.85497027  0.25000000  0.62141203  1.0
  Y  Y3  1  0.35497027  0.25000000  0.87858797  1.0
  Ni  Ni4  1  0.49592710  0.75000000  0.86610371  1.0
  Ni  Ni5  1  0.99592710  0.75000000  0.63389629  1.0
  Ni  Ni6  1  0.50407290  0.25000000  0.13389629  1.0
  Ni  Ni7  1  0.00407290  0.25000000  0.36610371  1.0
  Ni  Ni8  1  0.29221544  0.75000000  0.57372098  1.0
  Ni  Ni9  1  0.79221544  0.75000000  0.92627902  1.0
  Ni  Ni10  1  0.70778456  0.25000000  0.42627902  1.0
  Ni  Ni11  1  0.20778456  0.25000000  0.07372098  1.0
  Ni  Ni12  1  0.30007860  0.75000000  0.18946568  1.0
  Ni  Ni13  1  0.80007860  0.75000000  0.31053432  1.0
  Ni  Ni14  1  0.69992140  0.25000000  0.81053432  1.0
  Ni  Ni15  1  0.19992140  0.25000000  0.68946568  1.0
  Ni  Ni16  1  0.11273593  0.75000000  0.85730146  1.0
  Ni  Ni17  1  0.61273593  0.75000000  0.64269854  1.0
  Ni  Ni18  1  0.88726407  0.25000000  0.14269854  1.0
  Ni  Ni19  1  0.38726407  0.25000000  0.35730146  1.0
  Ni  Ni20  1  0.01368163  0.75000000  0.11702629  1.0
  Ni  Ni21  1  0.51368163  0.75000000  0.38297371  1.0
  Ni  Ni22  1  0.98631837  0.25000000  0.88297371  1.0
  Ni  Ni23  1  0.48631837  0.25000000  0.61702629  1.0
  Ge  Ge24  1  0.42450067  0.75000000  0.14889400  1.0
  Ge  Ge25  1  0.92450067  0.75000000  0.35110600  1.0
  Ge  Ge26  1  0.57549933  0.25000000  0.85110600  1.0
  Ge  Ge27  1  0.07549933  0.25000000  0.64889400  1.0
  Ge  Ge28  1  0.41351166  0.75000000  0.59089927  1.0
  Ge  Ge29  1  0.91351166  0.75000000  0.90910073  1.0
  Ge  Ge30  1  0.58648834  0.25000000  0.40910073  1.0
  Ge  Ge31  1  0.08648834  0.25000000  0.09089927  1.0
  Ge  Ge32  1  0.23679867  0.75000000  0.88291062  1.0
  Ge  Ge33  1  0.73679867  0.75000000  0.61708938  1.0
  Ge  Ge34  1  0.76320133  0.25000000  0.11708938  1.0
  Ge  Ge35  1  0.26320133  0.25000000  0.38291062  1.0
