# generated using pymatgen
data_BaAl4O7
_symmetry_space_group_name_H-M   'P 1'
_cell_length_a   13.23386389
_cell_length_b   5.00923412
_cell_length_c   10.44136374
_cell_angle_alpha   90.00000000
_cell_angle_beta   90.00000000
_cell_angle_gamma   90.00000000
_symmetry_Int_Tables_number   1
_chemical_formula_structural   BaAl4O7
_chemical_formula_sum   'Ba4 Al16 O28'
_cell_volume   692.17390009
_cell_formula_units_Z   4
loop_
 _symmetry_equiv_pos_site_id
 _symmetry_equiv_pos_as_xyz
  1  'x, y, z'
loop_
 _atom_site_type_symbol
 _atom_site_label
 _atom_site_symmetry_multiplicity
 _atom_site_fract_x
 _atom_site_fract_y
 _atom_site_fract_z
 _atom_site_occupancy
  Ba  Ba0  1  0.50000000  0.44725942  0.66280193  1.0
  Ba  Ba1  1  0.50000000  0.55274058  0.16280193  1.0
  Ba  Ba2  1  0.00000000  0.94717789  0.52858655  1.0
  Ba  Ba3  1  0.00000000  0.05282211  0.02858655  1.0
  Al  Al4  1  0.88099306  0.52811905  0.75340921  1.0
  Al  Al5  1  0.88099306  0.47188095  0.25340921  1.0
  Al  Al6  1  0.11900694  0.52811905  0.75340921  1.0
  Al  Al7  1  0.11900694  0.47188095  0.25340921  1.0
  Al  Al8  1  0.75184792  0.53884901  0.50343603  1.0
  Al  Al9  1  0.75184792  0.46115099  0.00343603  1.0
  Al  Al10  1  0.24815208  0.53884901  0.50343603  1.0
  Al  Al11  1  0.24815208  0.46115099  0.00343603  1.0
  Al  Al12  1  0.74814947  0.96114842  0.18795454  1.0
  Al  Al13  1  0.74814947  0.03885158  0.68795454  1.0
  Al  Al14  1  0.25185053  0.96114842  0.18795454  1.0
  Al  Al15  1  0.25185053  0.03885158  0.68795454  1.0
  Al  Al16  1  0.61900148  0.97188035  0.93798228  1.0
  Al  Al17  1  0.61900148  0.02811965  0.43798228  1.0
  Al  Al18  1  0.38099852  0.97188035  0.93798228  1.0
  Al  Al19  1  0.38099852  0.02811965  0.43798228  1.0
  O  O20  1  0.86232983  0.42827258  0.91240400  1.0
  O  O21  1  0.86232983  0.57172742  0.41240400  1.0
  O  O22  1  0.13767017  0.42827258  0.91240400  1.0
  O  O23  1  0.13767017  0.57172742  0.41240400  1.0
  O  O24  1  0.85992406  0.87333604  0.73133027  1.0
  O  O25  1  0.85992406  0.12666396  0.23133027  1.0
  O  O26  1  0.14007594  0.87333604  0.73133027  1.0
  O  O27  1  0.14007594  0.12666396  0.23133027  1.0
  O  O28  1  0.78892284  0.37125304  0.64906564  1.0
  O  O29  1  0.78892284  0.62874696  0.14906564  1.0
  O  O30  1  0.21107716  0.37125304  0.64906564  1.0
  O  O31  1  0.21107716  0.62874696  0.14906564  1.0
  O  O32  1  0.71107572  0.87125229  0.54232604  1.0
  O  O33  1  0.71107572  0.12874771  0.04232604  1.0
  O  O34  1  0.28892428  0.87125229  0.54232604  1.0
  O  O35  1  0.28892428  0.12874771  0.04232604  1.0
  O  O36  1  0.64006554  0.62664803  0.96006001  1.0
  O  O37  1  0.64006554  0.37335197  0.46006001  1.0
  O  O38  1  0.35993446  0.62664803  0.96006001  1.0
  O  O39  1  0.35993446  0.37335197  0.46006001  1.0
  O  O40  1  0.63766631  0.92827593  0.27898414  1.0
  O  O41  1  0.63766631  0.07172407  0.77898414  1.0
  O  O42  1  0.36233369  0.92827593  0.27898414  1.0
  O  O43  1  0.36233369  0.07172407  0.77898414  1.0
  O  O44  1  0.50000000  0.95331582  0.50310392  1.0
  O  O45  1  0.50000000  0.04668418  0.00310392  1.0
  O  O46  1  0.00000000  0.45337278  0.68830329  1.0
  O  O47  1  0.00000000  0.54662722  0.18830329  1.0
