# generated using pymatgen
data_KZn4SbO7
_symmetry_space_group_name_H-M   'P 1'
_cell_length_a   6.22509304
_cell_length_b   6.22509304
_cell_length_c   10.11450300
_cell_angle_alpha   90.00000000
_cell_angle_beta   90.00000000
_cell_angle_gamma   120.00000000
_symmetry_Int_Tables_number   1
_chemical_formula_structural   KZn4SbO7
_chemical_formula_sum   'K2 Zn8 Sb2 O14'
_cell_volume   339.44301185
_cell_formula_units_Z   2
loop_
 _symmetry_equiv_pos_site_id
 _symmetry_equiv_pos_as_xyz
  1  'x, y, z'
loop_
 _atom_site_type_symbol
 _atom_site_label
 _atom_site_symmetry_multiplicity
 _atom_site_fract_x
 _atom_site_fract_y
 _atom_site_fract_z
 _atom_site_occupancy
  K  K0  1  0.33333333  0.66666667  0.43029666  1.0
  K  K1  1  0.66666667  0.33333333  0.93029666  1.0
  Zn  Zn2  1  0.34613270  0.17306635  0.24597198  1.0
  Zn  Zn3  1  0.17306635  0.34613270  0.74597198  1.0
  Zn  Zn4  1  0.17306635  0.82693365  0.74597198  1.0
  Zn  Zn5  1  0.82693365  0.17306635  0.24597198  1.0
  Zn  Zn6  1  0.82693365  0.65386730  0.24597198  1.0
  Zn  Zn7  1  0.65386730  0.82693365  0.74597198  1.0
  Zn  Zn8  1  0.00000000  0.00000000  0.00066498  1.0
  Zn  Zn9  1  0.00000000  0.00000000  0.50066498  1.0
  Sb  Sb10  1  0.33333333  0.66666667  0.05741907  1.0
  Sb  Sb11  1  0.66666667  0.33333333  0.55741907  1.0
  O  O12  1  0.02291183  0.51145592  0.17345802  1.0
  O  O13  1  0.51145592  0.02291183  0.67345802  1.0
  O  O14  1  0.51145592  0.48854408  0.67345802  1.0
  O  O15  1  0.48854408  0.51145592  0.17345802  1.0
  O  O16  1  0.48854408  0.97708817  0.17345802  1.0
  O  O17  1  0.97708817  0.48854408  0.67345802  1.0
  O  O18  1  0.35553287  0.17776644  0.44144609  1.0
  O  O19  1  0.17776644  0.35553287  0.94144609  1.0
  O  O20  1  0.17776644  0.82223356  0.94144609  1.0
  O  O21  1  0.82223356  0.17776644  0.44144609  1.0
  O  O22  1  0.82223356  0.64446713  0.44144609  1.0
  O  O23  1  0.64446713  0.82223356  0.94144609  1.0
  O  O24  1  0.00000000  0.00000000  0.19509102  1.0
  O  O25  1  0.00000000  0.00000000  0.69509102  1.0
