# generated using pymatgen
data_RbAl(H2N)4
_symmetry_space_group_name_H-M   'P 1'
_cell_length_a   7.39107938
_cell_length_b   7.39107938
_cell_length_c   5.57459097
_cell_angle_alpha   90.00000000
_cell_angle_beta   90.00000000
_cell_angle_gamma   90.00000000
_symmetry_Int_Tables_number   1
_chemical_formula_structural   RbAl(H2N)4
_chemical_formula_sum   'Rb2 Al2 H16 N8'
_cell_volume   304.52905890
_cell_formula_units_Z   2
loop_
 _symmetry_equiv_pos_site_id
 _symmetry_equiv_pos_as_xyz
  1  'x, y, z'
loop_
 _atom_site_type_symbol
 _atom_site_label
 _atom_site_symmetry_multiplicity
 _atom_site_fract_x
 _atom_site_fract_y
 _atom_site_fract_z
 _atom_site_occupancy
  Rb  Rb0  1  0.00000000  0.50000000  0.23524355  1.0
  Rb  Rb1  1  0.50000000  0.00000000  0.76475645  1.0
  Al  Al2  1  0.50000000  0.50000000  0.00000000  1.0
  Al  Al3  1  0.00000000  0.00000000  0.00000000  1.0
  H  H4  1  0.82310363  0.95882457  0.38080123  1.0
  H  H5  1  0.17689637  0.04117543  0.38080123  1.0
  H  H6  1  0.45882457  0.67689637  0.38080123  1.0
  H  H7  1  0.54117543  0.32310363  0.38080123  1.0
  H  H8  1  0.67689637  0.54117543  0.61919877  1.0
  H  H9  1  0.32310363  0.45882457  0.61919877  1.0
  H  H10  1  0.04117543  0.82310363  0.61919877  1.0
  H  H11  1  0.95882457  0.17689637  0.61919877  1.0
  H  H12  1  0.71991023  0.82983142  0.18286223  1.0
  H  H13  1  0.28008977  0.17016858  0.18286223  1.0
  H  H14  1  0.32983142  0.78008977  0.18286223  1.0
  H  H15  1  0.67016858  0.21991023  0.18286223  1.0
  H  H16  1  0.78008977  0.67016858  0.81713777  1.0
  H  H17  1  0.21991023  0.32983142  0.81713777  1.0
  H  H18  1  0.17016858  0.71991023  0.81713777  1.0
  H  H19  1  0.82983142  0.28008977  0.81713777  1.0
  N  N20  1  0.83709384  0.89781944  0.21767332  1.0
  N  N21  1  0.16290616  0.10218056  0.21767332  1.0
  N  N22  1  0.39781944  0.66290616  0.21767332  1.0
  N  N23  1  0.60218056  0.33709384  0.21767332  1.0
  N  N24  1  0.66290616  0.60218056  0.78232668  1.0
  N  N25  1  0.33709384  0.39781944  0.78232668  1.0
  N  N26  1  0.10218056  0.83709384  0.78232668  1.0
  N  N27  1  0.89781944  0.16290616  0.78232668  1.0
