# generated using pymatgen
data_V(FeSe2)2
_symmetry_space_group_name_H-M   'P 1'
_cell_length_a   8.05318119
_cell_length_b   8.05318119
_cell_length_c   7.44909746
_cell_angle_alpha   49.96080934
_cell_angle_beta   130.03919066
_cell_angle_gamma   156.08502046
_symmetry_Int_Tables_number   1
_chemical_formula_structural   V(FeSe2)2
_chemical_formula_sum   'V1 Fe2 Se4'
_cell_volume   147.54293846
_cell_formula_units_Z   1
loop_
 _symmetry_equiv_pos_site_id
 _symmetry_equiv_pos_as_xyz
  1  'x, y, z'
loop_
 _atom_site_type_symbol
 _atom_site_label
 _atom_site_symmetry_multiplicity
 _atom_site_fract_x
 _atom_site_fract_y
 _atom_site_fract_z
 _atom_site_occupancy
  V  V0  1  0.00000000  0.00000000  0.00000000  1.0
  Fe  Fe1  1  0.76678901  -0.76678901  0.65451455  1.0
  Fe  Fe2  1  1.23321099  -0.23321099  0.34548545  1.0
  Se  Se3  1  0.88250515  -0.88250515  0.54184756  1.0
  Se  Se4  1  1.11749485  -0.11749485  0.45815244  1.0
  Se  Se5  1  0.62515993  -0.62515993  1.01342199  1.0
  Se  Se6  1  1.37484007  -0.37484007  -0.01342199  1.0
