# generated using pymatgen
data_Sr11(Ge2N3)2
_symmetry_space_group_name_H-M   'P 1'
_cell_length_a   7.31126899
_cell_length_b   7.31126899
_cell_length_c   18.85853206
_cell_angle_alpha   90.00000000
_cell_angle_beta   90.00000000
_cell_angle_gamma   90.00000000
_symmetry_Int_Tables_number   1
_chemical_formula_structural   Sr11(Ge2N3)2
_chemical_formula_sum   'Sr22 Ge8 N12'
_cell_volume   1008.07631105
_cell_formula_units_Z   2
loop_
 _symmetry_equiv_pos_site_id
 _symmetry_equiv_pos_as_xyz
  1  'x, y, z'
loop_
 _atom_site_type_symbol
 _atom_site_label
 _atom_site_symmetry_multiplicity
 _atom_site_fract_x
 _atom_site_fract_y
 _atom_site_fract_z
 _atom_site_occupancy
  Sr  Sr0  1  0.78071746  0.71928254  0.12979707  1.0
  Sr  Sr1  1  0.78071746  0.28071746  0.87020293  1.0
  Sr  Sr2  1  0.28071746  0.21928254  0.87020293  1.0
  Sr  Sr3  1  0.28071746  0.78071746  0.12979707  1.0
  Sr  Sr4  1  0.71928254  0.78071746  0.87020293  1.0
  Sr  Sr5  1  0.71928254  0.21928254  0.12979707  1.0
  Sr  Sr6  1  0.21928254  0.28071746  0.12979707  1.0
  Sr  Sr7  1  0.21928254  0.71928254  0.87020293  1.0
  Sr  Sr8  1  0.67218980  0.82781020  0.40102314  1.0
  Sr  Sr9  1  0.67218980  0.17218980  0.59897686  1.0
  Sr  Sr10  1  0.17218980  0.32781020  0.59897686  1.0
  Sr  Sr11  1  0.17218980  0.67218980  0.40102314  1.0
  Sr  Sr12  1  0.82781020  0.67218980  0.59897686  1.0
  Sr  Sr13  1  0.82781020  0.32781020  0.40102314  1.0
  Sr  Sr14  1  0.32781020  0.17218980  0.40102314  1.0
  Sr  Sr15  1  0.32781020  0.82781020  0.59897686  1.0
  Sr  Sr16  1  0.00000000  0.00000000  0.27358825  1.0
  Sr  Sr17  1  0.00000000  0.00000000  0.72641175  1.0
  Sr  Sr18  1  0.50000000  0.50000000  0.72641175  1.0
  Sr  Sr19  1  0.50000000  0.50000000  0.27358825  1.0
  Sr  Sr20  1  0.00000000  0.00000000  0.00000000  1.0
  Sr  Sr21  1  0.50000000  0.50000000  0.00000000  1.0
  Ge  Ge22  1  0.50000000  0.00000000  0.25861504  1.0
  Ge  Ge23  1  0.50000000  0.00000000  0.74138496  1.0
  Ge  Ge24  1  0.00000000  0.50000000  0.74138496  1.0
  Ge  Ge25  1  0.00000000  0.50000000  0.25861504  1.0
  Ge  Ge26  1  0.50000000  0.00000000  0.00000000  1.0
  Ge  Ge27  1  0.00000000  0.50000000  0.00000000  1.0
  Ge  Ge28  1  0.00000000  0.00000000  0.50000000  1.0
  Ge  Ge29  1  0.50000000  0.50000000  0.50000000  1.0
  N  N30  1  0.85516844  0.64483156  0.31713433  1.0
  N  N31  1  0.85516844  0.35516844  0.68286567  1.0
  N  N32  1  0.35516844  0.14483156  0.68286567  1.0
  N  N33  1  0.35516844  0.85516844  0.31713433  1.0
  N  N34  1  0.64483156  0.85516844  0.68286567  1.0
  N  N35  1  0.64483156  0.14483156  0.31713433  1.0
  N  N36  1  0.14483156  0.35516844  0.31713433  1.0
  N  N37  1  0.14483156  0.64483156  0.68286567  1.0
  N  N38  1  0.00000000  0.00000000  0.14376048  1.0
  N  N39  1  0.00000000  0.00000000  0.85623952  1.0
  N  N40  1  0.50000000  0.50000000  0.85623952  1.0
  N  N41  1  0.50000000  0.50000000  0.14376048  1.0
