# generated using pymatgen
data_NiSO5
_symmetry_space_group_name_H-M   'P 1'
_cell_length_a   5.18514262
_cell_length_b   5.18514262
_cell_length_c   7.22631913
_cell_angle_alpha   69.59572027
_cell_angle_beta   110.40427973
_cell_angle_gamma   80.01770752
_symmetry_Int_Tables_number   1
_chemical_formula_structural   NiSO5
_chemical_formula_sum   'Ni2 S2 O10'
_cell_volume   160.76502676
_cell_formula_units_Z   2
loop_
 _symmetry_equiv_pos_site_id
 _symmetry_equiv_pos_as_xyz
  1  'x, y, z'
loop_
 _atom_site_type_symbol
 _atom_site_label
 _atom_site_symmetry_multiplicity
 _atom_site_fract_x
 _atom_site_fract_y
 _atom_site_fract_z
 _atom_site_occupancy
  S  S0  1  0.92326172  -0.07673828  0.25000000  1.0
  S  S1  1  1.07673828  0.07673828  0.75000000  1.0
  Ni  Ni2  1  1.50000000  -0.00000000  0.50000000  1.0
  Ni  Ni3  1  1.00000000  -0.50000000  0.00000000  1.0
  O  O4  1  0.80204590  -0.17263026  0.41125255  1.0
  O  O5  1  1.17263026  0.19795410  0.91125255  1.0
  O  O6  1  0.82736974  -0.19795410  0.08874745  1.0
  O  O7  1  1.19795410  0.17263026  0.58874745  1.0
  O  O8  1  0.25229128  -0.19028065  0.36428367  1.0
  O  O9  1  1.19028065  0.74770872  0.86428367  1.0
  O  O10  1  0.80971935  -0.74770872  0.13571633  1.0
  O  O11  1  1.74770872  0.19028065  0.63571633  1.0
  O  O12  1  1.33556396  0.33556396  0.25000000  1.0
  O  O13  1  0.66443604  -0.33556396  0.75000000  1.0
