# generated using pymatgen
data_CuHClO
_symmetry_space_group_name_H-M   'P 1'
_cell_length_a   6.18390752
_cell_length_b   6.81032104
_cell_length_c   5.66366307
_cell_angle_alpha   90.00000000
_cell_angle_beta   116.31107279
_cell_angle_gamma   90.00000000
_symmetry_Int_Tables_number   1
_chemical_formula_structural   CuHClO
_chemical_formula_sum   'Cu4 H4 Cl4 O4'
_cell_volume   213.81108142
_cell_formula_units_Z   4
loop_
 _symmetry_equiv_pos_site_id
 _symmetry_equiv_pos_as_xyz
  1  'x, y, z'
loop_
 _atom_site_type_symbol
 _atom_site_label
 _atom_site_symmetry_multiplicity
 _atom_site_fract_x
 _atom_site_fract_y
 _atom_site_fract_z
 _atom_site_occupancy
  Cu  Cu0  1  0.96977706  0.61949754  0.74734526  1.0
  Cu  Cu1  1  0.96977706  0.88050246  0.24734526  1.0
  Cu  Cu2  1  0.03022294  0.11949754  0.75265474  1.0
  Cu  Cu3  1  0.03022294  0.38050246  0.25265474  1.0
  H  H4  1  0.28999293  0.84216205  0.73139258  1.0
  H  H5  1  0.28999293  0.65783795  0.23139258  1.0
  H  H6  1  0.71000707  0.34216205  0.76860742  1.0
  H  H7  1  0.71000707  0.15783795  0.26860742  1.0
  Cl  Cl8  1  0.68633643  0.91392789  0.82503466  1.0
  Cl  Cl9  1  0.68633643  0.58607211  0.32503466  1.0
  Cl  Cl10  1  0.31366357  0.41392789  0.67496534  1.0
  Cl  Cl11  1  0.31366357  0.08607211  0.17496534  1.0
  O  O12  1  0.88784090  0.35662153  0.85064234  1.0
  O  O13  1  0.88784090  0.14337847  0.35064234  1.0
  O  O14  1  0.11215910  0.85662153  0.64935766  1.0
  O  O15  1  0.11215910  0.64337847  0.14935766  1.0
