# generated using pymatgen
data_YV2O2
_symmetry_space_group_name_H-M   'P 1'
_cell_length_a   7.33146669
_cell_length_b   7.33146669
_cell_length_c   7.33146669
_cell_angle_alpha   110.05361125
_cell_angle_beta   110.05361125
_cell_angle_gamma   108.31261496
_symmetry_Int_Tables_number   1
_chemical_formula_structural   YV2O2
_chemical_formula_sum   'Y4 V8 O8'
_cell_volume   303.26188063
_cell_formula_units_Z   4
loop_
 _symmetry_equiv_pos_site_id
 _symmetry_equiv_pos_as_xyz
  1  'x, y, z'
loop_
 _atom_site_type_symbol
 _atom_site_label
 _atom_site_symmetry_multiplicity
 _atom_site_fract_x
 _atom_site_fract_y
 _atom_site_fract_z
 _atom_site_occupancy
  Y  Y0  1  1.37500000  1.12500000  1.25000000  1.0
  Y  Y1  1  0.87500000  1.12500000  0.75000000  1.0
  Y  Y2  1  0.87500000  1.12500000  0.25000000  1.0
  Y  Y3  1  0.87500000  1.62500000  0.75000000  1.0
  V  V4  1  1.21854539  1.53577400  0.68277140  1.0
  V  V5  1  0.89699740  0.71422600  0.18277140  1.0
  V  V6  1  0.85300260  0.53577400  0.31722860  1.0
  V  V7  1  1.53145461  0.71422600  0.81722860  1.0
  V  V8  1  0.46422600  0.14699740  0.68277140  1.0
  V  V9  1  1.28577400  1.46854539  1.18277140  1.0
  V  V10  1  0.46422600  0.78145461  0.31722860  1.0
  V  V11  1  1.28577400  1.10300260  0.81722860  1.0
  O  O12  1  1.20675053  1.36023336  0.84651717  1.0
  O  O13  1  1.23628381  0.88976664  1.34651717  1.0
  O  O14  1  0.51371619  0.36023336  0.15348283  1.0
  O  O15  1  0.54324947  0.88976664  0.65348283  1.0
  O  O16  1  0.63976664  0.48628381  0.84651717  1.0
  O  O17  1  1.11023336  1.45675053  0.34651717  1.0
  O  O18  1  0.63976664  0.79324947  0.15348283  1.0
  O  O19  1  1.11023336  1.76371619  0.65348283  1.0
