# generated using pymatgen
data_SiO2
_symmetry_space_group_name_H-M   'P 1'
_cell_length_a   9.89163860
_cell_length_b   9.89163860
_cell_length_c   9.89239332
_cell_angle_alpha   90.00000000
_cell_angle_beta   90.00000000
_cell_angle_gamma   90.00000000
_symmetry_Int_Tables_number   1
_chemical_formula_structural   SiO2
_chemical_formula_sum   'Si12 O24'
_cell_volume   967.91641814
_cell_formula_units_Z   12
loop_
 _symmetry_equiv_pos_site_id
 _symmetry_equiv_pos_as_xyz
  1  'x, y, z'
loop_
 _atom_site_type_symbol
 _atom_site_label
 _atom_site_symmetry_multiplicity
 _atom_site_fract_x
 _atom_site_fract_y
 _atom_site_fract_z
 _atom_site_occupancy
  Si  Si0  1  0.75068840  0.24931160  0.75000000  1.0
  Si  Si1  1  0.24931160  0.75068840  0.25000000  1.0
  Si  Si2  1  0.74931160  0.74931160  0.50000000  1.0
  Si  Si3  1  0.25068840  0.25068840  0.00000000  1.0
  Si  Si4  1  0.87502971  0.50031603  0.62614436  1.0
  Si  Si5  1  0.12497029  0.49968397  0.12614436  1.0
  Si  Si6  1  1.00031603  0.62497029  0.37614436  1.0
  Si  Si7  1  -0.00031603  0.37502971  0.87614436  1.0
  Si  Si8  1  0.49968397  0.12497029  0.87385564  1.0
  Si  Si9  1  0.50031603  0.87502971  0.37385564  1.0
  Si  Si10  1  0.62497029  1.00031603  0.62385564  1.0
  Si  Si11  1  0.37502971  -0.00031603  0.12385564  1.0
  O  O12  1  0.98395342  0.51828442  0.50220870  1.0
  O  O13  1  0.01604658  0.48171558  1.00220870  1.0
  O  O14  1  1.01828442  0.51604658  0.25220870  1.0
  O  O15  1  -0.01828442  0.48395342  0.75220870  1.0
  O  O16  1  0.48171558  0.01604658  -0.00220870  1.0
  O  O17  1  0.51828442  0.98395342  0.49779130  1.0
  O  O18  1  0.51604658  1.01828442  0.74779130  1.0
  O  O19  1  0.48395342  -0.01828442  0.24779130  1.0
  O  O20  1  0.76636816  0.62445391  0.60800058  1.0
  O  O21  1  0.23363184  0.37554609  1.10800058  1.0
  O  O22  1  1.12445391  0.73363184  0.35800058  1.0
  O  O23  1  -0.12445391  0.26636816  0.85800058  1.0
  O  O24  1  0.37554609  0.23363184  -0.10800058  1.0
  O  O25  1  0.62445391  0.76636816  0.39199942  1.0
  O  O26  1  0.73363184  1.12445391  0.64199942  1.0
  O  O27  1  0.26636816  -0.12445391  0.14199942  1.0
  O  O28  1  0.76806300  0.37445575  0.64238407  1.0
  O  O29  1  0.23193700  0.62554425  0.14238407  1.0
  O  O30  1  0.87445575  0.73193700  0.39238407  1.0
  O  O31  1  0.12554425  0.26806300  0.89238407  1.0
  O  O32  1  0.62554425  0.23193700  0.85761593  1.0
  O  O33  1  0.37445575  0.76806300  0.35761593  1.0
  O  O34  1  0.73193700  0.87445575  0.60761593  1.0
  O  O35  1  0.26806300  0.12554425  0.10761593  1.0
