# generated using pymatgen
data_TePt
_symmetry_space_group_name_H-M   'P 1'
_cell_length_a   5.45566275
_cell_length_b   2.99324239
_cell_length_c   7.00060787
_cell_angle_alpha   90.00000000
_cell_angle_beta   129.84773037
_cell_angle_gamma   90.00000000
_symmetry_Int_Tables_number   1
_chemical_formula_structural   TePt
_chemical_formula_sum   'Te2 Pt2'
_cell_volume   87.76977551
_cell_formula_units_Z   2
loop_
 _symmetry_equiv_pos_site_id
 _symmetry_equiv_pos_as_xyz
  1  'x, y, z'
loop_
 _atom_site_type_symbol
 _atom_site_label
 _atom_site_symmetry_multiplicity
 _atom_site_fract_x
 _atom_site_fract_y
 _atom_site_fract_z
 _atom_site_occupancy
  Te  Te0  1  0.91973748  -0.00000000  0.70978481  1.0
  Te  Te1  1  0.08026252  -0.00000000  0.29021519  1.0
  Pt  Pt2  1  0.49963965  0.00000000  0.80098578  1.0
  Pt  Pt3  1  0.50036035  -0.00000000  0.19901422  1.0
