# generated using pymatgen
data_KMoIO6
_symmetry_space_group_name_H-M   'P 1'
_cell_length_a   7.69726366
_cell_length_b   7.57658104
_cell_length_c   10.89542246
_cell_angle_alpha   90.00000000
_cell_angle_beta   111.36502514
_cell_angle_gamma   90.00000000
_symmetry_Int_Tables_number   1
_chemical_formula_structural   KMoIO6
_chemical_formula_sum   'K4 Mo4 I4 O24'
_cell_volume   591.74313392
_cell_formula_units_Z   4
loop_
 _symmetry_equiv_pos_site_id
 _symmetry_equiv_pos_as_xyz
  1  'x, y, z'
loop_
 _atom_site_type_symbol
 _atom_site_label
 _atom_site_symmetry_multiplicity
 _atom_site_fract_x
 _atom_site_fract_y
 _atom_site_fract_z
 _atom_site_occupancy
  K  K0  1  0.57774996  0.22888038  0.42035757  1.0
  K  K1  1  0.57774995  0.27111962  0.92035757  1.0
  K  K2  1  0.42225004  0.72888038  0.07964243  1.0
  K  K3  1  0.42225004  0.77111962  0.57964243  1.0
  Mo  Mo4  1  0.99290482  0.50117080  0.22110082  1.0
  Mo  Mo5  1  0.99290482  -0.00117080  0.72110082  1.0
  Mo  Mo6  1  0.00709518  1.00117080  0.27889918  1.0
  Mo  Mo7  1  0.00709518  0.49882920  0.77889918  1.0
  I  I8  1  0.81794018  0.67490134  0.46086835  1.0
  I  I9  1  0.81794018  0.82509866  0.96086835  1.0
  I  I10  1  0.18205982  0.17490134  0.03913165  1.0
  I  I11  1  0.18205982  0.32509866  0.53913165  1.0
  O  O12  1  0.97896441  0.26269829  0.19658273  1.0
  O  O13  1  0.97896441  0.23730171  0.69658273  1.0
  O  O14  1  0.02103559  0.76269829  0.30341727  1.0
  O  O15  1  0.02103559  0.73730171  0.80341727  1.0
  O  O16  1  0.85170587  0.06025011  0.35281304  1.0
  O  O17  1  0.85170587  0.43974989  0.85281304  1.0
  O  O18  1  0.14829413  0.56025011  0.14718696  1.0
  O  O19  1  0.14829413  0.93974989  0.64718696  1.0
  O  O20  1  0.85940110  0.46697884  0.36916071  1.0
  O  O21  1  0.85940110  0.03302116  0.86916071  1.0
  O  O22  1  0.14059890  0.96697884  0.13083929  1.0
  O  O23  1  0.14059890  0.53302116  0.63083929  1.0
  O  O24  1  0.76828767  0.96106971  0.09325968  1.0
  O  O25  1  0.76828767  0.53893029  0.59325968  1.0
  O  O26  1  0.23171233  0.46106971  0.40674032  1.0
  O  O27  1  0.23171233  0.03893029  0.90674032  1.0
  O  O28  1  0.42479077  0.22103376  0.14737795  1.0
  O  O29  1  0.42479077  0.27896624  0.64737795  1.0
  O  O30  1  0.57520923  0.72103376  0.35262205  1.0
  O  O31  1  0.57520923  0.77896624  0.85262205  1.0
  O  O32  1  0.22320662  0.07393726  0.39701561  1.0
  O  O33  1  0.22320662  0.42606274  0.89701561  1.0
  O  O34  1  0.77679338  0.57393726  0.10298439  1.0
  O  O35  1  0.77679338  0.92606274  0.60298439  1.0
