# generated using pymatgen
data_Si2NiP3
_symmetry_space_group_name_H-M   'P 1'
_cell_length_a   6.43062383
_cell_length_b   6.43062383
_cell_length_c   6.43062383
_cell_angle_alpha   148.12558474
_cell_angle_beta   59.61392406
_cell_angle_gamma   131.04234078
_symmetry_Int_Tables_number   1
_chemical_formula_structural   Si2NiP3
_chemical_formula_sum   'Si2 Ni1 P3'
_cell_volume   105.01247119
_cell_formula_units_Z   1
loop_
 _symmetry_equiv_pos_site_id
 _symmetry_equiv_pos_as_xyz
  1  'x, y, z'
loop_
 _atom_site_type_symbol
 _atom_site_label
 _atom_site_symmetry_multiplicity
 _atom_site_fract_x
 _atom_site_fract_y
 _atom_site_fract_z
 _atom_site_occupancy
  Si  Si0  1  1.65616781  0.99106722  0.66510059  1.0
  Si  Si1  1  1.32596663  0.99106722  1.33489941  1.0
  Ni  Ni2  1  0.00129533  0.00129533  0.00000000  1.0
  P  P3  1  0.24338565  0.74338565  0.50000000  1.0
  P  P4  1  1.59822138  0.76009230  0.83812908  1.0
  P  P5  1  0.92196321  0.76009230  1.16187092  1.0
