# generated using pymatgen
data_LaFeGe2
_symmetry_space_group_name_H-M   'P 1'
_cell_length_a   8.56582359
_cell_length_b   8.56582359
_cell_length_c   4.37654546
_cell_angle_alpha   90.00000000
_cell_angle_beta   90.00000000
_cell_angle_gamma   149.96790751
_symmetry_Int_Tables_number   1
_chemical_formula_structural   LaFeGe2
_chemical_formula_sum   'La2 Fe2 Ge4'
_cell_volume   160.71660912
_cell_formula_units_Z   2
loop_
 _symmetry_equiv_pos_site_id
 _symmetry_equiv_pos_as_xyz
  1  'x, y, z'
loop_
 _atom_site_type_symbol
 _atom_site_label
 _atom_site_symmetry_multiplicity
 _atom_site_fract_x
 _atom_site_fract_y
 _atom_site_fract_z
 _atom_site_occupancy
  La  La0  1  -0.10637759  0.10637759  0.25000000  1.0
  La  La1  1  0.10637759  0.89362241  0.75000000  1.0
  Fe  Fe2  1  -0.31066764  0.31066764  0.25000000  1.0
  Fe  Fe3  1  0.31066764  0.68933236  0.75000000  1.0
  Ge  Ge4  1  -0.45265940  0.45265940  0.25000000  1.0
  Ge  Ge5  1  0.45265940  0.54734060  0.75000000  1.0
  Ge  Ge6  1  0.24968337  0.75031663  0.25000000  1.0
  Ge  Ge7  1  -0.24968337  0.24968337  0.75000000  1.0
