# generated using pymatgen
data_Si3C
_symmetry_space_group_name_H-M   'P 1'
_cell_length_a   5.18259108
_cell_length_b   5.18259108
_cell_length_c   5.18259108
_cell_angle_alpha   92.12216311
_cell_angle_beta   113.40948753
_cell_angle_gamma   124.44882188
_symmetry_Int_Tables_number   1
_chemical_formula_structural   Si3C
_chemical_formula_sum   'Si6 C2'
_cell_volume   98.83773116
_cell_formula_units_Z   2
loop_
 _symmetry_equiv_pos_site_id
 _symmetry_equiv_pos_as_xyz
  1  'x, y, z'
loop_
 _atom_site_type_symbol
 _atom_site_label
 _atom_site_symmetry_multiplicity
 _atom_site_fract_x
 _atom_site_fract_y
 _atom_site_fract_z
 _atom_site_occupancy
  Si  Si0  1  1.70015866  1.45015866  1.25000000  1.0
  Si  Si1  1  1.29984134  0.54984134  0.75000000  1.0
  Si  Si2  1  0.50000000  0.80445266  0.30445266  1.0
  Si  Si3  1  0.00000000  0.19554734  0.19554734  1.0
  Si  Si4  1  0.50000000  0.19554734  0.69554734  1.0
  Si  Si5  1  1.00000000  0.80445266  0.80445266  1.0
  C  C6  1  1.29881561  1.04881561  1.25000000  1.0
  C  C7  1  1.70118439  0.95118439  0.75000000  1.0
