# generated using pymatgen
data_MgMnF6
_symmetry_space_group_name_H-M   'P 1'
_cell_length_a   5.33958335
_cell_length_b   5.33958335
_cell_length_c   5.33958335
_cell_angle_alpha   58.16130363
_cell_angle_beta   58.16130363
_cell_angle_gamma   58.16130362
_symmetry_Int_Tables_number   1
_chemical_formula_structural   MgMnF6
_chemical_formula_sum   'Mg1 Mn1 F6'
_cell_volume   103.11191016
_cell_formula_units_Z   1
loop_
 _symmetry_equiv_pos_site_id
 _symmetry_equiv_pos_as_xyz
  1  'x, y, z'
loop_
 _atom_site_type_symbol
 _atom_site_label
 _atom_site_symmetry_multiplicity
 _atom_site_fract_x
 _atom_site_fract_y
 _atom_site_fract_z
 _atom_site_occupancy
  Mg  Mg0  1  0.50000000  0.50000000  -0.50000000  1.0
  Mn  Mn1  1  0.00000000  0.00000000  0.00000000  1.0
  F  F2  1  0.14822828  0.76396157  -0.67385802  1.0
  F  F3  1  0.67385802  -0.14822828  0.23603843  1.0
  F  F4  1  1.23603843  -0.32614198  -0.14822828  1.0
  F  F5  1  0.85177172  0.23603843  -0.32614198  1.0
  F  F6  1  0.32614198  0.14822828  -0.23603843  1.0
  F  F7  1  0.76396157  0.32614198  -0.85177172  1.0
