# generated using pymatgen
data_OsBr4
_symmetry_space_group_name_H-M   'P 1'
_cell_length_a   6.45510426
_cell_length_b   13.49581864
_cell_length_c   15.77584346
_cell_angle_alpha   90.00000000
_cell_angle_beta   90.00000000
_cell_angle_gamma   90.00000000
_symmetry_Int_Tables_number   1
_chemical_formula_structural   OsBr4
_chemical_formula_sum   'Os8 Br32'
_cell_volume   1374.34283487
_cell_formula_units_Z   8
loop_
 _symmetry_equiv_pos_site_id
 _symmetry_equiv_pos_as_xyz
  1  'x, y, z'
loop_
 _atom_site_type_symbol
 _atom_site_label
 _atom_site_symmetry_multiplicity
 _atom_site_fract_x
 _atom_site_fract_y
 _atom_site_fract_z
 _atom_site_occupancy
  Os  Os0  1  0.09910562  0.87097568  0.68585973  1.0
  Os  Os1  1  0.09910562  0.62902432  0.18585973  1.0
  Os  Os2  1  0.59910562  0.87097568  0.81414027  1.0
  Os  Os3  1  0.59910562  0.62902432  0.31414027  1.0
  Os  Os4  1  0.90089438  0.37097568  0.81414027  1.0
  Os  Os5  1  0.90089438  0.12902432  0.31414027  1.0
  Os  Os6  1  0.40089438  0.37097568  0.68585973  1.0
  Os  Os7  1  0.40089438  0.12902432  0.18585973  1.0
  Br  Br8  1  0.42626373  0.76980358  0.69556004  1.0
  Br  Br9  1  0.42626373  0.73019642  0.19556004  1.0
  Br  Br10  1  0.92626373  0.76980358  0.80443996  1.0
  Br  Br11  1  0.92626373  0.73019642  0.30443996  1.0
  Br  Br12  1  0.57373627  0.26980358  0.80443996  1.0
  Br  Br13  1  0.57373627  0.23019642  0.30443996  1.0
  Br  Br14  1  0.07373627  0.26980358  0.69556004  1.0
  Br  Br15  1  0.07373627  0.23019642  0.19556004  1.0
  Br  Br16  1  0.27145626  0.97183363  0.80505346  1.0
  Br  Br17  1  0.27145626  0.52816637  0.30505346  1.0
  Br  Br18  1  0.77145626  0.97183363  0.69494654  1.0
  Br  Br19  1  0.77145626  0.52816637  0.19494654  1.0
  Br  Br20  1  0.72854374  0.47183363  0.69494654  1.0
  Br  Br21  1  0.72854374  0.02816637  0.19494654  1.0
  Br  Br22  1  0.22854374  0.47183363  0.80505346  1.0
  Br  Br23  1  0.22854374  0.02816637  0.30505346  1.0
  Br  Br24  1  0.45719175  0.75881307  0.91902099  1.0
  Br  Br25  1  0.45719175  0.74118693  0.41902099  1.0
  Br  Br26  1  0.95719175  0.75881307  0.58097901  1.0
  Br  Br27  1  0.95719175  0.74118693  0.08097901  1.0
  Br  Br28  1  0.54280825  0.25881307  0.58097901  1.0
  Br  Br29  1  0.54280825  0.24118693  0.08097901  1.0
  Br  Br30  1  0.04280825  0.25881307  0.91902099  1.0
  Br  Br31  1  0.04280825  0.24118693  0.41902099  1.0
  Br  Br32  1  0.24267595  0.98415762  0.58198159  1.0
  Br  Br33  1  0.24267595  0.51584238  0.08198159  1.0
  Br  Br34  1  0.74267595  0.98415762  0.91801841  1.0
  Br  Br35  1  0.74267595  0.51584238  0.41801841  1.0
  Br  Br36  1  0.75732405  0.48415762  0.91801841  1.0
  Br  Br37  1  0.75732405  0.01584238  0.41801841  1.0
  Br  Br38  1  0.25732405  0.48415762  0.58198159  1.0
  Br  Br39  1  0.25732405  0.01584238  0.08198159  1.0
