# generated using pymatgen
data_CdI2
_symmetry_space_group_name_H-M   'P 1'
_cell_length_a   4.32787530
_cell_length_b   4.32787530
_cell_length_c   83.41377155
_cell_angle_alpha   90.00000000
_cell_angle_beta   90.00000000
_cell_angle_gamma   120.00000000
_symmetry_Int_Tables_number   1
_chemical_formula_structural   CdI2
_chemical_formula_sum   'Cd11 I22'
_cell_volume   1353.06252860
_cell_formula_units_Z   11
loop_
 _symmetry_equiv_pos_site_id
 _symmetry_equiv_pos_as_xyz
  1  'x, y, z'
loop_
 _atom_site_type_symbol
 _atom_site_label
 _atom_site_symmetry_multiplicity
 _atom_site_fract_x
 _atom_site_fract_y
 _atom_site_fract_z
 _atom_site_occupancy
  Cd  Cd0  1  0.00000000  0.00000000  0.02274563  1.0
  Cd  Cd1  1  0.00000000  0.00000000  0.11363147  1.0
  Cd  Cd2  1  0.00000000  0.00000000  0.56819064  1.0
  Cd  Cd3  1  0.00000000  0.00000000  0.65907610  1.0
  Cd  Cd4  1  0.66666667  0.33333333  0.20457183  1.0
  Cd  Cd5  1  0.66666667  0.33333333  0.29546621  1.0
  Cd  Cd6  1  0.66666667  0.33333333  0.38634976  1.0
  Cd  Cd7  1  0.66666667  0.33333333  0.74999912  1.0
  Cd  Cd8  1  0.33333333  0.66666667  0.47726707  1.0
  Cd  Cd9  1  0.33333333  0.66666667  0.84092212  1.0
  Cd  Cd10  1  0.33333333  0.66666667  0.93180954  1.0
  I  I11  1  0.00000000  0.00000000  0.22518481  1.0
  I  I12  1  0.00000000  0.00000000  0.31608381  1.0
  I  I13  1  0.00000000  0.00000000  0.40696447  1.0
  I  I14  1  0.00000000  0.00000000  0.49788385  1.0
  I  I15  1  0.00000000  0.00000000  0.72939161  1.0
  I  I16  1  0.00000000  0.00000000  0.82031709  1.0
  I  I17  1  0.00000000  0.00000000  0.91119419  1.0
  I  I18  1  0.66666667  0.33333333  0.04335908  1.0
  I  I19  1  0.66666667  0.33333333  0.13424332  1.0
  I  I20  1  0.66666667  0.33333333  0.45665537  1.0
  I  I21  1  0.66666667  0.33333333  0.54758047  1.0
  I  I22  1  0.66666667  0.33333333  0.63847064  1.0
  I  I23  1  0.66666667  0.33333333  0.86152843  1.0
  I  I24  1  0.66666667  0.33333333  0.95241937  1.0
  I  I25  1  0.33333333  0.66666667  0.00213063  1.0
  I  I26  1  0.33333333  0.66666667  0.09301557  1.0
  I  I27  1  0.33333333  0.66666667  0.18395947  1.0
  I  I28  1  0.33333333  0.66666667  0.27485567  1.0
  I  I29  1  0.33333333  0.66666667  0.36573890  1.0
  I  I30  1  0.33333333  0.66666667  0.58880540  1.0
  I  I31  1  0.33333333  0.66666667  0.67968187  1.0
  I  I32  1  0.33333333  0.66666667  0.77060651  1.0
