# generated using pymatgen
data_Cs2RuC(Cl2O)2
_symmetry_space_group_name_H-M   'P 1'
_cell_length_a   9.41547811
_cell_length_b   9.41547811
_cell_length_c   8.92943909
_cell_angle_alpha   90.00000000
_cell_angle_beta   90.00000000
_cell_angle_gamma   133.96362415
_symmetry_Int_Tables_number   1
_chemical_formula_structural   Cs2RuC(Cl2O)2
_chemical_formula_sum   'Cs4 Ru2 C2 Cl8 O4'
_cell_volume   569.78251735
_cell_formula_units_Z   2
loop_
 _symmetry_equiv_pos_site_id
 _symmetry_equiv_pos_as_xyz
  1  'x, y, z'
loop_
 _atom_site_type_symbol
 _atom_site_label
 _atom_site_symmetry_multiplicity
 _atom_site_fract_x
 _atom_site_fract_y
 _atom_site_fract_z
 _atom_site_occupancy
  C  C0  1  -0.26527728  0.26527728  0.75000000  1.0
  C  C1  1  0.26527728  0.73472272  0.25000000  1.0
  Cs  Cs2  1  -0.00931867  0.00931867  0.75000000  1.0
  Cs  Cs3  1  0.00931867  0.99068133  0.25000000  1.0
  Cs  Cs4  1  0.28447187  0.71552813  0.75000000  1.0
  Cs  Cs5  1  -0.28447187  0.28447187  0.25000000  1.0
  Cl  Cl6  1  -0.13908738  0.60593516  0.94015658  1.0
  Cl  Cl7  1  -0.13908738  0.60593516  0.55984342  1.0
  Cl  Cl8  1  0.60593516  0.86091262  0.44015658  1.0
  Cl  Cl9  1  0.60593516  0.86091262  0.05984342  1.0
  Cl  Cl10  1  0.39406484  1.13908738  0.94015658  1.0
  Cl  Cl11  1  0.39406484  1.13908738  0.55984342  1.0
  Cl  Cl12  1  0.13908738  0.39406484  0.44015658  1.0
  Cl  Cl13  1  0.13908738  0.39406484  0.05984342  1.0
  O  O14  1  -0.19883070  0.19883070  0.75000000  1.0
  O  O15  1  0.19883070  0.80116930  0.25000000  1.0
  O  O16  1  0.51482006  0.48517994  0.75000000  1.0
  O  O17  1  -0.51482006  0.51482006  0.25000000  1.0
  Ru  Ru18  1  -0.38292556  0.38292556  0.75000000  1.0
  Ru  Ru19  1  0.38292556  0.61707444  0.25000000  1.0
