# generated using pymatgen
data_SrNi2(PO4)2
_symmetry_space_group_name_H-M   'P 1'
_cell_length_a   6.93853566
_cell_length_b   5.51590710
_cell_length_c   9.28977157
_cell_angle_alpha   72.65362773
_cell_angle_beta   67.81678873
_cell_angle_gamma   81.74661551
_symmetry_Int_Tables_number   1
_chemical_formula_structural   SrNi2(PO4)2
_chemical_formula_sum   'Sr2 Ni4 P4 O16'
_cell_volume   314.05810987
_cell_formula_units_Z   2
loop_
 _symmetry_equiv_pos_site_id
 _symmetry_equiv_pos_as_xyz
  1  'x, y, z'
loop_
 _atom_site_type_symbol
 _atom_site_label
 _atom_site_symmetry_multiplicity
 _atom_site_fract_x
 _atom_site_fract_y
 _atom_site_fract_z
 _atom_site_occupancy
  O  O0  1  -0.12519699  -0.74620039  0.63640467  1.0
  O  O1  1  0.12519699  -0.25379961  0.36359533  1.0
  O  O2  1  0.28068166  -0.64675230  0.70249514  1.0
  O  O3  1  -0.28068166  -0.35324770  0.29750486  1.0
  O  O4  1  -0.03546902  -0.34026701  0.73763514  1.0
  O  O5  1  0.03546902  -0.65973299  0.26236486  1.0
  O  O6  1  0.32994126  -0.16419947  0.62449746  1.0
  O  O7  1  -0.32994126  -0.83580053  0.37550254  1.0
  O  O8  1  -0.18308325  -1.01396592  0.93451173  1.0
  O  O9  1  0.18308325  0.01396592  0.06548827  1.0
  O  O10  1  0.42140070  -0.95447929  0.20086832  1.0
  O  O11  1  -0.42140070  -0.04552071  0.79913168  1.0
  O  O12  1  0.81247854  -0.62047400  0.08881750  1.0
  O  O13  1  -0.81247854  -0.37952600  0.91118250  1.0
  O  O14  1  -0.41729134  -0.62038957  0.86840784  1.0
  O  O15  1  0.41729134  -0.37961043  0.13159216  1.0
  Sr  Sr16  1  0.25202854  -0.74122800  0.44791332  1.0
  Sr  Sr17  1  -0.25202854  -0.25877200  0.55208668  1.0
  P  P18  1  -0.28151810  -0.84664676  0.80630273  1.0
  P  P19  1  0.28151810  -0.15335324  0.19369727  1.0
  P  P20  1  0.18700741  -0.39148232  0.74309891  1.0
  P  P21  1  -0.18700741  -0.60851768  0.25690109  1.0
  Ni  Ni22  1  -0.29606078  -0.35531854  0.93828353  1.0
  Ni  Ni23  1  0.29606078  -0.64468146  0.06171647  1.0
  Ni  Ni24  1  0.72986113  -0.98439789  0.16149920  1.0
  Ni  Ni25  1  -0.72986113  -0.01560211  0.83850080  1.0
