# generated using pymatgen
data_AuC4(N2O)2
_symmetry_space_group_name_H-M   'P 1'
_cell_length_a   6.72055977
_cell_length_b   7.84555707
_cell_length_c   7.77295097
_cell_angle_alpha   90.00000000
_cell_angle_beta   83.02180744
_cell_angle_gamma   90.00000000
_symmetry_Int_Tables_number   1
_chemical_formula_structural   AuC4(N2O)2
_chemical_formula_sum   'Au2 C8 N8 O4'
_cell_volume   406.80486305
_cell_formula_units_Z   2
loop_
 _symmetry_equiv_pos_site_id
 _symmetry_equiv_pos_as_xyz
  1  'x, y, z'
loop_
 _atom_site_type_symbol
 _atom_site_label
 _atom_site_symmetry_multiplicity
 _atom_site_fract_x
 _atom_site_fract_y
 _atom_site_fract_z
 _atom_site_occupancy
  Au  Au0  1  0.00000000  0.00000000  0.00000000  1.0
  Au  Au1  1  0.00000000  0.50000000  0.50000000  1.0
  C  C2  1  0.87931558  0.41911923  0.73368801  1.0
  C  C3  1  0.12068442  0.91911923  0.76631199  1.0
  C  C4  1  0.12068442  0.58088077  0.26631199  1.0
  C  C5  1  0.87931558  0.08088077  0.23368801  1.0
  C  C6  1  0.75249171  0.63295465  0.46991154  1.0
  C  C7  1  0.24750829  0.13295465  0.03008846  1.0
  C  C8  1  0.24750829  0.36704535  0.53008846  1.0
  C  C9  1  0.75249171  0.86704535  0.96991154  1.0
  N  N10  1  0.81906491  0.36441688  0.86970643  1.0
  N  N11  1  0.18093509  0.86441688  0.63029357  1.0
  N  N12  1  0.18093509  0.63558312  0.13029357  1.0
  N  N13  1  0.81906491  0.13558312  0.36970643  1.0
  N  N14  1  0.60755372  0.70705578  0.44853367  1.0
  N  N15  1  0.39244628  0.20705578  0.05146633  1.0
  N  N16  1  0.39244628  0.29294422  0.55146633  1.0
  N  N17  1  0.60755372  0.79294422  0.94853367  1.0
  O  O18  1  0.41912558  0.93199532  0.42026534  1.0
  O  O19  1  0.58087442  0.43199532  0.07973466  1.0
  O  O20  1  0.58087442  0.06800468  0.57973466  1.0
  O  O21  1  0.41912558  0.56800468  0.92026534  1.0
