# generated using pymatgen
data_Tl4CuTe3
_symmetry_space_group_name_H-M   'P 1'
_cell_length_a   8.78039406
_cell_length_b   8.78039406
_cell_length_c   8.78039406
_cell_angle_alpha   120.01793635
_cell_angle_beta   120.01793635
_cell_angle_gamma   89.96893614
_symmetry_Int_Tables_number   1
_chemical_formula_structural   Tl4CuTe3
_chemical_formula_sum   'Tl8 Cu2 Te6'
_cell_volume   478.53003078
_cell_formula_units_Z   2
loop_
 _symmetry_equiv_pos_site_id
 _symmetry_equiv_pos_as_xyz
  1  'x, y, z'
loop_
 _atom_site_type_symbol
 _atom_site_label
 _atom_site_symmetry_multiplicity
 _atom_site_fract_x
 _atom_site_fract_y
 _atom_site_fract_z
 _atom_site_occupancy
  Tl  Tl0  1  0.48868735  0.98868735  0.79460114  1.0
  Tl  Tl1  1  1.19408620  0.69408620  1.20539886  1.0
  Tl  Tl2  1  0.98868735  1.19408620  1.50000000  1.0
  Tl  Tl3  1  0.69408620  0.48868735  0.50000000  1.0
  Tl  Tl4  1  0.51131265  1.01131265  1.20539886  1.0
  Tl  Tl5  1  0.80591380  0.30591380  0.79460114  1.0
  Tl  Tl6  1  1.01131265  0.80591380  1.50000000  1.0
  Tl  Tl7  1  0.30591380  0.51131265  0.50000000  1.0
  Cu  Cu8  1  0.50000000  0.50000000  1.00000000  1.0
  Cu  Cu9  1  0.00000000  0.00000000  0.00000000  1.0
  Te  Te10  1  0.25000000  0.25000000  -0.00000000  1.0
  Te  Te11  1  0.75000000  0.75000000  1.00000000  1.0
  Te  Te12  1  0.83875506  0.33875506  1.17751013  1.0
  Te  Te13  1  0.16124494  0.66124494  0.82248987  1.0
  Te  Te14  1  0.33875506  0.16124494  0.50000000  1.0
  Te  Te15  1  0.66124494  0.83875506  1.50000000  1.0
