# generated using pymatgen
data_YInO3
_symmetry_space_group_name_H-M   'P 1'
_cell_length_a   5.84798403
_cell_length_b   8.22526459
_cell_length_c   5.53378510
_cell_angle_alpha   90.00000000
_cell_angle_beta   90.00000000
_cell_angle_gamma   90.00000000
_symmetry_Int_Tables_number   1
_chemical_formula_structural   YInO3
_chemical_formula_sum   'Y4 In4 O12'
_cell_volume   266.18179209
_cell_formula_units_Z   4
loop_
 _symmetry_equiv_pos_site_id
 _symmetry_equiv_pos_as_xyz
  1  'x, y, z'
loop_
 _atom_site_type_symbol
 _atom_site_label
 _atom_site_symmetry_multiplicity
 _atom_site_fract_x
 _atom_site_fract_y
 _atom_site_fract_z
 _atom_site_occupancy
  Y  Y0  1  0.06360558  0.75000000  0.52160531  1.0
  Y  Y1  1  0.56360558  0.75000000  0.97839469  1.0
  Y  Y2  1  0.93639442  0.25000000  0.47839469  1.0
  Y  Y3  1  0.43639442  0.25000000  0.02160531  1.0
  In  In4  1  0.50000000  0.00000000  0.50000000  1.0
  In  In5  1  0.50000000  0.50000000  0.50000000  1.0
  In  In6  1  0.00000000  0.00000000  0.00000000  1.0
  In  In7  1  0.00000000  0.50000000  0.00000000  1.0
  O  O8  1  0.30954352  0.92360864  0.81224745  1.0
  O  O9  1  0.30954352  0.57639136  0.81224745  1.0
  O  O10  1  0.80954352  0.92360864  0.68775255  1.0
  O  O11  1  0.80954352  0.57639136  0.68775255  1.0
  O  O12  1  0.69045648  0.42360864  0.18775255  1.0
  O  O13  1  0.69045648  0.07639136  0.18775255  1.0
  O  O14  1  0.19045648  0.42360864  0.31224745  1.0
  O  O15  1  0.19045648  0.07639136  0.31224745  1.0
  O  O16  1  0.92722671  0.75000000  0.14639833  1.0
  O  O17  1  0.42722671  0.75000000  0.35360167  1.0
  O  O18  1  0.07277329  0.25000000  0.85360167  1.0
  O  O19  1  0.57277329  0.25000000  0.64639833  1.0
