# generated using pymatgen
data_Lu2Al3Co
_symmetry_space_group_name_H-M   'P 1'
_cell_length_a   5.41484793
_cell_length_b   5.41484793
_cell_length_c   8.44720756
_cell_angle_alpha   90.00000000
_cell_angle_beta   90.00000000
_cell_angle_gamma   120.00000000
_symmetry_Int_Tables_number   1
_chemical_formula_structural   Lu2Al3Co
_chemical_formula_sum   'Lu4 Al6 Co2'
_cell_volume   214.49458192
_cell_formula_units_Z   2
loop_
 _symmetry_equiv_pos_site_id
 _symmetry_equiv_pos_as_xyz
  1  'x, y, z'
loop_
 _atom_site_type_symbol
 _atom_site_label
 _atom_site_symmetry_multiplicity
 _atom_site_fract_x
 _atom_site_fract_y
 _atom_site_fract_z
 _atom_site_occupancy
  Lu  Lu0  1  0.33333333  0.66666667  0.94418797  1.0
  Lu  Lu1  1  0.33333333  0.66666667  0.55581203  1.0
  Lu  Lu2  1  0.66666667  0.33333333  0.44418797  1.0
  Lu  Lu3  1  0.66666667  0.33333333  0.05581203  1.0
  Al  Al4  1  0.16288332  0.83711668  0.25000000  1.0
  Al  Al5  1  0.16288332  0.32576665  0.25000000  1.0
  Al  Al6  1  0.83711668  0.16288332  0.75000000  1.0
  Al  Al7  1  0.83711668  0.67423335  0.75000000  1.0
  Al  Al8  1  0.67423335  0.83711668  0.25000000  1.0
  Al  Al9  1  0.32576665  0.16288332  0.75000000  1.0
  Co  Co10  1  0.00000000  0.00000000  0.50000000  1.0
  Co  Co11  1  0.00000000  0.00000000  0.00000000  1.0
