# generated using pymatgen
data_Sn15Os3O14
_symmetry_space_group_name_H-M   'P 1'
_cell_length_a   7.25760665
_cell_length_b   7.25760665
_cell_length_c   13.15892958
_cell_angle_alpha   74.06977657
_cell_angle_beta   105.93022343
_cell_angle_gamma   120.44510824
_symmetry_Int_Tables_number   1
_chemical_formula_structural   Sn15Os3O14
_chemical_formula_sum   'Sn15 Os3 O14'
_cell_volume   566.88515493
_cell_formula_units_Z   1
loop_
 _symmetry_equiv_pos_site_id
 _symmetry_equiv_pos_as_xyz
  1  'x, y, z'
loop_
 _atom_site_type_symbol
 _atom_site_label
 _atom_site_symmetry_multiplicity
 _atom_site_fract_x
 _atom_site_fract_y
 _atom_site_fract_z
 _atom_site_occupancy
  Sn  Sn0  1  0.78762750  0.73741617  0.85677751  1.0
  Sn  Sn1  1  0.26258383  0.21237250  0.85677751  1.0
  Sn  Sn2  1  1.02583572  0.45490389  0.60600275  1.0
  Sn  Sn3  1  0.54509611  -0.02583572  0.60600275  1.0
  Sn  Sn4  1  1.11981616  0.39532175  0.34209248  1.0
  Sn  Sn5  1  0.60467825  -0.11981616  0.34209248  1.0
  Sn  Sn6  1  1.21104341  0.30701608  0.11500843  1.0
  Sn  Sn7  1  0.69298392  -0.21104341  0.11500843  1.0
  Sn  Sn8  1  0.01834748  -0.01834748  0.59064704  1.0
  Sn  Sn9  1  0.13006680  -0.13006680  0.38656725  1.0
  Sn  Sn10  1  0.21152197  -0.21152197  0.10924051  1.0
  Sn  Sn11  1  0.26714830  -0.26714830  0.84895348  1.0
  Sn  Sn12  1  0.55954442  0.44045558  0.64160953  1.0
  Sn  Sn13  1  0.60260818  0.39739182  0.34707406  1.0
  Sn  Sn14  1  0.79525739  0.20474261  0.87922581  1.0
  Os  Os15  1  0.00031437  -0.00031437  -0.00071975  1.0
  Os  Os16  1  0.40494795  -0.40494795  0.73333583  1.0
  Os  Os17  1  0.81350844  0.18649156  0.46235767  1.0
  O  O18  1  0.81030700  0.76088638  0.30054750  1.0
  O  O19  1  0.23911362  0.18969300  0.30054750  1.0
  O  O20  1  0.85972760  0.64791610  0.58407269  1.0
  O  O21  1  0.35208390  0.14027240  0.58407269  1.0
  O  O22  1  0.93402951  0.53092532  0.88251560  1.0
  O  O23  1  0.46907468  0.06597049  0.88251560  1.0
  O  O24  1  1.09144238  0.45864864  0.17453110  1.0
  O  O25  1  0.54135136  -0.09144238  0.17453110  1.0
  O  O26  1  0.07317548  -0.07317548  0.75820858  1.0
  O  O27  1  0.23863437  -0.23863437  0.29368964  1.0
  O  O28  1  0.34068136  -0.34068136  0.02011894  1.0
  O  O29  1  0.45953880  -0.45953880  0.39927508  1.0
  O  O30  1  0.54021758  0.45978242  0.17855334  1.0
  O  O31  1  0.74069218  0.25930782  0.71056687  1.0
