# generated using pymatgen
data_NaGaBP2H3O10
_symmetry_space_group_name_H-M   'P 1'
_cell_length_a   6.69412760
_cell_length_b   6.69412760
_cell_length_c   9.17581832
_cell_angle_alpha   69.82669267
_cell_angle_beta   110.17330733
_cell_angle_gamma   103.77847193
_symmetry_Int_Tables_number   1
_chemical_formula_structural   NaGaBP2H3O10
_chemical_formula_sum   'Na2 Ga2 B2 P4 H6 O20'
_cell_volume   358.94641689
_cell_formula_units_Z   2
loop_
 _symmetry_equiv_pos_site_id
 _symmetry_equiv_pos_as_xyz
  1  'x, y, z'
loop_
 _atom_site_type_symbol
 _atom_site_label
 _atom_site_symmetry_multiplicity
 _atom_site_fract_x
 _atom_site_fract_y
 _atom_site_fract_z
 _atom_site_occupancy
  Na  Na0  1  0.86473020  0.86473020  0.25000000  1.0
  Na  Na1  1  0.13526980  0.13526980  0.75000000  1.0
  Ga  Ga2  1  1.00000000  0.50000000  -0.00000000  1.0
  Ga  Ga3  1  1.50000000  0.00000000  0.50000000  1.0
  B  B4  1  0.46618722  0.46618722  0.25000000  1.0
  B  B5  1  0.53381278  0.53381278  0.75000000  1.0
  P  P6  1  0.83977013  0.28893567  0.32129520  1.0
  P  P7  1  0.71106433  0.16022987  0.82129520  1.0
  P  P8  1  1.28893567  -0.16022987  0.17870480  1.0
  P  P9  1  1.16022987  -0.28893567  0.67870480  1.0
  H  H10  1  1.32395926  -0.69909459  0.07672198  1.0
  H  H11  1  1.69909459  -0.32395926  0.57672198  1.0
  H  H12  1  0.30090541  0.32395926  0.42327802  1.0
  H  H13  1  0.67604074  0.69909459  0.92327802  1.0
  H  H14  1  1.00000000  0.50000000  0.50000000  1.0
  H  H15  1  1.50000000  0.00000000  -0.00000000  1.0
  O  O16  1  0.68487777  0.46550604  0.24907882  1.0
  O  O17  1  0.53449396  0.31512223  0.74907882  1.0
  O  O18  1  1.46550604  -0.31512223  0.25092118  1.0
  O  O19  1  1.31512223  -0.46550604  0.75092118  1.0
  O  O20  1  0.96769520  0.63848913  0.54351258  1.0
  O  O21  1  0.36151087  0.03230480  0.04351258  1.0
  O  O22  1  1.63848913  -0.03230480  0.95648742  1.0
  O  O23  1  1.03230480  -0.63848913  0.45648742  1.0
  O  O24  1  1.06519559  -0.27947521  0.11101224  1.0
  O  O25  1  1.27947521  -0.06519559  0.61101224  1.0
  O  O26  1  0.72052479  0.06519559  0.38898776  1.0
  O  O27  1  0.93480441  0.27947521  0.88898776  1.0
  O  O28  1  0.91929022  0.27294741  0.18782027  1.0
  O  O29  1  0.72705259  0.08070978  0.68782027  1.0
  O  O30  1  1.27294741  -0.08070978  0.31217973  1.0
  O  O31  1  1.08070978  -0.27294741  0.81217973  1.0
  O  O32  1  1.30664350  -0.57238819  0.10013498  1.0
  O  O33  1  1.57238819  -0.30664350  0.60013498  1.0
  O  O34  1  0.42761181  0.30664350  0.39986502  1.0
  O  O35  1  0.69335650  0.57238819  0.89986502  1.0
