# generated using pymatgen
data_Nb13CuO33
_symmetry_space_group_name_H-M   'P 1'
_cell_length_a   11.54631922
_cell_length_b   11.54631922
_cell_length_c   15.63194674
_cell_angle_alpha   88.45397198
_cell_angle_beta   91.54602802
_cell_angle_gamma   160.87772723
_symmetry_Int_Tables_number   1
_chemical_formula_structural   Nb13CuO33
_chemical_formula_sum   'Nb13 Cu1 O33'
_cell_volume   682.43588879
_cell_formula_units_Z   1
loop_
 _symmetry_equiv_pos_site_id
 _symmetry_equiv_pos_as_xyz
  1  'x, y, z'
loop_
 _atom_site_type_symbol
 _atom_site_label
 _atom_site_symmetry_multiplicity
 _atom_site_fract_x
 _atom_site_fract_y
 _atom_site_fract_z
 _atom_site_occupancy
  Nb  Nb0  1  0.00000000  0.00000000  0.00000000  1.0
  Nb  Nb1  1  0.06942175  -0.06942175  0.22822986  1.0
  Nb  Nb2  1  0.93057825  0.06942175  0.77177014  1.0
  Nb  Nb3  1  0.22398852  -0.22398852  0.13817893  1.0
  Nb  Nb4  1  0.77601148  0.22398852  0.86182107  1.0
  Nb  Nb5  1  0.15581558  -0.15581558  0.90803773  1.0
  Nb  Nb6  1  0.84418442  0.15581558  0.09196227  1.0
  Nb  Nb7  1  0.13895543  -0.13895543  0.46651743  1.0
  Nb  Nb8  1  0.86104457  0.13895543  0.53348257  1.0
  Nb  Nb9  1  0.29251035  -0.29251035  0.37229700  1.0
  Nb  Nb10  1  0.70748965  0.29251035  0.62770300  1.0
  Nb  Nb11  1  0.08795864  -0.08795864  0.68064190  1.0
  Nb  Nb12  1  0.91204136  0.08795864  0.31935810  1.0
  Cu  Cu13  1  0.00000000  -0.00000000  0.50000000  1.0
  O  O14  1  0.50000000  0.50000000  -0.00000000  1.0
  O  O15  1  0.08242001  -0.08242001  0.95333298  1.0
  O  O16  1  0.91757999  0.08242001  0.04666702  1.0
  O  O17  1  0.32026310  -0.32026310  0.09871309  1.0
  O  O18  1  0.67973690  0.32026310  0.90128691  1.0
  O  O19  1  0.25128733  -0.25128733  0.86274285  1.0
  O  O20  1  0.74871267  0.25128733  0.13725715  1.0
  O  O21  1  0.15230670  -0.15230670  0.19260685  1.0
  O  O22  1  0.84769330  0.15230670  0.80739315  1.0
  O  O23  1  0.42940022  -0.42940022  0.75422093  1.0
  O  O24  1  0.57059978  0.42940022  0.24577907  1.0
  O  O25  1  0.19529920  -0.19529920  0.02713745  1.0
  O  O26  1  0.80470080  0.19529920  0.97286255  1.0
  O  O27  1  0.03444423  -0.03444423  0.11976531  1.0
  O  O28  1  0.96555577  0.03444423  0.88023469  1.0
  O  O29  1  0.12818305  -0.12818305  0.79044134  1.0
  O  O30  1  0.87181695  0.12818305  0.20955866  1.0
  O  O31  1  0.26585341  -0.26585341  0.26372783  1.0
  O  O32  1  0.73414659  0.26585341  0.73627217  1.0
  O  O33  1  0.10208956  -0.10208956  0.36509277  1.0
  O  O34  1  0.89791044  0.10208956  0.63490723  1.0
  O  O35  1  0.01258124  -0.01258124  0.71183153  1.0
  O  O36  1  0.98741876  0.01258124  0.28816847  1.0
  O  O37  1  0.38848942  -0.38848942  0.33288155  1.0
  O  O38  1  0.61151058  0.38848942  0.66711845  1.0
  O  O39  1  0.18238877  -0.18238877  0.61359907  1.0
  O  O40  1  0.81761123  0.18238877  0.38640093  1.0
  O  O41  1  0.22325601  -0.22325601  0.42979804  1.0
  O  O42  1  0.77674399  0.22325601  0.57020196  1.0
  O  O43  1  0.34561304  -0.34561304  0.50313142  1.0
  O  O44  1  0.65438696  0.34561304  0.49686858  1.0
  O  O45  1  0.07318524  -0.07318524  0.54897765  1.0
  O  O46  1  0.92681476  0.07318524  0.45102235  1.0
