# generated using pymatgen
data_Sr3LiAs2H
_symmetry_space_group_name_H-M   'P 1'
_cell_length_a   12.10795892
_cell_length_b   4.48649826
_cell_length_c   12.65793273
_cell_angle_alpha   90.00000000
_cell_angle_beta   90.00000000
_cell_angle_gamma   90.00000000
_symmetry_Int_Tables_number   1
_chemical_formula_structural   Sr3LiAs2H
_chemical_formula_sum   'Sr12 Li4 As8 H4'
_cell_volume   687.60848184
_cell_formula_units_Z   4
loop_
 _symmetry_equiv_pos_site_id
 _symmetry_equiv_pos_as_xyz
  1  'x, y, z'
loop_
 _atom_site_type_symbol
 _atom_site_label
 _atom_site_symmetry_multiplicity
 _atom_site_fract_x
 _atom_site_fract_y
 _atom_site_fract_z
 _atom_site_occupancy
  Sr  Sr0  1  0.93725827  0.75000000  0.37890902  1.0
  Sr  Sr1  1  0.43725827  0.75000000  0.12109098  1.0
  Sr  Sr2  1  0.06274173  0.25000000  0.62109098  1.0
  Sr  Sr3  1  0.56274173  0.25000000  0.87890902  1.0
  Sr  Sr4  1  0.79457949  0.75000000  0.70171293  1.0
  Sr  Sr5  1  0.29457949  0.75000000  0.79828707  1.0
  Sr  Sr6  1  0.20542051  0.25000000  0.29828707  1.0
  Sr  Sr7  1  0.70542051  0.25000000  0.20171293  1.0
  Sr  Sr8  1  0.63076308  0.75000000  0.43985465  1.0
  Sr  Sr9  1  0.13076308  0.75000000  0.06014535  1.0
  Sr  Sr10  1  0.36923692  0.25000000  0.56014535  1.0
  Sr  Sr11  1  0.86923692  0.25000000  0.93985465  1.0
  Li  Li12  1  0.86494596  0.75000000  0.14302560  1.0
  Li  Li13  1  0.36494596  0.75000000  0.35697440  1.0
  Li  Li14  1  0.13505404  0.25000000  0.85697440  1.0
  Li  Li15  1  0.63505404  0.25000000  0.64302560  1.0
  As  As16  1  0.68762942  0.75000000  0.01475258  1.0
  As  As17  1  0.18762942  0.75000000  0.48524742  1.0
  As  As18  1  0.31237058  0.25000000  0.98524742  1.0
  As  As19  1  0.81237058  0.25000000  0.51475258  1.0
  As  As20  1  0.52484770  0.75000000  0.67613577  1.0
  As  As21  1  0.02484770  0.75000000  0.82386423  1.0
  As  As22  1  0.47515230  0.25000000  0.32386423  1.0
  As  As23  1  0.97515230  0.25000000  0.17613577  1.0
  H  H24  1  0.76218649  0.75000000  0.27536009  1.0
  H  H25  1  0.26218649  0.75000000  0.22463991  1.0
  H  H26  1  0.23781351  0.25000000  0.72463991  1.0
  H  H27  1  0.73781351  0.25000000  0.77536009  1.0
