# generated using pymatgen
data_NbSbO4
_symmetry_space_group_name_H-M   'P 1'
_cell_length_a   5.66505943
_cell_length_b   5.03711439
_cell_length_c   11.97246541
_cell_angle_alpha   90.00000000
_cell_angle_beta   90.00000000
_cell_angle_gamma   90.00000000
_symmetry_Int_Tables_number   1
_chemical_formula_structural   NbSbO4
_chemical_formula_sum   'Nb4 Sb4 O16'
_cell_volume   341.64091330
_cell_formula_units_Z   4
loop_
 _symmetry_equiv_pos_site_id
 _symmetry_equiv_pos_as_xyz
  1  'x, y, z'
loop_
 _atom_site_type_symbol
 _atom_site_label
 _atom_site_symmetry_multiplicity
 _atom_site_fract_x
 _atom_site_fract_y
 _atom_site_fract_z
 _atom_site_occupancy
  Nb  Nb0  1  0.38634416  0.50600389  0.05703377  1.0
  Nb  Nb1  1  0.88634416  0.99399611  0.05703377  1.0
  Nb  Nb2  1  0.61365584  0.49399611  0.55703377  1.0
  Nb  Nb3  1  0.11365584  0.00600389  0.55703377  1.0
  Sb  Sb4  1  0.48463622  0.94302836  0.30798840  1.0
  Sb  Sb5  1  0.98463622  0.55697164  0.30798840  1.0
  Sb  Sb6  1  0.51536378  0.05697164  0.80798840  1.0
  Sb  Sb7  1  0.01536378  0.44302836  0.80798840  1.0
  O  O8  1  0.39158495  0.73945833  0.60228381  1.0
  O  O9  1  0.89158495  0.76054167  0.60228381  1.0
  O  O10  1  0.60841505  0.26054167  0.10228381  1.0
  O  O11  1  0.10841505  0.23945833  0.10228381  1.0
  O  O12  1  0.32317491  0.66387865  0.20881456  1.0
  O  O13  1  0.82317491  0.83612135  0.20881456  1.0
  O  O14  1  0.67682509  0.33612135  0.70881456  1.0
  O  O15  1  0.17682509  0.16387865  0.70881456  1.0
  O  O16  1  0.16374358  0.83601890  0.39917867  1.0
  O  O17  1  0.66374358  0.66398110  0.39917867  1.0
  O  O18  1  0.83625642  0.16398110  0.89917867  1.0
  O  O19  1  0.33625642  0.33601890  0.89917867  1.0
  O  O20  1  0.08024615  0.72504378  0.00180079  1.0
  O  O21  1  0.58024615  0.77495622  0.00180079  1.0
  O  O22  1  0.91975385  0.27495622  0.50180079  1.0
  O  O23  1  0.41975385  0.22504378  0.50180079  1.0
