# generated using pymatgen
data_Ca2AuN
_symmetry_space_group_name_H-M   'P 1'
_cell_length_a   9.30640048
_cell_length_b   9.30640048
_cell_length_c   4.95245619
_cell_angle_alpha   90.00000000
_cell_angle_beta   90.00000000
_cell_angle_gamma   158.05686674
_symmetry_Int_Tables_number   1
_chemical_formula_structural   Ca2AuN
_chemical_formula_sum   'Ca4 Au2 N2'
_cell_volume   160.28435746
_cell_formula_units_Z   2
loop_
 _symmetry_equiv_pos_site_id
 _symmetry_equiv_pos_as_xyz
  1  'x, y, z'
loop_
 _atom_site_type_symbol
 _atom_site_label
 _atom_site_symmetry_multiplicity
 _atom_site_fract_x
 _atom_site_fract_y
 _atom_site_fract_z
 _atom_site_occupancy
  Ca  Ca0  1  -0.78376156  0.78376156  0.25000000  1.0
  Ca  Ca1  1  -0.21623844  1.21623844  0.75000000  1.0
  Ca  Ca2  1  -0.60488868  0.60488868  0.25000000  1.0
  Ca  Ca3  1  -0.39511132  1.39511132  0.75000000  1.0
  Au  Au4  1  -0.95912521  0.95912521  0.25000000  1.0
  Au  Au5  1  -0.04087479  1.04087479  0.75000000  1.0
  N  N6  1  -0.19350526  1.19350526  0.25000000  1.0
  N  N7  1  -0.80649474  0.80649474  0.75000000  1.0
