# generated using pymatgen
data_Lu2AlSi2
_symmetry_space_group_name_H-M   'P 1'
_cell_length_a   5.45756184
_cell_length_b   5.45756184
_cell_length_c   5.45756184
_cell_angle_alpha   136.97359175
_cell_angle_beta   117.27727301
_cell_angle_gamma   79.08594474
_symmetry_Int_Tables_number   1
_chemical_formula_structural   Lu2AlSi2
_chemical_formula_sum   'Lu2 Al1 Si2'
_cell_volume   95.69480605
_cell_formula_units_Z   1
loop_
 _symmetry_equiv_pos_site_id
 _symmetry_equiv_pos_as_xyz
  1  'x, y, z'
loop_
 _atom_site_type_symbol
 _atom_site_label
 _atom_site_symmetry_multiplicity
 _atom_site_fract_x
 _atom_site_fract_y
 _atom_site_fract_z
 _atom_site_occupancy
  Lu  Lu0  1  0.71136605  0.21136605  0.50000000  1.0
  Lu  Lu1  1  1.28863395  0.78863395  0.50000000  1.0
  Al  Al2  1  0.00000000  0.00000000  0.00000000  1.0
  Si  Si3  1  0.28913576  0.50000000  0.78913576  1.0
  Si  Si4  1  0.71086424  0.50000000  1.21086424  1.0
