# generated using pymatgen
data_Ca2AlP2O9
_symmetry_space_group_name_H-M   'P 1'
_cell_length_a   7.89014711
_cell_length_b   5.62950286
_cell_length_c   8.36944904
_cell_angle_alpha   90.00000000
_cell_angle_beta   113.77096218
_cell_angle_gamma   90.00000000
_symmetry_Int_Tables_number   1
_chemical_formula_structural   Ca2AlP2O9
_chemical_formula_sum   'Ca4 Al2 P4 O18'
_cell_volume   340.21305507
_cell_formula_units_Z   2
loop_
 _symmetry_equiv_pos_site_id
 _symmetry_equiv_pos_as_xyz
  1  'x, y, z'
loop_
 _atom_site_type_symbol
 _atom_site_label
 _atom_site_symmetry_multiplicity
 _atom_site_fract_x
 _atom_site_fract_y
 _atom_site_fract_z
 _atom_site_occupancy
  O  O0  1  0.93317340  0.97661080  0.19931415  1.0
  O  O1  1  0.93317340  0.52338920  0.19931415  1.0
  O  O2  1  0.06682660  0.47661080  0.80068585  1.0
  O  O3  1  0.06682660  0.02338920  0.80068585  1.0
  O  O4  1  0.52214850  0.47334939  0.69066480  1.0
  O  O5  1  0.52214850  0.02665061  0.69066480  1.0
  O  O6  1  0.47785150  0.97334939  0.30933520  1.0
  O  O7  1  0.47785150  0.52665061  0.30933520  1.0
  O  O8  1  0.81184245  0.25000000  0.89989701  1.0
  O  O9  1  0.18815755  0.75000000  0.10010299  1.0
  O  O10  1  0.81322924  0.25000000  0.55279496  1.0
  O  O11  1  0.18677076  0.75000000  0.44720504  1.0
  O  O12  1  0.14802464  0.25000000  0.58136921  1.0
  O  O13  1  0.85197536  0.75000000  0.41863079  1.0
  O  O14  1  0.14490484  0.25000000  0.11411166  1.0
  O  O15  1  0.85509516  0.75000000  0.88588834  1.0
  O  O16  1  0.51703374  0.25000000  0.95391233  1.0
  O  O17  1  0.48296626  0.75000000  0.04608767  1.0
  Al  Al18  1  0.00000000  0.50000000  0.00000000  1.0
  Al  Al19  1  0.00000000  0.00000000  0.00000000  1.0
  P  P20  1  1.01950615  0.25000000  0.67706887  1.0
  P  P21  1  -0.01950615  0.75000000  0.32293113  1.0
  P  P22  1  0.58984935  0.25000000  0.80970190  1.0
  P  P23  1  0.41015065  0.75000000  0.19029810  1.0
  Ca  Ca24  1  0.69530030  0.25000000  0.24762552  1.0
  Ca  Ca25  1  0.30469970  0.75000000  0.75237448  1.0
  Ca  Ca26  1  0.31505818  0.25000000  0.41525541  1.0
  Ca  Ca27  1  0.68494182  0.75000000  0.58474459  1.0
