# generated using pymatgen
data_LaGePd2
_symmetry_space_group_name_H-M   'P 1'
_cell_length_a   7.80572072
_cell_length_b   7.04088857
_cell_length_c   5.86556280
_cell_angle_alpha   90.00000000
_cell_angle_beta   90.00000000
_cell_angle_gamma   90.00000000
_symmetry_Int_Tables_number   1
_chemical_formula_structural   LaGePd2
_chemical_formula_sum   'La4 Ge4 Pd8'
_cell_volume   322.36669640
_cell_formula_units_Z   4
loop_
 _symmetry_equiv_pos_site_id
 _symmetry_equiv_pos_as_xyz
  1  'x, y, z'
loop_
 _atom_site_type_symbol
 _atom_site_label
 _atom_site_symmetry_multiplicity
 _atom_site_fract_x
 _atom_site_fract_y
 _atom_site_fract_z
 _atom_site_occupancy
  La  La0  1  0.96630932  0.25000000  0.65335336  1.0
  La  La1  1  0.46630932  0.25000000  0.84664664  1.0
  La  La2  1  0.03369068  0.75000000  0.34664664  1.0
  La  La3  1  0.53369068  0.75000000  0.15335336  1.0
  Ge  Ge4  1  0.62331789  0.25000000  0.34548405  1.0
  Ge  Ge5  1  0.12331789  0.25000000  0.15451595  1.0
  Ge  Ge6  1  0.37668211  0.75000000  0.65451595  1.0
  Ge  Ge7  1  0.87668211  0.75000000  0.84548405  1.0
  Pd  Pd8  1  0.82399158  0.44828539  0.08867346  1.0
  Pd  Pd9  1  0.82399158  0.05171461  0.08867346  1.0
  Pd  Pd10  1  0.32399158  0.44828539  0.41132654  1.0
  Pd  Pd11  1  0.32399158  0.05171461  0.41132654  1.0
  Pd  Pd12  1  0.17600842  0.94828539  0.91132654  1.0
  Pd  Pd13  1  0.17600842  0.55171461  0.91132654  1.0
  Pd  Pd14  1  0.67600842  0.94828539  0.58867346  1.0
  Pd  Pd15  1  0.67600842  0.55171461  0.58867346  1.0
