# generated using pymatgen
data_LiAlSiO4
_symmetry_space_group_name_H-M   'P 1'
_cell_length_a   8.20539007
_cell_length_b   5.15263020
_cell_length_c   8.30186753
_cell_angle_alpha   90.00000000
_cell_angle_beta   106.20001993
_cell_angle_gamma   90.00000000
_symmetry_Int_Tables_number   1
_chemical_formula_structural   LiAlSiO4
_chemical_formula_sum   'Li4 Al4 Si4 O16'
_cell_volume   337.06063502
_cell_formula_units_Z   4
loop_
 _symmetry_equiv_pos_site_id
 _symmetry_equiv_pos_as_xyz
  1  'x, y, z'
loop_
 _atom_site_type_symbol
 _atom_site_label
 _atom_site_symmetry_multiplicity
 _atom_site_fract_x
 _atom_site_fract_y
 _atom_site_fract_z
 _atom_site_occupancy
  Li  Li0  1  0.38572396  0.33153238  0.74964332  1.0
  Li  Li1  1  0.38572396  0.66846762  0.24964332  1.0
  Li  Li2  1  0.91197297  0.84551881  0.94073392  1.0
  Li  Li3  1  0.91197297  0.15448119  0.44073392  1.0
  Al  Al4  1  0.02068517  0.33070474  0.80884398  1.0
  Al  Al5  1  0.02068517  0.66929526  0.30884398  1.0
  Al  Al6  1  0.51919471  0.82226194  0.65032176  1.0
  Al  Al7  1  0.51919471  0.17773806  0.15032176  1.0
  Si  Si8  1  0.14646746  0.82887418  0.68801202  1.0
  Si  Si9  1  0.14646746  0.17112582  0.18801202  1.0
  Si  Si10  1  0.64104216  0.67348136  0.02458765  1.0
  Si  Si11  1  0.64104216  0.32651864  0.52458765  1.0
  O  O12  1  0.00991876  0.80847642  0.50006607  1.0
  O  O13  1  0.00991876  0.19152358  0.00006607  1.0
  O  O14  1  0.07086578  0.66636462  0.82286113  1.0
  O  O15  1  0.07086578  0.33363538  0.32286113  1.0
  O  O16  1  0.17260528  0.86175950  0.24228935  1.0
  O  O17  1  0.17260528  0.13824050  0.74228935  1.0
  O  O18  1  0.32765029  0.70242999  0.68244931  1.0
  O  O19  1  0.32765029  0.29757001  0.18244931  1.0
  O  O20  1  0.50691915  0.84614392  0.09660136  1.0
  O  O21  1  0.50691915  0.15385608  0.59660136  1.0
  O  O22  1  0.56463760  0.62290272  0.49553841  1.0
  O  O23  1  0.56463760  0.37709728  -0.00446159  1.0
  O  O24  1  0.66828131  0.77840033  0.84689897  1.0
  O  O25  1  0.66828131  0.22159967  0.34689897  1.0
  O  O26  1  0.83303540  0.70947925  0.14815275  1.0
  O  O27  1  0.83303540  0.29052075  0.64815275  1.0
