# generated using pymatgen
data_Ca3SiO5
_symmetry_space_group_name_H-M   'P 1'
_cell_length_a   9.50334413
_cell_length_b   9.50334413
_cell_length_c   9.50334413
_cell_angle_alpha   43.77110127
_cell_angle_beta   43.77110127
_cell_angle_gamma   43.77110127
_symmetry_Int_Tables_number   1
_chemical_formula_structural   Ca3SiO5
_chemical_formula_sum   'Ca9 Si3 O15'
_cell_volume   372.88377714
_cell_formula_units_Z   3
loop_
 _symmetry_equiv_pos_site_id
 _symmetry_equiv_pos_as_xyz
  1  'x, y, z'
loop_
 _atom_site_type_symbol
 _atom_site_label
 _atom_site_symmetry_multiplicity
 _atom_site_fract_x
 _atom_site_fract_y
 _atom_site_fract_z
 _atom_site_occupancy
  Ca  Ca0  1  0.02996093  0.50706300  -0.49293700  1.0
  Ca  Ca1  1  0.50706300  0.50706300  -0.97003907  1.0
  Ca  Ca2  1  0.50706300  0.02996093  -0.49293700  1.0
  Ca  Ca3  1  0.54406157  0.06933868  0.06933868  1.0
  Ca  Ca4  1  1.06933868  0.06933868  -0.45593843  1.0
  Ca  Ca5  1  1.06933868  -0.45593843  0.06933868  1.0
  Ca  Ca6  1  0.79900158  0.27349241  -0.72650759  1.0
  Ca  Ca7  1  0.27349241  0.27349241  -0.20099842  1.0
  Ca  Ca8  1  0.27349241  0.79900158  -0.72650759  1.0
  Si  Si9  1  0.00045022  0.00045022  0.00045022  1.0
  Si  Si10  1  0.77906021  -0.22093979  -0.22093979  1.0
  Si  Si11  1  0.56724701  0.56724701  -0.43275299  1.0
  O  O12  1  0.79687476  0.41891427  -0.58108573  1.0
  O  O13  1  0.41891427  0.41891427  -0.20312524  1.0
  O  O14  1  0.41891427  0.79687476  -0.58108573  1.0
  O  O15  1  0.76443449  0.14744472  -0.85255528  1.0
  O  O16  1  0.14744472  0.14744472  -0.23556551  1.0
  O  O17  1  0.14744472  0.76443449  -0.85255528  1.0
  O  O18  1  0.50512810  -0.11907772  -0.11907772  1.0
  O  O19  1  0.88092228  -0.11907772  -0.49487190  1.0
  O  O20  1  0.88092228  -0.49487190  -0.11907772  1.0
  O  O21  1  0.93689662  -0.06310338  -0.06310338  1.0
  O  O22  1  0.84210016  -0.15789984  -0.15789984  1.0
  O  O23  1  0.63263574  0.63263574  -0.36736426  1.0
  O  O24  1  0.41363075  0.41363075  -0.58636925  1.0
  O  O25  1  0.28607754  0.28607754  0.28607754  1.0
  O  O26  1  0.16198959  0.16198959  0.16198959  1.0
