# generated using pymatgen
data_Mg2P2O7
_symmetry_space_group_name_H-M   'P 1'
_cell_length_a   7.03104188
_cell_length_b   8.38876036
_cell_length_c   9.17392112
_cell_angle_alpha   90.00000000
_cell_angle_beta   113.46281734
_cell_angle_gamma   90.00000000
_symmetry_Int_Tables_number   1
_chemical_formula_structural   Mg2P2O7
_chemical_formula_sum   'Mg8 P8 O28'
_cell_volume   496.35534160
_cell_formula_units_Z   4
loop_
 _symmetry_equiv_pos_site_id
 _symmetry_equiv_pos_as_xyz
  1  'x, y, z'
loop_
 _atom_site_type_symbol
 _atom_site_label
 _atom_site_symmetry_multiplicity
 _atom_site_fract_x
 _atom_site_fract_y
 _atom_site_fract_z
 _atom_site_occupancy
  Mg  Mg0  1  0.76871303  0.92853068  0.89054219  1.0
  Mg  Mg1  1  0.76871303  0.57146932  0.39054219  1.0
  Mg  Mg2  1  0.23128697  0.42853068  0.60945781  1.0
  Mg  Mg3  1  0.23128697  0.07146932  0.10945781  1.0
  Mg  Mg4  1  0.69467221  0.94031576  0.32111320  1.0
  Mg  Mg5  1  0.69467221  0.55968424  0.82111320  1.0
  Mg  Mg6  1  0.30532779  0.44031576  0.17888680  1.0
  Mg  Mg7  1  0.30532779  0.05968424  0.67888680  1.0
  P  P8  1  0.94027491  0.26809213  0.25790280  1.0
  P  P9  1  0.94027491  0.23190787  0.75790280  1.0
  P  P10  1  0.05972509  0.76809213  0.24209720  1.0
  P  P11  1  0.05972509  0.73190787  0.74209720  1.0
  P  P12  1  0.53040141  0.22599982  0.46642993  1.0
  P  P13  1  0.53040141  0.27400018  0.96642993  1.0
  P  P14  1  0.46959859  0.72599982  0.03357007  1.0
  P  P15  1  0.46959859  0.77400018  0.53357007  1.0
  O  O16  1  0.97503804  0.40224897  0.38109560  1.0
  O  O17  1  0.97503804  0.09775103  0.88109560  1.0
  O  O18  1  0.02496196  0.90224897  0.11890440  1.0
  O  O19  1  0.02496196  0.59775103  0.61890440  1.0
  O  O20  1  0.88238478  0.10998815  0.30840559  1.0
  O  O21  1  0.88238478  0.39001185  0.80840559  1.0
  O  O22  1  0.11761522  0.60998815  0.19159441  1.0
  O  O23  1  0.11761522  0.89001185  0.69159441  1.0
  O  O24  1  0.87887133  0.75970555  0.29699248  1.0
  O  O25  1  0.87887133  0.74029445  0.79699248  1.0
  O  O26  1  0.12112867  0.25970555  0.20300752  1.0
  O  O27  1  0.12112867  0.24029445  0.70300752  1.0
  O  O28  1  0.74971496  0.33084691  0.09800542  1.0
  O  O29  1  0.74971496  0.16915309  0.59800542  1.0
  O  O30  1  0.25028504  0.83084691  0.40199458  1.0
  O  O31  1  0.25028504  0.66915309  0.90199458  1.0
  O  O32  1  0.55230175  0.38922698  0.39634911  1.0
  O  O33  1  0.55230175  0.11077302  0.89634911  1.0
  O  O34  1  0.44769825  0.88922698  0.10365089  1.0
  O  O35  1  0.44769825  0.61077302  0.60365089  1.0
  O  O36  1  0.48116188  0.09109462  0.34300849  1.0
  O  O37  1  0.48116188  0.40890538  0.84300849  1.0
  O  O38  1  0.51883812  0.59109462  0.15699151  1.0
  O  O39  1  0.51883812  0.90890538  0.65699151  1.0
  O  O40  1  0.37568985  0.26450430  0.04750653  1.0
  O  O41  1  0.37568985  0.23549570  0.54750653  1.0
  O  O42  1  0.62431015  0.76450430  0.45249347  1.0
  O  O43  1  0.62431015  0.73549570  0.95249347  1.0
