# generated using pymatgen
data_Ca5As3O14
_symmetry_space_group_name_H-M   'P 1'
_cell_length_a   10.12588961
_cell_length_b   10.12588961
_cell_length_c   6.95454389
_cell_angle_alpha   90.00000000
_cell_angle_beta   90.00000000
_cell_angle_gamma   120.00000000
_symmetry_Int_Tables_number   1
_chemical_formula_structural   Ca5As3O14
_chemical_formula_sum   'Ca10 As6 O28'
_cell_volume   617.54080778
_cell_formula_units_Z   2
loop_
 _symmetry_equiv_pos_site_id
 _symmetry_equiv_pos_as_xyz
  1  'x, y, z'
loop_
 _atom_site_type_symbol
 _atom_site_label
 _atom_site_symmetry_multiplicity
 _atom_site_fract_x
 _atom_site_fract_y
 _atom_site_fract_z
 _atom_site_occupancy
  O  O0  1  0.74261726  0.65552901  0.44715359  1.0
  O  O1  1  0.74261726  0.65552901  0.05284641  1.0
  O  O2  1  0.65552901  0.91291175  0.94715359  1.0
  O  O3  1  0.65552901  0.91291175  0.55284641  1.0
  O  O4  1  0.91291175  0.25738274  0.44715359  1.0
  O  O5  1  0.91291175  0.25738274  0.05284641  1.0
  O  O6  1  0.34447099  0.08708825  0.44715359  1.0
  O  O7  1  0.34447099  0.08708825  0.05284641  1.0
  O  O8  1  0.25738274  0.34447099  0.94715359  1.0
  O  O9  1  0.25738274  0.34447099  0.55284641  1.0
  O  O10  1  0.08708825  0.74261726  0.94715359  1.0
  O  O11  1  0.08708825  0.74261726  0.55284641  1.0
  O  O12  1  0.34681373  0.83622924  0.25000000  1.0
  O  O13  1  0.83622924  0.48941551  0.75000000  1.0
  O  O14  1  0.48941551  0.65318627  0.25000000  1.0
  O  O15  1  0.16377076  0.51058449  0.25000000  1.0
  O  O16  1  0.65318627  0.16377076  0.75000000  1.0
  O  O17  1  0.51058449  0.34681373  0.75000000  1.0
  O  O18  1  0.53198476  0.39346104  0.25000000  1.0
  O  O19  1  0.39346104  0.86147627  0.75000000  1.0
  O  O20  1  0.86147627  0.46801524  0.25000000  1.0
  O  O21  1  0.60653896  0.13852373  0.25000000  1.0
  O  O22  1  0.46801524  0.60653896  0.75000000  1.0
  O  O23  1  0.13852373  0.53198476  0.75000000  1.0
  O  O24  1  -0.00000000  -0.00000000  0.34697941  1.0
  O  O25  1  -0.00000000  0.00000000  0.15302059  1.0
  O  O26  1  0.00000000  0.00000000  0.84697941  1.0
  O  O27  1  0.00000000  0.00000000  0.65302059  1.0
  Ca  Ca28  1  -0.02389760  0.73847395  0.25000000  1.0
  Ca  Ca29  1  0.73847395  0.76237155  0.75000000  1.0
  Ca  Ca30  1  0.76237155  1.02389760  0.25000000  1.0
  Ca  Ca31  1  0.26152605  0.23762845  0.25000000  1.0
  Ca  Ca32  1  1.02389760  0.26152605  0.75000000  1.0
  Ca  Ca33  1  0.23762845  -0.02389760  0.75000000  1.0
  Ca  Ca34  1  0.33333333  0.66666667  0.49693423  1.0
  Ca  Ca35  1  0.33333333  0.66666667  0.00306577  1.0
  Ca  Ca36  1  0.66666667  0.33333333  0.99693423  1.0
  Ca  Ca37  1  0.66666667  0.33333333  0.50306577  1.0
  As  As38  1  0.62062139  0.59286033  0.25000000  1.0
  As  As39  1  0.59286033  0.97223894  0.75000000  1.0
  As  As40  1  0.97223895  0.37937861  0.25000000  1.0
  As  As41  1  0.40713967  0.02776105  0.25000000  1.0
  As  As42  1  0.37937861  0.40713967  0.75000000  1.0
  As  As43  1  0.02776105  0.62062139  0.75000000  1.0
