# generated using pymatgen
data_La7Pd3
_symmetry_space_group_name_H-M   'P 1'
_cell_length_a   10.39642951
_cell_length_b   10.39642951
_cell_length_c   6.60940118
_cell_angle_alpha   90.00000000
_cell_angle_beta   90.00000000
_cell_angle_gamma   120.00000000
_symmetry_Int_Tables_number   1
_chemical_formula_structural   La7Pd3
_chemical_formula_sum   'La14 Pd6'
_cell_volume   618.67301274
_cell_formula_units_Z   2
loop_
 _symmetry_equiv_pos_site_id
 _symmetry_equiv_pos_as_xyz
  1  'x, y, z'
loop_
 _atom_site_type_symbol
 _atom_site_label
 _atom_site_symmetry_multiplicity
 _atom_site_fract_x
 _atom_site_fract_y
 _atom_site_fract_z
 _atom_site_occupancy
  La  La0  1  0.92442926  0.46221463  0.01171550  1.0
  La  La1  1  0.46221463  0.92442926  0.51171550  1.0
  La  La2  1  0.46221463  0.53778537  0.51171550  1.0
  La  La3  1  0.53778537  0.46221463  0.01171550  1.0
  La  La4  1  0.53778537  0.07557074  0.01171550  1.0
  La  La5  1  0.07557074  0.53778537  0.51171550  1.0
  La  La6  1  0.25108966  0.12554483  0.30958952  1.0
  La  La7  1  0.12554483  0.25108966  0.80958952  1.0
  La  La8  1  0.12554483  0.87445517  0.80958952  1.0
  La  La9  1  0.87445517  0.12554483  0.30958952  1.0
  La  La10  1  0.87445517  0.74891034  0.30958952  1.0
  La  La11  1  0.74891034  0.87445517  0.80958952  1.0
  La  La12  1  0.33333333  0.66666667  0.01972536  1.0
  La  La13  1  0.66666667  0.33333333  0.51972536  1.0
  Pd  Pd14  1  0.62368266  0.81184133  0.26211987  1.0
  Pd  Pd15  1  0.81184133  0.62368266  0.76211987  1.0
  Pd  Pd16  1  0.81184133  0.18815867  0.76211987  1.0
  Pd  Pd17  1  0.18815867  0.81184133  0.26211987  1.0
  Pd  Pd18  1  0.18815867  0.37631734  0.26211987  1.0
  Pd  Pd19  1  0.37631734  0.18815867  0.76211987  1.0
