# generated using pymatgen
data_KFe
_symmetry_space_group_name_H-M   'P 1'
_cell_length_a   6.26949257
_cell_length_b   6.26949257
_cell_length_c   4.14666589
_cell_angle_alpha   70.85521748
_cell_angle_beta   109.14478252
_cell_angle_gamma   71.13040468
_symmetry_Int_Tables_number   1
_chemical_formula_structural   KFe
_chemical_formula_sum   'K2 Fe2'
_cell_volume   127.37537799
_cell_formula_units_Z   2
loop_
 _symmetry_equiv_pos_site_id
 _symmetry_equiv_pos_as_xyz
  1  'x, y, z'
loop_
 _atom_site_type_symbol
 _atom_site_label
 _atom_site_symmetry_multiplicity
 _atom_site_fract_x
 _atom_site_fract_y
 _atom_site_fract_z
 _atom_site_occupancy
  K  K0  1  0.84107214  -0.15892786  0.75000000  1.0
  K  K1  1  1.15892786  0.15892786  0.25000000  1.0
  Fe  Fe2  1  1.46234014  0.46234014  0.75000000  1.0
  Fe  Fe3  1  0.53765986  -0.46234014  0.25000000  1.0
