# generated using pymatgen
data_Ba3FeO5
_symmetry_space_group_name_H-M   'P 1'
_cell_length_a   10.57938185
_cell_length_b   8.37672942
_cell_length_c   7.33881432
_cell_angle_alpha   90.00000000
_cell_angle_beta   90.00000000
_cell_angle_gamma   90.00000000
_symmetry_Int_Tables_number   1
_chemical_formula_structural   Ba3FeO5
_chemical_formula_sum   'Ba12 Fe4 O20'
_cell_volume   650.37026886
_cell_formula_units_Z   4
loop_
 _symmetry_equiv_pos_site_id
 _symmetry_equiv_pos_as_xyz
  1  'x, y, z'
loop_
 _atom_site_type_symbol
 _atom_site_label
 _atom_site_symmetry_multiplicity
 _atom_site_fract_x
 _atom_site_fract_y
 _atom_site_fract_z
 _atom_site_occupancy
  Fe  Fe0  1  0.90665039  0.25000000  0.30158804  1.0
  Fe  Fe1  1  0.40665039  0.25000000  0.19841196  1.0
  Fe  Fe2  1  0.09334961  0.75000000  0.69841196  1.0
  Fe  Fe3  1  0.59334961  0.75000000  0.80158804  1.0
  O  O4  1  0.93421246  0.44570272  0.21418888  1.0
  O  O5  1  0.93421246  0.05429728  0.21418888  1.0
  O  O6  1  0.43421246  0.44570272  0.28581112  1.0
  O  O7  1  0.43421246  0.05429728  0.28581112  1.0
  O  O8  1  0.06578754  0.94570272  0.78581112  1.0
  O  O9  1  0.06578754  0.55429728  0.78581112  1.0
  O  O10  1  0.56578754  0.94570272  0.71418888  1.0
  O  O11  1  0.56578754  0.55429728  0.71418888  1.0
  O  O12  1  0.73543794  0.25000000  0.33836208  1.0
  O  O13  1  0.23543794  0.25000000  0.16163792  1.0
  O  O14  1  0.26456206  0.75000000  0.66163792  1.0
  O  O15  1  0.76456206  0.75000000  0.83836208  1.0
  O  O16  1  0.00391920  0.25000000  0.50103996  1.0
  O  O17  1  0.50391920  0.25000000  0.99896004  1.0
  O  O18  1  0.99608080  0.75000000  0.49896004  1.0
  O  O19  1  0.49608080  0.75000000  0.00103996  1.0
  O  O20  1  0.78316293  0.25000000  0.83737831  1.0
  O  O21  1  0.28316293  0.25000000  0.66262169  1.0
  O  O22  1  0.21683707  0.75000000  0.16262169  1.0
  O  O23  1  0.71683707  0.75000000  0.33737831  1.0
  Ba  Ba24  1  0.68284471  0.47241657  0.07481315  1.0
  Ba  Ba25  1  0.68284471  0.02758343  0.07481315  1.0
  Ba  Ba26  1  0.18284471  0.47241657  0.42518685  1.0
  Ba  Ba27  1  0.18284471  0.02758343  0.42518685  1.0
  Ba  Ba28  1  0.31715529  0.97241657  0.92518685  1.0
  Ba  Ba29  1  0.31715529  0.52758343  0.92518685  1.0
  Ba  Ba30  1  0.81715529  0.97241657  0.57481315  1.0
  Ba  Ba31  1  0.81715529  0.52758343  0.57481315  1.0
  Ba  Ba32  1  0.52468751  0.25000000  0.62307116  1.0
  Ba  Ba33  1  0.02468751  0.25000000  0.87692884  1.0
  Ba  Ba34  1  0.47531249  0.75000000  0.37692884  1.0
  Ba  Ba35  1  0.97531249  0.75000000  0.12307116  1.0
