# generated using pymatgen
data_Eu3W(ClO2)3
_symmetry_space_group_name_H-M   'P 1'
_cell_length_a   9.32103752
_cell_length_b   9.32103752
_cell_length_c   5.34540160
_cell_angle_alpha   90.00000000
_cell_angle_beta   90.00000000
_cell_angle_gamma   120.00000000
_symmetry_Int_Tables_number   1
_chemical_formula_structural   Eu3W(ClO2)3
_chemical_formula_sum   'Eu6 W2 Cl6 O12'
_cell_volume   402.19760750
_cell_formula_units_Z   2
loop_
 _symmetry_equiv_pos_site_id
 _symmetry_equiv_pos_as_xyz
  1  'x, y, z'
loop_
 _atom_site_type_symbol
 _atom_site_label
 _atom_site_symmetry_multiplicity
 _atom_site_fract_x
 _atom_site_fract_y
 _atom_site_fract_z
 _atom_site_occupancy
  Eu  Eu0  1  0.68618020  0.59549675  0.25000000  1.0
  Eu  Eu1  1  0.59549675  0.90931655  0.75000000  1.0
  Eu  Eu2  1  0.90931655  0.31381980  0.25000000  1.0
  Eu  Eu3  1  0.40450325  0.09068345  0.25000000  1.0
  Eu  Eu4  1  0.31381980  0.40450325  0.75000000  1.0
  Eu  Eu5  1  0.09068345  0.68618020  0.75000000  1.0
  W  W6  1  0.33333333  0.66666667  0.25000000  1.0
  W  W7  1  0.66666667  0.33333333  0.75000000  1.0
  Cl  Cl8  1  0.04866705  0.80691134  0.25000000  1.0
  Cl  Cl9  1  0.80691134  0.75824429  0.75000000  1.0
  Cl  Cl10  1  0.75824429  0.95133295  0.25000000  1.0
  Cl  Cl11  1  0.19308866  0.24175571  0.25000000  1.0
  Cl  Cl12  1  0.95133295  0.19308866  0.75000000  1.0
  Cl  Cl13  1  0.24175571  0.04866705  0.75000000  1.0
  O  O14  1  0.36400606  0.83965555  0.48234028  1.0
  O  O15  1  0.36400606  0.83965555  0.01765972  1.0
  O  O16  1  0.83965555  0.47564949  0.98234028  1.0
  O  O17  1  0.83965555  0.47564949  0.51765972  1.0
  O  O18  1  0.47564949  0.63599394  0.48234028  1.0
  O  O19  1  0.47564949  0.63599394  0.01765972  1.0
  O  O20  1  0.16034445  0.52435051  0.48234028  1.0
  O  O21  1  0.16034445  0.52435051  0.01765972  1.0
  O  O22  1  0.63599394  0.16034445  0.98234028  1.0
  O  O23  1  0.63599394  0.16034445  0.51765972  1.0
  O  O24  1  0.52435051  0.36400606  0.98234028  1.0
  O  O25  1  0.52435051  0.36400606  0.51765972  1.0
