# generated using pymatgen
data_Mg2CO5
_symmetry_space_group_name_H-M   'P 1'
_cell_length_a   3.26224385
_cell_length_b   8.60997023
_cell_length_c   12.77841265
_cell_angle_alpha   90.00000000
_cell_angle_beta   94.94203375
_cell_angle_gamma   90.00000000
_symmetry_Int_Tables_number   1
_chemical_formula_structural   Mg2CO5
_chemical_formula_sum   'Mg8 C4 O20'
_cell_volume   357.58346001
_cell_formula_units_Z   4
loop_
 _symmetry_equiv_pos_site_id
 _symmetry_equiv_pos_as_xyz
  1  'x, y, z'
loop_
 _atom_site_type_symbol
 _atom_site_label
 _atom_site_symmetry_multiplicity
 _atom_site_fract_x
 _atom_site_fract_y
 _atom_site_fract_z
 _atom_site_occupancy
  C  C0  1  0.47008401  0.20831420  0.34664556  1.0
  C  C1  1  0.52991599  0.70831420  0.15335444  1.0
  C  C2  1  0.52991599  0.79168580  0.65335444  1.0
  C  C3  1  0.47008401  0.29168580  0.84664556  1.0
  Mg  Mg4  1  0.00713373  0.49893917  0.30140891  1.0
  Mg  Mg5  1  0.99286627  -0.00106083  0.19859109  1.0
  Mg  Mg6  1  0.99286627  0.50106083  0.69859109  1.0
  Mg  Mg7  1  0.00713373  1.00106083  0.80140891  1.0
  Mg  Mg8  1  0.44106301  0.28765562  0.08164230  1.0
  Mg  Mg9  1  0.55893699  0.78765562  0.41835770  1.0
  Mg  Mg10  1  0.55893699  0.71234438  0.91835770  1.0
  Mg  Mg11  1  0.44106301  0.21234438  0.58164230  1.0
  O  O12  1  0.51975794  0.35796880  0.35283374  1.0
  O  O13  1  0.48024206  0.85796880  0.14716626  1.0
  O  O14  1  0.48024206  0.64203120  0.64716626  1.0
  O  O15  1  0.51975794  0.14203120  0.85283374  1.0
  O  O16  1  0.49790428  0.13903906  0.25698677  1.0
  O  O17  1  0.50209572  0.63903906  0.24301323  1.0
  O  O18  1  0.50209572  0.86096094  0.74301323  1.0
  O  O19  1  0.49790428  0.36096094  0.75698677  1.0
  O  O20  1  0.93859971  0.14878161  0.07605216  1.0
  O  O21  1  0.06140029  0.64878161  0.42394784  1.0
  O  O22  1  0.06140029  0.85121839  0.92394784  1.0
  O  O23  1  0.93859971  0.35121839  0.57605216  1.0
  O  O24  1  0.96832786  0.38842255  0.15709329  1.0
  O  O25  1  0.03167214  0.88842255  0.34290671  1.0
  O  O26  1  0.03167214  0.61157745  0.84290671  1.0
  O  O27  1  0.96832786  0.11157745  0.65709329  1.0
  O  O28  1  0.38148776  0.13117386  0.42703158  1.0
  O  O29  1  0.61851224  0.63117386  0.07296842  1.0
  O  O30  1  0.61851224  0.86882614  0.57296842  1.0
  O  O31  1  0.38148776  0.36882614  0.92703158  1.0
