# generated using pymatgen
data_Li15Si4
_symmetry_space_group_name_H-M   'P 1'
_cell_length_a   9.16529751
_cell_length_b   9.16529751
_cell_length_c   9.16529751
_cell_angle_alpha   109.47122063
_cell_angle_beta   109.47122063
_cell_angle_gamma   109.47122063
_symmetry_Int_Tables_number   1
_chemical_formula_structural   Li15Si4
_chemical_formula_sum   'Li30 Si8'
_cell_volume   592.67663958
_cell_formula_units_Z   2
loop_
 _symmetry_equiv_pos_site_id
 _symmetry_equiv_pos_as_xyz
  1  'x, y, z'
loop_
 _atom_site_type_symbol
 _atom_site_label
 _atom_site_symmetry_multiplicity
 _atom_site_fract_x
 _atom_site_fract_y
 _atom_site_fract_z
 _atom_site_occupancy
  Li  Li0  1  1.08608534  0.30951156  0.96886712  1.0
  Li  Li1  1  0.84064444  1.11721822  0.53113288  1.0
  Li  Li2  1  0.80951156  0.58608534  0.46886712  1.0
  Li  Li3  1  1.61721822  1.34064444  1.03113288  1.0
  Li  Li4  1  0.96886712  1.08608534  0.30951156  1.0
  Li  Li5  1  1.27657378  0.65935556  1.19048844  1.0
  Li  Li6  1  1.58608534  1.46886712  1.80951156  1.0
  Li  Li7  1  0.15935556  0.77657378  0.69048844  1.0
  Li  Li8  1  1.30951156  0.96886712  1.08608534  1.0
  Li  Li9  1  1.38278178  1.22342622  1.41391466  1.0
  Li  Li10  1  0.46886712  0.80951156  0.58608534  1.0
  Li  Li11  1  0.72342622  0.88278178  0.91391466  1.0
  Li  Li12  1  1.65935556  1.19048844  1.27657378  1.0
  Li  Li13  1  1.41391466  1.38278178  1.22342622  1.0
  Li  Li14  1  0.88278178  0.91391466  0.72342622  1.0
  Li  Li15  1  0.69048844  1.15935556  0.77657378  1.0
  Li  Li16  1  1.22342622  1.41391466  1.38278178  1.0
  Li  Li17  1  1.53113288  0.84064444  1.11721822  1.0
  Li  Li18  1  1.34064444  1.03113288  1.61721822  1.0
  Li  Li19  1  0.91391466  0.72342622  0.88278178  1.0
  Li  Li20  1  1.11721822  1.53113288  0.84064444  1.0
  Li  Li21  1  1.19048844  1.27657378  1.65935556  1.0
  Li  Li22  1  0.77657378  0.69048844  0.15935556  1.0
  Li  Li23  1  1.03113288  0.61721822  1.34064444  1.0
  Li  Li24  1  1.12500000  0.87500000  1.25000000  1.0
  Li  Li25  1  0.37500000  0.62500000  0.75000000  1.0
  Li  Li26  1  0.25000000  1.12500000  0.87500000  1.0
  Li  Li27  1  0.75000000  1.37500000  0.62500000  1.0
  Li  Li28  1  0.62500000  0.75000000  0.37500000  1.0
  Li  Li29  1  0.87500000  0.25000000  1.12500000  1.0
  Si  Si30  1  1.08447153  1.08447153  1.08447153  1.0
  Si  Si31  1  1.50000000  1.00000000  1.41552847  1.0
  Si  Si32  1  0.58447153  0.58447153  0.58447153  1.0
  Si  Si33  1  0.50000000  1.00000000  0.91552847  1.0
  Si  Si34  1  1.00000000  1.41552847  1.50000000  1.0
  Si  Si35  1  1.41552847  0.50000000  1.00000000  1.0
  Si  Si36  1  1.00000000  0.91552847  1.50000000  1.0
  Si  Si37  1  0.91552847  1.50000000  1.00000000  1.0
