# generated using pymatgen
data_K(Cu2As)2
_symmetry_space_group_name_H-M   'P 1'
_cell_length_a   9.06037782
_cell_length_b   9.06037782
_cell_length_c   9.06037782
_cell_angle_alpha   26.41601785
_cell_angle_beta   26.41601785
_cell_angle_gamma   26.41601785
_symmetry_Int_Tables_number   1
_chemical_formula_structural   K(Cu2As)2
_chemical_formula_sum   'K1 Cu4 As2'
_cell_volume   129.74339813
_cell_formula_units_Z   1
loop_
 _symmetry_equiv_pos_site_id
 _symmetry_equiv_pos_as_xyz
  1  'x, y, z'
loop_
 _atom_site_type_symbol
 _atom_site_label
 _atom_site_symmetry_multiplicity
 _atom_site_fract_x
 _atom_site_fract_y
 _atom_site_fract_z
 _atom_site_occupancy
  K  K0  1  0.00000000  0.00000000  0.00000000  1.0
  Cu  Cu1  1  0.85432927  0.85432927  0.85432927  1.0
  Cu  Cu2  1  1.14567073  1.14567073  0.14567073  1.0
  Cu  Cu3  1  1.55343462  0.55343462  0.55343462  1.0
  Cu  Cu4  1  1.44656538  0.44656538  0.44656538  1.0
  As  As5  1  0.75884949  0.75884949  0.75884949  1.0
  As  As6  1  1.24115051  1.24115051  0.24115051  1.0
