# generated using pymatgen
data_As2Pb2O5
_symmetry_space_group_name_H-M   'P 1'
_cell_length_a   8.80877655
_cell_length_b   5.92210585
_cell_length_c   14.07848325
_cell_angle_alpha   90.00000000
_cell_angle_beta   109.69000598
_cell_angle_gamma   90.00000000
_symmetry_Int_Tables_number   1
_chemical_formula_structural   As2Pb2O5
_chemical_formula_sum   'As8 Pb8 O20'
_cell_volume   691.48295724
_cell_formula_units_Z   4
loop_
 _symmetry_equiv_pos_site_id
 _symmetry_equiv_pos_as_xyz
  1  'x, y, z'
loop_
 _atom_site_type_symbol
 _atom_site_label
 _atom_site_symmetry_multiplicity
 _atom_site_fract_x
 _atom_site_fract_y
 _atom_site_fract_z
 _atom_site_occupancy
  As  As0  1  0.88631937  0.37690405  0.13387043  1.0
  As  As1  1  0.88631937  0.12309595  0.63387043  1.0
  As  As2  1  0.11368063  0.87690405  0.36612957  1.0
  As  As3  1  0.11368063  0.62309595  0.86612957  1.0
  As  As4  1  0.61661398  0.86907801  0.43847668  1.0
  As  As5  1  0.61661398  0.63092199  0.93847668  1.0
  As  As6  1  0.38338602  0.36907801  0.06152332  1.0
  As  As7  1  0.38338602  0.13092199  0.56152332  1.0
  Pb  Pb8  1  0.85555458  0.33074512  0.38017698  1.0
  Pb  Pb9  1  0.85555458  0.16925488  0.88017698  1.0
  Pb  Pb10  1  0.14444542  0.83074512  0.11982302  1.0
  Pb  Pb11  1  0.14444542  0.66925488  0.61982302  1.0
  Pb  Pb12  1  0.34716924  0.32855389  0.29214884  1.0
  Pb  Pb13  1  0.34716924  0.17144611  0.79214884  1.0
  Pb  Pb14  1  0.65283076  0.82855389  0.20785116  1.0
  Pb  Pb15  1  0.65283076  0.67144611  0.70785116  1.0
  O  O16  1  0.92488825  0.00470529  0.29667831  1.0
  O  O17  1  0.92488825  0.49529471  0.79667831  1.0
  O  O18  1  0.07511175  0.50470529  0.20332169  1.0
  O  O19  1  0.07511175  0.99529471  0.70332169  1.0
  O  O20  1  0.76421372  0.45299354  0.21100498  1.0
  O  O21  1  0.76421372  0.04700646  0.71100498  1.0
  O  O22  1  0.23578628  0.95299354  0.28899502  1.0
  O  O23  1  0.23578628  0.54700646  0.78899502  1.0
  O  O24  1  0.62219509  0.11396618  0.36152504  1.0
  O  O25  1  0.62219509  0.38603382  0.86152504  1.0
  O  O26  1  0.37780491  0.61396618  0.13847496  1.0
  O  O27  1  0.37780491  0.88603382  0.63847496  1.0
  O  O28  1  0.34227075  0.15945200  0.14209546  1.0
  O  O29  1  0.34227075  0.34054800  0.64209546  1.0
  O  O30  1  0.65772925  0.65945200  0.35790454  1.0
  O  O31  1  0.65772925  0.84054800  0.85790454  1.0
  O  O32  1  0.17730687  0.11420650  0.46200419  1.0
  O  O33  1  0.17730687  0.38579350  0.96200419  1.0
  O  O34  1  0.82269313  0.61420650  0.03799581  1.0
  O  O35  1  0.82269313  0.88579350  0.53799581  1.0
