# generated using pymatgen
data_Ba(TlHg)2
_symmetry_space_group_name_H-M   'P 1'
_cell_length_a   11.02703735
_cell_length_b   11.02703735
_cell_length_c   5.21878851
_cell_angle_alpha   90.00000000
_cell_angle_beta   90.00000000
_cell_angle_gamma   90.00000000
_symmetry_Int_Tables_number   1
_chemical_formula_structural   Ba(TlHg)2
_chemical_formula_sum   'Ba4 Tl8 Hg8'
_cell_volume   634.58147360
_cell_formula_units_Z   4
loop_
 _symmetry_equiv_pos_site_id
 _symmetry_equiv_pos_as_xyz
  1  'x, y, z'
loop_
 _atom_site_type_symbol
 _atom_site_label
 _atom_site_symmetry_multiplicity
 _atom_site_fract_x
 _atom_site_fract_y
 _atom_site_fract_z
 _atom_site_occupancy
  Ba  Ba0  1  0.14822600  0.85177400  0.50000000  1.0
  Ba  Ba1  1  0.64822600  0.64822600  0.00000000  1.0
  Ba  Ba2  1  0.85177400  0.14822600  0.50000000  1.0
  Ba  Ba3  1  0.35177400  0.35177400  0.00000000  1.0
  Tl  Tl4  1  0.47013249  0.14101171  0.50000000  1.0
  Tl  Tl5  1  0.97013249  0.35898829  0.00000000  1.0
  Tl  Tl6  1  0.85898829  0.52986751  0.50000000  1.0
  Tl  Tl7  1  0.35898829  0.97013249  0.00000000  1.0
  Tl  Tl8  1  0.52986751  0.85898829  0.50000000  1.0
  Tl  Tl9  1  0.02986751  0.64101171  0.00000000  1.0
  Tl  Tl10  1  0.14101171  0.47013249  0.50000000  1.0
  Tl  Tl11  1  0.64101171  0.02986751  0.00000000  1.0
  Hg  Hg12  1  0.18611791  0.18611791  0.50000000  1.0
  Hg  Hg13  1  0.68611791  0.31388209  0.00000000  1.0
  Hg  Hg14  1  0.81388209  0.81388209  0.50000000  1.0
  Hg  Hg15  1  0.31388209  0.68611791  0.00000000  1.0
  Hg  Hg16  1  0.40445496  0.59554504  0.50000000  1.0
  Hg  Hg17  1  0.90445496  0.90445496  0.00000000  1.0
  Hg  Hg18  1  0.59554504  0.40445496  0.50000000  1.0
  Hg  Hg19  1  0.09554504  0.09554504  0.00000000  1.0
