# generated using pymatgen
data_Te3W2Se4(Cl4O)2
_symmetry_space_group_name_H-M   'P 1'
_cell_length_a   8.63289911
_cell_length_b   8.63289911
_cell_length_c   15.87159381
_cell_angle_alpha   78.57029378
_cell_angle_beta   101.42970622
_cell_angle_gamma   97.80495345
_symmetry_Int_Tables_number   1
_chemical_formula_structural   Te3W2Se4(Cl4O)2
_chemical_formula_sum   'Te6 W4 Se8 Cl16 O4'
_cell_volume   1130.65996786
_cell_formula_units_Z   2
loop_
 _symmetry_equiv_pos_site_id
 _symmetry_equiv_pos_as_xyz
  1  'x, y, z'
loop_
 _atom_site_type_symbol
 _atom_site_label
 _atom_site_symmetry_multiplicity
 _atom_site_fract_x
 _atom_site_fract_y
 _atom_site_fract_z
 _atom_site_occupancy
  Te  Te0  1  0.73303455  0.41690120  0.65864395  1.0
  Te  Te1  1  0.58309880  0.26696545  0.15864395  1.0
  Te  Te2  1  0.84925690  0.42836287  0.96555022  1.0
  Te  Te3  1  0.57163713  0.15074310  0.46555022  1.0
  Te  Te4  1  0.46245585  0.26135807  0.85030854  1.0
  Te  Te5  1  0.73864193  0.53754415  0.35030854  1.0
  W  W6  1  1.15113153  -0.15722885  0.80048661  1.0
  W  W7  1  1.15722885  -0.15113153  0.30048661  1.0
  W  W8  1  1.15591939  -0.15594029  0.55081045  1.0
  W  W9  1  1.15594029  -0.15591939  0.05081045  1.0
  Se  Se10  1  0.57091693  0.51871528  0.92229997  1.0
  Se  Se11  1  0.48128472  0.42908307  0.42229997  1.0
  Se  Se12  1  0.73935483  0.16840909  0.89483399  1.0
  Se  Se13  1  0.83159091  0.26064517  0.39483399  1.0
  Se  Se14  1  0.71928038  0.13853556  0.62926201  1.0
  Se  Se15  1  0.86146444  0.28071962  0.12926201  1.0
  Se  Se16  1  0.45510689  0.41006934  0.68677900  1.0
  Se  Se17  1  0.58993066  0.54489311  0.18677900  1.0
  Cl  Cl18  1  0.88608850  0.88924286  0.49524435  1.0
  Cl  Cl19  1  0.11075714  0.11391150  -0.00475565  1.0
  Cl  Cl20  1  0.87885963  0.76843106  0.75858757  1.0
  Cl  Cl21  1  0.23156894  0.12114037  0.25858757  1.0
  Cl  Cl22  1  0.88082948  0.76959287  0.00888965  1.0
  Cl  Cl23  1  0.23040713  0.11917052  0.50888965  1.0
  Cl  Cl24  1  1.07992431  -0.42707596  0.30604081  1.0
  Cl  Cl25  1  1.42707596  -0.07992431  0.80604081  1.0
  Cl  Cl26  1  1.07921216  -0.42813296  0.55244364  1.0
  Cl  Cl27  1  1.42813296  -0.07921216  0.05244364  1.0
  Cl  Cl28  1  1.19764821  -0.42792096  0.81727117  1.0
  Cl  Cl29  1  1.42792096  -0.19764821  0.31727117  1.0
  Cl  Cl30  1  1.20165549  -0.42223301  0.06357347  1.0
  Cl  Cl31  1  1.42223301  -0.20165549  0.56357347  1.0
  Cl  Cl32  1  1.10705000  -0.88932205  0.75094410  1.0
  Cl  Cl33  1  1.88932205  -0.10705000  0.25094410  1.0
  O  O34  1  1.15202759  -0.15866119  0.91122840  1.0
  O  O35  1  1.15866119  -0.15202759  0.41122840  1.0
  O  O36  1  1.15662625  -0.15452409  0.66130211  1.0
  O  O37  1  1.15452409  -0.15662625  0.16130211  1.0
