# generated using pymatgen
data_ZnAu2(CN)4
_symmetry_space_group_name_H-M   'P 1'
_cell_length_a   9.57495025
_cell_length_b   9.57495025
_cell_length_c   14.58173826
_cell_angle_alpha   84.87733312
_cell_angle_beta   95.12266688
_cell_angle_gamma   57.43692435
_symmetry_Int_Tables_number   1
_chemical_formula_structural   ZnAu2(CN)4
_chemical_formula_sum   'Zn4 Au8 C16 N16'
_cell_volume   1107.07250723
_cell_formula_units_Z   4
loop_
 _symmetry_equiv_pos_site_id
 _symmetry_equiv_pos_as_xyz
  1  'x, y, z'
loop_
 _atom_site_type_symbol
 _atom_site_label
 _atom_site_symmetry_multiplicity
 _atom_site_fract_x
 _atom_site_fract_y
 _atom_site_fract_z
 _atom_site_occupancy
  Zn  Zn0  1  0.40746203  -0.19471419  0.57922946  1.0
  Zn  Zn1  1  1.19471419  -0.40746203  0.07922946  1.0
  Zn  Zn2  1  0.80528581  -0.59253797  0.92077054  1.0
  Zn  Zn3  1  0.59253797  0.19471419  0.42077054  1.0
  Au  Au4  1  0.50719451  0.14899938  0.78457003  1.0
  Au  Au5  1  0.85100062  -0.50719451  0.28457003  1.0
  Au  Au6  1  1.14899938  -0.49280549  0.71542997  1.0
  Au  Au7  1  0.49280549  -0.14899938  0.21542997  1.0
  Au  Au8  1  0.89489535  -0.10510465  0.75000000  1.0
  Au  Au9  1  0.10510465  0.10510465  0.25000000  1.0
  Au  Au10  1  0.50000000  -0.00000000  -0.00000000  1.0
  Au  Au11  1  1.00000000  -0.50000000  0.50000000  1.0
  C  C12  1  0.60718125  -0.22604099  0.96530579  1.0
  C  C13  1  1.22604099  -0.60718125  0.46530579  1.0
  C  C14  1  0.77395901  -0.39281875  0.53469421  1.0
  C  C15  1  0.39281875  0.22604099  0.03469421  1.0
  C  C16  1  0.79683793  -0.00417863  0.61794912  1.0
  C  C17  1  1.00417863  -0.79683793  0.11794912  1.0
  C  C18  1  0.99582137  -0.20316207  0.88205088  1.0
  C  C19  1  0.20316207  0.00417863  0.38205088  1.0
  C  C20  1  0.43449802  0.02468044  0.71535095  1.0
  C  C21  1  0.97531956  -0.43449802  0.21535095  1.0
  C  C22  1  1.02468044  -0.56550198  0.78464905  1.0
  C  C23  1  0.56550198  -0.02468044  0.28464905  1.0
  C  C24  1  0.60054517  0.26615425  0.84313024  1.0
  C  C25  1  0.73384575  -0.60054517  0.34313024  1.0
  C  C26  1  1.26615425  -0.39945483  0.65686976  1.0
  C  C27  1  0.39945483  -0.26615425  0.15686976  1.0
  N  N28  1  0.63985082  -0.32828736  0.55448644  1.0
  N  N29  1  1.32828736  -0.63985082  0.05448644  1.0
  N  N30  1  0.67171264  -0.36014918  0.94551356  1.0
  N  N31  1  0.36014918  0.32828736  0.44551356  1.0
  N  N32  1  0.73389152  0.05901221  0.54085088  1.0
  N  N33  1  0.94098779  -0.73389152  0.04085088  1.0
  N  N34  1  1.05901221  -0.26610848  0.95914912  1.0
  N  N35  1  0.26610848  -0.05901221  0.45914912  1.0
  N  N36  1  0.40424331  -0.05210974  0.66923897  1.0
  N  N37  1  1.05210974  -0.40424331  0.16923897  1.0
  N  N38  1  0.94789026  -0.59575669  0.83076103  1.0
  N  N39  1  0.59575669  0.05210974  0.33076103  1.0
  N  N40  1  0.66527270  0.32998554  0.87326807  1.0
  N  N41  1  0.67001446  -0.66527270  0.37326807  1.0
  N  N42  1  1.32998554  -0.33472730  0.62673193  1.0
  N  N43  1  0.33472730  -0.32998554  0.12673193  1.0
