# generated using pymatgen
data_NaCdAs
_symmetry_space_group_name_H-M   'P 1'
_cell_length_a   7.63985717
_cell_length_b   8.16603621
_cell_length_c   4.51301227
_cell_angle_alpha   90.00000000
_cell_angle_beta   90.00000000
_cell_angle_gamma   90.00000000
_symmetry_Int_Tables_number   1
_chemical_formula_structural   NaCdAs
_chemical_formula_sum   'Na4 Cd4 As4'
_cell_volume   281.55487698
_cell_formula_units_Z   4
loop_
 _symmetry_equiv_pos_site_id
 _symmetry_equiv_pos_as_xyz
  1  'x, y, z'
loop_
 _atom_site_type_symbol
 _atom_site_label
 _atom_site_symmetry_multiplicity
 _atom_site_fract_x
 _atom_site_fract_y
 _atom_site_fract_z
 _atom_site_occupancy
  Na  Na0  1  0.51860834  0.82639890  0.00359384  1.0
  Na  Na1  1  1.01860834  0.67360110  0.00359384  1.0
  Na  Na2  1  0.48139166  0.17360110  0.50359384  1.0
  Na  Na3  1  -0.01860834  0.32639890  0.50359384  1.0
  Cd  Cd4  1  0.34976390  0.57451121  0.50370591  1.0
  Cd  Cd5  1  0.84976390  0.92548879  0.50370591  1.0
  Cd  Cd6  1  0.65023610  0.42548879  0.00370591  1.0
  Cd  Cd7  1  0.15023610  0.07451121  0.00370591  1.0
  As  As8  1  0.22107567  0.89085411  0.50360025  1.0
  As  As9  1  0.72107567  0.60914589  0.50360025  1.0
  As  As10  1  0.77892433  0.10914589  0.00360025  1.0
  As  As11  1  0.27892433  0.39085411  0.00360025  1.0
