# generated using pymatgen
data_Hf2Co12P7
_symmetry_space_group_name_H-M   'P 1'
_cell_length_a   8.90084326
_cell_length_b   8.90084326
_cell_length_c   3.52751667
_cell_angle_alpha   90.00000000
_cell_angle_beta   90.00000000
_cell_angle_gamma   120.00000000
_symmetry_Int_Tables_number   1
_chemical_formula_structural   Hf2Co12P7
_chemical_formula_sum   'Hf2 Co12 P7'
_cell_volume   242.02599385
_cell_formula_units_Z   1
loop_
 _symmetry_equiv_pos_site_id
 _symmetry_equiv_pos_as_xyz
  1  'x, y, z'
loop_
 _atom_site_type_symbol
 _atom_site_label
 _atom_site_symmetry_multiplicity
 _atom_site_fract_x
 _atom_site_fract_y
 _atom_site_fract_z
 _atom_site_occupancy
  Co  Co0  1  0.71772043  0.61037102  0.50000000  1.0
  Co  Co1  1  0.89265059  0.28227957  0.50000000  1.0
  Co  Co2  1  0.38962898  0.10734941  0.50000000  1.0
  Co  Co3  1  0.23030203  0.42850146  0.50000000  1.0
  Co  Co4  1  0.19819943  0.76969797  0.50000000  1.0
  Co  Co5  1  0.57149854  0.80180057  0.50000000  1.0
  Co  Co6  1  0.49074077  0.54800505  0.00000000  1.0
  Co  Co7  1  0.05726428  0.50925923  0.00000000  1.0
  Co  Co8  1  0.45199495  0.94273572  0.00000000  1.0
  Co  Co9  1  0.26905627  0.22679837  0.00000000  1.0
  Co  Co10  1  0.95774210  0.73094373  0.00000000  1.0
  Co  Co11  1  0.77320163  0.04225790  0.00000000  1.0
  Hf  Hf12  1  0.00000000  0.00000000  0.50000000  1.0
  Hf  Hf13  1  0.66666667  0.33333333  0.00000000  1.0
  P  P14  1  0.45061772  0.37683837  0.50000000  1.0
  P  P15  1  0.92622065  0.54938228  0.50000000  1.0
  P  P16  1  0.62316163  0.07377935  0.50000000  1.0
  P  P17  1  0.04171892  0.25698608  0.00000000  1.0
  P  P18  1  0.21526716  0.95828108  0.00000000  1.0
  P  P19  1  0.74301392  0.78473284  0.00000000  1.0
  P  P20  1  0.33333333  0.66666667  0.00000000  1.0
