# generated using pymatgen
data_Mg13Al14
_symmetry_space_group_name_H-M   'P 1'
_cell_length_a   8.81838223
_cell_length_b   8.81838223
_cell_length_c   8.81838223
_cell_angle_alpha   109.47122063
_cell_angle_beta   109.47122063
_cell_angle_gamma   109.47122063
_symmetry_Int_Tables_number   1
_chemical_formula_structural   Mg13Al14
_chemical_formula_sum   'Mg13 Al14'
_cell_volume   527.89174130
_cell_formula_units_Z   1
loop_
 _symmetry_equiv_pos_site_id
 _symmetry_equiv_pos_as_xyz
  1  'x, y, z'
loop_
 _atom_site_type_symbol
 _atom_site_label
 _atom_site_symmetry_multiplicity
 _atom_site_fract_x
 _atom_site_fract_y
 _atom_site_fract_z
 _atom_site_occupancy
  Mg  Mg0  1  0.00000000  0.00000000  0.00000000  1.0
  Mg  Mg1  1  0.34367339  0.34367339  0.68734678  1.0
  Mg  Mg2  1  0.65632661  1.00000000  0.34367339  1.0
  Mg  Mg3  1  1.00000000  0.65632661  0.34367339  1.0
  Mg  Mg4  1  0.65632661  1.34367339  1.00000000  1.0
  Mg  Mg5  1  1.34367339  1.68734678  1.34367339  1.0
  Mg  Mg6  1  1.00000000  1.34367339  0.65632661  1.0
  Mg  Mg7  1  1.34367339  0.65632661  1.00000000  1.0
  Mg  Mg8  1  1.34367339  1.00000000  0.65632661  1.0
  Mg  Mg9  1  1.68734678  1.34367339  1.34367339  1.0
  Mg  Mg10  1  0.65632661  0.65632661  0.31265322  1.0
  Mg  Mg11  1  0.65632661  0.31265322  0.65632661  1.0
  Mg  Mg12  1  0.31265322  0.65632661  0.65632661  1.0
  Al  Al13  1  0.69792069  0.69792069  0.00000000  1.0
  Al  Al14  1  0.30207931  -0.00000000  0.30207931  1.0
  Al  Al15  1  -0.00000000  0.30207931  0.30207931  1.0
  Al  Al16  1  0.30207931  0.30207931  -0.00000000  1.0
  Al  Al17  1  0.69792069  0.00000000  0.69792069  1.0
  Al  Al18  1  -0.00000000  0.69792069  0.69792069  1.0
  Al  Al19  1  1.00000000  1.00000000  0.34291555  1.0
  Al  Al20  1  1.00000000  1.34291555  1.00000000  1.0
  Al  Al21  1  1.34291555  1.00000000  1.00000000  1.0
  Al  Al22  1  0.65708445  0.65708445  0.65708445  1.0
  Al  Al23  1  1.00000000  1.00000000  0.65708445  1.0
  Al  Al24  1  1.00000000  1.65708445  1.00000000  1.0
  Al  Al25  1  1.65708445  1.00000000  1.00000000  1.0
  Al  Al26  1  0.34291555  0.34291555  0.34291555  1.0
