# generated using pymatgen
data_Ba2Ni(HO)6
_symmetry_space_group_name_H-M   'P 1'
_cell_length_a   5.98702399
_cell_length_b   6.47376975
_cell_length_c   10.33444808
_cell_angle_alpha   90.00000000
_cell_angle_beta   124.70833287
_cell_angle_gamma   90.00000000
_symmetry_Int_Tables_number   1
_chemical_formula_structural   Ba2Ni(HO)6
_chemical_formula_sum   'Ba4 Ni2 H12 O12'
_cell_volume   329.27571890
_cell_formula_units_Z   2
loop_
 _symmetry_equiv_pos_site_id
 _symmetry_equiv_pos_as_xyz
  1  'x, y, z'
loop_
 _atom_site_type_symbol
 _atom_site_label
 _atom_site_symmetry_multiplicity
 _atom_site_fract_x
 _atom_site_fract_y
 _atom_site_fract_z
 _atom_site_occupancy
  Ba  Ba0  1  0.72463193  0.06896492  0.25488767  1.0
  Ba  Ba1  1  0.72463193  0.43103508  0.75488767  1.0
  Ba  Ba2  1  0.27536807  0.56896492  0.24511233  1.0
  Ba  Ba3  1  0.27536807  0.93103508  0.74511233  1.0
  Ni  Ni4  1  0.00000000  0.50000000  0.50000000  1.0
  Ni  Ni5  1  0.00000000  0.00000000  0.00000000  1.0
  H  H6  1  0.72673564  0.31541498  0.03434372  1.0
  H  H7  1  0.72673564  0.18458502  0.53434372  1.0
  H  H8  1  0.27326436  0.81541498  0.46565628  1.0
  H  H9  1  0.27326436  0.68458502  0.96565628  1.0
  H  H10  1  0.30090598  0.23103946  0.48377783  1.0
  H  H11  1  0.30090598  0.26896054  0.98377783  1.0
  H  H12  1  0.69909402  0.73103946  0.01622217  1.0
  H  H13  1  0.69909402  0.76896054  0.51622217  1.0
  H  H14  1  0.29769385  0.07964436  0.30344074  1.0
  H  H15  1  0.29769385  0.42035564  0.80344074  1.0
  H  H16  1  0.70230615  0.57964436  0.19655926  1.0
  H  H17  1  0.70230615  0.92035564  0.69655926  1.0
  O  O18  1  0.84541707  0.47798362  0.25936758  1.0
  O  O19  1  0.84541707  0.02201638  0.75936758  1.0
  O  O20  1  0.15458293  0.97798362  0.24063242  1.0
  O  O21  1  0.15458293  0.52201638  0.74063242  1.0
  O  O22  1  0.78761706  0.76933205  0.46079159  1.0
  O  O23  1  0.78761706  0.73066795  0.96079159  1.0
  O  O24  1  0.21238294  0.26933205  0.03920841  1.0
  O  O25  1  0.21238294  0.23066795  0.53920841  1.0
  O  O26  1  0.64246067  0.29486161  0.45590755  1.0
  O  O27  1  0.64246067  0.20513839  0.95590755  1.0
  O  O28  1  0.35753933  0.79486161  0.04409245  1.0
  O  O29  1  0.35753933  0.70513839  0.54409245  1.0
