# generated using pymatgen
data_BiAsO2
_symmetry_space_group_name_H-M   'P 1'
_cell_length_a   7.62518011
_cell_length_b   7.62518011
_cell_length_c   7.62518011
_cell_angle_alpha   128.60882256
_cell_angle_beta   128.60882256
_cell_angle_gamma   75.64081429
_symmetry_Int_Tables_number   1
_chemical_formula_structural   BiAsO2
_chemical_formula_sum   'Bi4 As4 O8'
_cell_volume   263.36648741
_cell_formula_units_Z   4
loop_
 _symmetry_equiv_pos_site_id
 _symmetry_equiv_pos_as_xyz
  1  'x, y, z'
loop_
 _atom_site_type_symbol
 _atom_site_label
 _atom_site_symmetry_multiplicity
 _atom_site_fract_x
 _atom_site_fract_y
 _atom_site_fract_z
 _atom_site_occupancy
  Bi  Bi0  1  0.37500000  0.62500000  0.75000000  1.0
  Bi  Bi1  1  0.87500000  0.62500000  1.25000000  1.0
  Bi  Bi2  1  0.37500000  1.12500000  0.75000000  1.0
  Bi  Bi3  1  0.37500000  0.62500000  0.25000000  1.0
  As  As4  1  0.87500000  0.12500000  0.75000000  1.0
  As  As5  1  0.37500000  0.12500000  0.25000000  1.0
  As  As6  1  0.87500000  0.62500000  0.75000000  1.0
  As  As7  1  0.87500000  1.12500000  1.25000000  1.0
  O  O8  1  1.17236757  0.94503385  1.77267272  1.0
  O  O9  1  0.57763887  0.85030515  1.27267272  1.0
  O  O10  1  1.05496615  0.82763887  1.22733372  1.0
  O  O11  1  1.14969485  1.42236757  1.72733372  1.0
  O  O12  1  0.17236113  0.39969485  0.22732728  1.0
  O  O13  1  0.57763243  0.30496615  0.72732728  1.0
  O  O14  1  0.60030515  0.82763243  0.77266628  1.0
  O  O15  1  0.69503385  0.42236113  0.27266628  1.0
