# generated using pymatgen
data_SrTi4(PO4)6
_symmetry_space_group_name_H-M   'P 1'
_cell_length_a   9.03235068
_cell_length_b   9.03235068
_cell_length_c   9.03235068
_cell_angle_alpha   56.08445673
_cell_angle_beta   56.08445673
_cell_angle_gamma   56.08445673
_symmetry_Int_Tables_number   1
_chemical_formula_structural   SrTi4(PO4)6
_chemical_formula_sum   'Sr1 Ti4 P6 O24'
_cell_volume   473.81149602
_cell_formula_units_Z   1
loop_
 _symmetry_equiv_pos_site_id
 _symmetry_equiv_pos_as_xyz
  1  'x, y, z'
loop_
 _atom_site_type_symbol
 _atom_site_label
 _atom_site_symmetry_multiplicity
 _atom_site_fract_x
 _atom_site_fract_y
 _atom_site_fract_z
 _atom_site_occupancy
  Sr  Sr0  1  0.00000000  0.00000000  0.00000000  1.0
  Ti  Ti1  1  0.14982144  0.14982144  0.14982144  1.0
  Ti  Ti2  1  0.85017856  -0.14982144  -0.14982144  1.0
  Ti  Ti3  1  0.35637372  0.35637372  -0.64362628  1.0
  Ti  Ti4  1  0.64362628  0.64362628  -0.35637372  1.0
  P  P5  1  0.53726846  0.24857840  -0.03044671  1.0
  P  P6  1  1.03044671  -0.53726846  -0.24857840  1.0
  P  P7  1  0.75142160  0.03044671  -0.53726846  1.0
  P  P8  1  0.46273154  -0.24857840  0.03044671  1.0
  P  P9  1  0.96955329  -0.46273154  0.24857840  1.0
  P  P10  1  1.24857840  -0.03044671  -0.46273154  1.0
  O  O11  1  0.21061246  0.99995529  -0.62748863  1.0
  O  O12  1  0.62748863  -0.21061246  0.00004471  1.0
  O  O13  1  1.00004471  -0.37251137  -0.21061246  1.0
  O  O14  1  0.78938754  0.00004471  -0.37251137  1.0
  O  O15  1  0.37251137  0.21061246  -0.00004471  1.0
  O  O16  1  0.99995529  0.37251137  -0.78938754  1.0
  O  O17  1  0.55403647  0.19033810  -0.53721215  1.0
  O  O18  1  0.53721215  0.44596353  -0.19033810  1.0
  O  O19  1  0.80966190  0.53721215  -0.55403647  1.0
  O  O20  1  0.44596353  0.80966190  -0.46278785  1.0
  O  O21  1  0.46278785  0.55403647  -0.80966190  1.0
  O  O22  1  0.19033810  0.46278785  -0.44596353  1.0
  O  O23  1  0.26987855  0.90941695  -0.90740689  1.0
  O  O24  1  0.90740689  -0.26987855  0.09058305  1.0
  O  O25  1  1.09058305  -0.09259311  -0.26987855  1.0
  O  O26  1  0.73012145  0.09058305  -0.09259311  1.0
  O  O27  1  0.09259311  0.26987855  -0.09058305  1.0
  O  O28  1  0.90941695  0.09259311  -0.73012145  1.0
  O  O29  1  0.51783637  0.23816974  0.15595689  1.0
  O  O30  1  0.84404311  -0.51783637  -0.23816974  1.0
  O  O31  1  0.76183026  -0.15595689  -0.51783637  1.0
  O  O32  1  0.48216363  -0.23816974  -0.15595689  1.0
  O  O33  1  1.15595689  -0.48216363  0.23816974  1.0
  O  O34  1  1.23816974  0.15595689  -0.48216363  1.0
