# generated using pymatgen
data_WS2(NCl)3
_symmetry_space_group_name_H-M   'P 1'
_cell_length_a   7.81861374
_cell_length_b   9.73606982
_cell_length_c   13.56186656
_cell_angle_alpha   90.00000000
_cell_angle_beta   119.33372608
_cell_angle_gamma   90.00000000
_symmetry_Int_Tables_number   1
_chemical_formula_structural   WS2(NCl)3
_chemical_formula_sum   'W4 S8 N12 Cl12'
_cell_volume   899.99548786
_cell_formula_units_Z   4
loop_
 _symmetry_equiv_pos_site_id
 _symmetry_equiv_pos_as_xyz
  1  'x, y, z'
loop_
 _atom_site_type_symbol
 _atom_site_label
 _atom_site_symmetry_multiplicity
 _atom_site_fract_x
 _atom_site_fract_y
 _atom_site_fract_z
 _atom_site_occupancy
  W  W0  1  0.98416134  0.62561858  0.08649823  1.0
  W  W1  1  0.98416134  0.87438142  0.58649823  1.0
  W  W2  1  0.01583866  0.12561858  0.41350177  1.0
  W  W3  1  0.01583866  0.37438142  0.91350177  1.0
  S  S4  1  0.76239465  0.40007181  0.38279946  1.0
  S  S5  1  0.76239465  0.09992819  0.88279946  1.0
  S  S6  1  0.23760535  0.90007181  0.11720054  1.0
  S  S7  1  0.23760535  0.59992819  0.61720054  1.0
  S  S8  1  0.74254766  0.31344133  0.02739735  1.0
  S  S9  1  0.74254766  0.18655867  0.52739735  1.0
  S  S10  1  0.25745234  0.81344133  0.47260265  1.0
  S  S11  1  0.25745234  0.68655867  0.97260265  1.0
  N  N12  1  0.90569772  0.29297942  0.36904467  1.0
  N  N13  1  0.90569772  0.20702058  0.86904467  1.0
  N  N14  1  0.09430228  0.79297942  0.13095533  1.0
  N  N15  1  0.09430228  0.70702058  0.63095533  1.0
  N  N16  1  0.88789433  0.41035686  0.00469591  1.0
  N  N17  1  0.88789433  0.08964314  0.50469591  1.0
  N  N18  1  0.11210567  0.91035686  0.49530409  1.0
  N  N19  1  0.11210567  0.58964314  0.99530409  1.0
  N  N20  1  0.69522167  0.33018773  0.46624406  1.0
  N  N21  1  0.69522167  0.16981227  0.96624406  1.0
  N  N22  1  0.30477833  0.83018773  0.03375594  1.0
  N  N23  1  0.30477833  0.66981227  0.53375594  1.0
  Cl  Cl24  1  0.77490129  0.01044619  0.25429747  1.0
  Cl  Cl25  1  0.77490129  0.48955381  0.75429747  1.0
  Cl  Cl26  1  0.22509871  0.51044619  0.24570253  1.0
  Cl  Cl27  1  0.22509871  0.98955381  0.74570253  1.0
  Cl  Cl28  1  0.69764576  0.79038638  0.42939256  1.0
  Cl  Cl29  1  0.69764576  0.70961362  0.92939256  1.0
  Cl  Cl30  1  0.30235424  0.29038638  0.07060744  1.0
  Cl  Cl31  1  0.30235424  0.20961362  0.57060744  1.0
  Cl  Cl32  1  0.22100814  0.08942537  0.33163913  1.0
  Cl  Cl33  1  0.22100814  0.41057463  0.83163913  1.0
  Cl  Cl34  1  0.77899186  0.58942537  0.16836087  1.0
  Cl  Cl35  1  0.77899186  0.91057463  0.66836087  1.0
