# generated using pymatgen
data_CuAgC3S3N5
_symmetry_space_group_name_H-M   'P 1'
_cell_length_a   9.72332510
_cell_length_b   9.72332510
_cell_length_c   7.22564567
_cell_angle_alpha   90.00000000
_cell_angle_beta   90.00000000
_cell_angle_gamma   120.00000000
_symmetry_Int_Tables_number   1
_chemical_formula_structural   CuAgC3S3N5
_chemical_formula_sum   'Cu2 Ag2 C6 S6 N10'
_cell_volume   591.61190706
_cell_formula_units_Z   2
loop_
 _symmetry_equiv_pos_site_id
 _symmetry_equiv_pos_as_xyz
  1  'x, y, z'
loop_
 _atom_site_type_symbol
 _atom_site_label
 _atom_site_symmetry_multiplicity
 _atom_site_fract_x
 _atom_site_fract_y
 _atom_site_fract_z
 _atom_site_occupancy
  C  C0  1  0.72599552  0.67327198  0.25000000  1.0
  C  C1  1  0.67327198  0.72599552  0.75000000  1.0
  C  C2  1  0.94727646  0.27400448  0.25000000  1.0
  C  C3  1  0.32672802  0.05272354  0.25000000  1.0
  C  C4  1  0.27400448  0.94727646  0.75000000  1.0
  C  C5  1  0.05272354  0.32672802  0.75000000  1.0
  S  S6  1  0.14510210  0.90110640  0.25000000  1.0
  S  S7  1  0.90110640  0.14510210  0.75000000  1.0
  S  S8  1  0.75600430  0.85489790  0.25000000  1.0
  S  S9  1  0.09889360  0.24399570  0.25000000  1.0
  S  S10  1  0.85489790  0.75600430  0.75000000  1.0
  S  S11  1  0.24399570  0.09889360  0.75000000  1.0
  Cu  Cu12  1  0.66666667  0.33333333  0.25000000  1.0
  Cu  Cu13  1  0.33333333  0.66666667  0.75000000  1.0
  N  N14  1  0.70271174  0.54201199  0.25000000  1.0
  N  N15  1  0.54201199  0.70271174  0.75000000  1.0
  N  N16  1  0.83930025  0.29728826  0.25000000  1.0
  N  N17  1  0.45798801  0.16069975  0.25000000  1.0
  N  N18  1  0.29728826  0.83930025  0.75000000  1.0
  N  N19  1  0.16069975  0.45798801  0.75000000  1.0
  N  N20  1  0.33333333  0.66666667  0.32643594  1.0
  N  N21  1  0.33333333  0.66666667  0.17356406  1.0
  N  N22  1  0.66666667  0.33333333  0.82643594  1.0
  N  N23  1  0.66666667  0.33333333  0.67356406  1.0
  Ag  Ag24  1  0.00000000  0.00000000  0.50000000  1.0
  Ag  Ag25  1  0.00000000  0.00000000  0.00000000  1.0
