# generated using pymatgen
data_Ba2LiSi2
_symmetry_space_group_name_H-M   'P 1'
_cell_length_a   13.26337071
_cell_length_b   12.53239457
_cell_length_c   11.06334014
_cell_angle_alpha   68.07510403
_cell_angle_beta   61.22868446
_cell_angle_gamma   50.69621151
_symmetry_Int_Tables_number   1
_chemical_formula_structural   Ba2LiSi2
_chemical_formula_sum   'Ba16 Li8 Si16'
_cell_volume   1240.93994487
_cell_formula_units_Z   8
loop_
 _symmetry_equiv_pos_site_id
 _symmetry_equiv_pos_as_xyz
  1  'x, y, z'
loop_
 _atom_site_type_symbol
 _atom_site_label
 _atom_site_symmetry_multiplicity
 _atom_site_fract_x
 _atom_site_fract_y
 _atom_site_fract_z
 _atom_site_occupancy
  Ba  Ba0  1  1.04642888  1.02641640  0.72076790  1.0
  Ba  Ba1  1  0.20638682  0.72076790  1.02641640  1.0
  Ba  Ba2  1  1.22358360  0.20357112  0.04361318  1.0
  Ba  Ba3  1  1.52923210  0.04361318  0.20357112  1.0
  Ba  Ba4  1  0.72076790  0.20638682  1.04642888  1.0
  Ba  Ba5  1  1.02641640  1.04642888  0.20638682  1.0
  Ba  Ba6  1  1.04361318  0.52923210  0.22358360  1.0
  Ba  Ba7  1  1.20357112  0.22358360  0.52923210  1.0
  Ba  Ba8  1  0.51859649  0.53518081  1.21677315  1.0
  Ba  Ba9  1  0.72944955  1.21677315  0.53518081  1.0
  Ba  Ba10  1  0.71481919  0.73140351  0.52055045  1.0
  Ba  Ba11  1  1.03322685  0.52055045  0.73140351  1.0
  Ba  Ba12  1  1.21677315  0.72944955  0.51859649  1.0
  Ba  Ba13  1  0.53518081  0.51859649  0.72944955  1.0
  Ba  Ba14  1  0.52055045  1.03322685  0.71481919  1.0
  Ba  Ba15  1  0.73140351  0.71481919  1.03322685  1.0
  Li  Li16  1  0.82571517  0.42485650  0.28967322  1.0
  Li  Li17  1  1.45975511  0.28967322  0.42485650  1.0
  Li  Li18  1  0.82514350  0.42428483  0.79024489  1.0
  Li  Li19  1  0.96032678  0.79024489  0.42428483  1.0
  Li  Li20  1  1.28967322  0.45975511  -0.17428483  1.0
  Li  Li21  1  1.42485650  -0.17428483  0.45975511  1.0
  Li  Li22  1  0.79024489  0.96032678  0.82514350  1.0
  Li  Li23  1  0.42428483  0.82514350  0.96032678  1.0
  Si  Si24  1  1.38400651  -0.13853587  0.70823920  1.0
  Si  Si25  1  1.04629016  0.70823920  -0.13853587  1.0
  Si  Si26  1  0.38853587  0.86599349  1.20370984  1.0
  Si  Si27  1  0.54176080  1.20370984  0.86599349  1.0
  Si  Si28  1  1.70823920  0.04629016  0.38400651  1.0
  Si  Si29  1  0.86146413  0.38400651  0.04629016  1.0
  Si  Si30  1  1.20370984  0.54176080  0.38853587  1.0
  Si  Si31  1  0.86599349  0.38853587  0.54176080  1.0
  Si  Si32  1  1.01832224  0.23001976  0.37612151  1.0
  Si  Si33  1  1.37553648  0.37612151  0.23001976  1.0
  Si  Si34  1  1.01998024  0.23167776  0.87446352  1.0
  Si  Si35  1  0.87387849  0.87446352  0.23167776  1.0
  Si  Si36  1  1.37612151  0.37553648  0.01832224  1.0
  Si  Si37  1  1.23001976  0.01832224  0.37553648  1.0
  Si  Si38  1  0.87446352  0.87387849  1.01998024  1.0
  Si  Si39  1  0.23167776  1.01998024  0.87387849  1.0
