# generated using pymatgen
data_MnCoH18(CN2)6
_symmetry_space_group_name_H-M   'P 1'
_cell_length_a   7.52617131
_cell_length_b   7.52617131
_cell_length_c   7.52617131
_cell_angle_alpha   96.97273739
_cell_angle_beta   96.97273739
_cell_angle_gamma   96.97273739
_symmetry_Int_Tables_number   1
_chemical_formula_structural   MnCoH18(CN2)6
_chemical_formula_sum   'Mn1 Co1 H18 C6 N12'
_cell_volume   415.99556607
_cell_formula_units_Z   1
loop_
 _symmetry_equiv_pos_site_id
 _symmetry_equiv_pos_as_xyz
  1  'x, y, z'
loop_
 _atom_site_type_symbol
 _atom_site_label
 _atom_site_symmetry_multiplicity
 _atom_site_fract_x
 _atom_site_fract_y
 _atom_site_fract_z
 _atom_site_occupancy
  Mn  Mn0  1  0.00000000  0.00000000  0.00000000  1.0
  Co  Co1  1  0.50000000  0.50000000  0.50000000  1.0
  H  H2  1  1.56958716  0.64922560  -0.16866126  1.0
  H  H3  1  1.35077440  0.16866126  -0.56958716  1.0
  H  H4  1  1.16866126  -0.56958716  0.35077440  1.0
  H  H5  1  0.43041284  0.35077440  0.16866126  1.0
  H  H6  1  0.64922560  0.83133874  0.56958716  1.0
  H  H7  1  0.83133874  1.56958716  -0.35077440  1.0
  H  H8  1  1.37167889  0.52222234  -0.19807432  1.0
  H  H9  1  0.47777766  1.19807432  -0.37167889  1.0
  H  H10  1  1.19807432  0.62832111  -0.52222234  1.0
  H  H11  1  0.62832111  0.47777766  0.19807432  1.0
  H  H12  1  1.52222234  -0.19807432  0.37167889  1.0
  H  H13  1  0.80192568  0.37167889  0.52222234  1.0
  H  H14  1  1.38943915  0.72162182  -0.26771985  1.0
  H  H15  1  1.27837818  0.26771985  -0.38943915  1.0
  H  H16  1  1.26771985  -0.38943915  0.27837818  1.0
  H  H17  1  0.61056085  0.27837818  0.26771985  1.0
  H  H18  1  0.72162182  0.73228015  0.38943915  1.0
  H  H19  1  0.73228015  1.38943915  -0.27837818  1.0
  C  C20  1  0.85790116  0.78160795  0.05364512  1.0
  C  C21  1  1.21839205  -0.05364512  0.14209884  1.0
  C  C22  1  0.94635488  0.14209884  0.21839205  1.0
  C  C23  1  1.14209884  0.21839205  -0.05364512  1.0
  C  C24  1  0.78160795  1.05364512  -0.14209884  1.0
  C  C25  1  1.05364512  0.85790116  -0.21839205  1.0
  N  N26  1  0.76856336  0.65179864  0.08243460  1.0
  N  N27  1  1.34820136  -0.08243460  0.23143664  1.0
  N  N28  1  0.91756540  0.23143664  0.34820136  1.0
  N  N29  1  1.23143664  0.34820136  -0.08243460  1.0
  N  N30  1  0.65179864  1.08243460  -0.23143664  1.0
  N  N31  1  1.08243460  0.76856336  -0.34820136  1.0
  N  N32  1  1.45399076  0.60980018  -0.25974033  1.0
  N  N33  1  1.39019982  0.25974033  -0.45399076  1.0
  N  N34  1  1.25974033  -0.45399076  0.39019982  1.0
  N  N35  1  0.54600924  0.39019982  0.25974033  1.0
  N  N36  1  0.60980018  0.74025967  0.45399076  1.0
  N  N37  1  0.74025967  1.45399076  -0.39019982  1.0
