# generated using pymatgen
data_ZnHN3O
_symmetry_space_group_name_H-M   'P 1'
_cell_length_a   3.29456404
_cell_length_b   3.29456404
_cell_length_c   14.74838237
_cell_angle_alpha   90.00000000
_cell_angle_beta   90.00000000
_cell_angle_gamma   120.00000000
_symmetry_Int_Tables_number   1
_chemical_formula_structural   ZnHN3O
_chemical_formula_sum   'Zn2 H2 N6 O2'
_cell_volume   138.63437469
_cell_formula_units_Z   2
loop_
 _symmetry_equiv_pos_site_id
 _symmetry_equiv_pos_as_xyz
  1  'x, y, z'
loop_
 _atom_site_type_symbol
 _atom_site_label
 _atom_site_symmetry_multiplicity
 _atom_site_fract_x
 _atom_site_fract_y
 _atom_site_fract_z
 _atom_site_occupancy
  Zn  Zn0  1  0.00000000  -0.00000000  0.52435253  1.0
  Zn  Zn1  1  -0.00000000  -0.00000000  0.02435253  1.0
  H  H2  1  0.33333333  0.66666667  0.64976182  1.0
  H  H3  1  0.66666667  0.33333333  0.14976182  1.0
  N  N4  1  0.66666667  0.33333333  0.43981829  1.0
  N  N5  1  0.33333333  0.66666667  0.93981829  1.0
  N  N6  1  0.66666667  0.33333333  0.35736505  1.0
  N  N7  1  0.33333333  0.66666667  0.85736505  1.0
  N  N8  1  0.66666667  0.33333333  0.27938647  1.0
  N  N9  1  0.33333333  0.66666667  0.77938647  1.0
  O  O10  1  0.33333333  0.66666667  0.58317583  1.0
  O  O11  1  0.66666667  0.33333333  0.08317583  1.0
