# generated using pymatgen
data_Sr2VN3
_symmetry_space_group_name_H-M   'P 1'
_cell_length_a   6.22650448
_cell_length_b   6.22650448
_cell_length_c   12.33034069
_cell_angle_alpha   89.71964316
_cell_angle_beta   90.28035684
_cell_angle_gamma   54.86994740
_symmetry_Int_Tables_number   1
_chemical_formula_structural   Sr2VN3
_chemical_formula_sum   'Sr8 V4 N12'
_cell_volume   390.94151530
_cell_formula_units_Z   4
loop_
 _symmetry_equiv_pos_site_id
 _symmetry_equiv_pos_as_xyz
  1  'x, y, z'
loop_
 _atom_site_type_symbol
 _atom_site_label
 _atom_site_symmetry_multiplicity
 _atom_site_fract_x
 _atom_site_fract_y
 _atom_site_fract_z
 _atom_site_occupancy
  Sr  Sr0  1  0.55441592  0.05165197  0.64546085  1.0
  Sr  Sr1  1  0.94834803  -0.55441592  0.14546085  1.0
  Sr  Sr2  1  1.05165197  -0.44558408  0.85453915  1.0
  Sr  Sr3  1  0.44558407  -0.05165197  0.35453915  1.0
  Sr  Sr4  1  0.35618445  -0.13467403  0.92241973  1.0
  Sr  Sr5  1  1.13467403  -0.35618445  0.42241973  1.0
  Sr  Sr6  1  0.86532597  -0.64381555  0.57758027  1.0
  Sr  Sr7  1  0.64381555  0.13467403  0.07758027  1.0
  V  V8  1  0.74243377  0.25194216  0.83617477  1.0
  V  V9  1  0.74805784  -0.74243377  0.33617477  1.0
  V  V10  1  1.25194216  -0.25756623  0.66382523  1.0
  V  V11  1  0.25756623  -0.25194216  0.16382523  1.0
  N  N12  1  0.67061968  0.15046789  0.45368958  1.0
  N  N13  1  0.84953211  -0.67061968  0.95368958  1.0
  N  N14  1  1.15046789  -0.32938032  0.04631042  1.0
  N  N15  1  0.32938032  -0.15046789  0.54631042  1.0
  N  N16  1  0.56426389  0.11417596  0.86714576  1.0
  N  N17  1  0.88582404  -0.56426389  0.36714576  1.0
  N  N18  1  1.11417596  -0.43573611  0.63285424  1.0
  N  N19  1  0.43573611  -0.11417596  0.13285424  1.0
  N  N20  1  0.02347860  0.02347860  0.75000000  1.0
  N  N21  1  0.97652140  -0.02347860  0.25000000  1.0
  N  N22  1  0.54884273  -0.45115727  0.75000000  1.0
  N  N23  1  0.45115727  0.45115727  0.25000000  1.0
