# generated using pymatgen
data_Mn(BW)2
_symmetry_space_group_name_H-M   'P 1'
_cell_length_a   5.79717052
_cell_length_b   5.79717052
_cell_length_c   3.17823097
_cell_angle_alpha   90.00000000
_cell_angle_beta   90.00000000
_cell_angle_gamma   90.00000000
_symmetry_Int_Tables_number   1
_chemical_formula_structural   Mn(BW)2
_chemical_formula_sum   'Mn2 B4 W4'
_cell_volume   106.81139970
_cell_formula_units_Z   2
loop_
 _symmetry_equiv_pos_site_id
 _symmetry_equiv_pos_as_xyz
  1  'x, y, z'
loop_
 _atom_site_type_symbol
 _atom_site_label
 _atom_site_symmetry_multiplicity
 _atom_site_fract_x
 _atom_site_fract_y
 _atom_site_fract_z
 _atom_site_occupancy
  Mn  Mn0  1  0.50000000  0.50000000  0.00000000  1.0
  Mn  Mn1  1  0.00000000  0.00000000  0.00000000  1.0
  B  B2  1  0.88614184  0.61385816  0.00000000  1.0
  B  B3  1  0.38614184  0.88614184  0.00000000  1.0
  B  B4  1  0.11385816  0.38614184  0.00000000  1.0
  B  B5  1  0.61385816  0.11385816  0.00000000  1.0
  W  W6  1  0.32191413  0.17808587  0.50000000  1.0
  W  W7  1  0.82191413  0.32191413  0.50000000  1.0
  W  W8  1  0.67808587  0.82191413  0.50000000  1.0
  W  W9  1  0.17808587  0.67808587  0.50000000  1.0
