# generated using pymatgen
data_TiFeSi2
_symmetry_space_group_name_H-M   'P 1'
_cell_length_a   8.57274420
_cell_length_b   9.52741037
_cell_length_c   7.58006297
_cell_angle_alpha   90.00000000
_cell_angle_beta   90.00000000
_cell_angle_gamma   90.00000000
_symmetry_Int_Tables_number   1
_chemical_formula_structural   TiFeSi2
_chemical_formula_sum   'Ti12 Fe12 Si24'
_cell_volume   619.10961791
_cell_formula_units_Z   12
loop_
 _symmetry_equiv_pos_site_id
 _symmetry_equiv_pos_as_xyz
  1  'x, y, z'
loop_
 _atom_site_type_symbol
 _atom_site_label
 _atom_site_symmetry_multiplicity
 _atom_site_fract_x
 _atom_site_fract_y
 _atom_site_fract_z
 _atom_site_occupancy
  Ti  Ti0  1  0.16767538  0.82026758  0.00000000  1.0
  Ti  Ti1  1  0.66767538  0.67973242  0.00000000  1.0
  Ti  Ti2  1  0.83232462  0.17973242  0.00000000  1.0
  Ti  Ti3  1  0.33232462  0.32026758  0.00000000  1.0
  Ti  Ti4  1  0.17415330  0.54876332  0.76151241  1.0
  Ti  Ti5  1  0.17415330  0.54876332  0.23848759  1.0
  Ti  Ti6  1  0.67415330  0.95123668  0.76151241  1.0
  Ti  Ti7  1  0.67415330  0.95123668  0.23848759  1.0
  Ti  Ti8  1  0.82584670  0.45123668  0.76151241  1.0
  Ti  Ti9  1  0.82584670  0.45123668  0.23848759  1.0
  Ti  Ti10  1  0.32584670  0.04876332  0.76151241  1.0
  Ti  Ti11  1  0.32584670  0.04876332  0.23848759  1.0
  Fe  Fe12  1  0.50000000  0.50000000  0.75588287  1.0
  Fe  Fe13  1  0.50000000  0.50000000  0.24411713  1.0
  Fe  Fe14  1  0.00000000  0.00000000  0.75588287  1.0
  Fe  Fe15  1  0.00000000  0.00000000  0.24411713  1.0
  Fe  Fe16  1  0.41027426  0.75756062  0.75133296  1.0
  Fe  Fe17  1  0.41027426  0.75756062  0.24866704  1.0
  Fe  Fe18  1  0.91027426  0.74243938  0.75133296  1.0
  Fe  Fe19  1  0.91027426  0.74243938  0.24866704  1.0
  Fe  Fe20  1  0.58972574  0.24243938  0.75133296  1.0
  Fe  Fe21  1  0.58972574  0.24243938  0.24866704  1.0
  Fe  Fe22  1  0.08972574  0.25756062  0.75133296  1.0
  Fe  Fe23  1  0.08972574  0.25756062  0.24866704  1.0
  Si  Si24  1  0.16148553  0.81878342  0.65537623  1.0
  Si  Si25  1  0.16148553  0.81878342  0.34462377  1.0
  Si  Si26  1  0.66148553  0.68121658  0.65537623  1.0
  Si  Si27  1  0.66148553  0.68121658  0.34462377  1.0
  Si  Si28  1  0.83851447  0.18121658  0.65537623  1.0
  Si  Si29  1  0.83851447  0.18121658  0.34462377  1.0
  Si  Si30  1  0.33851447  0.31878342  0.65537623  1.0
  Si  Si31  1  0.33851447  0.31878342  0.34462377  1.0
  Si  Si32  1  0.37449634  0.60399552  0.00000000  1.0
  Si  Si33  1  0.87449634  0.89600448  0.00000000  1.0
  Si  Si34  1  0.62550366  0.39600448  0.00000000  1.0
  Si  Si35  1  0.12550366  0.10399552  0.00000000  1.0
  Si  Si36  1  0.46141851  0.88023275  0.00000000  1.0
  Si  Si37  1  0.96141851  0.61976725  0.00000000  1.0
  Si  Si38  1  0.53858149  0.11976725  0.00000000  1.0
  Si  Si39  1  0.03858149  0.38023275  0.00000000  1.0
  Si  Si40  1  0.37856117  0.59900184  0.50000000  1.0
  Si  Si41  1  0.87856117  0.90099816  0.50000000  1.0
  Si  Si42  1  0.62143883  0.40099816  0.50000000  1.0
  Si  Si43  1  0.12143883  0.09900184  0.50000000  1.0
  Si  Si44  1  0.45935970  0.87817452  0.50000000  1.0
  Si  Si45  1  0.95935970  0.62182548  0.50000000  1.0
  Si  Si46  1  0.54064030  0.12182548  0.50000000  1.0
  Si  Si47  1  0.04064030  0.37817452  0.50000000  1.0
