# generated using pymatgen
data_Ag3BO3
_symmetry_space_group_name_H-M   'P 1'
_cell_length_a   7.40282599
_cell_length_b   7.40282599
_cell_length_c   7.40282599
_cell_angle_alpha   84.17066067
_cell_angle_beta   84.17066067
_cell_angle_gamma   84.17066067
_symmetry_Int_Tables_number   1
_chemical_formula_structural   Ag3BO3
_chemical_formula_sum   'Ag12 B4 O12'
_cell_volume   399.79326464
_cell_formula_units_Z   4
loop_
 _symmetry_equiv_pos_site_id
 _symmetry_equiv_pos_as_xyz
  1  'x, y, z'
loop_
 _atom_site_type_symbol
 _atom_site_label
 _atom_site_symmetry_multiplicity
 _atom_site_fract_x
 _atom_site_fract_y
 _atom_site_fract_z
 _atom_site_occupancy
  Ag  Ag0  1  0.12549279  0.61999412  -0.37266242  1.0
  Ag  Ag1  1  1.62549279  1.12733758  0.11999412  1.0
  Ag  Ag2  1  0.87266242  -0.11999412  0.37450721  1.0
  Ag  Ag3  1  0.37266242  0.87450721  -0.61999412  1.0
  Ag  Ag4  1  0.38000588  0.37266242  -0.12549279  1.0
  Ag  Ag5  1  0.88000588  0.37450721  -0.12733758  1.0
  Ag  Ag6  1  0.87450721  0.38000588  -0.62733758  1.0
  Ag  Ag7  1  1.37450721  -0.12733758  -0.11999412  1.0
  Ag  Ag8  1  0.62733758  0.12549279  -0.38000588  1.0
  Ag  Ag9  1  1.12733758  1.11999412  0.62549279  1.0
  Ag  Ag10  1  1.11999412  1.62549279  0.12733758  1.0
  Ag  Ag11  1  0.61999412  0.62733758  -0.87450721  1.0
  B  B12  1  0.37527834  0.37527834  -0.62472166  1.0
  B  B13  1  0.87527834  0.87527834  -0.12472166  1.0
  B  B14  1  1.12472166  1.12472166  0.12472166  1.0
  B  B15  1  0.62472166  0.62472166  -0.37527834  1.0
  O  O16  1  0.37030608  0.51784637  -0.76134560  1.0
  O  O17  1  0.87030608  -0.26134560  0.01784637  1.0
  O  O18  1  0.26134560  0.98215363  -0.87030608  1.0
  O  O19  1  0.76134560  0.62969392  -0.51784637  1.0
  O  O20  1  0.48215363  0.76134560  -0.37030608  1.0
  O  O21  1  0.98215363  0.12969392  -0.73865440  1.0
  O  O22  1  0.62969392  0.48215363  -0.23865440  1.0
  O  O23  1  0.12969392  0.26134560  -0.01784637  1.0
  O  O24  1  0.23865440  0.37030608  -0.48215363  1.0
  O  O25  1  0.73865440  0.01784637  -0.12969392  1.0
  O  O26  1  1.01784637  -0.12969392  -0.26134560  1.0
  O  O27  1  0.51784637  0.23865440  -0.62969392  1.0
