# generated using pymatgen
data_MnAg(IO3)4
_symmetry_space_group_name_H-M   'P 1'
_cell_length_a   10.39999143
_cell_length_b   7.86114176
_cell_length_c   7.15368259
_cell_angle_alpha   98.73707854
_cell_angle_beta   105.49084305
_cell_angle_gamma   90.25207850
_symmetry_Int_Tables_number   1
_chemical_formula_structural   MnAg(IO3)4
_chemical_formula_sum   'Mn2 Ag2 I8 O24'
_cell_volume   556.44769711
_cell_formula_units_Z   2
loop_
 _symmetry_equiv_pos_site_id
 _symmetry_equiv_pos_as_xyz
  1  'x, y, z'
loop_
 _atom_site_type_symbol
 _atom_site_label
 _atom_site_symmetry_multiplicity
 _atom_site_fract_x
 _atom_site_fract_y
 _atom_site_fract_z
 _atom_site_occupancy
  Mn  Mn0  1  -0.77980665  -0.99237013  -0.58691394  1.0
  Mn  Mn1  1  -0.22019335  -0.00762987  -0.41308606  1.0
  Ag  Ag2  1  -0.08350323  -0.82729007  -0.90164058  1.0
  Ag  Ag3  1  -0.91649677  -0.17270993  -0.09835942  1.0
  I  I4  1  -0.74392686  -0.69551195  -0.85400349  1.0
  I  I5  1  -0.25607314  -0.30448805  -0.14599651  1.0
  I  I6  1  -0.36040110  -0.73136089  -0.71133821  1.0
  I  I7  1  -0.63959890  -0.26863911  -0.28866179  1.0
  I  I8  1  -0.98951799  -0.66460642  -0.36079529  1.0
  I  I9  1  -0.01048201  -0.33539358  -0.63920471  1.0
  I  I10  1  -0.51235002  -0.76577251  -0.24827510  1.0
  I  I11  1  -0.48764998  -0.23422749  -0.75172490  1.0
  O  O12  1  -0.31362265  -0.72110852  -0.94957617  1.0
  O  O13  1  -0.68637735  -0.27889148  -0.05042383  1.0
  O  O14  1  -0.91370012  -0.60288554  -0.87689635  1.0
  O  O15  1  -0.08629988  -0.39711446  -0.12310365  1.0
  O  O16  1  -0.80857246  -0.92938156  -0.84822372  1.0
  O  O17  1  -0.19142754  -0.07061844  -0.15177628  1.0
  O  O18  1  -0.52715371  -0.85150765  -0.82735464  1.0
  O  O19  1  -0.47284629  -0.14849235  -0.17264536  1.0
  O  O20  1  -0.50485552  -0.47453368  -0.76863755  1.0
  O  O21  1  -0.49514448  -0.52546632  -0.23136245  1.0
  O  O22  1  -0.90354173  -0.18060671  -0.73046738  1.0
  O  O23  1  -0.09645827  -0.81939329  -0.26953262  1.0
  O  O24  1  -0.25549687  -0.93268060  -0.66194814  1.0
  O  O25  1  -0.74450313  -0.06731940  -0.33805186  1.0
  O  O26  1  -0.94187160  -0.82570027  -0.55157198  1.0
  O  O27  1  -0.05812840  -0.17429973  -0.44842802  1.0
  O  O28  1  -0.87009538  -0.42783181  -0.44960968  1.0
  O  O29  1  -0.12990462  -0.57216819  -0.55039032  1.0
  O  O30  1  -0.66199166  -0.79222047  -0.48651702  1.0
  O  O31  1  -0.33800834  -0.20777953  -0.51348298  1.0
  O  O32  1  -0.38039374  -0.82452433  -0.38298285  1.0
  O  O33  1  -0.61960626  -0.17547567  -0.61701715  1.0
  O  O34  1  -0.74535341  -0.72044392  -0.11988989  1.0
  O  O35  1  -0.25464659  -0.27955608  -0.88011011  1.0
