# generated using pymatgen
data_Y3AlNi8
_symmetry_space_group_name_H-M   'P 1'
_cell_length_a   5.06965111
_cell_length_b   5.06965111
_cell_length_c   16.08272899
_cell_angle_alpha   90.00000000
_cell_angle_beta   90.00000000
_cell_angle_gamma   120.00000000
_symmetry_Int_Tables_number   1
_chemical_formula_structural   Y3AlNi8
_chemical_formula_sum   'Y6 Al2 Ni16'
_cell_volume   357.96990846
_cell_formula_units_Z   2
loop_
 _symmetry_equiv_pos_site_id
 _symmetry_equiv_pos_as_xyz
  1  'x, y, z'
loop_
 _atom_site_type_symbol
 _atom_site_label
 _atom_site_symmetry_multiplicity
 _atom_site_fract_x
 _atom_site_fract_y
 _atom_site_fract_z
 _atom_site_occupancy
  Y  Y0  1  0.33333333  0.66666667  0.95482499  1.0
  Y  Y1  1  0.33333333  0.66666667  0.54517501  1.0
  Y  Y2  1  0.66666667  0.33333333  0.45482499  1.0
  Y  Y3  1  0.66666667  0.33333333  0.04517501  1.0
  Y  Y4  1  0.33333333  0.66666667  0.75000000  1.0
  Y  Y5  1  0.66666667  0.33333333  0.25000000  1.0
  Al  Al6  1  0.00000000  0.00000000  0.50000000  1.0
  Al  Al7  1  0.00000000  0.00000000  0.00000000  1.0
  Ni  Ni8  1  0.16887194  0.83112806  0.37443570  1.0
  Ni  Ni9  1  0.16887194  0.83112806  0.12556430  1.0
  Ni  Ni10  1  0.16887194  0.33774389  0.37443570  1.0
  Ni  Ni11  1  0.16887194  0.33774389  0.12556430  1.0
  Ni  Ni12  1  0.83112806  0.16887194  0.87443570  1.0
  Ni  Ni13  1  0.83112806  0.16887194  0.62556430  1.0
  Ni  Ni14  1  0.83112806  0.66225611  0.87443570  1.0
  Ni  Ni15  1  0.83112806  0.66225611  0.62556430  1.0
  Ni  Ni16  1  0.66225611  0.83112806  0.37443570  1.0
  Ni  Ni17  1  0.66225611  0.83112806  0.12556430  1.0
  Ni  Ni18  1  0.33774389  0.16887194  0.87443570  1.0
  Ni  Ni19  1  0.33774389  0.16887194  0.62556430  1.0
  Ni  Ni20  1  0.33333333  0.66666667  0.25000000  1.0
  Ni  Ni21  1  0.66666667  0.33333333  0.75000000  1.0
  Ni  Ni22  1  0.00000000  0.00000000  0.25000000  1.0
  Ni  Ni23  1  0.00000000  0.00000000  0.75000000  1.0
