# generated using pymatgen
data_K4Rb2Co2O5
_symmetry_space_group_name_H-M   'P 1'
_cell_length_a   6.81515091
_cell_length_b   6.81515091
_cell_length_c   11.71861806
_cell_angle_alpha   90.00000000
_cell_angle_beta   90.00000000
_cell_angle_gamma   90.00000000
_symmetry_Int_Tables_number   1
_chemical_formula_structural   K4Rb2Co2O5
_chemical_formula_sum   'K8 Rb4 Co4 O10'
_cell_volume   544.28623802
_cell_formula_units_Z   2
loop_
 _symmetry_equiv_pos_site_id
 _symmetry_equiv_pos_as_xyz
  1  'x, y, z'
loop_
 _atom_site_type_symbol
 _atom_site_label
 _atom_site_symmetry_multiplicity
 _atom_site_fract_x
 _atom_site_fract_y
 _atom_site_fract_z
 _atom_site_occupancy
  K  K0  1  0.50000000  0.50000000  0.27926744  1.0
  K  K1  1  0.50000000  0.50000000  0.72073256  1.0
  K  K2  1  0.00000000  0.00000000  0.77926744  1.0
  K  K3  1  0.00000000  0.00000000  0.22073256  1.0
  K  K4  1  0.50000000  0.00000000  0.25000000  1.0
  K  K5  1  0.50000000  0.00000000  0.75000000  1.0
  K  K6  1  0.00000000  0.50000000  0.75000000  1.0
  K  K7  1  0.00000000  0.50000000  0.25000000  1.0
  Rb  Rb8  1  0.19177336  0.19177336  0.50000000  1.0
  Rb  Rb9  1  0.69177336  0.30822664  0.00000000  1.0
  Rb  Rb10  1  0.80822664  0.80822664  0.50000000  1.0
  Rb  Rb11  1  0.30822664  0.69177336  0.00000000  1.0
  Co  Co12  1  0.29368824  0.70631176  0.50000000  1.0
  Co  Co13  1  0.79368824  0.79368824  0.00000000  1.0
  Co  Co14  1  0.70631176  0.29368824  0.50000000  1.0
  Co  Co15  1  0.20631176  0.20631176  0.00000000  1.0
  O  O16  1  0.22130921  0.77869079  0.35809861  1.0
  O  O17  1  0.22130921  0.77869079  0.64190139  1.0
  O  O18  1  0.72130921  0.72130921  0.85809861  1.0
  O  O19  1  0.72130921  0.72130921  0.14190139  1.0
  O  O20  1  0.77869079  0.22130921  0.35809861  1.0
  O  O21  1  0.77869079  0.22130921  0.64190139  1.0
  O  O22  1  0.27869079  0.27869079  0.85809861  1.0
  O  O23  1  0.27869079  0.27869079  0.14190139  1.0
  O  O24  1  0.50000000  0.50000000  0.50000000  1.0
  O  O25  1  0.00000000  0.00000000  0.00000000  1.0
