# generated using pymatgen
data_Ta(CoTe)2
_symmetry_space_group_name_H-M   'P 1'
_cell_length_a   18.80436966
_cell_length_b   6.57103017
_cell_length_c   6.53727847
_cell_angle_alpha   90.00000000
_cell_angle_beta   90.00000000
_cell_angle_gamma   90.00000000
_symmetry_Int_Tables_number   1
_chemical_formula_structural   Ta(CoTe)2
_chemical_formula_sum   'Ta8 Co16 Te16'
_cell_volume   807.77280306
_cell_formula_units_Z   8
loop_
 _symmetry_equiv_pos_site_id
 _symmetry_equiv_pos_as_xyz
  1  'x, y, z'
loop_
 _atom_site_type_symbol
 _atom_site_label
 _atom_site_symmetry_multiplicity
 _atom_site_fract_x
 _atom_site_fract_y
 _atom_site_fract_z
 _atom_site_occupancy
  Ta  Ta0  1  0.76357175  0.25000000  0.15043054  1.0
  Ta  Ta1  1  0.26357175  0.25000000  0.34956946  1.0
  Ta  Ta2  1  0.23642825  0.75000000  0.84956946  1.0
  Ta  Ta3  1  0.73642825  0.75000000  0.65043054  1.0
  Ta  Ta4  1  0.72457546  0.25000000  0.65034777  1.0
  Ta  Ta5  1  0.22457546  0.25000000  0.84965223  1.0
  Ta  Ta6  1  0.27542454  0.75000000  0.34965223  1.0
  Ta  Ta7  1  0.77542454  0.75000000  0.15034777  1.0
  Co  Co8  1  0.81523829  0.46370401  0.45521757  1.0
  Co  Co9  1  0.81523829  0.03629599  0.45521757  1.0
  Co  Co10  1  0.31523829  0.46370401  0.04478243  1.0
  Co  Co11  1  0.31523829  0.03629599  0.04478243  1.0
  Co  Co12  1  0.18476171  0.96370401  0.54478243  1.0
  Co  Co13  1  0.18476171  0.53629599  0.54478243  1.0
  Co  Co14  1  0.68476171  0.96370401  0.95521757  1.0
  Co  Co15  1  0.68476171  0.53629599  0.95521757  1.0
  Co  Co16  1  0.68472762  0.96312150  0.34548265  1.0
  Co  Co17  1  0.68472762  0.53687850  0.34548265  1.0
  Co  Co18  1  0.18472762  0.96312150  0.15451735  1.0
  Co  Co19  1  0.18472762  0.53687850  0.15451735  1.0
  Co  Co20  1  0.31527238  0.46312150  0.65451735  1.0
  Co  Co21  1  0.31527238  0.03687850  0.65451735  1.0
  Co  Co22  1  0.81527238  0.46312150  0.84548265  1.0
  Co  Co23  1  0.81527238  0.03687850  0.84548265  1.0
  Te  Te24  1  0.90043821  0.49832658  0.15024893  1.0
  Te  Te25  1  0.90043821  0.00167342  0.15024893  1.0
  Te  Te26  1  0.40043821  0.49832658  0.34975107  1.0
  Te  Te27  1  0.40043821  0.00167342  0.34975107  1.0
  Te  Te28  1  0.09956179  0.99832658  0.84975107  1.0
  Te  Te29  1  0.09956179  0.50167342  0.84975107  1.0
  Te  Te30  1  0.59956179  0.99832658  0.65024893  1.0
  Te  Te31  1  0.59956179  0.50167342  0.65024893  1.0
  Te  Te32  1  0.90648788  0.25000000  0.64964260  1.0
  Te  Te33  1  0.40648788  0.25000000  0.85035740  1.0
  Te  Te34  1  0.09351212  0.75000000  0.35035740  1.0
  Te  Te35  1  0.59351212  0.75000000  0.14964260  1.0
  Te  Te36  1  0.61325072  0.25000000  0.15139201  1.0
  Te  Te37  1  0.11325072  0.25000000  0.34860799  1.0
  Te  Te38  1  0.38674928  0.75000000  0.84860799  1.0
  Te  Te39  1  0.88674928  0.75000000  0.65139201  1.0
