# generated using pymatgen
data_ReCl4O
_symmetry_space_group_name_H-M   'P 1'
_cell_length_a   14.08612931
_cell_length_b   6.28753580
_cell_length_c   20.34478194
_cell_angle_alpha   90.00000000
_cell_angle_beta   117.18140412
_cell_angle_gamma   90.00000000
_symmetry_Int_Tables_number   1
_chemical_formula_structural   ReCl4O
_chemical_formula_sum   'Re8 Cl32 O8'
_cell_volume   1602.88628468
_cell_formula_units_Z   8
loop_
 _symmetry_equiv_pos_site_id
 _symmetry_equiv_pos_as_xyz
  1  'x, y, z'
loop_
 _atom_site_type_symbol
 _atom_site_label
 _atom_site_symmetry_multiplicity
 _atom_site_fract_x
 _atom_site_fract_y
 _atom_site_fract_z
 _atom_site_occupancy
  Re  Re0  1  0.89994966  0.01164674  0.33132247  1.0
  Re  Re1  1  0.89994966  0.48835326  0.83132247  1.0
  Re  Re2  1  0.10005034  0.51164674  0.16867753  1.0
  Re  Re3  1  0.10005034  0.98835326  0.66867753  1.0
  Re  Re4  1  0.60290630  0.38276888  0.41968884  1.0
  Re  Re5  1  0.60290630  0.11723112  0.91968884  1.0
  Re  Re6  1  0.39709370  0.88276888  0.08031116  1.0
  Re  Re7  1  0.39709370  0.61723112  0.58031116  1.0
  Cl  Cl8  1  0.96767912  0.26987952  0.41994324  1.0
  Cl  Cl9  1  0.96767912  0.23012048  0.91994324  1.0
  Cl  Cl10  1  0.03232088  0.76987952  0.08005676  1.0
  Cl  Cl11  1  0.03232088  0.73012048  0.58005676  1.0
  Cl  Cl12  1  0.93070612  0.37799739  0.11693313  1.0
  Cl  Cl13  1  0.93070612  0.12200261  0.61693313  1.0
  Cl  Cl14  1  0.06929388  0.87799739  0.38306687  1.0
  Cl  Cl15  1  0.06929388  0.62200261  0.88306687  1.0
  Cl  Cl16  1  0.88308191  0.87021205  0.22301474  1.0
  Cl  Cl17  1  0.88308191  0.62978795  0.72301474  1.0
  Cl  Cl18  1  0.11691809  0.37021205  0.27698526  1.0
  Cl  Cl19  1  0.11691809  0.12978795  0.77698526  1.0
  Cl  Cl20  1  0.78369910  0.26654923  0.25921183  1.0
  Cl  Cl21  1  0.78369910  0.23345077  0.75921183  1.0
  Cl  Cl22  1  0.21630090  0.76654923  0.24078817  1.0
  Cl  Cl23  1  0.21630090  0.73345077  0.74078817  1.0
  Cl  Cl24  1  0.71187608  0.64299001  0.49401645  1.0
  Cl  Cl25  1  0.71187608  0.85700999  0.99401645  1.0
  Cl  Cl26  1  0.28812392  0.14299001  0.00598355  1.0
  Cl  Cl27  1  0.28812392  0.35700999  0.50598355  1.0
  Cl  Cl28  1  0.60733906  0.25487065  0.02510907  1.0
  Cl  Cl29  1  0.60733906  0.24512935  0.52510907  1.0
  Cl  Cl30  1  0.39266094  0.75487065  0.47489093  1.0
  Cl  Cl31  1  0.39266094  0.74512935  0.97489093  1.0
  Cl  Cl32  1  0.45785151  0.13566735  0.17089268  1.0
  Cl  Cl33  1  0.45785151  0.36433265  0.67089268  1.0
  Cl  Cl34  1  0.54214849  0.63566735  0.32910732  1.0
  Cl  Cl35  1  0.54214849  0.86433265  0.82910732  1.0
  Cl  Cl36  1  0.43514963  0.24281575  0.36054715  1.0
  Cl  Cl37  1  0.43514963  0.25718425  0.86054715  1.0
  Cl  Cl38  1  0.56485037  0.74281575  0.13945285  1.0
  Cl  Cl39  1  0.56485037  0.75718425  0.63945285  1.0
  O  O40  1  0.82975832  0.85043159  0.35836579  1.0
  O  O41  1  0.82975832  0.64956841  0.85836579  1.0
  O  O42  1  0.17024168  0.35043159  0.14163421  1.0
  O  O43  1  0.17024168  0.14956841  0.64163421  1.0
  O  O44  1  0.68095715  0.22253804  0.39944545  1.0
  O  O45  1  0.68095715  0.27746196  0.89944545  1.0
  O  O46  1  0.31904285  0.72253804  0.10055455  1.0
  O  O47  1  0.31904285  0.77746196  0.60055455  1.0
