# generated using pymatgen
data_SrGe(PO4)2
_symmetry_space_group_name_H-M   'P 1'
_cell_length_a   4.75395991
_cell_length_b   4.75395991
_cell_length_c   7.45082477
_cell_angle_alpha   87.00476712
_cell_angle_beta   92.99523288
_cell_angle_gamma   114.42139914
_symmetry_Int_Tables_number   1
_chemical_formula_structural   SrGe(PO4)2
_chemical_formula_sum   'Sr1 Ge1 P2 O8'
_cell_volume   153.02724335
_cell_formula_units_Z   1
loop_
 _symmetry_equiv_pos_site_id
 _symmetry_equiv_pos_as_xyz
  1  'x, y, z'
loop_
 _atom_site_type_symbol
 _atom_site_label
 _atom_site_symmetry_multiplicity
 _atom_site_fract_x
 _atom_site_fract_y
 _atom_site_fract_z
 _atom_site_occupancy
  Sr  Sr0  1  0.00000000  -0.00000000  0.50000000  1.0
  Ge  Ge1  1  0.00000000  0.00000000  0.00000000  1.0
  P  P2  1  0.63587876  -0.63587876  0.79259290  1.0
  P  P3  1  0.36412124  -0.36412124  0.20740710  1.0
  O  O4  1  1.27386492  0.22926472  0.81212988  1.0
  O  O5  1  0.77073528  -0.27386492  0.81212988  1.0
  O  O6  1  1.22926472  0.27386492  0.18787012  1.0
  O  O7  1  0.72613508  -0.22926472  0.18787012  1.0
  O  O8  1  0.76990069  -0.76990069  0.95064518  1.0
  O  O9  1  0.23009931  -0.23009931  0.04935482  1.0
  O  O10  1  0.69517658  -0.69517658  0.60215239  1.0
  O  O11  1  0.30482342  -0.30482342  0.39784761  1.0
