# generated using pymatgen
data_Ni2ClO3
_symmetry_space_group_name_H-M   'P 1'
_cell_length_a   5.73718857
_cell_length_b   6.23773225
_cell_length_c   8.21981867
_cell_angle_alpha   90.00000000
_cell_angle_beta   90.00000000
_cell_angle_gamma   90.00000000
_symmetry_Int_Tables_number   1
_chemical_formula_structural   Ni2ClO3
_chemical_formula_sum   'Ni8 Cl4 O12'
_cell_volume   294.16303021
_cell_formula_units_Z   4
loop_
 _symmetry_equiv_pos_site_id
 _symmetry_equiv_pos_as_xyz
  1  'x, y, z'
loop_
 _atom_site_type_symbol
 _atom_site_label
 _atom_site_symmetry_multiplicity
 _atom_site_fract_x
 _atom_site_fract_y
 _atom_site_fract_z
 _atom_site_occupancy
  Ni  Ni0  1  0.30836981  0.75000000  0.24502474  1.0
  Ni  Ni1  1  0.80836981  0.75000000  0.25497526  1.0
  Ni  Ni2  1  0.69163019  0.25000000  0.75497526  1.0
  Ni  Ni3  1  0.19163019  0.25000000  0.74502474  1.0
  Ni  Ni4  1  0.50000000  -0.00000000  0.50000000  1.0
  Ni  Ni5  1  0.50000000  0.50000000  0.50000000  1.0
  Ni  Ni6  1  0.00000000  0.00000000  0.00000000  1.0
  Ni  Ni7  1  -0.00000000  0.50000000  0.00000000  1.0
  Cl  Cl8  1  0.32674616  0.75000000  0.97113962  1.0
  Cl  Cl9  1  0.82674616  0.75000000  0.52886038  1.0
  Cl  Cl10  1  0.67325384  0.25000000  0.02886038  1.0
  Cl  Cl11  1  0.17325384  0.25000000  0.47113962  1.0
  O  O12  1  0.44475510  0.44794754  0.72342911  1.0
  O  O13  1  0.44475510  0.05205246  0.72342911  1.0
  O  O14  1  0.94475510  0.44794754  0.77657089  1.0
  O  O15  1  0.94475510  0.05205246  0.77657089  1.0
  O  O16  1  0.55524490  0.94794754  0.27657089  1.0
  O  O17  1  0.55524490  0.55205246  0.27657089  1.0
  O  O18  1  0.05524490  0.94794754  0.22342911  1.0
  O  O19  1  0.05524490  0.55205246  0.22342911  1.0
  O  O20  1  0.31656589  0.75000000  0.47585299  1.0
  O  O21  1  0.81656589  0.75000000  0.02414701  1.0
  O  O22  1  0.68343411  0.25000000  0.52414701  1.0
  O  O23  1  0.18343411  0.25000000  0.97585299  1.0
