# generated using pymatgen
data_La4In5S13
_symmetry_space_group_name_H-M   'P 1'
_cell_length_a   12.03173707
_cell_length_b   21.86820268
_cell_length_c   4.04469163
_cell_angle_alpha   90.00000000
_cell_angle_beta   90.00000000
_cell_angle_gamma   90.00000000
_symmetry_Int_Tables_number   1
_chemical_formula_structural   La4In5S13
_chemical_formula_sum   'La8 In10 S26'
_cell_volume   1064.20878294
_cell_formula_units_Z   2
loop_
 _symmetry_equiv_pos_site_id
 _symmetry_equiv_pos_as_xyz
  1  'x, y, z'
loop_
 _atom_site_type_symbol
 _atom_site_label
 _atom_site_symmetry_multiplicity
 _atom_site_fract_x
 _atom_site_fract_y
 _atom_site_fract_z
 _atom_site_occupancy
  La  La0  1  0.47819095  0.83167429  0.00000000  1.0
  La  La1  1  0.97819095  0.66832571  0.00000000  1.0
  La  La2  1  0.52180905  0.16832571  0.00000000  1.0
  La  La3  1  0.02180905  0.33167429  0.00000000  1.0
  La  La4  1  0.33185410  0.65657668  0.00000000  1.0
  La  La5  1  0.83185410  0.84342332  0.00000000  1.0
  La  La6  1  0.66814590  0.34342332  0.00000000  1.0
  La  La7  1  0.16814590  0.15657668  0.00000000  1.0
  In  In8  1  0.15464399  0.50765224  0.50000000  1.0
  In  In9  1  0.65464399  0.99234776  0.50000000  1.0
  In  In10  1  0.84535601  0.49234776  0.50000000  1.0
  In  In11  1  0.34535601  0.00765224  0.50000000  1.0
  In  In12  1  0.15129504  0.83025842  0.50000000  1.0
  In  In13  1  0.65129504  0.66974158  0.50000000  1.0
  In  In14  1  0.84870496  0.16974158  0.50000000  1.0
  In  In15  1  0.34870496  0.33025842  0.50000000  1.0
  In  In16  1  0.50000000  0.50000000  0.00000000  1.0
  In  In17  1  0.00000000  0.00000000  0.00000000  1.0
  S  S18  1  0.49843565  0.59020309  0.50000000  1.0
  S  S19  1  0.99843565  0.90979691  0.50000000  1.0
  S  S20  1  0.50156435  0.40979691  0.50000000  1.0
  S  S21  1  0.00156435  0.09020309  0.50000000  1.0
  S  S22  1  0.42081516  0.73858642  0.50000000  1.0
  S  S23  1  0.92081516  0.76141358  0.50000000  1.0
  S  S24  1  0.57918484  0.26141358  0.50000000  1.0
  S  S25  1  0.07918484  0.23858642  0.50000000  1.0
  S  S26  1  0.33490203  0.88750011  0.50000000  1.0
  S  S27  1  0.83490203  0.61249989  0.50000000  1.0
  S  S28  1  0.66509797  0.11249989  0.50000000  1.0
  S  S29  1  0.16509797  0.38750011  0.50000000  1.0
  S  S30  1  0.15163165  0.63315244  0.50000000  1.0
  S  S31  1  0.65163165  0.86684756  0.50000000  1.0
  S  S32  1  0.84836835  0.36684756  0.50000000  1.0
  S  S33  1  0.34836835  0.13315244  0.50000000  1.0
  S  S34  1  0.29685973  0.52121340  0.00000000  1.0
  S  S35  1  0.79685973  0.97878660  0.00000000  1.0
  S  S36  1  0.70314027  0.47878660  0.00000000  1.0
  S  S37  1  0.20314027  0.02121340  0.00000000  1.0
  S  S38  1  0.16915823  0.76324427  0.00000000  1.0
  S  S39  1  0.66915823  0.73675573  0.00000000  1.0
  S  S40  1  0.83084177  0.23675573  0.00000000  1.0
  S  S41  1  0.33084177  0.26324427  0.00000000  1.0
  S  S42  1  0.50000000  0.00000000  0.00000000  1.0
  S  S43  1  0.00000000  0.50000000  0.00000000  1.0
