# generated using pymatgen
data_KLiSO4
_symmetry_space_group_name_H-M   'P 1'
_cell_length_a   8.57741498
_cell_length_b   9.06764907
_cell_length_c   5.27233734
_cell_angle_alpha   90.00000000
_cell_angle_beta   90.00000000
_cell_angle_gamma   90.00000000
_symmetry_Int_Tables_number   1
_chemical_formula_structural   KLiSO4
_chemical_formula_sum   'K4 Li4 S4 O16'
_cell_volume   410.06652366
_cell_formula_units_Z   4
loop_
 _symmetry_equiv_pos_site_id
 _symmetry_equiv_pos_as_xyz
  1  'x, y, z'
loop_
 _atom_site_type_symbol
 _atom_site_label
 _atom_site_symmetry_multiplicity
 _atom_site_fract_x
 _atom_site_fract_y
 _atom_site_fract_z
 _atom_site_occupancy
  K  K0  1  0.49665550  0.76525665  0.99988337  1.0
  K  K1  1  0.99665550  0.73474335  0.99988337  1.0
  K  K2  1  0.50334450  0.23474335  0.49988337  1.0
  K  K3  1  0.00334450  0.26525665  0.49988337  1.0
  Li  Li4  1  0.18812024  0.91259291  0.49488633  1.0
  Li  Li5  1  0.68812024  0.58740709  0.49488633  1.0
  Li  Li6  1  0.81187976  0.08740709  -0.00511367  1.0
  Li  Li7  1  0.31187976  0.41259291  -0.00511367  1.0
  S  S8  1  0.29074079  0.57822753  0.49558389  1.0
  S  S9  1  0.79074079  0.92177247  0.49558389  1.0
  S  S10  1  0.70925921  0.42177247  -0.00441611  1.0
  S  S11  1  0.20925921  0.07822753  -0.00441611  1.0
  O  O12  1  0.46397946  0.58674879  0.50818910  1.0
  O  O13  1  0.96397946  0.91325121  0.50818910  1.0
  O  O14  1  0.53602054  0.41325121  1.00818910  1.0
  O  O15  1  0.03602054  0.08674879  1.00818910  1.0
  O  O16  1  0.27041670  0.21533998  0.87305457  1.0
  O  O17  1  0.77041670  0.28466002  0.87305457  1.0
  O  O18  1  0.72958330  0.78466002  0.37305457  1.0
  O  O19  1  0.22958330  0.71533998  0.37305457  1.0
  O  O20  1  0.25744911  0.94696922  0.84079241  1.0
  O  O21  1  0.75744911  0.55303078  0.84079241  1.0
  O  O22  1  0.74255089  0.05303078  0.34079241  1.0
  O  O23  1  0.24255089  0.44696922  0.34079241  1.0
  O  O24  1  0.22640222  0.56265055  0.75891033  1.0
  O  O25  1  0.72640222  0.93734945  0.75891033  1.0
  O  O26  1  0.77359778  0.43734945  0.25891033  1.0
  O  O27  1  0.27359778  0.06265055  0.25891033  1.0
