# generated using pymatgen
data_LaNi2AsN
_symmetry_space_group_name_H-M   'P 1'
_cell_length_a   6.01133847
_cell_length_b   6.01133847
_cell_length_c   7.00022262
_cell_angle_alpha   90.00000000
_cell_angle_beta   90.00000000
_cell_angle_gamma   143.90564453
_symmetry_Int_Tables_number   1
_chemical_formula_structural   LaNi2AsN
_chemical_formula_sum   'La2 Ni4 As2 N2'
_cell_volume   149.02378478
_cell_formula_units_Z   2
loop_
 _symmetry_equiv_pos_site_id
 _symmetry_equiv_pos_as_xyz
  1  'x, y, z'
loop_
 _atom_site_type_symbol
 _atom_site_label
 _atom_site_symmetry_multiplicity
 _atom_site_fract_x
 _atom_site_fract_y
 _atom_site_fract_z
 _atom_site_occupancy
  La  La0  1  -0.46233683  0.46233683  0.25000000  1.0
  La  La1  1  0.46233683  0.53766317  0.75000000  1.0
  Ni  Ni2  1  -0.16696240  0.16696240  0.44748744  1.0
  Ni  Ni3  1  0.16696240  0.83303760  0.55251256  1.0
  Ni  Ni4  1  -0.16696240  0.16696240  0.05251256  1.0
  Ni  Ni5  1  0.16696240  0.83303760  0.94748744  1.0
  As  As6  1  0.26767330  0.73232670  0.25000000  1.0
  As  As7  1  -0.26767330  0.26767330  0.75000000  1.0
  N  N8  1  0.00000000  0.00000000  0.50000000  1.0
  N  N9  1  0.00000000  0.00000000  0.00000000  1.0
