# generated using pymatgen
data_CoPO4
_symmetry_space_group_name_H-M   'P 1'
_cell_length_a   9.11199195
_cell_length_b   8.29749778
_cell_length_c   10.10316010
_cell_angle_alpha   90.00000000
_cell_angle_beta   90.00000000
_cell_angle_gamma   90.00000000
_symmetry_Int_Tables_number   1
_chemical_formula_structural   CoPO4
_chemical_formula_sum   'Co8 P8 O32'
_cell_volume   763.86692790
_cell_formula_units_Z   8
loop_
 _symmetry_equiv_pos_site_id
 _symmetry_equiv_pos_as_xyz
  1  'x, y, z'
loop_
 _atom_site_type_symbol
 _atom_site_label
 _atom_site_symmetry_multiplicity
 _atom_site_fract_x
 _atom_site_fract_y
 _atom_site_fract_z
 _atom_site_occupancy
  Co  Co0  1  0.40573979  0.14306097  0.04929775  1.0
  Co  Co1  1  0.90573979  0.85693903  0.04929775  1.0
  Co  Co2  1  0.59426021  0.85693903  0.54929775  1.0
  Co  Co3  1  0.09426021  0.14306097  0.54929775  1.0
  Co  Co4  1  0.09557750  0.14326993  0.19747910  1.0
  Co  Co5  1  0.59557750  0.85673007  0.19747910  1.0
  Co  Co6  1  0.90442250  0.85673007  0.69747910  1.0
  Co  Co7  1  0.40442250  0.14326993  0.69747910  1.0
  O  O8  1  1.00128365  0.03380837  0.37397365  1.0
  O  O9  1  0.50128365  0.96619163  0.37397365  1.0
  O  O10  1  -0.00128365  0.96619163  0.87397365  1.0
  O  O11  1  0.49871635  0.03380837  0.87397365  1.0
  O  O12  1  0.88608107  0.10547412  0.64835848  1.0
  O  O13  1  0.38608107  0.89452588  0.64835848  1.0
  O  O14  1  0.11391893  0.89452588  0.14835848  1.0
  O  O15  1  0.61391893  0.10547412  0.14835848  1.0
  O  O16  1  0.31237719  0.14935068  0.24616148  1.0
  O  O17  1  0.81237719  0.85064932  0.24616148  1.0
  O  O18  1  0.68762281  0.85064932  0.74616148  1.0
  O  O19  1  0.18762281  0.14935068  0.74616148  1.0
  O  O20  1  0.25016960  0.61378790  0.13757444  1.0
  O  O21  1  0.75016960  0.38621210  0.13757444  1.0
  O  O22  1  0.74983040  0.38621210  0.63757444  1.0
  O  O23  1  0.24983040  0.61378790  0.63757444  1.0
  O  O24  1  0.18827692  0.15097145  0.00031819  1.0
  O  O25  1  0.68827692  0.84902855  0.00031819  1.0
  O  O26  1  0.81172308  0.84902855  0.50031819  1.0
  O  O27  1  0.31172308  0.15097145  0.50031819  1.0
  O  O28  1  0.88676095  0.10857041  0.09961951  1.0
  O  O29  1  0.38676095  0.89142959  0.09961951  1.0
  O  O30  1  0.11323905  0.89142959  0.59961951  1.0
  O  O31  1  0.61323905  0.10857041  0.59961951  1.0
  O  O32  1  0.05965739  0.32995727  0.23334717  1.0
  O  O33  1  0.55965739  0.67004273  0.23334717  1.0
  O  O34  1  0.94034261  0.67004273  0.73334717  1.0
  O  O35  1  0.44034261  0.32995727  0.73334717  1.0
  O  O36  1  0.44430895  0.32988766  0.01472544  1.0
  O  O37  1  0.94430895  0.67011234  0.01472544  1.0
  O  O38  1  0.55569105  0.67011234  0.51472544  1.0
  O  O39  1  0.05569105  0.32988766  0.51472544  1.0
  P  P40  1  0.41021863  0.13099206  0.37359273  1.0
  P  P41  1  0.91021863  0.86900794  0.37359273  1.0
  P  P42  1  0.58978137  0.86900794  0.87359273  1.0
  P  P43  1  0.08978137  0.13099206  0.87359273  1.0
  P  P44  1  0.75036756  0.21026332  0.12865208  1.0
  P  P45  1  0.25036756  0.78973668  0.12865208  1.0
  P  P46  1  0.24963244  0.78973668  0.62865208  1.0
  P  P47  1  0.74963244  0.21026332  0.62865208  1.0
