# generated using pymatgen
data_YB2Os
_symmetry_space_group_name_H-M   'P 1'
_cell_length_a   5.90288405
_cell_length_b   5.31729789
_cell_length_c   6.37885624
_cell_angle_alpha   90.00000000
_cell_angle_beta   90.00000000
_cell_angle_gamma   90.00000000
_symmetry_Int_Tables_number   1
_chemical_formula_structural   YB2Os
_chemical_formula_sum   'Y4 B8 Os4'
_cell_volume   200.21566679
_cell_formula_units_Z   4
loop_
 _symmetry_equiv_pos_site_id
 _symmetry_equiv_pos_as_xyz
  1  'x, y, z'
loop_
 _atom_site_type_symbol
 _atom_site_label
 _atom_site_symmetry_multiplicity
 _atom_site_fract_x
 _atom_site_fract_y
 _atom_site_fract_z
 _atom_site_occupancy
  Y  Y0  1  0.98933263  0.75000000  0.66503272  1.0
  Y  Y1  1  0.48933263  0.75000000  0.83496728  1.0
  Y  Y2  1  0.01066737  0.25000000  0.33496728  1.0
  Y  Y3  1  0.51066737  0.25000000  0.16503272  1.0
  B  B4  1  0.63643477  0.91733530  0.46076022  1.0
  B  B5  1  0.63643477  0.58266470  0.46076022  1.0
  B  B6  1  0.13643477  0.91733530  0.03923978  1.0
  B  B7  1  0.13643477  0.58266470  0.03923978  1.0
  B  B8  1  0.36356523  0.41733530  0.53923978  1.0
  B  B9  1  0.36356523  0.08266470  0.53923978  1.0
  B  B10  1  0.86356523  0.41733530  0.96076022  1.0
  B  B11  1  0.86356523  0.08266470  0.96076022  1.0
  Os  Os12  1  0.82360554  0.75000000  0.18055455  1.0
  Os  Os13  1  0.32360554  0.75000000  0.31944545  1.0
  Os  Os14  1  0.17639446  0.25000000  0.81944545  1.0
  Os  Os15  1  0.67639446  0.25000000  0.68055455  1.0
