# generated using pymatgen
data_C6S4N2OF
_symmetry_space_group_name_H-M   'P 1'
_cell_length_a   5.34922664
_cell_length_b   5.34922664
_cell_length_c   16.34763985
_cell_angle_alpha   90.00000000
_cell_angle_beta   90.00000000
_cell_angle_gamma   98.32692651
_symmetry_Int_Tables_number   1
_chemical_formula_structural   C6S4N2OF
_chemical_formula_sum   'C12 S8 N4 O2 F2'
_cell_volume   462.84369616
_cell_formula_units_Z   2
loop_
 _symmetry_equiv_pos_site_id
 _symmetry_equiv_pos_as_xyz
  1  'x, y, z'
loop_
 _atom_site_type_symbol
 _atom_site_label
 _atom_site_symmetry_multiplicity
 _atom_site_fract_x
 _atom_site_fract_y
 _atom_site_fract_z
 _atom_site_occupancy
  C  C0  1  0.12931368  0.87068632  0.14303581  1.0
  C  C1  1  -0.12931368  1.12931368  0.64303581  1.0
  C  C2  1  0.16691133  0.83308867  0.22630739  1.0
  C  C3  1  -0.16691133  1.16691133  0.72630739  1.0
  C  C4  1  0.25802161  0.74197839  0.08236589  1.0
  C  C5  1  -0.25802161  1.25802161  0.58236589  1.0
  C  C6  1  0.32854621  0.67145379  0.25363726  1.0
  C  C7  1  -0.32854621  1.32854621  0.75363726  1.0
  C  C8  1  0.43420994  0.56579006  0.10607055  1.0
  C  C9  1  -0.43420994  1.43420994  0.60607055  1.0
  C  C10  1  0.46335609  0.53664391  0.19548168  1.0
  C  C11  1  -0.46335609  1.46335609  0.69548168  1.0
  S  S12  1  -0.01770607  1.01770607  0.48609499  1.0
  S  S13  1  0.01770607  0.98229393  0.98609499  1.0
  S  S14  1  0.07194065  0.92805935  0.60691147  1.0
  S  S15  1  -0.07194065  1.07194065  0.10691147  1.0
  S  S16  1  0.38390692  0.61609308  0.35644030  1.0
  S  S17  1  -0.38390692  1.38390692  0.85644030  1.0
  S  S18  1  -0.36295074  1.36295074  0.32333601  1.0
  S  S19  1  0.36295074  0.63704926  0.82333601  1.0
  N  N20  1  0.21429557  0.78570443  0.00385428  1.0
  N  N21  1  -0.21429557  1.21429557  0.50385428  1.0
  N  N22  1  -0.38386947  1.38386947  0.22511637  1.0
  N  N23  1  0.38386947  0.61613053  0.72511637  1.0
  O  O24  1  -0.45132427  1.45132427  0.05496640  1.0
  O  O25  1  0.45132427  0.54867573  0.55496640  1.0
  F  F26  1  0.04017031  0.95982969  0.28178160  1.0
  F  F27  1  -0.04017031  1.04017031  0.78178160  1.0
