# generated using pymatgen
data_C6NF5
_symmetry_space_group_name_H-M   'P 1'
_cell_length_a   10.39548345
_cell_length_b   10.39548345
_cell_length_c   9.11215618
_cell_angle_alpha   90.11650499
_cell_angle_beta   89.88349501
_cell_angle_gamma   134.32763624
_symmetry_Int_Tables_number   1
_chemical_formula_structural   C6NF5
_chemical_formula_sum   'C24 N4 F20'
_cell_volume   704.41982074
_cell_formula_units_Z   4
loop_
 _symmetry_equiv_pos_site_id
 _symmetry_equiv_pos_as_xyz
  1  'x, y, z'
loop_
 _atom_site_type_symbol
 _atom_site_label
 _atom_site_symmetry_multiplicity
 _atom_site_fract_x
 _atom_site_fract_y
 _atom_site_fract_z
 _atom_site_occupancy
  C  C0  1  0.91724273  -0.45356263  0.63797099  1.0
  C  C1  1  1.54643737  -0.08275727  0.86202901  1.0
  C  C2  1  1.08275727  -0.54643737  0.36202901  1.0
  C  C3  1  1.45356263  0.08275727  0.13797099  1.0
  C  C4  1  0.74782861  -0.55768012  0.70703965  1.0
  C  C5  1  1.44231988  -0.25217139  0.79296035  1.0
  C  C6  1  1.25217139  -0.44231988  0.29296035  1.0
  C  C7  1  1.55768012  0.25217139  0.20703965  1.0
  C  C8  1  0.71716317  -0.48870927  0.81687296  1.0
  C  C9  1  1.51129073  -0.28283683  0.68312704  1.0
  C  C10  1  1.28283683  -0.51129073  0.18312704  1.0
  C  C11  1  1.48870927  0.28283683  0.31687296  1.0
  C  C12  1  0.85712434  -0.31061661  0.86165078  1.0
  C  C13  1  1.68938339  -0.14287566  0.63834922  1.0
  C  C14  1  1.14287566  -0.68938339  0.13834922  1.0
  C  C15  1  1.31061661  0.14287566  0.36165078  1.0
  C  C16  1  1.02602410  -0.20298507  0.79543814  1.0
  C  C17  1  1.79701493  0.02602410  0.70456186  1.0
  C  C18  1  0.97397590  -0.79701493  0.20456186  1.0
  C  C19  1  1.20298507  -0.02602410  0.29543814  1.0
  C  C20  1  1.05574559  -0.27296249  0.68568345  1.0
  C  C21  1  1.72703751  0.05574559  0.81431655  1.0
  C  C22  1  0.94425441  -0.72703751  0.31431655  1.0
  C  C23  1  1.27296249  -0.05574559  0.18568345  1.0
  N  N24  1  0.92401866  -0.54472577  0.53062773  1.0
  N  N25  1  1.45527423  -0.07598134  0.96937227  1.0
  N  N26  1  1.07598134  -0.45527423  0.46937227  1.0
  N  N27  1  1.54472577  0.07598134  0.03062773  1.0
  F  F28  1  1.60989490  0.27012571  0.66700189  1.0
  F  F29  1  1.27012571  -0.39010510  0.83299811  1.0
  F  F30  1  1.39010510  -0.27012571  0.33299811  1.0
  F  F31  1  0.72987429  -0.60989490  0.16700189  1.0
  F  F32  1  1.55423253  0.40802095  0.88014530  1.0
  F  F33  1  1.40802095  -0.44576747  0.61985470  1.0
  F  F34  1  1.44576747  -0.40802095  0.11985470  1.0
  F  F35  1  0.59197905  -0.55423253  0.38014530  1.0
  F  F36  1  0.82976036  -0.24232000  0.96789492  1.0
  F  F37  1  1.75768000  -0.17023964  0.53210508  1.0
  F  F38  1  1.17023964  -0.75768000  0.03210508  1.0
  F  F39  1  1.24232000  0.17023964  0.46789492  1.0
  F  F40  1  1.15978070  -0.03095191  0.83898333  1.0
  F  F41  1  0.96904809  -0.84021930  0.66101667  1.0
  F  F42  1  1.84021930  0.03095191  0.16101667  1.0
  F  F43  1  1.03095191  -0.15978070  0.33898333  1.0
  F  F44  1  1.22143437  -0.16110705  0.62683608  1.0
  F  F45  1  0.83889295  -0.77856563  0.87316392  1.0
  F  F46  1  1.77856563  0.16110705  0.37316392  1.0
  F  F47  1  1.16110705  -0.22143437  0.12683608  1.0
