# generated using pymatgen
data_Mg13Ir3
_symmetry_space_group_name_H-M   'P 1'
_cell_length_a   9.71866982
_cell_length_b   9.71866982
_cell_length_c   9.71866982
_cell_angle_alpha   111.96530209
_cell_angle_beta   111.96530209
_cell_angle_gamma   111.96530209
_symmetry_Int_Tables_number   1
_chemical_formula_structural   Mg13Ir3
_chemical_formula_sum   'Mg26 Ir6'
_cell_volume   633.05887575
_cell_formula_units_Z   2
loop_
 _symmetry_equiv_pos_site_id
 _symmetry_equiv_pos_as_xyz
  1  'x, y, z'
loop_
 _atom_site_type_symbol
 _atom_site_label
 _atom_site_symmetry_multiplicity
 _atom_site_fract_x
 _atom_site_fract_y
 _atom_site_fract_z
 _atom_site_occupancy
  Mg  Mg0  1  0.77770891  0.09675650  -0.11019436  1.0
  Mg  Mg1  1  0.27770891  0.38980564  -0.40324350  1.0
  Mg  Mg2  1  0.61019436  0.40324350  -0.27770891  1.0
  Mg  Mg3  1  0.11019436  0.22229109  -0.09675650  1.0
  Mg  Mg4  1  0.90324350  1.11019436  0.22229109  1.0
  Mg  Mg5  1  1.40324350  0.72229109  0.61019436  1.0
  Mg  Mg6  1  1.22229109  -0.09675650  0.11019436  1.0
  Mg  Mg7  1  0.72229109  0.61019436  0.40324350  1.0
  Mg  Mg8  1  0.88980564  0.77770891  0.09675650  1.0
  Mg  Mg9  1  1.38980564  -0.40324350  0.27770891  1.0
  Mg  Mg10  1  1.59675650  0.27770891  0.38980564  1.0
  Mg  Mg11  1  1.09675650  0.88980564  0.77770891  1.0
  Mg  Mg12  1  1.11857721  0.75000000  0.38142279  1.0
  Mg  Mg13  1  0.61857721  0.88142279  0.25000000  1.0
  Mg  Mg14  1  0.25000000  0.61857721  -0.11857721  1.0
  Mg  Mg15  1  0.75000000  0.38142279  0.11857721  1.0
  Mg  Mg16  1  1.88142279  0.25000000  0.61857721  1.0
  Mg  Mg17  1  0.38142279  0.11857721  -0.25000000  1.0
  Mg  Mg18  1  1.50000000  -0.00000000  0.50000000  1.0
  Mg  Mg19  1  1.00000000  1.00000000  0.50000000  1.0
  Mg  Mg20  1  1.00000000  -0.50000000  -0.00000000  1.0
  Mg  Mg21  1  0.50000000  0.50000000  -0.00000000  1.0
  Mg  Mg22  1  1.00000000  0.50000000  0.50000000  1.0
  Mg  Mg23  1  0.50000000  -0.00000000  -0.00000000  1.0
  Mg  Mg24  1  0.75000000  0.75000000  0.75000000  1.0
  Mg  Mg25  1  0.25000000  0.25000000  0.25000000  1.0
  Ir  Ir26  1  0.57761584  0.75000000  -0.07761584  1.0
  Ir  Ir27  1  1.07761584  0.42238416  0.25000000  1.0
  Ir  Ir28  1  1.25000000  1.07761584  0.42238416  1.0
  Ir  Ir29  1  0.75000000  0.92238416  0.57761584  1.0
  Ir  Ir30  1  0.42238416  0.25000000  0.07761584  1.0
  Ir  Ir31  1  0.92238416  -0.42238416  -0.25000000  1.0
