# generated using pymatgen
data_Li(YbGe)4
_symmetry_space_group_name_H-M   'P 1'
_cell_length_a   7.12857858
_cell_length_b   14.71614603
_cell_length_c   7.76445730
_cell_angle_alpha   90.00000000
_cell_angle_beta   90.00000000
_cell_angle_gamma   90.00000000
_symmetry_Int_Tables_number   1
_chemical_formula_structural   Li(YbGe)4
_chemical_formula_sum   'Li4 Yb16 Ge16'
_cell_volume   814.53197217
_cell_formula_units_Z   4
loop_
 _symmetry_equiv_pos_site_id
 _symmetry_equiv_pos_as_xyz
  1  'x, y, z'
loop_
 _atom_site_type_symbol
 _atom_site_label
 _atom_site_symmetry_multiplicity
 _atom_site_fract_x
 _atom_site_fract_y
 _atom_site_fract_z
 _atom_site_occupancy
  Li  Li0  1  0.34114309  0.25000000  0.02569406  1.0
  Li  Li1  1  0.84114309  0.25000000  0.47430594  1.0
  Li  Li2  1  0.65885692  0.75000000  0.97430594  1.0
  Li  Li3  1  0.15885692  0.75000000  0.52569406  1.0
  Yb  Yb4  1  0.49094791  0.90501820  0.68444286  1.0
  Yb  Yb5  1  0.49094791  0.59498180  0.68444286  1.0
  Yb  Yb6  1  0.99094791  0.90501820  0.81555714  1.0
  Yb  Yb7  1  0.99094791  0.59498180  0.81555714  1.0
  Yb  Yb8  1  0.50905209  0.40501820  0.31555714  1.0
  Yb  Yb9  1  0.50905209  0.09498180  0.31555714  1.0
  Yb  Yb10  1  0.00905209  0.40501820  0.18444286  1.0
  Yb  Yb11  1  0.00905209  0.09498180  0.18444286  1.0
  Yb  Yb12  1  0.17195052  0.37200482  0.67525481  1.0
  Yb  Yb13  1  0.17195052  0.12799518  0.67525481  1.0
  Yb  Yb14  1  0.67195052  0.37200482  0.82474519  1.0
  Yb  Yb15  1  0.67195052  0.12799518  0.82474519  1.0
  Yb  Yb16  1  0.82804948  0.87200482  0.32474519  1.0
  Yb  Yb17  1  0.82804948  0.62799518  0.32474519  1.0
  Yb  Yb18  1  0.32804948  0.87200482  0.17525481  1.0
  Yb  Yb19  1  0.32804948  0.62799518  0.17525481  1.0
  Ge  Ge20  1  0.33557398  0.46294215  0.96744423  1.0
  Ge  Ge21  1  0.33557398  0.03705785  0.96744423  1.0
  Ge  Ge22  1  0.83557398  0.46294215  0.53255577  1.0
  Ge  Ge23  1  0.83557398  0.03705785  0.53255577  1.0
  Ge  Ge24  1  0.66442602  0.96294215  0.03255577  1.0
  Ge  Ge25  1  0.66442602  0.53705785  0.03255577  1.0
  Ge  Ge26  1  0.16442602  0.96294215  0.46744423  1.0
  Ge  Ge27  1  0.16442602  0.53705785  0.46744423  1.0
  Ge  Ge28  1  0.48322115  0.25000000  0.58322942  1.0
  Ge  Ge29  1  0.98322115  0.25000000  0.91677058  1.0
  Ge  Ge30  1  0.51677885  0.75000000  0.41677058  1.0
  Ge  Ge31  1  0.01677885  0.75000000  0.08322942  1.0
  Ge  Ge32  1  0.21943582  0.25000000  0.36171978  1.0
  Ge  Ge33  1  0.71943582  0.25000000  0.13828022  1.0
  Ge  Ge34  1  0.78056418  0.75000000  0.63828022  1.0
  Ge  Ge35  1  0.28056418  0.75000000  0.86171978  1.0
