# generated using pymatgen
data_NaTeF5
_symmetry_space_group_name_H-M   'P 1'
_cell_length_a   10.49758637
_cell_length_b   6.06980930
_cell_length_c   7.61336078
_cell_angle_alpha   90.00000000
_cell_angle_beta   90.00000000
_cell_angle_gamma   90.00000000
_symmetry_Int_Tables_number   1
_chemical_formula_structural   NaTeF5
_chemical_formula_sum   'Na4 Te4 F20'
_cell_volume   485.11076646
_cell_formula_units_Z   4
loop_
 _symmetry_equiv_pos_site_id
 _symmetry_equiv_pos_as_xyz
  1  'x, y, z'
loop_
 _atom_site_type_symbol
 _atom_site_label
 _atom_site_symmetry_multiplicity
 _atom_site_fract_x
 _atom_site_fract_y
 _atom_site_fract_z
 _atom_site_occupancy
  Na  Na0  1  0.50354683  0.75000000  0.67727869  1.0
  Na  Na1  1  0.00354683  0.75000000  0.82272131  1.0
  Na  Na2  1  0.49645317  0.25000000  0.32272131  1.0
  Na  Na3  1  0.99645317  0.25000000  0.17727869  1.0
  Te  Te4  1  0.23333442  0.75000000  0.35570038  1.0
  Te  Te5  1  0.73333442  0.75000000  0.14429962  1.0
  Te  Te6  1  0.76666558  0.25000000  0.64429962  1.0
  Te  Te7  1  0.26666558  0.25000000  0.85570038  1.0
  F  F8  1  0.40299224  0.01534145  0.84579385  1.0
  F  F9  1  0.40299224  0.48465855  0.84579385  1.0
  F  F10  1  0.90299224  0.01534145  0.65420615  1.0
  F  F11  1  0.90299224  0.48465855  0.65420615  1.0
  F  F12  1  0.59700776  0.51534145  0.15420615  1.0
  F  F13  1  0.59700776  0.98465855  0.15420615  1.0
  F  F14  1  0.09700776  0.51534145  0.34579385  1.0
  F  F15  1  0.09700776  0.98465855  0.34579385  1.0
  F  F16  1  0.86331279  0.97727391  0.05032997  1.0
  F  F17  1  0.86331279  0.52272609  0.05032997  1.0
  F  F18  1  0.36331279  0.97727391  0.44967003  1.0
  F  F19  1  0.36331279  0.52272609  0.44967003  1.0
  F  F20  1  0.13668721  0.47727391  0.94967003  1.0
  F  F21  1  0.13668721  0.02272609  0.94967003  1.0
  F  F22  1  0.63668721  0.47727391  0.55032997  1.0
  F  F23  1  0.63668721  0.02272609  0.55032997  1.0
  F  F24  1  0.18581071  0.75000000  0.60660565  1.0
  F  F25  1  0.68581071  0.75000000  0.89339435  1.0
  F  F26  1  0.81418929  0.25000000  0.39339435  1.0
  F  F27  1  0.31418929  0.25000000  0.10660565  1.0
