# generated using pymatgen
data_Rb
_symmetry_space_group_name_H-M   'P 1'
_cell_length_a   4.92909075
_cell_length_b   4.78898353
_cell_length_c   15.89509082
_cell_angle_alpha   90.00000000
_cell_angle_beta   90.00000000
_cell_angle_gamma   90.00000000
_symmetry_Int_Tables_number   1
_chemical_formula_structural   Rb
_chemical_formula_sum   Rb4
_cell_volume   375.20893427
_cell_formula_units_Z   4
loop_
 _symmetry_equiv_pos_site_id
 _symmetry_equiv_pos_as_xyz
  1  'x, y, z'
loop_
 _atom_site_type_symbol
 _atom_site_label
 _atom_site_symmetry_multiplicity
 _atom_site_fract_x
 _atom_site_fract_y
 _atom_site_fract_z
 _atom_site_occupancy
  Rb  Rb0  1  0.75063851  0.25000000  0.38161193  1.0
  Rb  Rb1  1  0.74936149  0.75000000  0.88161193  1.0
  Rb  Rb2  1  0.25063851  0.25000000  0.11838807  1.0
  Rb  Rb3  1  0.24936149  0.75000000  0.61838807  1.0
