# generated using pymatgen
data_Ti(FeO2)2
_symmetry_space_group_name_H-M   'P 1'
_cell_length_a   6.01912543
_cell_length_b   6.01912543
_cell_length_c   6.01912543
_cell_angle_alpha   60.00000000
_cell_angle_beta   60.00000000
_cell_angle_gamma   60.00000000
_symmetry_Int_Tables_number   1
_chemical_formula_structural   Ti(FeO2)2
_chemical_formula_sum   'Ti2 Fe4 O8'
_cell_volume   154.20028687
_cell_formula_units_Z   2
loop_
 _symmetry_equiv_pos_site_id
 _symmetry_equiv_pos_as_xyz
  1  'x, y, z'
loop_
 _atom_site_type_symbol
 _atom_site_label
 _atom_site_symmetry_multiplicity
 _atom_site_fract_x
 _atom_site_fract_y
 _atom_site_fract_z
 _atom_site_occupancy
  Ti  Ti0  1  0.75000000  0.75000000  0.75000000  1.0
  Ti  Ti1  1  0.50000000  -0.50000000  0.50000000  1.0
  Fe  Fe2  1  0.12500000  0.12500000  0.12500000  1.0
  Fe  Fe3  1  0.12500000  1.62500000  0.12500000  1.0
  Fe  Fe4  1  0.62500000  1.12500000  0.12500000  1.0
  Fe  Fe5  1  0.12500000  0.12500000  1.62500000  1.0
  O  O6  1  0.87545333  0.87545333  0.87545333  1.0
  O  O7  1  0.37454667  0.87635998  0.37454667  1.0
  O  O8  1  0.87545333  -0.62635998  0.87545333  1.0
  O  O9  1  -0.62635998  0.87545333  0.87545333  1.0
  O  O10  1  -0.12364002  1.37454667  0.37454667  1.0
  O  O11  1  0.37454667  1.37454667  0.37454667  1.0
  O  O12  1  0.37454667  1.37454667  -0.12364002  1.0
  O  O13  1  0.87545333  0.87545333  -0.62635998  1.0
