# generated using pymatgen
data_H2SeO4
_symmetry_space_group_name_H-M   'P 1'
_cell_length_a   4.69467746
_cell_length_b   8.45639787
_cell_length_c   9.31903940
_cell_angle_alpha   90.00000000
_cell_angle_beta   90.00000000
_cell_angle_gamma   90.00000000
_symmetry_Int_Tables_number   1
_chemical_formula_structural   H2SeO4
_chemical_formula_sum   'H8 Se4 O16'
_cell_volume   369.96642751
_cell_formula_units_Z   4
loop_
 _symmetry_equiv_pos_site_id
 _symmetry_equiv_pos_as_xyz
  1  'x, y, z'
loop_
 _atom_site_type_symbol
 _atom_site_label
 _atom_site_symmetry_multiplicity
 _atom_site_fract_x
 _atom_site_fract_y
 _atom_site_fract_z
 _atom_site_occupancy
  H  H0  1  0.73165254  0.96112633  0.52820347  1.0
  H  H1  1  0.23165254  0.53887367  0.47179653  1.0
  H  H2  1  0.26834746  0.46112633  -0.02820347  1.0
  H  H3  1  0.76834746  0.03887367  1.02820347  1.0
  H  H4  1  0.32816724  0.77985478  0.21148915  1.0
  H  H5  1  0.82816724  0.72014522  0.78851085  1.0
  H  H6  1  0.67183276  0.27985478  0.28851085  1.0
  H  H7  1  0.17183276  0.22014522  0.71148915  1.0
  Se  Se8  1  0.17561664  0.96209772  0.63047828  1.0
  Se  Se9  1  0.67561664  0.53790228  0.36952172  1.0
  Se  Se10  1  0.82438336  0.46209772  0.86952172  1.0
  Se  Se11  1  0.32438336  0.03790228  0.13047828  1.0
  O  O12  1  0.43966443  0.87150781  0.55104437  1.0
  O  O13  1  0.93966443  0.62849219  0.44895563  1.0
  O  O14  1  0.56033557  0.37150781  0.94895563  1.0
  O  O15  1  0.06033557  0.12849219  0.05104437  1.0
  O  O16  1  0.42096220  0.48286929  0.49419696  1.0
  O  O17  1  0.92096220  0.01713071  0.50580304  1.0
  O  O18  1  0.57903780  0.98286929  1.00580304  1.0
  O  O19  1  0.07903780  0.51713071  -0.00580304  1.0
  O  O20  1  0.17705341  0.85945378  0.18134893  1.0
  O  O21  1  0.67705341  0.64054622  0.81865107  1.0
  O  O22  1  0.82294659  0.35945378  0.31865107  1.0
  O  O23  1  0.32294659  0.14054622  0.68134893  1.0
  O  O24  1  0.02879794  0.87341065  0.76736863  1.0
  O  O25  1  0.52879794  0.62658935  0.23263137  1.0
  O  O26  1  0.97120206  0.37341065  0.73263137  1.0
  O  O27  1  0.47120206  0.12658935  0.26736863  1.0
