# generated using pymatgen
data_Yb6WO12
_symmetry_space_group_name_H-M   'P 1'
_cell_length_a   6.41558712
_cell_length_b   6.41558712
_cell_length_c   6.41558712
_cell_angle_alpha   98.61070801
_cell_angle_beta   98.61070801
_cell_angle_gamma   98.61070801
_symmetry_Int_Tables_number   1
_chemical_formula_structural   Yb6WO12
_chemical_formula_sum   'Yb6 W1 O12'
_cell_volume   254.11128046
_cell_formula_units_Z   1
loop_
 _symmetry_equiv_pos_site_id
 _symmetry_equiv_pos_as_xyz
  1  'x, y, z'
loop_
 _atom_site_type_symbol
 _atom_site_label
 _atom_site_symmetry_multiplicity
 _atom_site_fract_x
 _atom_site_fract_y
 _atom_site_fract_z
 _atom_site_occupancy
  W  W0  1  0.00000000  -0.00000000  0.00000000  1.0
  O  O1  1  0.70270922  1.03368739  -0.07629232  1.0
  O  O2  1  0.96631261  0.07629232  0.29729078  1.0
  O  O3  1  1.07629232  0.29729078  -0.03368739  1.0
  O  O4  1  1.29729078  -0.03368739  0.07629232  1.0
  O  O5  1  1.03368739  0.92370768  -0.29729078  1.0
  O  O6  1  0.92370768  0.70270922  0.03368739  1.0
  O  O7  1  1.40974543  0.56881590  -0.17715619  1.0
  O  O8  1  0.43118410  1.17715619  -0.40974543  1.0
  O  O9  1  1.17715619  0.59025457  -0.56881590  1.0
  O  O10  1  0.59025457  0.43118410  0.17715619  1.0
  O  O11  1  1.56881590  -0.17715619  0.40974543  1.0
  O  O12  1  0.82284381  0.40974543  0.56881590  1.0
  Yb  Yb13  1  0.85866751  0.68891748  0.39104802  1.0
  Yb  Yb14  1  1.31108252  -0.39104802  0.14133249  1.0
  Yb  Yb15  1  0.60895198  0.14133249  0.31108252  1.0
  Yb  Yb16  1  1.14133249  0.31108252  -0.39104802  1.0
  Yb  Yb17  1  0.68891748  1.39104802  -0.14133249  1.0
  Yb  Yb18  1  1.39104802  0.85866751  -0.31108252  1.0
