# generated using pymatgen
data_Nb2O5
_symmetry_space_group_name_H-M   'P 1'
_cell_length_a   6.90374171
_cell_length_b   6.90374171
_cell_length_c   5.64253300
_cell_angle_alpha   77.15207352
_cell_angle_beta   102.84792648
_cell_angle_gamma   138.03583293
_symmetry_Int_Tables_number   1
_chemical_formula_structural   Nb2O5
_chemical_formula_sum   'Nb4 O10'
_cell_volume   174.65176530
_cell_formula_units_Z   2
loop_
 _symmetry_equiv_pos_site_id
 _symmetry_equiv_pos_as_xyz
  1  'x, y, z'
loop_
 _atom_site_type_symbol
 _atom_site_label
 _atom_site_symmetry_multiplicity
 _atom_site_fract_x
 _atom_site_fract_y
 _atom_site_fract_z
 _atom_site_occupancy
  Nb  Nb0  1  1.61610721  -0.10169607  0.74553320  1.0
  Nb  Nb1  1  1.10169607  -0.61610721  0.24553320  1.0
  Nb  Nb2  1  0.89830393  -0.38389279  0.75446680  1.0
  Nb  Nb3  1  1.38389279  0.10169607  0.25446680  1.0
  O  O4  1  1.27230517  -0.13804150  0.62824731  1.0
  O  O5  1  1.13804150  -0.27230517  0.12824731  1.0
  O  O6  1  0.86195850  -0.72769483  0.87175269  1.0
  O  O7  1  1.72769483  0.13804150  0.37175269  1.0
  O  O8  1  1.56127742  0.33794497  0.98253704  1.0
  O  O9  1  0.66205503  -0.56127742  0.48253704  1.0
  O  O10  1  1.33794497  -0.43872258  0.51746296  1.0
  O  O11  1  1.43872258  -0.33794497  0.01746296  1.0
  O  O12  1  0.88782278  0.88782278  0.75000000  1.0
  O  O13  1  0.11217722  0.11217722  0.25000000  1.0
