# generated using pymatgen
data_Li2Sc(PO4)2
_symmetry_space_group_name_H-M   'P 1'
_cell_length_a   5.03553346
_cell_length_b   8.43287418
_cell_length_c   8.41400156
_cell_angle_alpha   90.00000000
_cell_angle_beta   116.55384926
_cell_angle_gamma   90.00000000
_symmetry_Int_Tables_number   1
_chemical_formula_structural   Li2Sc(PO4)2
_chemical_formula_sum   'Li4 Sc2 P4 O16'
_cell_volume   319.60320995
_cell_formula_units_Z   2
loop_
 _symmetry_equiv_pos_site_id
 _symmetry_equiv_pos_as_xyz
  1  'x, y, z'
loop_
 _atom_site_type_symbol
 _atom_site_label
 _atom_site_symmetry_multiplicity
 _atom_site_fract_x
 _atom_site_fract_y
 _atom_site_fract_z
 _atom_site_occupancy
  P  P0  1  0.66246450  0.16303821  0.25810759  1.0
  P  P1  1  0.66246450  0.33696179  0.75810759  1.0
  P  P2  1  0.33753550  0.66303821  0.24189241  1.0
  P  P3  1  0.33753550  0.83696179  0.74189241  1.0
  O  O4  1  0.81610271  0.32751764  0.30035566  1.0
  O  O5  1  0.81610271  0.17248236  0.80035567  1.0
  O  O6  1  0.18389729  0.82751764  0.19964434  1.0
  O  O7  1  0.18389729  0.67248236  0.69964434  1.0
  O  O8  1  0.77234705  0.06491222  0.14278764  1.0
  O  O9  1  0.77234705  0.43508778  0.64278764  1.0
  O  O10  1  0.22765295  0.56491222  0.35721236  1.0
  O  O11  1  0.22765295  0.93508778  0.85721236  1.0
  O  O12  1  0.31845390  0.18018342  0.16064984  1.0
  O  O13  1  0.31845390  0.31981658  0.66064984  1.0
  O  O14  1  0.68154610  0.68018342  0.33935016  1.0
  O  O15  1  0.68154610  0.81981658  0.83935016  1.0
  O  O16  1  0.74414078  0.06525036  0.43093271  1.0
  O  O17  1  0.74414078  0.43474964  0.93093271  1.0
  O  O18  1  0.25585922  0.56525036  0.06906729  1.0
  O  O19  1  0.25585922  0.93474964  0.56906729  1.0
  Sc  Sc20  1  -0.00000000  0.50000000  0.50000000  1.0
  Sc  Sc21  1  0.00000000  -0.00000000  0.00000000  1.0
  Li  Li22  1  0.93814012  0.87450845  0.33811492  1.0
  Li  Li23  1  0.93814012  0.62549155  0.83811492  1.0
  Li  Li24  1  0.06185988  0.37450845  0.16188508  1.0
  Li  Li25  1  0.06185988  0.12549155  0.66188508  1.0
