# generated using pymatgen
data_P2Se5
_symmetry_space_group_name_H-M   'P 1'
_cell_length_a   7.18844847
_cell_length_b   22.21201549
_cell_length_c   6.11590258
_cell_angle_alpha   90.00000000
_cell_angle_beta   114.00025259
_cell_angle_gamma   90.00000000
_symmetry_Int_Tables_number   1
_chemical_formula_structural   P2Se5
_chemical_formula_sum   'P8 Se20'
_cell_volume   892.09889298
_cell_formula_units_Z   4
loop_
 _symmetry_equiv_pos_site_id
 _symmetry_equiv_pos_as_xyz
  1  'x, y, z'
loop_
 _atom_site_type_symbol
 _atom_site_label
 _atom_site_symmetry_multiplicity
 _atom_site_fract_x
 _atom_site_fract_y
 _atom_site_fract_z
 _atom_site_occupancy
  P  P0  1  0.78099242  0.94797967  0.69774148  1.0
  P  P1  1  0.78099242  0.55202033  0.19774148  1.0
  P  P2  1  0.21900758  0.44797967  0.80225852  1.0
  P  P3  1  0.21900758  0.05202033  0.30225852  1.0
  P  P4  1  0.77629301  0.66425818  0.81937213  1.0
  P  P5  1  0.77629301  0.83574182  0.31937213  1.0
  P  P6  1  0.22370699  0.16425818  0.68062787  1.0
  P  P7  1  0.22370699  0.33574182  0.18062787  1.0
  Se  Se8  1  0.94527272  0.31329804  0.84275171  1.0
  Se  Se9  1  0.94527272  0.18670196  0.34275171  1.0
  Se  Se10  1  0.05472728  0.81329804  0.65724829  1.0
  Se  Se11  1  0.05472728  0.68670196  0.15724829  1.0
  Se  Se12  1  0.93773769  0.39504424  0.57477488  1.0
  Se  Se13  1  0.93773769  0.10495576  0.07477488  1.0
  Se  Se14  1  0.06226231  0.89504424  0.92522512  1.0
  Se  Se15  1  0.06226231  0.60495576  0.42522512  1.0
  Se  Se16  1  0.77693903  0.56157009  0.82496836  1.0
  Se  Se17  1  0.77693903  0.93842991  0.32496836  1.0
  Se  Se18  1  0.22306097  0.06157009  0.67503164  1.0
  Se  Se19  1  0.22306097  0.43842991  0.17503164  1.0
  Se  Se20  1  0.50028330  0.89552639  0.66217299  1.0
  Se  Se21  1  0.50028330  0.60447361  0.16217299  1.0
  Se  Se22  1  0.49971670  0.39552639  0.83782701  1.0
  Se  Se23  1  0.49971670  0.10447361  0.33782701  1.0
  Se  Se24  1  0.50060782  0.68597149  0.89614475  1.0
  Se  Se25  1  0.50060782  0.81402851  0.39614475  1.0
  Se  Se26  1  0.49939218  0.18597149  0.60385525  1.0
  Se  Se27  1  0.49939218  0.31402851  0.10385525  1.0
