# generated using pymatgen
data_Y2Pt2Pb
_symmetry_space_group_name_H-M   'P 1'
_cell_length_a   7.93590770
_cell_length_b   7.93590770
_cell_length_c   3.61382080
_cell_angle_alpha   90.00000000
_cell_angle_beta   90.00000000
_cell_angle_gamma   90.00000000
_symmetry_Int_Tables_number   1
_chemical_formula_structural   Y2Pt2Pb
_chemical_formula_sum   'Y4 Pt4 Pb2'
_cell_volume   227.59348696
_cell_formula_units_Z   2
loop_
 _symmetry_equiv_pos_site_id
 _symmetry_equiv_pos_as_xyz
  1  'x, y, z'
loop_
 _atom_site_type_symbol
 _atom_site_label
 _atom_site_symmetry_multiplicity
 _atom_site_fract_x
 _atom_site_fract_y
 _atom_site_fract_z
 _atom_site_occupancy
  Y  Y0  1  0.33064434  0.16935566  0.50000000  1.0
  Y  Y1  1  0.83064434  0.33064434  0.50000000  1.0
  Y  Y2  1  0.66935566  0.83064434  0.50000000  1.0
  Y  Y3  1  0.16935566  0.66935566  0.50000000  1.0
  Pt  Pt4  1  0.87326061  0.62673939  0.00000000  1.0
  Pt  Pt5  1  0.37326061  0.87326061  0.00000000  1.0
  Pt  Pt6  1  0.12673939  0.37326061  0.00000000  1.0
  Pt  Pt7  1  0.62673939  0.12673939  0.00000000  1.0
  Pb  Pb8  1  0.50000000  0.50000000  0.00000000  1.0
  Pb  Pb9  1  0.00000000  0.00000000  0.00000000  1.0
