# generated using pymatgen
data_BaMnF5
_symmetry_space_group_name_H-M   'P 1'
_cell_length_a   5.42816671
_cell_length_b   5.76699854
_cell_length_c   14.24032551
_cell_angle_alpha   90.00000000
_cell_angle_beta   90.00000000
_cell_angle_gamma   90.00000000
_symmetry_Int_Tables_number   1
_chemical_formula_structural   BaMnF5
_chemical_formula_sum   'Ba4 Mn4 F20'
_cell_volume   445.78241719
_cell_formula_units_Z   4
loop_
 _symmetry_equiv_pos_site_id
 _symmetry_equiv_pos_as_xyz
  1  'x, y, z'
loop_
 _atom_site_type_symbol
 _atom_site_label
 _atom_site_symmetry_multiplicity
 _atom_site_fract_x
 _atom_site_fract_y
 _atom_site_fract_z
 _atom_site_occupancy
  Ba  Ba0  1  0.76074007  0.63942768  0.65711190  1.0
  Ba  Ba1  1  0.26074007  0.86057232  0.34288810  1.0
  Ba  Ba2  1  0.23925993  0.13942768  0.84288810  1.0
  Ba  Ba3  1  0.73925993  0.36057232  0.15711190  1.0
  Mn  Mn4  1  0.17865473  0.86936386  0.08894921  1.0
  Mn  Mn5  1  0.67865473  0.63063614  0.91105079  1.0
  Mn  Mn6  1  0.82134527  0.36936386  0.41105079  1.0
  Mn  Mn7  1  0.32134527  0.13063614  0.58894921  1.0
  F  F8  1  0.40214006  0.84581272  0.98799635  1.0
  F  F9  1  0.90214006  0.65418728  0.01200365  1.0
  F  F10  1  0.59785994  0.34581272  0.51200365  1.0
  F  F11  1  0.09785994  0.15418728  0.48799635  1.0
  F  F12  1  0.45353203  0.86901630  0.53169912  1.0
  F  F13  1  0.95353203  0.63098370  0.46830088  1.0
  F  F14  1  0.54646797  0.36901630  0.96830088  1.0
  F  F15  1  0.04646797  0.13098370  0.03169912  1.0
  F  F16  1  0.43855997  0.61643991  0.81549893  1.0
  F  F17  1  0.93855997  0.88356009  0.18450107  1.0
  F  F18  1  0.56144003  0.11643991  0.68450107  1.0
  F  F19  1  0.06144003  0.38356009  0.31549893  1.0
  F  F20  1  0.20455772  0.40203391  0.64337523  1.0
  F  F21  1  0.70455772  0.09796609  0.35662477  1.0
  F  F22  1  0.79544228  0.90203391  0.85662477  1.0
  F  F23  1  0.29544228  0.59796609  0.14337523  1.0
  F  F24  1  0.10218399  0.94104644  0.67956257  1.0
  F  F25  1  0.60218399  0.55895356  0.32043743  1.0
  F  F26  1  0.89781601  0.44104644  0.82043743  1.0
  F  F27  1  0.39781601  0.05895356  0.17956257  1.0
