# generated using pymatgen
data_KAg2
_symmetry_space_group_name_H-M   'P 1'
_cell_length_a   5.90500820
_cell_length_b   5.90500820
_cell_length_c   9.99513829
_cell_angle_alpha   90.00000000
_cell_angle_beta   90.00000000
_cell_angle_gamma   120.00000000
_symmetry_Int_Tables_number   1
_chemical_formula_structural   KAg2
_chemical_formula_sum   'K4 Ag8'
_cell_volume   301.82864120
_cell_formula_units_Z   4
loop_
 _symmetry_equiv_pos_site_id
 _symmetry_equiv_pos_as_xyz
  1  'x, y, z'
loop_
 _atom_site_type_symbol
 _atom_site_label
 _atom_site_symmetry_multiplicity
 _atom_site_fract_x
 _atom_site_fract_y
 _atom_site_fract_z
 _atom_site_occupancy
  K  K0  1  0.33333333  0.66666667  0.93833756  1.0
  K  K1  1  0.33333333  0.66666667  0.56166244  1.0
  K  K2  1  0.66666667  0.33333333  0.43833756  1.0
  K  K3  1  0.66666667  0.33333333  0.06166244  1.0
  Ag  Ag4  1  0.16516990  0.83483010  0.25000000  1.0
  Ag  Ag5  1  0.16516990  0.33033980  0.25000000  1.0
  Ag  Ag6  1  0.83483010  0.16516990  0.75000000  1.0
  Ag  Ag7  1  0.83483010  0.66966020  0.75000000  1.0
  Ag  Ag8  1  0.66966020  0.83483010  0.25000000  1.0
  Ag  Ag9  1  0.33033980  0.16516990  0.75000000  1.0
  Ag  Ag10  1  0.00000000  0.00000000  0.50000000  1.0
  Ag  Ag11  1  0.00000000  0.00000000  0.00000000  1.0
