# generated using pymatgen
data_Sr6YCr(BO3)6
_symmetry_space_group_name_H-M   'P 1'
_cell_length_a   7.75495212
_cell_length_b   7.75495212
_cell_length_c   7.75495212
_cell_angle_alpha   105.38090105
_cell_angle_beta   105.38090105
_cell_angle_gamma   105.38090105
_symmetry_Int_Tables_number   1
_chemical_formula_structural   Sr6YCr(BO3)6
_chemical_formula_sum   'Sr6 Y1 Cr1 B6 O18'
_cell_volume   404.33411776
_cell_formula_units_Z   1
loop_
 _symmetry_equiv_pos_site_id
 _symmetry_equiv_pos_as_xyz
  1  'x, y, z'
loop_
 _atom_site_type_symbol
 _atom_site_label
 _atom_site_symmetry_multiplicity
 _atom_site_fract_x
 _atom_site_fract_y
 _atom_site_fract_z
 _atom_site_occupancy
  Sr  Sr0  1  0.76827723  0.66422993  0.15091978  1.0
  Sr  Sr1  1  1.33577007  -0.15091978  0.23172277  1.0
  Sr  Sr2  1  0.84908022  0.23172277  0.33577007  1.0
  Sr  Sr3  1  1.23172277  0.33577007  -0.15091978  1.0
  Sr  Sr4  1  0.66422993  1.15091978  -0.23172277  1.0
  Sr  Sr5  1  1.15091978  0.76827723  -0.33577007  1.0
  Y  Y6  1  0.50000000  0.50000000  0.50000000  1.0
  Cr  Cr7  1  0.00000000  0.00000000  0.00000000  1.0
  B  B8  1  1.54997325  0.79553303  -0.12010263  1.0
  B  B9  1  1.20446697  0.12010263  -0.54997325  1.0
  B  B10  1  1.12010263  -0.54997325  0.20446697  1.0
  B  B11  1  0.45002675  0.20446697  0.12010263  1.0
  B  B12  1  0.79553303  0.87989737  0.54997325  1.0
  B  B13  1  0.87989737  1.54997325  -0.20446697  1.0
  O  O14  1  0.73183391  0.92863745  0.00254938  1.0
  O  O15  1  1.07136255  -0.00254938  -0.73183391  1.0
  O  O16  1  0.99745062  -0.73183391  0.07136255  1.0
  O  O17  1  0.26816609  0.07136255  -0.00254938  1.0
  O  O18  1  0.92863745  1.00254938  -0.26816609  1.0
  O  O19  1  1.00254938  0.73183391  -0.07136255  1.0
  O  O20  1  1.48684673  0.77467029  -0.31279297  1.0
  O  O21  1  1.22532971  0.31279297  -0.48684673  1.0
  O  O22  1  1.31279297  -0.48684673  0.22532971  1.0
  O  O23  1  0.51315327  0.22532971  0.31279297  1.0
  O  O24  1  0.77467029  0.68720703  0.48684673  1.0
  O  O25  1  0.68720703  1.48684673  -0.22532971  1.0
  O  O26  1  0.56700277  0.30376354  0.04640197  1.0
  O  O27  1  0.69623646  0.95359803  0.43299723  1.0
  O  O28  1  0.95359803  1.43299723  -0.30376354  1.0
  O  O29  1  1.43299723  0.69623646  -0.04640197  1.0
  O  O30  1  1.30376354  0.04640197  -0.43299723  1.0
  O  O31  1  1.04640197  -0.43299723  0.30376354  1.0
