# generated using pymatgen
data_Cu4PbSe4(BrO6)2
_symmetry_space_group_name_H-M   'P 1'
_cell_length_a   11.26201367
_cell_length_b   11.26201367
_cell_length_c   9.05750552
_cell_angle_alpha   79.78754091
_cell_angle_beta   100.21245909
_cell_angle_gamma   135.18300502
_symmetry_Int_Tables_number   1
_chemical_formula_structural   Cu4PbSe4(BrO6)2
_chemical_formula_sum   'Cu8 Pb2 Se8 Br4 O24'
_cell_volume   794.68852889
_cell_formula_units_Z   2
loop_
 _symmetry_equiv_pos_site_id
 _symmetry_equiv_pos_as_xyz
  1  'x, y, z'
loop_
 _atom_site_type_symbol
 _atom_site_label
 _atom_site_symmetry_multiplicity
 _atom_site_fract_x
 _atom_site_fract_y
 _atom_site_fract_z
 _atom_site_occupancy
  Cu  Cu0  1  0.84045994  -0.50867416  0.98972155  1.0
  Cu  Cu1  1  1.49132584  -0.15954006  0.51027845  1.0
  Cu  Cu2  1  1.15954006  -0.49132584  0.01027845  1.0
  Cu  Cu3  1  1.50867416  0.15954006  0.48972155  1.0
  Cu  Cu4  1  1.38587557  0.11836759  0.08888942  1.0
  Cu  Cu5  1  1.11836759  -0.61412443  0.41111058  1.0
  Cu  Cu6  1  1.61412443  -0.11836759  0.91111058  1.0
  Cu  Cu7  1  0.88163241  -0.38587557  0.58888942  1.0
  Pb  Pb8  1  0.00501127  0.00501127  0.75000000  1.0
  Pb  Pb9  1  0.99498873  0.99498873  0.25000000  1.0
  Se  Se10  1  1.19740579  -0.16274914  0.84157529  1.0
  Se  Se11  1  0.83725086  -0.80259421  0.65842471  1.0
  Se  Se12  1  1.80259421  0.16274914  0.15842471  1.0
  Se  Se13  1  1.16274914  -0.19740579  0.34157529  1.0
  Se  Se14  1  1.55064312  0.29843260  0.77571002  1.0
  Se  Se15  1  1.29843260  -0.44935688  0.72428998  1.0
  Se  Se16  1  1.44935688  -0.29843260  0.22428998  1.0
  Se  Se17  1  0.70156740  -0.55064312  0.27571002  1.0
  Br  Br18  1  1.73565538  -0.23518799  0.51553544  1.0
  Br  Br19  1  0.76481201  -0.26434462  0.98446456  1.0
  Br  Br20  1  1.26434462  0.23518799  0.48446456  1.0
  Br  Br21  1  1.23518799  -0.73565538  0.01553544  1.0
  O  O22  1  1.58877869  0.28332509  0.97752499  1.0
  O  O23  1  1.28332509  -0.41122131  0.52247501  1.0
  O  O24  1  1.41122131  -0.28332509  0.02247501  1.0
  O  O25  1  0.71667491  -0.58877869  0.47752499  1.0
  O  O26  1  1.08441595  -0.32055804  0.98236852  1.0
  O  O27  1  1.67944196  0.08441595  0.51763148  1.0
  O  O28  1  0.91558405  -0.67944196  0.01763148  1.0
  O  O29  1  1.32055804  -0.08441595  0.48236852  1.0
  O  O30  1  1.53111372  0.15150603  0.71251460  1.0
  O  O31  1  1.15150603  -0.46888628  0.78748540  1.0
  O  O32  1  1.46888628  -0.15150603  0.28748540  1.0
  O  O33  1  0.84849397  -0.53111372  0.21251460  1.0
  O  O34  1  1.04771238  -0.19236192  0.71037219  1.0
  O  O35  1  1.80763808  0.04771239  0.78962781  1.0
  O  O36  1  0.95228762  -0.80763808  0.28962781  1.0
  O  O37  1  1.19236192  -0.04771238  0.21037219  1.0
  O  O38  1  0.77360045  -0.52343451  0.77343419  1.0
  O  O39  1  1.47656549  -0.22639955  0.72656581  1.0
  O  O40  1  1.22639955  -0.47656549  0.22656581  1.0
  O  O41  1  1.52343451  0.22639955  0.27343419  1.0
  O  O42  1  1.25549966  0.01351425  0.90452264  1.0
  O  O43  1  1.01351425  -0.74450034  0.59547736  1.0
  O  O44  1  1.74450034  -0.01351425  0.09547736  1.0
  O  O45  1  0.98648575  -0.25549966  0.40452264  1.0
