# generated using pymatgen
data_Se
_symmetry_space_group_name_H-M   'P 1'
_cell_length_a   6.63248862
_cell_length_b   6.63248862
_cell_length_c   6.63248862
_cell_angle_alpha   112.48182726
_cell_angle_beta   112.48182726
_cell_angle_gamma   112.48182726
_symmetry_Int_Tables_number   1
_chemical_formula_structural   Se
_chemical_formula_sum   Se6
_cell_volume   195.61252607
_cell_formula_units_Z   6
loop_
 _symmetry_equiv_pos_site_id
 _symmetry_equiv_pos_as_xyz
  1  'x, y, z'
loop_
 _atom_site_type_symbol
 _atom_site_label
 _atom_site_symmetry_multiplicity
 _atom_site_fract_x
 _atom_site_fract_y
 _atom_site_fract_z
 _atom_site_occupancy
  Se  Se0  1  0.88607374  0.26737328  0.13896031  1.0
  Se  Se1  1  0.86103969  1.11392626  -0.26737328  1.0
  Se  Se2  1  0.73262672  -0.13896031  0.11392626  1.0
  Se  Se3  1  1.11392626  0.73262672  0.86103969  1.0
  Se  Se4  1  1.13896031  0.88607374  0.26737328  1.0
  Se  Se5  1  0.26737328  0.13896031  -0.11392626  1.0
