# generated using pymatgen
data_Eu2Re6S11
_symmetry_space_group_name_H-M   'P 1'
_cell_length_a   11.76788864
_cell_length_b   11.76788864
_cell_length_c   11.76788864
_cell_angle_alpha   45.43219557
_cell_angle_beta   45.43219557
_cell_angle_gamma   45.43219557
_symmetry_Int_Tables_number   1
_chemical_formula_structural   Eu2Re6S11
_chemical_formula_sum   'Eu4 Re12 S22'
_cell_volume   753.51957858
_cell_formula_units_Z   2
loop_
 _symmetry_equiv_pos_site_id
 _symmetry_equiv_pos_as_xyz
  1  'x, y, z'
loop_
 _atom_site_type_symbol
 _atom_site_label
 _atom_site_symmetry_multiplicity
 _atom_site_fract_x
 _atom_site_fract_y
 _atom_site_fract_z
 _atom_site_occupancy
  Eu  Eu0  1  0.80940018  0.80940018  -0.19059982  1.0
  Eu  Eu1  1  0.30940018  0.30940018  0.30940018  1.0
  Eu  Eu2  1  0.69059982  0.69059982  -0.30940018  1.0
  Eu  Eu3  1  0.19059982  0.19059982  0.19059982  1.0
  Re  Re4  1  0.78542478  0.11442725  -0.00300673  1.0
  Re  Re5  1  1.28542478  0.49699327  -0.38557275  1.0
  Re  Re6  1  0.50300673  0.38557275  -0.28542478  1.0
  Re  Re7  1  1.00300673  0.21457522  -0.11442725  1.0
  Re  Re8  1  0.88557275  0.00300673  0.21457522  1.0
  Re  Re9  1  0.38557275  0.71457522  -0.49699327  1.0
  Re  Re10  1  1.21457522  -0.11442725  0.00300673  1.0
  Re  Re11  1  0.71457522  0.50300673  -0.61442725  1.0
  Re  Re12  1  0.99699327  -0.21457522  0.11442725  1.0
  Re  Re13  1  0.49699327  0.61442725  0.28542478  1.0
  Re  Re14  1  0.61442725  1.28542478  -0.50300673  1.0
  Re  Re15  1  1.11442725  -0.00300673  -0.21457522  1.0
  S  S16  1  0.91147937  0.30249272  -0.30508012  1.0
  S  S17  1  1.41147937  0.19491988  -0.19750728  1.0
  S  S18  1  0.80508012  0.19750728  -0.41147937  1.0
  S  S19  1  1.30508012  0.08852063  -0.30249272  1.0
  S  S20  1  0.69750728  0.30508012  0.08852063  1.0
  S  S21  1  0.19750728  0.58852063  -0.19491988  1.0
  S  S22  1  1.08852063  -0.30249272  0.30508012  1.0
  S  S23  1  0.58852063  0.80508012  -0.80249272  1.0
  S  S24  1  0.69491988  -0.08852063  0.30249272  1.0
  S  S25  1  1.19491988  -0.19750728  0.41147937  1.0
  S  S26  1  0.80249272  0.41147937  0.19491988  1.0
  S  S27  1  1.30249272  -0.30508012  -0.08852063  1.0
  S  S28  1  0.50172675  0.75000000  -0.00172675  1.0
  S  S29  1  1.00172675  -0.50172675  0.25000000  1.0
  S  S30  1  0.25000000  1.00172675  -0.50172675  1.0
  S  S31  1  0.75000000  0.99827325  -0.49827325  1.0
  S  S32  1  0.49827325  0.25000000  0.00172675  1.0
  S  S33  1  0.99827325  0.50172675  -0.25000000  1.0
  S  S34  1  0.90700092  -0.09299908  -0.09299908  1.0
  S  S35  1  0.40700092  0.40700092  0.40700092  1.0
  S  S36  1  0.59299908  0.59299908  -0.40700092  1.0
  S  S37  1  1.09299908  0.09299908  0.09299908  1.0
