# generated using pymatgen
data_Tl2PAuS4
_symmetry_space_group_name_H-M   'P 1'
_cell_length_a   6.62832898
_cell_length_b   6.84331550
_cell_length_c   9.54982464
_cell_angle_alpha   90.00000000
_cell_angle_beta   92.27201072
_cell_angle_gamma   90.00000000
_symmetry_Int_Tables_number   1
_chemical_formula_structural   Tl2PAuS4
_chemical_formula_sum   'Tl4 P2 Au2 S8'
_cell_volume   432.83709478
_cell_formula_units_Z   2
loop_
 _symmetry_equiv_pos_site_id
 _symmetry_equiv_pos_as_xyz
  1  'x, y, z'
loop_
 _atom_site_type_symbol
 _atom_site_label
 _atom_site_symmetry_multiplicity
 _atom_site_fract_x
 _atom_site_fract_y
 _atom_site_fract_z
 _atom_site_occupancy
  Tl  Tl0  1  0.45504916  0.25000000  0.15124679  1.0
  Tl  Tl1  1  0.54495084  0.75000000  0.84875321  1.0
  Tl  Tl2  1  0.78735721  0.25000000  0.54720098  1.0
  Tl  Tl3  1  0.21264279  0.75000000  0.45279902  1.0
  P  P4  1  0.27720626  0.25000000  0.73200929  1.0
  P  P5  1  0.72279374  0.75000000  0.26799071  1.0
  Au  Au6  1  0.00000000  0.00000000  0.00000000  1.0
  Au  Au7  1  0.00000000  0.50000000  0.00000000  1.0
  S  S8  1  0.11106185  0.50432298  0.77332618  1.0
  S  S9  1  0.11106185  0.99567702  0.77332618  1.0
  S  S10  1  0.88893815  0.00432298  0.22667382  1.0
  S  S11  1  0.88893815  0.49567702  0.22667382  1.0
  S  S12  1  0.29813608  0.25000000  0.52098277  1.0
  S  S13  1  0.70186392  0.75000000  0.47901723  1.0
  S  S14  1  0.55085369  0.25000000  0.83871793  1.0
  S  S15  1  0.44914631  0.75000000  0.16128207  1.0
