# generated using pymatgen
data_Mn2GeSe4
_symmetry_space_group_name_H-M   'P 1'
_cell_length_a   12.87787081
_cell_length_b   7.48438363
_cell_length_c   6.63723290
_cell_angle_alpha   90.00000000
_cell_angle_beta   90.00000000
_cell_angle_gamma   90.00000000
_symmetry_Int_Tables_number   1
_chemical_formula_structural   Mn2GeSe4
_chemical_formula_sum   'Mn8 Ge4 Se16'
_cell_volume   639.71592365
_cell_formula_units_Z   4
loop_
 _symmetry_equiv_pos_site_id
 _symmetry_equiv_pos_as_xyz
  1  'x, y, z'
loop_
 _atom_site_type_symbol
 _atom_site_label
 _atom_site_symmetry_multiplicity
 _atom_site_fract_x
 _atom_site_fract_y
 _atom_site_fract_z
 _atom_site_occupancy
  Mn  Mn0  1  0.76202094  0.25000000  0.48650037  1.0
  Mn  Mn1  1  0.26202094  0.25000000  1.01349963  1.0
  Mn  Mn2  1  0.23797906  0.75000000  0.51349963  1.0
  Mn  Mn3  1  0.73797906  0.75000000  -0.01349963  1.0
  Mn  Mn4  1  0.00000000  0.50000000  -0.00000000  1.0
  Mn  Mn5  1  0.00000000  0.00000000  0.00000000  1.0
  Mn  Mn6  1  0.50000000  0.50000000  0.50000000  1.0
  Mn  Mn7  1  0.50000000  0.00000000  0.50000000  1.0
  Ge  Ge8  1  0.58780333  0.25000000  0.08257918  1.0
  Ge  Ge9  1  0.08780333  0.25000000  0.41742082  1.0
  Ge  Ge10  1  0.41219667  0.75000000  0.91742082  1.0
  Ge  Ge11  1  0.91219667  0.75000000  0.58257918  1.0
  Se  Se12  1  0.66746692  0.50652951  0.26986604  1.0
  Se  Se13  1  0.66746692  -0.00652951  0.26986604  1.0
  Se  Se14  1  0.16746692  0.50652951  0.23013396  1.0
  Se  Se15  1  0.16746692  -0.00652951  0.23013396  1.0
  Se  Se16  1  0.33253308  1.00652951  0.73013396  1.0
  Se  Se17  1  0.33253308  0.49347049  0.73013396  1.0
  Se  Se18  1  0.83253308  1.00652951  0.76986604  1.0
  Se  Se19  1  0.83253308  0.49347049  0.76986604  1.0
  Se  Se20  1  0.91693803  0.25000000  0.23594319  1.0
  Se  Se21  1  0.41693803  0.25000000  0.26405681  1.0
  Se  Se22  1  0.08306197  0.75000000  0.76405681  1.0
  Se  Se23  1  0.58306197  0.75000000  0.73594319  1.0
  Se  Se24  1  0.58991540  0.25000000  0.67995385  1.0
  Se  Se25  1  0.08991540  0.25000000  0.82004615  1.0
  Se  Se26  1  0.41008460  0.75000000  0.32004615  1.0
  Se  Se27  1  0.91008460  0.75000000  0.17995385  1.0
