# generated using pymatgen
data_PbWO4
_symmetry_space_group_name_H-M   'P 1'
_cell_length_a   7.43873628
_cell_length_b   7.22083655
_cell_length_c   15.55446389
_cell_angle_alpha   90.00000000
_cell_angle_beta   121.60292558
_cell_angle_gamma   90.00000000
_symmetry_Int_Tables_number   1
_chemical_formula_structural   PbWO4
_chemical_formula_sum   'Pb8 W8 O32'
_cell_volume   711.58774810
_cell_formula_units_Z   8
loop_
 _symmetry_equiv_pos_site_id
 _symmetry_equiv_pos_as_xyz
  1  'x, y, z'
loop_
 _atom_site_type_symbol
 _atom_site_label
 _atom_site_symmetry_multiplicity
 _atom_site_fract_x
 _atom_site_fract_y
 _atom_site_fract_z
 _atom_site_occupancy
  Pb  Pb0  1  0.69885637  0.30559684  0.85011238  1.0
  Pb  Pb1  1  0.69885637  0.19440316  0.35011238  1.0
  Pb  Pb2  1  0.30114363  0.80559684  0.64988762  1.0
  Pb  Pb3  1  0.30114363  0.69440316  0.14988762  1.0
  Pb  Pb4  1  0.21122131  0.08019620  0.83755196  1.0
  Pb  Pb5  1  0.21122131  0.41980380  0.33755196  1.0
  Pb  Pb6  1  0.78877869  0.58019620  0.66244804  1.0
  Pb  Pb7  1  0.78877869  0.91980380  0.16244804  1.0
  W  W8  1  0.17796423  0.34507605  0.58228326  1.0
  W  W9  1  0.17796423  0.15492395  0.08228326  1.0
  W  W10  1  0.82203577  0.84507605  0.91771674  1.0
  W  W11  1  0.82203577  0.65492395  0.41771674  1.0
  W  W12  1  0.74166381  0.05401160  0.57722984  1.0
  W  W13  1  0.74166381  0.44598840  0.07722984  1.0
  W  W14  1  0.25833619  0.55401160  0.92277016  1.0
  W  W15  1  0.25833619  0.94598840  0.42277016  1.0
  O  O16  1  0.99376968  0.06652260  0.92459687  1.0
  O  O17  1  0.99376968  0.43347740  0.42459687  1.0
  O  O18  1  0.00623032  0.56652260  0.57540313  1.0
  O  O19  1  0.00623032  0.93347740  0.07540313  1.0
  O  O20  1  0.74762941  0.75980688  0.79400501  1.0
  O  O21  1  0.74762941  0.74019312  0.29400501  1.0
  O  O22  1  0.25237059  0.25980688  0.70599499  1.0
  O  O23  1  0.25237059  0.24019312  0.20599499  1.0
  O  O24  1  0.24593863  0.14829808  0.53181181  1.0
  O  O25  1  0.24593863  0.35170192  0.03181181  1.0
  O  O26  1  0.75406137  0.64829808  0.96818819  1.0
  O  O27  1  0.75406137  0.85170192  0.46818819  1.0
  O  O28  1  0.40320101  0.49910388  0.61929078  1.0
  O  O29  1  0.40320101  0.00089612  0.11929078  1.0
  O  O30  1  0.59679899  0.99910388  0.88070922  1.0
  O  O31  1  0.59679899  0.50089612  0.38070922  1.0
  O  O32  1  0.12293924  0.70408441  0.97214475  1.0
  O  O33  1  0.12293924  0.79591559  0.47214475  1.0
  O  O34  1  0.87706076  0.20408441  0.52785525  1.0
  O  O35  1  0.87706076  0.29591559  0.02785525  1.0
  O  O36  1  0.72521827  0.22040344  0.65645560  1.0
  O  O37  1  0.72521827  0.27959656  0.15645560  1.0
  O  O38  1  0.27478173  0.72040344  0.84354440  1.0
  O  O39  1  0.27478173  0.77959656  0.34354440  1.0
  O  O40  1  0.03087542  0.42152391  0.82789423  1.0
  O  O41  1  0.03087542  0.07847609  0.32789423  1.0
  O  O42  1  0.96912458  0.92152391  0.67210577  1.0
  O  O43  1  0.96912458  0.57847609  0.17210577  1.0
  O  O44  1  0.46968717  0.37612670  0.93758245  1.0
  O  O45  1  0.46968717  0.12387330  0.43758245  1.0
  O  O46  1  0.53031283  0.87612670  0.56241755  1.0
  O  O47  1  0.53031283  0.62387330  0.06241755  1.0
