# generated using pymatgen
data_TbSbIr
_symmetry_space_group_name_H-M   'P 1'
_cell_length_a   7.20549227
_cell_length_b   4.55746154
_cell_length_c   7.89512795
_cell_angle_alpha   90.00000000
_cell_angle_beta   90.00000000
_cell_angle_gamma   90.00000000
_symmetry_Int_Tables_number   1
_chemical_formula_structural   TbSbIr
_chemical_formula_sum   'Tb4 Sb4 Ir4'
_cell_volume   259.26616399
_cell_formula_units_Z   4
loop_
 _symmetry_equiv_pos_site_id
 _symmetry_equiv_pos_as_xyz
  1  'x, y, z'
loop_
 _atom_site_type_symbol
 _atom_site_label
 _atom_site_symmetry_multiplicity
 _atom_site_fract_x
 _atom_site_fract_y
 _atom_site_fract_z
 _atom_site_occupancy
  Tb  Tb0  1  0.98846899  0.75000000  0.69601953  1.0
  Tb  Tb1  1  0.48846899  0.75000000  0.80398047  1.0
  Tb  Tb2  1  0.01153101  0.25000000  0.30398047  1.0
  Tb  Tb3  1  0.51153101  0.25000000  0.19601953  1.0
  Sb  Sb4  1  0.82002048  0.75000000  0.08785929  1.0
  Sb  Sb5  1  0.32002048  0.75000000  0.41214071  1.0
  Sb  Sb6  1  0.17997952  0.25000000  0.91214071  1.0
  Sb  Sb7  1  0.67997952  0.25000000  0.58785929  1.0
  Ir  Ir8  1  0.70889516  0.75000000  0.41269437  1.0
  Ir  Ir9  1  0.20889516  0.75000000  0.08730563  1.0
  Ir  Ir10  1  0.29110484  0.25000000  0.58730563  1.0
  Ir  Ir11  1  0.79110484  0.25000000  0.91269437  1.0
