# generated using pymatgen
data_Zr3(CuSi)4
_symmetry_space_group_name_H-M   'P 1'
_cell_length_a   7.56740835
_cell_length_b   7.56740835
_cell_length_c   7.56740835
_cell_angle_alpha   149.79328112
_cell_angle_beta   129.84956445
_cell_angle_gamma   59.66931928
_symmetry_Int_Tables_number   1
_chemical_formula_structural   Zr3(CuSi)4
_chemical_formula_sum   'Zr3 Cu4 Si4'
_cell_volume   166.04727006
_cell_formula_units_Z   1
loop_
 _symmetry_equiv_pos_site_id
 _symmetry_equiv_pos_as_xyz
  1  'x, y, z'
loop_
 _atom_site_type_symbol
 _atom_site_label
 _atom_site_symmetry_multiplicity
 _atom_site_fract_x
 _atom_site_fract_y
 _atom_site_fract_z
 _atom_site_occupancy
  Zr  Zr0  1  0.62452949  0.12452949  0.50000000  1.0
  Zr  Zr1  1  0.37547051  0.87547051  0.50000000  1.0
  Zr  Zr2  1  0.00000000  0.00000000  0.00000000  1.0
  Cu  Cu3  1  0.36157885  0.66941078  0.69216807  1.0
  Cu  Cu4  1  1.02275729  0.33058922  0.69216807  1.0
  Cu  Cu5  1  0.97724271  0.66941078  1.30783193  1.0
  Cu  Cu6  1  0.63842115  0.33058922  0.30783193  1.0
  Si  Si7  1  0.78412304  0.78412304  1.00000000  1.0
  Si  Si8  1  0.21587696  0.21587696  0.00000000  1.0
  Si  Si9  1  0.30926990  0.50000000  0.80926990  1.0
  Si  Si10  1  0.69073010  0.50000000  1.19073010  1.0
