# generated using pymatgen
data_Na2SnF6
_symmetry_space_group_name_H-M   'P 1'
_cell_length_a   5.17930821
_cell_length_b   5.17930821
_cell_length_c   10.31907247
_cell_angle_alpha   90.00000000
_cell_angle_beta   90.00000000
_cell_angle_gamma   90.00000000
_symmetry_Int_Tables_number   1
_chemical_formula_structural   Na2SnF6
_chemical_formula_sum   'Na4 Sn2 F12'
_cell_volume   276.81152837
_cell_formula_units_Z   2
loop_
 _symmetry_equiv_pos_site_id
 _symmetry_equiv_pos_as_xyz
  1  'x, y, z'
loop_
 _atom_site_type_symbol
 _atom_site_label
 _atom_site_symmetry_multiplicity
 _atom_site_fract_x
 _atom_site_fract_y
 _atom_site_fract_z
 _atom_site_occupancy
  Na  Na0  1  0.50000000  0.50000000  0.16313141  1.0
  Na  Na1  1  0.50000000  0.50000000  0.83686859  1.0
  Na  Na2  1  0.00000000  0.00000000  0.66313141  1.0
  Na  Na3  1  0.00000000  0.00000000  0.33686859  1.0
  Sn  Sn4  1  0.50000000  0.50000000  0.50000000  1.0
  Sn  Sn5  1  0.00000000  0.00000000  0.00000000  1.0
  F  F6  1  0.18473524  0.81526476  0.14373777  1.0
  F  F7  1  0.18473524  0.81526476  0.85626223  1.0
  F  F8  1  0.68473524  0.68473524  0.64373777  1.0
  F  F9  1  0.68473524  0.68473524  0.35626223  1.0
  F  F10  1  0.81526476  0.18473524  0.14373777  1.0
  F  F11  1  0.81526476  0.18473524  0.85626223  1.0
  F  F12  1  0.31526476  0.31526476  0.64373777  1.0
  F  F13  1  0.31526476  0.31526476  0.35626223  1.0
  F  F14  1  0.22568364  0.77431636  0.50000000  1.0
  F  F15  1  0.72568364  0.72568364  0.00000000  1.0
  F  F16  1  0.77431636  0.22568364  0.50000000  1.0
  F  F17  1  0.27431636  0.27431636  0.00000000  1.0
