# generated using pymatgen
data_CsVP2S7
_symmetry_space_group_name_H-M   'P 1'
_cell_length_a   6.54784973
_cell_length_b   6.54784973
_cell_length_c   7.13255836
_cell_angle_alpha   85.12411180
_cell_angle_beta   94.87588820
_cell_angle_gamma   83.37462749
_symmetry_Int_Tables_number   1
_chemical_formula_structural   CsVP2S7
_chemical_formula_sum   'Cs1 V1 P2 S7'
_cell_volume   301.27048414
_cell_formula_units_Z   1
loop_
 _symmetry_equiv_pos_site_id
 _symmetry_equiv_pos_as_xyz
  1  'x, y, z'
loop_
 _atom_site_type_symbol
 _atom_site_label
 _atom_site_symmetry_multiplicity
 _atom_site_fract_x
 _atom_site_fract_y
 _atom_site_fract_z
 _atom_site_occupancy
  Cs  Cs0  1  0.88690541  -0.11309459  0.50000000  1.0
  V  V1  1  1.49168853  0.49168853  0.00000000  1.0
  P  P2  1  0.93832472  -0.66509880  0.92490995  1.0
  P  P3  1  0.33490120  -0.06167528  0.07509005  1.0
  S  S4  1  1.17555099  0.44487561  0.79864545  1.0
  S  S5  1  1.44487561  0.17555099  0.20135455  1.0
  S  S6  1  0.46476449  -0.16488463  0.84293713  1.0
  S  S7  1  0.83511537  -0.53523551  0.15706287  1.0
  S  S8  1  0.67885627  -0.64328935  0.74172355  1.0
  S  S9  1  0.35671065  -0.32114373  0.25827645  1.0
  S  S10  1  0.00530678  0.00530678  -0.00000000  1.0
