# generated using pymatgen
data_K4CdCl6
_symmetry_space_group_name_H-M   'P 1'
_cell_length_a   8.71934046
_cell_length_b   8.71934046
_cell_length_c   8.71934046
_cell_angle_alpha   89.93489974
_cell_angle_beta   89.93489974
_cell_angle_gamma   89.93489974
_symmetry_Int_Tables_number   1
_chemical_formula_structural   K4CdCl6
_chemical_formula_sum   'K8 Cd2 Cl12'
_cell_volume   662.90312591
_cell_formula_units_Z   2
loop_
 _symmetry_equiv_pos_site_id
 _symmetry_equiv_pos_as_xyz
  1  'x, y, z'
loop_
 _atom_site_type_symbol
 _atom_site_label
 _atom_site_symmetry_multiplicity
 _atom_site_fract_x
 _atom_site_fract_y
 _atom_site_fract_z
 _atom_site_occupancy
  K  K0  1  0.87320860  1.25000000  -0.37320860  1.0
  K  K1  1  1.37320860  0.12679140  -0.25000000  1.0
  K  K2  1  0.75000000  0.37320860  0.12679140  1.0
  K  K3  1  1.25000000  0.62679140  -0.12679140  1.0
  K  K4  1  1.12679140  -0.25000000  0.37320860  1.0
  K  K5  1  0.62679140  0.87320860  0.25000000  1.0
  K  K6  1  0.25000000  0.25000000  0.25000000  1.0
  K  K7  1  0.75000000  0.75000000  0.75000000  1.0
  Cd  Cd8  1  0.50000000  0.50000000  0.50000000  1.0
  Cd  Cd9  1  0.00000000  0.00000000  0.00000000  1.0
  Cl  Cl10  1  1.20637641  0.43012381  -0.44375177  1.0
  Cl  Cl11  1  0.70637641  1.05624823  -0.06987619  1.0
  Cl  Cl12  1  0.94375177  0.06987619  0.29362359  1.0
  Cl  Cl13  1  1.44375177  -0.20637641  0.56987619  1.0
  Cl  Cl14  1  1.56987619  0.44375177  -0.20637641  1.0
  Cl  Cl15  1  1.06987619  0.29362359  -0.05624823  1.0
  Cl  Cl16  1  0.79362359  0.56987619  0.44375177  1.0
  Cl  Cl17  1  1.29362359  -0.05624823  0.06987619  1.0
  Cl  Cl18  1  0.55624823  1.20637641  -0.56987619  1.0
  Cl  Cl19  1  1.05624823  0.93012381  -0.29362359  1.0
  Cl  Cl20  1  0.93012381  0.70637641  0.05624823  1.0
  Cl  Cl21  1  0.43012381  0.55624823  0.20637641  1.0
