# generated using pymatgen
data_La5V3S6O7
_symmetry_space_group_name_H-M   'P 1'
_cell_length_a   3.82675452
_cell_length_b   18.01080639
_cell_length_c   10.26208588
_cell_angle_alpha   90.00000000
_cell_angle_beta   90.00000000
_cell_angle_gamma   90.00000000
_symmetry_Int_Tables_number   1
_chemical_formula_structural   La5V3S6O7
_chemical_formula_sum   'La10 V6 S12 O14'
_cell_volume   707.29307563
_cell_formula_units_Z   2
loop_
 _symmetry_equiv_pos_site_id
 _symmetry_equiv_pos_as_xyz
  1  'x, y, z'
loop_
 _atom_site_type_symbol
 _atom_site_label
 _atom_site_symmetry_multiplicity
 _atom_site_fract_x
 _atom_site_fract_y
 _atom_site_fract_z
 _atom_site_occupancy
  La  La0  1  0.50000000  0.66318773  0.58604958  1.0
  La  La1  1  0.50000000  0.33681227  0.58604958  1.0
  La  La2  1  0.00000000  0.16318773  0.41395042  1.0
  La  La3  1  0.00000000  0.83681227  0.41395042  1.0
  La  La4  1  0.50000000  0.11476016  0.02913366  1.0
  La  La5  1  0.50000000  0.88523984  0.02913366  1.0
  La  La6  1  0.00000000  0.61476016  0.97086634  1.0
  La  La7  1  0.00000000  0.38523984  0.97086634  1.0
  La  La8  1  0.50000000  0.50000000  0.23297560  1.0
  La  La9  1  0.00000000  0.00000000  0.76702440  1.0
  V  V10  1  0.50000000  0.69470070  0.24678117  1.0
  V  V11  1  0.50000000  0.30529930  0.24678117  1.0
  V  V12  1  0.00000000  0.19470070  0.75321883  1.0
  V  V13  1  0.00000000  0.80529930  0.75321883  1.0
  V  V14  1  0.50000000  0.00000000  0.31338641  1.0
  V  V15  1  0.00000000  0.50000000  0.68661359  1.0
  S  S16  1  0.50000000  0.73745232  0.85048376  1.0
  S  S17  1  0.50000000  0.26254768  0.85048376  1.0
  S  S18  1  0.00000000  0.23745232  0.14951624  1.0
  S  S19  1  0.00000000  0.76254768  0.14951624  1.0
  S  S20  1  0.50000000  0.12028872  0.64692942  1.0
  S  S21  1  0.50000000  0.87971128  0.64692942  1.0
  S  S22  1  0.00000000  0.62028872  0.35307058  1.0
  S  S23  1  0.00000000  0.37971128  0.35307058  1.0
  S  S24  1  0.50000000  0.50000000  0.53987469  1.0
  S  S25  1  0.00000000  0.00000000  0.46012531  1.0
  S  S26  1  0.50000000  0.50000000  0.85720547  1.0
  S  S27  1  0.00000000  0.00000000  0.14279453  1.0
  O  O28  1  0.50000000  0.62295605  0.11144806  1.0
  O  O29  1  0.50000000  0.37704395  0.11144806  1.0
  O  O30  1  0.00000000  0.12295605  0.88855194  1.0
  O  O31  1  0.00000000  0.87704395  0.88855194  1.0
  O  O32  1  0.50000000  0.24764201  0.39580173  1.0
  O  O33  1  0.50000000  0.75235799  0.39580173  1.0
  O  O34  1  0.00000000  0.74764201  0.60419827  1.0
  O  O35  1  0.00000000  0.25235799  0.60419827  1.0
  O  O36  1  0.50000000  0.09991914  0.28927129  1.0
  O  O37  1  0.50000000  0.90008086  0.28927129  1.0
  O  O38  1  0.00000000  0.59991914  0.71072871  1.0
  O  O39  1  0.00000000  0.40008086  0.71072871  1.0
  O  O40  1  0.50000000  0.00000000  0.90222666  1.0
  O  O41  1  0.00000000  0.50000000  0.09777334  1.0
