# generated using pymatgen
data_La2Cd25Ni
_symmetry_space_group_name_H-M   'P 1'
_cell_length_a   13.69476927
_cell_length_b   13.69476927
_cell_length_c   13.69476927
_cell_angle_alpha   60.00000000
_cell_angle_beta   60.00000000
_cell_angle_gamma   60.00000000
_symmetry_Int_Tables_number   1
_chemical_formula_structural   La2Cd25Ni
_chemical_formula_sum   'La4 Cd50 Ni2'
_cell_volume   1816.13932126
_cell_formula_units_Z   2
loop_
 _symmetry_equiv_pos_site_id
 _symmetry_equiv_pos_as_xyz
  1  'x, y, z'
loop_
 _atom_site_type_symbol
 _atom_site_label
 _atom_site_symmetry_multiplicity
 _atom_site_fract_x
 _atom_site_fract_y
 _atom_site_fract_z
 _atom_site_occupancy
  La  La0  1  0.62500000  -0.37500000  1.12500000  1.0
  La  La1  1  0.62500000  0.12500000  0.62500000  1.0
  La  La2  1  0.62500000  -0.37500000  0.62500000  1.0
  La  La3  1  1.12500000  -0.37500000  0.62500000  1.0
  Cd  Cd4  1  0.50000000  0.50000000  -0.50000000  1.0
  Cd  Cd5  1  0.75000000  -0.25000000  0.75000000  1.0
  Cd  Cd6  1  0.78284143  -0.21715857  1.01779216  1.0
  Cd  Cd7  1  -0.58347501  0.78284143  1.01779216  1.0
  Cd  Cd8  1  -0.58347501  1.01779216  0.78284143  1.0
  Cd  Cd9  1  0.78284143  0.01779216  0.78284143  1.0
  Cd  Cd10  1  0.46715857  0.46715857  -0.16652499  1.0
  Cd  Cd11  1  0.46715857  -0.16652499  0.46715857  1.0
  Cd  Cd12  1  0.23220784  -0.16652499  0.46715857  1.0
  Cd  Cd13  1  0.23220784  0.46715857  -0.16652499  1.0
  Cd  Cd14  1  0.78284143  -0.58347501  1.01779216  1.0
  Cd  Cd15  1  -0.21715857  1.01779216  0.41652499  1.0
  Cd  Cd16  1  -0.16652499  0.46715857  0.46715857  1.0
  Cd  Cd17  1  0.23220784  0.46715857  0.46715857  1.0
  Cd  Cd18  1  1.01779216  -0.58347501  0.78284143  1.0
  Cd  Cd19  1  0.01779216  0.78284143  0.41652499  1.0
  Cd  Cd20  1  -0.21715857  0.78284143  0.41652499  1.0
  Cd  Cd21  1  0.78284143  -0.58347501  0.78284143  1.0
  Cd  Cd22  1  -0.16652499  0.23220784  0.46715857  1.0
  Cd  Cd23  1  0.46715857  0.23220784  0.46715857  1.0
  Cd  Cd24  1  0.46715857  0.46715857  0.23220784  1.0
  Cd  Cd25  1  -0.16652499  0.46715857  0.23220784  1.0
  Cd  Cd26  1  1.01779216  -0.21715857  0.78284143  1.0
  Cd  Cd27  1  -0.58347501  0.78284143  0.78284143  1.0
  Cd  Cd28  1  0.46715857  0.23220784  -0.16652499  1.0
  Cd  Cd29  1  0.46715857  -0.16652499  0.23220784  1.0
  Cd  Cd30  1  1.00798350  -0.78278030  0.76681331  1.0
  Cd  Cd31  1  0.00798350  0.76681331  0.21721970  1.0
  Cd  Cd32  1  0.03278030  0.24201650  0.24201650  1.0
  Cd  Cd33  1  0.48318669  0.24201650  0.24201650  1.0
  Cd  Cd34  1  -0.78278030  1.00798350  0.76681331  1.0
  Cd  Cd35  1  1.00798350  0.00798350  0.76681331  1.0
  Cd  Cd36  1  1.00798350  -0.23318669  1.00798350  1.0
  Cd  Cd37  1  -0.78278030  0.76681331  1.00798350  1.0
  Cd  Cd38  1  0.24201650  0.03278030  0.24201650  1.0
  Cd  Cd39  1  0.24201650  0.24201650  0.03278030  1.0
  Cd  Cd40  1  0.48318669  0.24201650  0.03278030  1.0
  Cd  Cd41  1  0.48318669  0.03278030  0.24201650  1.0
  Cd  Cd42  1  0.76681331  0.00798350  1.00798350  1.0
  Cd  Cd43  1  -0.78278030  1.00798350  1.00798350  1.0
  Cd  Cd44  1  0.24201650  0.48318669  0.03278030  1.0
  Cd  Cd45  1  0.24201650  0.03278030  0.48318669  1.0
  Cd  Cd46  1  -0.23318669  1.00798350  0.21721970  1.0
  Cd  Cd47  1  0.76681331  -0.78278030  1.00798350  1.0
  Cd  Cd48  1  1.00798350  -0.78278030  1.00798350  1.0
  Cd  Cd49  1  0.00798350  1.00798350  0.21721970  1.0
  Cd  Cd50  1  0.24201650  0.48318669  0.24201650  1.0
  Cd  Cd51  1  0.03278030  0.48318669  0.24201650  1.0
  Cd  Cd52  1  0.03278030  0.24201650  0.48318669  1.0
  Cd  Cd53  1  0.24201650  0.24201650  0.48318669  1.0
  Ni  Ni54  1  0.00000000  1.00000000  0.00000000  1.0
  Ni  Ni55  1  0.25000000  0.25000000  0.25000000  1.0
