# generated using pymatgen
data_Zn(GaSe2)2
_symmetry_space_group_name_H-M   'P 1'
_cell_length_a   6.81137409
_cell_length_b   6.81137409
_cell_length_c   6.81137409
_cell_angle_alpha   131.26088944
_cell_angle_beta   131.26088944
_cell_angle_gamma   71.39890692
_symmetry_Int_Tables_number   1
_chemical_formula_structural   Zn(GaSe2)2
_chemical_formula_sum   'Zn1 Ga2 Se4'
_cell_volume   174.77101423
_cell_formula_units_Z   1
loop_
 _symmetry_equiv_pos_site_id
 _symmetry_equiv_pos_as_xyz
  1  'x, y, z'
loop_
 _atom_site_type_symbol
 _atom_site_label
 _atom_site_symmetry_multiplicity
 _atom_site_fract_x
 _atom_site_fract_y
 _atom_site_fract_z
 _atom_site_occupancy
  Zn  Zn0  1  0.50000000  0.50000000  1.00000000  1.0
  Ga  Ga1  1  0.25000000  0.75000000  0.50000000  1.0
  Ga  Ga2  1  0.00000000  0.00000000  0.00000000  1.0
  Se  Se3  1  0.39205678  0.89831101  1.02446566  1.0
  Se  Se4  1  1.10168899  1.12615464  1.49374576  1.0
  Se  Se5  1  0.87384536  0.36759112  0.97553434  1.0
  Se  Se6  1  0.63240888  0.60794322  0.50625424  1.0
