# generated using pymatgen
data_ZrO2
_symmetry_space_group_name_H-M   'P 1'
_cell_length_a   5.18640421
_cell_length_b   5.23915444
_cell_length_c   5.37705932
_cell_angle_alpha   90.00000000
_cell_angle_beta   99.65631166
_cell_angle_gamma   90.00000000
_symmetry_Int_Tables_number   1
_chemical_formula_structural   ZrO2
_chemical_formula_sum   'Zr4 O8'
_cell_volume   144.03735882
_cell_formula_units_Z   4
loop_
 _symmetry_equiv_pos_site_id
 _symmetry_equiv_pos_as_xyz
  1  'x, y, z'
loop_
 _atom_site_type_symbol
 _atom_site_label
 _atom_site_symmetry_multiplicity
 _atom_site_fract_x
 _atom_site_fract_y
 _atom_site_fract_z
 _atom_site_occupancy
  Zr  Zr0  1  0.72429191  0.95627762  0.78989597  1.0
  Zr  Zr1  1  0.72429191  0.54372238  0.28989597  1.0
  Zr  Zr2  1  0.27570809  0.45627762  0.71010403  1.0
  Zr  Zr3  1  0.27570809  0.04372238  0.21010403  1.0
  O  O4  1  0.93508537  0.67381905  0.64985820  1.0
  O  O5  1  0.93508537  0.82618095  0.14985820  1.0
  O  O6  1  0.06491463  0.17381905  0.85014180  1.0
  O  O7  1  0.06491463  0.32618095  0.35014180  1.0
  O  O8  1  0.45099774  0.74327953  0.97539960  1.0
  O  O9  1  0.45099774  0.75672047  0.47539960  1.0
  O  O10  1  0.54900226  0.24327953  0.52460040  1.0
  O  O11  1  0.54900226  0.25672047  0.02460040  1.0
