# generated using pymatgen
data_FeAs
_symmetry_space_group_name_H-M   'P 1'
_cell_length_a   5.42402913
_cell_length_b   3.30650736
_cell_length_c   6.01143089
_cell_angle_alpha   90.00000000
_cell_angle_beta   90.00000000
_cell_angle_gamma   90.00000000
_symmetry_Int_Tables_number   1
_chemical_formula_structural   FeAs
_chemical_formula_sum   'Fe4 As4'
_cell_volume   107.81256198
_cell_formula_units_Z   4
loop_
 _symmetry_equiv_pos_site_id
 _symmetry_equiv_pos_as_xyz
  1  'x, y, z'
loop_
 _atom_site_type_symbol
 _atom_site_label
 _atom_site_symmetry_multiplicity
 _atom_site_fract_x
 _atom_site_fract_y
 _atom_site_fract_z
 _atom_site_occupancy
  Fe  Fe0  1  1.00037049  0.75000000  0.19946118  1.0
  Fe  Fe1  1  0.50037049  0.75000000  0.30053882  1.0
  Fe  Fe2  1  -0.00037049  0.25000000  0.80053882  1.0
  Fe  Fe3  1  0.49962951  0.25000000  0.69946118  1.0
  As  As4  1  0.80109272  0.75000000  0.57556275  1.0
  As  As5  1  0.30109272  0.75000000  0.92443725  1.0
  As  As6  1  0.19890728  0.25000000  0.42443725  1.0
  As  As7  1  0.69890728  0.25000000  0.07556275  1.0
