# generated using pymatgen
data_CaAsH5O6
_symmetry_space_group_name_H-M   'P 1'
_cell_length_a   8.42240942
_cell_length_b   8.42240942
_cell_length_c   6.07862015
_cell_angle_alpha   78.09363110
_cell_angle_beta   101.90636890
_cell_angle_gamma   46.97100489
_symmetry_Int_Tables_number   1
_chemical_formula_structural   CaAsH5O6
_chemical_formula_sum   'Ca2 As2 H10 O12'
_cell_volume   269.68151403
_cell_formula_units_Z   2
loop_
 _symmetry_equiv_pos_site_id
 _symmetry_equiv_pos_as_xyz
  1  'x, y, z'
loop_
 _atom_site_type_symbol
 _atom_site_label
 _atom_site_symmetry_multiplicity
 _atom_site_fract_x
 _atom_site_fract_y
 _atom_site_fract_z
 _atom_site_occupancy
  Ca  Ca0  1  1.61027849  0.04493983  0.75937096  1.0
  Ca  Ca1  1  0.95506017  0.38972151  0.25937096  1.0
  As  As2  1  1.08576711  0.56240384  0.74303465  1.0
  As  As3  1  1.43759616  -0.08576711  0.24303465  1.0
  H  H4  1  1.31242357  0.55188184  0.37353930  1.0
  H  H5  1  1.44811816  -0.31242357  0.87353930  1.0
  H  H6  1  1.02434343  0.95468847  0.10633295  1.0
  H  H7  1  1.04531153  -0.02434343  0.60633295  1.0
  H  H8  1  0.55137250  0.46668259  0.53431111  1.0
  H  H9  1  1.53331741  0.44862750  0.03431111  1.0
  H  H10  1  0.73731586  0.59571134  0.66157514  1.0
  H  H11  1  1.40428866  0.26268414  0.16157514  1.0
  H  H12  1  1.10661489  0.06464489  0.77602222  1.0
  H  H13  1  0.93535511  0.89338511  0.27602222  1.0
  O  O14  1  0.63389616  0.61489973  0.51171149  1.0
  O  O15  1  1.38510027  0.36610384  0.01171149  1.0
  O  O16  1  0.95910593  0.89140093  0.12192548  1.0
  O  O17  1  1.10859907  0.04089407  0.62192548  1.0
  O  O18  1  0.94528565  0.85321591  0.57867867  1.0
  O  O19  1  1.14678409  0.05471435  0.07867867  1.0
  O  O20  1  0.89622143  0.60251877  0.86189173  1.0
  O  O21  1  1.39748123  0.10377857  0.36189173  1.0
  O  O22  1  1.15694439  0.39555995  0.58295874  1.0
  O  O23  1  1.60444005  -0.15694439  0.08295874  1.0
  O  O24  1  1.48136025  0.40938157  0.52054758  1.0
  O  O25  1  0.59061843  0.51863975  0.02054758  1.0
