# generated using pymatgen
data_Te2Os
_symmetry_space_group_name_H-M   'P 1'
_cell_length_a   5.35982149
_cell_length_b   6.48886279
_cell_length_c   4.11449796
_cell_angle_alpha   90.00000000
_cell_angle_beta   90.00000000
_cell_angle_gamma   90.00000000
_symmetry_Int_Tables_number   1
_chemical_formula_structural   Te2Os
_chemical_formula_sum   'Te4 Os2'
_cell_volume   143.09872633
_cell_formula_units_Z   2
loop_
 _symmetry_equiv_pos_site_id
 _symmetry_equiv_pos_as_xyz
  1  'x, y, z'
loop_
 _atom_site_type_symbol
 _atom_site_label
 _atom_site_symmetry_multiplicity
 _atom_site_fract_x
 _atom_site_fract_y
 _atom_site_fract_z
 _atom_site_occupancy
  Te  Te0  1  0.27653802  0.86648473  0.50000000  1.0
  Te  Te1  1  0.77653802  0.63351528  0.00000000  1.0
  Te  Te2  1  0.72346198  0.13351527  0.50000000  1.0
  Te  Te3  1  0.22346198  0.36648472  0.00000000  1.0
  Os  Os4  1  0.50000000  0.50000000  0.50000000  1.0
  Os  Os5  1  0.00000000  0.00000000  0.00000000  1.0
