# generated using pymatgen
data_TaNi3
_symmetry_space_group_name_H-M   'P 1'
_cell_length_a   4.24721537
_cell_length_b   5.11137520
_cell_length_c   4.54723975
_cell_angle_alpha   90.00000000
_cell_angle_beta   90.00000000
_cell_angle_gamma   90.00000000
_symmetry_Int_Tables_number   1
_chemical_formula_structural   TaNi3
_chemical_formula_sum   'Ta2 Ni6'
_cell_volume   98.71653389
_cell_formula_units_Z   2
loop_
 _symmetry_equiv_pos_site_id
 _symmetry_equiv_pos_as_xyz
  1  'x, y, z'
loop_
 _atom_site_type_symbol
 _atom_site_label
 _atom_site_symmetry_multiplicity
 _atom_site_fract_x
 _atom_site_fract_y
 _atom_site_fract_z
 _atom_site_occupancy
  Ta  Ta0  1  0.00000000  0.50000000  0.15106334  1.0
  Ta  Ta1  1  0.50000000  0.00000000  0.84893666  1.0
  Ni  Ni2  1  0.00000000  0.25049368  0.65887555  1.0
  Ni  Ni3  1  0.00000000  0.74950632  0.65887555  1.0
  Ni  Ni4  1  0.50000000  0.75049368  0.34112445  1.0
  Ni  Ni5  1  0.50000000  0.24950632  0.34112445  1.0
  Ni  Ni6  1  0.00000000  0.00000000  0.18010364  1.0
  Ni  Ni7  1  0.50000000  0.50000000  0.81989636  1.0
