# generated using pymatgen
data_SnO
_symmetry_space_group_name_H-M   'P 1'
_cell_length_a   3.86615361
_cell_length_b   3.86615361
_cell_length_c   10.07364742
_cell_angle_alpha   90.00000000
_cell_angle_beta   90.00000000
_cell_angle_gamma   90.01339487
_symmetry_Int_Tables_number   1
_chemical_formula_structural   SnO
_chemical_formula_sum   'Sn4 O4'
_cell_volume   150.57225168
_cell_formula_units_Z   4
loop_
 _symmetry_equiv_pos_site_id
 _symmetry_equiv_pos_as_xyz
  1  'x, y, z'
loop_
 _atom_site_type_symbol
 _atom_site_label
 _atom_site_symmetry_multiplicity
 _atom_site_fract_x
 _atom_site_fract_y
 _atom_site_fract_z
 _atom_site_occupancy
  Sn  Sn0  1  -0.00002070  0.00002070  0.00613488  1.0
  Sn  Sn1  1  0.00002070  -0.00002070  0.50613488  1.0
  Sn  Sn2  1  0.49996654  0.50003346  0.23686590  1.0
  Sn  Sn3  1  -0.49996654  1.49996654  0.73686590  1.0
  O  O4  1  -0.00001564  0.49999546  0.12149961  1.0
  O  O5  1  -0.50000454  0.99998436  0.62149961  1.0
  O  O6  1  0.50000454  1.00001564  0.12149961  1.0
  O  O7  1  0.00001564  1.50000454  0.62149961  1.0
