# generated using pymatgen
data_ZrTe3
_symmetry_space_group_name_H-M   'P 1'
_cell_length_a   5.94554868
_cell_length_b   3.93528746
_cell_length_c   10.59934579
_cell_angle_alpha   90.00000000
_cell_angle_beta   94.71223838
_cell_angle_gamma   90.00000000
_symmetry_Int_Tables_number   1
_chemical_formula_structural   ZrTe3
_chemical_formula_sum   'Zr2 Te6'
_cell_volume   247.15932430
_cell_formula_units_Z   2
loop_
 _symmetry_equiv_pos_site_id
 _symmetry_equiv_pos_as_xyz
  1  'x, y, z'
loop_
 _atom_site_type_symbol
 _atom_site_label
 _atom_site_symmetry_multiplicity
 _atom_site_fract_x
 _atom_site_fract_y
 _atom_site_fract_z
 _atom_site_occupancy
  Zr  Zr0  1  0.72593217  0.25000000  0.83735488  1.0
  Zr  Zr1  1  0.27406783  0.75000000  0.16264512  1.0
  Te  Te2  1  0.05579461  0.25000000  0.32296498  1.0
  Te  Te3  1  0.94420539  0.75000000  0.67703502  1.0
  Te  Te4  1  0.54040747  0.25000000  0.32152020  1.0
  Te  Te5  1  0.45959253  0.75000000  0.67847980  1.0
  Te  Te6  1  0.24206773  0.25000000  0.94865293  1.0
  Te  Te7  1  0.75793227  0.75000000  0.05134707  1.0
