# generated using pymatgen
data_K2Pt(N2O5)2
_symmetry_space_group_name_H-M   'P 1'
_cell_length_a   6.98671869
_cell_length_b   6.80760017
_cell_length_c   7.44387255
_cell_angle_alpha   111.70734662
_cell_angle_beta   119.72208462
_cell_angle_gamma   81.54948080
_symmetry_Int_Tables_number   1
_chemical_formula_structural   K2Pt(N2O5)2
_chemical_formula_sum   'K2 Pt1 N4 O10'
_cell_volume   285.37694166
_cell_formula_units_Z   1
loop_
 _symmetry_equiv_pos_site_id
 _symmetry_equiv_pos_as_xyz
  1  'x, y, z'
loop_
 _atom_site_type_symbol
 _atom_site_label
 _atom_site_symmetry_multiplicity
 _atom_site_fract_x
 _atom_site_fract_y
 _atom_site_fract_z
 _atom_site_occupancy
  N  N0  1  0.15161796  0.79137078  0.81178879  1.0
  N  N1  1  -0.15161796  0.20862922  0.18821121  1.0
  N  N2  1  0.81788603  0.73387120  0.93934686  1.0
  N  N3  1  -0.81788603  0.26612880  0.06065314  1.0
  K  K4  1  -0.41179408  0.70592990  0.34439731  1.0
  K  K5  1  0.41179408  0.29407010  0.65560269  1.0
  Pt  Pt6  1  0.00000000  0.00000000  0.00000000  1.0
  O  O7  1  0.33523684  0.72669894  0.91231051  1.0
  O  O8  1  -0.33523684  0.27330106  0.08768949  1.0
  O  O9  1  -0.70474976  0.37963706  0.25429823  1.0
  O  O10  1  0.70474976  0.62036294  0.74570177  1.0
  O  O11  1  0.16831253  0.29635204  0.90236956  1.0
  O  O12  1  -0.16831253  0.70364796  0.09763044  1.0
  O  O13  1  0.23329117  0.96305089  0.25583262  1.0
  O  O14  1  -0.23329117  0.03694911  0.74416738  1.0
  O  O15  1  0.05131913  0.74123676  0.61084353  1.0
  O  O16  1  -0.05131913  0.25876324  0.38915647  1.0
