# generated using pymatgen
data_Mg6Si7Ni16
_symmetry_space_group_name_H-M   'P 1'
_cell_length_a   8.00565829
_cell_length_b   8.00565829
_cell_length_c   8.00565829
_cell_angle_alpha   60.00000000
_cell_angle_beta   60.00000000
_cell_angle_gamma   60.00000000
_symmetry_Int_Tables_number   1
_chemical_formula_structural   Mg6Si7Ni16
_chemical_formula_sum   'Mg6 Si7 Ni16'
_cell_volume   362.80741064
_cell_formula_units_Z   1
loop_
 _symmetry_equiv_pos_site_id
 _symmetry_equiv_pos_as_xyz
  1  'x, y, z'
loop_
 _atom_site_type_symbol
 _atom_site_label
 _atom_site_symmetry_multiplicity
 _atom_site_fract_x
 _atom_site_fract_y
 _atom_site_fract_z
 _atom_site_occupancy
  Mg  Mg0  1  -0.70453493  0.70453493  0.70453493  1.0
  Mg  Mg1  1  0.29546507  1.29546507  -0.29546507  1.0
  Mg  Mg2  1  -0.29546507  0.29546507  0.70453493  1.0
  Mg  Mg3  1  0.70453493  0.70453493  -0.70453493  1.0
  Mg  Mg4  1  0.29546507  -0.29546507  1.29546507  1.0
  Mg  Mg5  1  -0.29546507  0.29546507  0.29546507  1.0
  Si  Si6  1  -0.00000000  0.00000000  0.00000000  1.0
  Si  Si7  1  -0.00000000  -0.00000000  0.50000000  1.0
  Si  Si8  1  0.50000000  1.00000000  -0.50000000  1.0
  Si  Si9  1  1.00000000  0.50000000  -0.50000000  1.0
  Si  Si10  1  0.50000000  -0.50000000  1.00000000  1.0
  Si  Si11  1  -0.00000000  1.50000000  0.00000000  1.0
  Si  Si12  1  1.50000000  -0.00000000  0.00000000  1.0
  Ni  Ni13  1  0.88206718  0.88206718  -0.64620155  1.0
  Ni  Ni14  1  0.88206718  0.35379845  -0.11793282  1.0
  Ni  Ni15  1  0.35379845  0.88206718  -0.11793282  1.0
  Ni  Ni16  1  0.88206718  0.88206718  -0.11793282  1.0
  Ni  Ni17  1  1.11793282  0.11793282  0.64620155  1.0
  Ni  Ni18  1  1.11793282  0.64620155  0.11793282  1.0
  Ni  Ni19  1  1.64620155  0.11793282  0.11793282  1.0
  Ni  Ni20  1  1.11793282  0.11793282  0.11793282  1.0
  Ni  Ni21  1  0.66797549  0.66797549  -0.00392648  1.0
  Ni  Ni22  1  0.66797549  0.99607352  -0.33202451  1.0
  Ni  Ni23  1  0.99607352  0.66797549  -0.33202451  1.0
  Ni  Ni24  1  0.66797549  0.66797549  -0.33202451  1.0
  Ni  Ni25  1  1.33202451  0.33202451  0.00392648  1.0
  Ni  Ni26  1  1.33202451  0.00392648  0.33202451  1.0
  Ni  Ni27  1  1.00392648  0.33202451  0.33202451  1.0
  Ni  Ni28  1  1.33202451  0.33202451  0.33202451  1.0
