# generated using pymatgen
data_Tm2Be2GeO7
_symmetry_space_group_name_H-M   'P 1'
_cell_length_a   7.43653312
_cell_length_b   7.43653312
_cell_length_c   4.81642289
_cell_angle_alpha   90.00000000
_cell_angle_beta   90.00000000
_cell_angle_gamma   90.00000000
_symmetry_Int_Tables_number   1
_chemical_formula_structural   Tm2Be2GeO7
_chemical_formula_sum   'Tm4 Be4 Ge2 O14'
_cell_volume   266.35793881
_cell_formula_units_Z   2
loop_
 _symmetry_equiv_pos_site_id
 _symmetry_equiv_pos_as_xyz
  1  'x, y, z'
loop_
 _atom_site_type_symbol
 _atom_site_label
 _atom_site_symmetry_multiplicity
 _atom_site_fract_x
 _atom_site_fract_y
 _atom_site_fract_z
 _atom_site_occupancy
  Tm  Tm0  1  0.84156130  0.34156130  0.49621859  1.0
  Tm  Tm1  1  0.65843870  0.84156130  0.50378141  1.0
  Tm  Tm2  1  0.15843870  0.65843870  0.49621859  1.0
  Tm  Tm3  1  0.34156130  0.15843870  0.50378141  1.0
  Be  Be4  1  0.36452825  0.86452825  0.04937422  1.0
  Be  Be5  1  0.13547175  0.36452825  0.95062578  1.0
  Be  Be6  1  0.63547175  0.13547175  0.04937422  1.0
  Be  Be7  1  0.86452825  0.63547175  0.95062578  1.0
  Ge  Ge8  1  0.50000000  0.50000000  0.00000000  1.0
  Ge  Ge9  1  0.00000000  0.00000000  0.00000000  1.0
  O  O10  1  0.32805617  0.41828806  0.78291698  1.0
  O  O11  1  0.17194383  0.91828806  0.21708302  1.0
  O  O12  1  0.58171194  0.32805617  0.21708302  1.0
  O  O13  1  0.91828806  0.82805617  0.78291698  1.0
  O  O14  1  0.67194383  0.58171194  0.78291698  1.0
  O  O15  1  0.82805617  0.08171194  0.21708302  1.0
  O  O16  1  0.41828806  0.67194383  0.21708302  1.0
  O  O17  1  0.08171194  0.17194383  0.78291698  1.0
  O  O18  1  0.35837449  0.85837449  0.71791760  1.0
  O  O19  1  0.14162551  0.35837449  0.28208240  1.0
  O  O20  1  0.64162551  0.14162551  0.71791760  1.0
  O  O21  1  0.85837449  0.64162551  0.28208240  1.0
  O  O22  1  0.00000000  0.50000000  0.81131527  1.0
  O  O23  1  0.50000000  0.00000000  0.18868473  1.0
