# generated using pymatgen
data_ZnTe(H2N)4
_symmetry_space_group_name_H-M   'P 1'
_cell_length_a   7.32905887
_cell_length_b   11.64865256
_cell_length_c   7.47657650
_cell_angle_alpha   90.00000000
_cell_angle_beta   100.56204347
_cell_angle_gamma   90.00000000
_symmetry_Int_Tables_number   1
_chemical_formula_structural   ZnTe(H2N)4
_chemical_formula_sum   'Zn4 Te4 H32 N16'
_cell_volume   627.48793727
_cell_formula_units_Z   4
loop_
 _symmetry_equiv_pos_site_id
 _symmetry_equiv_pos_as_xyz
  1  'x, y, z'
loop_
 _atom_site_type_symbol
 _atom_site_label
 _atom_site_symmetry_multiplicity
 _atom_site_fract_x
 _atom_site_fract_y
 _atom_site_fract_z
 _atom_site_occupancy
  Zn  Zn0  1  0.94056305  0.74313344  0.88649524  1.0
  Zn  Zn1  1  0.05943695  0.24313344  0.11350476  1.0
  Zn  Zn2  1  0.41117180  0.66640416  0.66254466  1.0
  Zn  Zn3  1  0.58882820  0.16640416  0.33745534  1.0
  Te  Te4  1  0.30888291  0.75084102  0.95155209  1.0
  Te  Te5  1  0.69111709  0.25084102  0.04844791  1.0
  Te  Te6  1  0.75050352  0.62479570  0.61733339  1.0
  Te  Te7  1  0.24949648  0.12479570  0.38266661  1.0
  H  H8  1  0.93770097  0.71556594  0.23354414  1.0
  H  H9  1  0.06229903  0.21556594  0.76645586  1.0
  H  H10  1  0.71757761  0.72039607  0.12381522  1.0
  H  H11  1  0.28242239  0.22039607  0.87618478  1.0
  H  H12  1  0.75366490  0.53204239  0.01948946  1.0
  H  H13  1  0.24633510  0.03204239  0.98051054  1.0
  H  H14  1  0.77270040  0.54091833  0.24365599  1.0
  H  H15  1  0.22729960  0.04091833  0.75634401  1.0
  H  H16  1  0.95755745  0.96827721  0.89944396  1.0
  H  H17  1  0.04244255  0.46827721  0.10055604  1.0
  H  H18  1  0.83720737  0.92465395  0.05687283  1.0
  H  H19  1  0.16279263  0.42465395  0.94312717  1.0
  H  H20  1  0.64993964  0.03469377  0.86028173  1.0
  H  H21  1  0.35006036  0.53469377  0.13971827  1.0
  H  H22  1  0.57819266  0.90117969  0.81842301  1.0
  H  H23  1  0.42180734  0.40117969  0.18157699  1.0
  H  H24  1  0.11285811  0.54140549  0.56091020  1.0
  H  H25  1  0.88714189  0.04140549  0.43908980  1.0
  H  H26  1  0.26985732  0.49977745  0.43495715  1.0
  H  H27  1  0.73014268  -0.00022255  0.56504285  1.0
  H  H28  1  0.42769472  0.42882992  0.74840860  1.0
  H  H29  1  0.57230528  0.92882992  0.25159140  1.0
  H  H30  1  0.27926745  0.34901681  0.60868165  1.0
  H  H31  1  0.72073255  0.84901681  0.39131835  1.0
  H  H32  1  0.38451857  0.85899050  0.47707065  1.0
  H  H33  1  0.61548143  0.35899050  0.52292935  1.0
  H  H34  1  0.34148120  0.75588794  0.32405528  1.0
  H  H35  1  0.65851880  0.25588794  0.67594472  1.0
  H  H36  1  0.07430071  0.80147272  0.53948754  1.0
  H  H37  1  0.92569929  0.30147272  0.46051246  1.0
  H  H38  1  0.09589510  0.89206715  0.37373718  1.0
  H  H39  1  0.90410490  0.39206715  0.62626282  1.0
  N  N40  1  0.84565113  0.68442357  0.12167527  1.0
  N  N41  1  0.15434887  0.18442357  0.87832473  1.0
  N  N42  1  0.83637507  0.56157677  0.13626709  1.0
  N  N43  1  0.16362493  0.06157677  0.86373291  1.0
  N  N44  1  0.85006620  0.91479383  0.92211560  1.0
  N  N45  1  0.14993380  0.41479383  0.07788440  1.0
  N  N46  1  0.68344590  0.95740405  0.80593307  1.0
  N  N47  1  0.31655410  0.45740405  0.19406693  1.0
  N  N48  1  0.25019401  0.52080166  0.56622216  1.0
  N  N49  1  0.74980599  0.02080166  0.43377784  1.0
  N  N50  1  0.29112403  0.42283501  0.68616385  1.0
  N  N51  1  0.70887597  0.92283501  0.31383615  1.0
  N  N52  1  0.31100389  0.78404100  0.44624966  1.0
  N  N53  1  0.68899611  0.28404100  0.55375034  1.0
  N  N54  1  0.11483192  0.80783447  0.41540914  1.0
  N  N55  1  0.88516808  0.30783447  0.58459086  1.0
