# generated using pymatgen
data_LiMgAlH6
_symmetry_space_group_name_H-M   'P 1'
_cell_length_a   7.99046752
_cell_length_b   7.99046752
_cell_length_c   4.37399704
_cell_angle_alpha   90.00000000
_cell_angle_beta   90.00000000
_cell_angle_gamma   120.00000000
_symmetry_Int_Tables_number   1
_chemical_formula_structural   LiMgAlH6
_chemical_formula_sum   'Li3 Mg3 Al3 H18'
_cell_volume   241.85412428
_cell_formula_units_Z   3
loop_
 _symmetry_equiv_pos_site_id
 _symmetry_equiv_pos_as_xyz
  1  'x, y, z'
loop_
 _atom_site_type_symbol
 _atom_site_label
 _atom_site_symmetry_multiplicity
 _atom_site_fract_x
 _atom_site_fract_y
 _atom_site_fract_z
 _atom_site_occupancy
  Li  Li0  1  0.29601535  0.29601535  0.50000000  1.0
  Li  Li1  1  0.00000000  0.70398465  0.50000000  1.0
  Li  Li2  1  0.70398465  0.00000000  0.50000000  1.0
  Mg  Mg3  1  0.63756375  0.63756375  0.00000000  1.0
  Mg  Mg4  1  0.00000000  0.36243625  0.00000000  1.0
  Mg  Mg5  1  0.36243625  0.00000000  0.00000000  1.0
  Al  Al6  1  0.33333333  0.66666667  0.49806171  1.0
  Al  Al7  1  0.66666667  0.33333333  0.50193829  1.0
  Al  Al8  1  0.00000000  0.00000000  0.00000000  1.0
  H  H9  1  0.11453073  0.90504826  0.21957194  1.0
  H  H10  1  0.90504826  0.11453073  0.78042806  1.0
  H  H11  1  0.79051753  0.88546927  0.21957194  1.0
  H  H12  1  0.09495174  0.20948247  0.21957194  1.0
  H  H13  1  0.88546927  0.79051753  0.78042806  1.0
  H  H14  1  0.20948247  0.09495174  0.78042806  1.0
  H  H15  1  0.45421299  0.87377458  0.27179493  1.0
  H  H16  1  0.87377458  0.45421299  0.72820507  1.0
  H  H17  1  0.41956159  0.54578701  0.27179493  1.0
  H  H18  1  0.12622542  0.58043841  0.27179493  1.0
  H  H19  1  0.54578701  0.41956159  0.72820507  1.0
  H  H20  1  0.58043841  0.12622542  0.72820507  1.0
  H  H21  1  0.76370888  0.54087861  0.27712984  1.0
  H  H22  1  0.54087861  0.76370888  0.72287016  1.0
  H  H23  1  0.77716973  0.23629112  0.27712984  1.0
  H  H24  1  0.45912139  0.22283027  0.27712984  1.0
  H  H25  1  0.23629112  0.77716973  0.72287016  1.0
  H  H26  1  0.22283027  0.45912139  0.72287016  1.0
