# generated using pymatgen
data_Li4SnS4
_symmetry_space_group_name_H-M   'P 1'
_cell_length_a   14.31036745
_cell_length_b   7.93861647
_cell_length_c   6.38312140
_cell_angle_alpha   90.00000000
_cell_angle_beta   90.00000000
_cell_angle_gamma   90.00000000
_symmetry_Int_Tables_number   1
_chemical_formula_structural   Li4SnS4
_chemical_formula_sum   'Li16 Sn4 S16'
_cell_volume   725.15143384
_cell_formula_units_Z   4
loop_
 _symmetry_equiv_pos_site_id
 _symmetry_equiv_pos_as_xyz
  1  'x, y, z'
loop_
 _atom_site_type_symbol
 _atom_site_label
 _atom_site_symmetry_multiplicity
 _atom_site_fract_x
 _atom_site_fract_y
 _atom_site_fract_z
 _atom_site_occupancy
  Li  Li0  1  0.82240484  0.49479076  0.17879559  1.0
  Li  Li1  1  0.82240484  0.00520924  0.17879559  1.0
  Li  Li2  1  0.32240484  0.49479076  0.32120441  1.0
  Li  Li3  1  0.32240484  0.00520924  0.32120441  1.0
  Li  Li4  1  0.17759516  0.99479076  0.82120441  1.0
  Li  Li5  1  0.17759516  0.50520924  0.82120441  1.0
  Li  Li6  1  0.67759516  0.99479076  0.67879559  1.0
  Li  Li7  1  0.67759516  0.50520924  0.67879559  1.0
  Li  Li8  1  0.59014981  0.25000000  0.12745672  1.0
  Li  Li9  1  0.09014981  0.25000000  0.37254328  1.0
  Li  Li10  1  0.40985019  0.75000000  0.87254328  1.0
  Li  Li11  1  0.90985019  0.75000000  0.62745672  1.0
  Li  Li12  1  0.00000000  0.50000000  0.00000000  1.0
  Li  Li13  1  0.00000000  0.00000000  0.00000000  1.0
  Li  Li14  1  0.50000000  0.50000000  0.50000000  1.0
  Li  Li15  1  0.50000000  0.00000000  0.50000000  1.0
  Sn  Sn16  1  0.90818171  0.25000000  0.64322879  1.0
  Sn  Sn17  1  0.40818171  0.25000000  0.85677121  1.0
  Sn  Sn18  1  0.09181829  0.75000000  0.35677121  1.0
  Sn  Sn19  1  0.59181829  0.75000000  0.14322879  1.0
  S  S20  1  0.91772174  0.25000000  0.26492314  1.0
  S  S21  1  0.41772174  0.25000000  0.23507686  1.0
  S  S22  1  0.08227826  0.75000000  0.73507686  1.0
  S  S23  1  0.58227826  0.75000000  0.76492314  1.0
  S  S24  1  0.66022713  1.00169401  0.28839303  1.0
  S  S25  1  0.66022713  0.49830599  0.28839303  1.0
  S  S26  1  0.16022713  1.00169401  0.21160697  1.0
  S  S27  1  0.16022713  0.49830599  0.21160697  1.0
  S  S28  1  0.33977287  0.50169401  0.71160697  1.0
  S  S29  1  0.33977287  -0.00169401  0.71160697  1.0
  S  S30  1  0.83977287  0.50169401  0.78839303  1.0
  S  S31  1  0.83977287  -0.00169401  0.78839303  1.0
  S  S32  1  0.56985885  0.25000000  0.73460292  1.0
  S  S33  1  0.06985885  0.25000000  0.76539708  1.0
  S  S34  1  0.43014115  0.75000000  0.26539708  1.0
  S  S35  1  0.93014115  0.75000000  0.23460292  1.0
