# generated using pymatgen
data_Tb2Al6Si4Pt
_symmetry_space_group_name_H-M   'P 1'
_cell_length_a   17.20742767
_cell_length_b   17.20742767
_cell_length_c   17.20742767
_cell_angle_alpha   13.88526654
_cell_angle_beta   13.88526654
_cell_angle_gamma   13.88526655
_symmetry_Int_Tables_number   1
_chemical_formula_structural   Tb2Al6Si4Pt
_chemical_formula_sum   'Tb2 Al6 Si4 Pt1'
_cell_volume   255.35423614
_cell_formula_units_Z   1
loop_
 _symmetry_equiv_pos_site_id
 _symmetry_equiv_pos_as_xyz
  1  'x, y, z'
loop_
 _atom_site_type_symbol
 _atom_site_label
 _atom_site_symmetry_multiplicity
 _atom_site_fract_x
 _atom_site_fract_y
 _atom_site_fract_z
 _atom_site_occupancy
  Tb  Tb0  1  1.56610575  0.56610575  0.56610575  1.0
  Tb  Tb1  1  1.43389425  0.43389425  0.43389425  1.0
  Al  Al2  1  0.94987916  0.94987916  0.94987916  1.0
  Al  Al3  1  1.05012084  1.05012084  0.05012084  1.0
  Al  Al4  1  0.81506025  0.81506025  0.81506025  1.0
  Al  Al5  1  1.18493975  1.18493975  0.18493975  1.0
  Al  Al6  1  0.68256840  0.68256840  0.68256840  1.0
  Al  Al7  1  1.31743160  1.31743160  0.31743160  1.0
  Si  Si8  1  0.86510096  0.86510096  0.86510096  1.0
  Si  Si9  1  1.13489904  1.13489904  0.13489904  1.0
  Si  Si10  1  0.73396085  0.73396085  0.73396085  1.0
  Si  Si11  1  1.26603915  1.26603915  0.26603915  1.0
  Pt  Pt12  1  0.00000000  0.00000000  0.00000000  1.0
