# generated using pymatgen
data_CrBPbO4
_symmetry_space_group_name_H-M   'P 1'
_cell_length_a   7.16354840
_cell_length_b   6.03173134
_cell_length_c   8.14700494
_cell_angle_alpha   90.00000000
_cell_angle_beta   90.00000000
_cell_angle_gamma   90.00000000
_symmetry_Int_Tables_number   1
_chemical_formula_structural   CrBPbO4
_chemical_formula_sum   'Cr4 B4 Pb4 O16'
_cell_volume   352.02067228
_cell_formula_units_Z   4
loop_
 _symmetry_equiv_pos_site_id
 _symmetry_equiv_pos_as_xyz
  1  'x, y, z'
loop_
 _atom_site_type_symbol
 _atom_site_label
 _atom_site_symmetry_multiplicity
 _atom_site_fract_x
 _atom_site_fract_y
 _atom_site_fract_z
 _atom_site_occupancy
  Cr  Cr0  1  0.00000000  0.00000000  0.00000000  1.0
  Cr  Cr1  1  0.00000000  0.50000000  0.00000000  1.0
  Cr  Cr2  1  0.50000000  0.00000000  0.50000000  1.0
  Cr  Cr3  1  0.50000000  0.50000000  0.50000000  1.0
  B  B4  1  0.72472515  0.75000000  0.23620243  1.0
  B  B5  1  0.22472515  0.75000000  0.26379757  1.0
  B  B6  1  0.27527485  0.25000000  0.76379757  1.0
  B  B7  1  0.77527485  0.25000000  0.73620243  1.0
  Pb  Pb8  1  0.92717815  0.75000000  0.63401337  1.0
  Pb  Pb9  1  0.42717815  0.75000000  0.86598663  1.0
  Pb  Pb10  1  0.07282185  0.25000000  0.36598663  1.0
  Pb  Pb11  1  0.57282185  0.25000000  0.13401337  1.0
  O  O12  1  0.67040249  0.94906764  0.30649832  1.0
  O  O13  1  0.67040249  0.55093236  0.30649832  1.0
  O  O14  1  0.17040249  0.94906764  0.19350168  1.0
  O  O15  1  0.17040249  0.55093236  0.19350168  1.0
  O  O16  1  0.32959751  0.44906764  0.69350168  1.0
  O  O17  1  0.32959751  0.05093236  0.69350168  1.0
  O  O18  1  0.82959751  0.44906764  0.80649832  1.0
  O  O19  1  0.82959751  0.05093236  0.80649832  1.0
  O  O20  1  0.83223101  0.75000000  0.09335547  1.0
  O  O21  1  0.33223101  0.75000000  0.40664453  1.0
  O  O22  1  0.16776899  0.25000000  0.90664453  1.0
  O  O23  1  0.66776899  0.25000000  0.59335547  1.0
  O  O24  1  0.59967297  0.75000000  0.62144532  1.0
  O  O25  1  0.09967297  0.75000000  0.87855468  1.0
  O  O26  1  0.40032703  0.25000000  0.37855468  1.0
  O  O27  1  0.90032703  0.25000000  0.12144532  1.0
