# generated using pymatgen
data_Rb3NaTiO4
_symmetry_space_group_name_H-M   'P 1'
_cell_length_a   10.88892283
_cell_length_b   6.51946686
_cell_length_c   10.98354486
_cell_angle_alpha   90.00000000
_cell_angle_beta   112.57665615
_cell_angle_gamma   90.00000000
_symmetry_Int_Tables_number   1
_chemical_formula_structural   Rb3NaTiO4
_chemical_formula_sum   'Rb12 Na4 Ti4 O16'
_cell_volume   719.96891238
_cell_formula_units_Z   4
loop_
 _symmetry_equiv_pos_site_id
 _symmetry_equiv_pos_as_xyz
  1  'x, y, z'
loop_
 _atom_site_type_symbol
 _atom_site_label
 _atom_site_symmetry_multiplicity
 _atom_site_fract_x
 _atom_site_fract_y
 _atom_site_fract_z
 _atom_site_occupancy
  Rb  Rb0  1  0.95107086  0.39434660  0.30718320  1.0
  Rb  Rb1  1  0.95107086  0.10565340  0.80718320  1.0
  Rb  Rb2  1  0.04892914  0.89434660  0.19281680  1.0
  Rb  Rb3  1  0.04892914  0.60565340  0.69281680  1.0
  Rb  Rb4  1  0.82198153  0.87682134  0.39916144  1.0
  Rb  Rb5  1  0.82198153  0.62317866  0.89916144  1.0
  Rb  Rb6  1  0.17801847  0.37682134  0.10083856  1.0
  Rb  Rb7  1  0.17801847  0.12317866  0.60083856  1.0
  Rb  Rb8  1  0.54189473  0.15321276  0.17278635  1.0
  Rb  Rb9  1  0.54189473  0.34678724  0.67278635  1.0
  Rb  Rb10  1  0.45810527  0.65321276  0.32721365  1.0
  Rb  Rb11  1  0.45810527  0.84678724  0.82721365  1.0
  Na  Na12  1  0.37446766  0.11491096  0.39174377  1.0
  Na  Na13  1  0.37446766  0.38508904  0.89174377  1.0
  Na  Na14  1  0.62553234  0.61491096  0.10825623  1.0
  Na  Na15  1  0.62553234  0.88508904  0.60825623  1.0
  Ti  Ti16  1  0.74139626  0.36759565  0.48649204  1.0
  Ti  Ti17  1  0.74139626  0.13240435  0.98649204  1.0
  Ti  Ti18  1  0.25860374  0.86759565  0.01350796  1.0
  Ti  Ti19  1  0.25860374  0.63240435  0.51350796  1.0
  O  O20  1  0.90860059  0.24547292  0.04282562  1.0
  O  O21  1  0.90860059  0.25452708  0.54282562  1.0
  O  O22  1  0.09139941  0.74547292  0.45717438  1.0
  O  O23  1  0.09139941  0.75452708  0.95717438  1.0
  O  O24  1  0.73606156  0.92823723  0.10153581  1.0
  O  O25  1  0.73606156  0.57176277  0.60153581  1.0
  O  O26  1  0.26393844  0.42823723  0.39846419  1.0
  O  O27  1  0.26393844  0.07176277  0.89846419  1.0
  O  O28  1  0.70503012  0.48380081  0.32379689  1.0
  O  O29  1  0.70503012  0.01619919  0.82379689  1.0
  O  O30  1  0.29496988  0.98380081  0.17620311  1.0
  O  O31  1  0.29496988  0.51619919  0.67620311  1.0
  O  O32  1  0.61527233  0.16439510  0.46540818  1.0
  O  O33  1  0.61527233  0.33560490  0.96540818  1.0
  O  O34  1  0.38472767  0.66439510  0.03459182  1.0
  O  O35  1  0.38472767  0.83560490  0.53459182  1.0
