# generated using pymatgen
data_TiSiRu
_symmetry_space_group_name_H-M   'P 1'
_cell_length_a   7.37646597
_cell_length_b   7.37646597
_cell_length_c   7.37646597
_cell_angle_alpha   122.61434840
_cell_angle_beta   81.25643236
_cell_angle_gamma   127.80896532
_symmetry_Int_Tables_number   1
_chemical_formula_structural   TiSiRu
_chemical_formula_sum   'Ti6 Si6 Ru6'
_cell_volume   257.32734383
_cell_formula_units_Z   6
loop_
 _symmetry_equiv_pos_site_id
 _symmetry_equiv_pos_as_xyz
  1  'x, y, z'
loop_
 _atom_site_type_symbol
 _atom_site_label
 _atom_site_symmetry_multiplicity
 _atom_site_fract_x
 _atom_site_fract_y
 _atom_site_fract_z
 _atom_site_occupancy
  Ti  Ti0  1  0.75714613  1.23069609  1.02645004  1.0
  Ti  Ti1  1  1.20424605  1.73069609  0.97354996  1.0
  Ti  Ti2  1  0.33755987  1.08345498  0.75410489  1.0
  Ti  Ti3  1  1.32935008  1.58345498  1.24589511  1.0
  Ti  Ti4  1  1.14952491  1.20432968  0.44519523  1.0
  Ti  Ti5  1  0.75913445  0.70432968  0.55480477  1.0
  Si  Si6  1  0.42285730  0.26232511  0.17456057  1.0
  Si  Si7  1  1.08776454  0.76232511  0.33946780  1.0
  Si  Si8  1  0.42285730  0.74829673  0.66053220  1.0
  Si  Si9  1  1.08776454  1.24829673  0.82543943  1.0
  Si  Si10  1  0.71141865  0.99284883  1.21856982  1.0
  Si  Si11  1  0.77427900  1.49284883  0.78143018  1.0
  Ru  Ru12  1  0.50040939  0.16197747  0.40883694  1.0
  Ru  Ru13  1  0.75314052  0.66197747  0.16156808  1.0
  Ru  Ru14  1  0.50040939  0.59157245  0.83843192  1.0
  Ru  Ru15  1  0.75314052  1.09157245  0.59116306  1.0
  Ru  Ru16  1  0.00429867  0.00429867  0.00000000  1.0
  Ru  Ru17  1  0.00429867  0.50429867  0.50000000  1.0
