# generated using pymatgen
data_VAgTeO5
_symmetry_space_group_name_H-M   'P 1'
_cell_length_a   5.76306310
_cell_length_b   12.07487211
_cell_length_c   6.87441314
_cell_angle_alpha   90.00000000
_cell_angle_beta   100.52076850
_cell_angle_gamma   90.00000000
_symmetry_Int_Tables_number   1
_chemical_formula_structural   VAgTeO5
_chemical_formula_sum   'V4 Ag4 Te4 O20'
_cell_volume   470.33625889
_cell_formula_units_Z   4
loop_
 _symmetry_equiv_pos_site_id
 _symmetry_equiv_pos_as_xyz
  1  'x, y, z'
loop_
 _atom_site_type_symbol
 _atom_site_label
 _atom_site_symmetry_multiplicity
 _atom_site_fract_x
 _atom_site_fract_y
 _atom_site_fract_z
 _atom_site_occupancy
  V  V0  1  0.66862099  0.37375637  0.41532585  1.0
  V  V1  1  0.66862099  0.12624363  0.91532585  1.0
  V  V2  1  0.33137901  0.87375637  0.08467415  1.0
  V  V3  1  0.33137901  0.62624363  0.58467415  1.0
  Ag  Ag4  1  0.81484012  0.72701774  0.29367790  1.0
  Ag  Ag5  1  0.81484012  0.77298226  0.79367790  1.0
  Ag  Ag6  1  0.18515988  0.22701774  0.20632210  1.0
  Ag  Ag7  1  0.18515988  0.27298226  0.70632210  1.0
  Te  Te8  1  0.75234491  0.05891847  0.40012411  1.0
  Te  Te9  1  0.75234491  0.44108153  0.90012411  1.0
  Te  Te10  1  0.24765509  0.55891847  0.09987589  1.0
  Te  Te11  1  0.24765509  0.94108153  0.59987589  1.0
  O  O12  1  0.88528894  0.90787872  0.47699448  1.0
  O  O13  1  0.88528894  0.59212128  0.97699448  1.0
  O  O14  1  0.11471106  0.40787872  0.02300552  1.0
  O  O15  1  0.11471106  0.09212128  0.52300552  1.0
  O  O16  1  0.83930204  0.27562341  0.33925112  1.0
  O  O17  1  0.83930204  0.22437659  0.83925112  1.0
  O  O18  1  0.16069796  0.77562341  0.16074888  1.0
  O  O19  1  0.16069796  0.72437659  0.66074888  1.0
  O  O20  1  0.83480554  0.05352432  0.12849925  1.0
  O  O21  1  0.83480554  0.44647568  0.62849925  1.0
  O  O22  1  0.16519446  0.55352432  0.37150075  1.0
  O  O23  1  0.16519446  0.94647568  0.87150075  1.0
  O  O24  1  0.57339283  0.46711509  0.21446636  1.0
  O  O25  1  0.57339283  0.03288491  0.71446636  1.0
  O  O26  1  0.42660717  0.96711509  0.28553364  1.0
  O  O27  1  0.42660717  0.53288491  0.78553364  1.0
  O  O28  1  0.43723366  0.31413791  0.48591970  1.0
  O  O29  1  0.43723366  0.18586209  0.98591970  1.0
  O  O30  1  0.56276634  0.81413791  0.01408030  1.0
  O  O31  1  0.56276634  0.68586209  0.51408030  1.0
