# generated using pymatgen
data_KAgTeS3
_symmetry_space_group_name_H-M   'P 1'
_cell_length_a   7.62301979
_cell_length_b   10.94363418
_cell_length_c   8.58813094
_cell_angle_alpha   90.00000000
_cell_angle_beta   105.78951685
_cell_angle_gamma   90.00000000
_symmetry_Int_Tables_number   1
_chemical_formula_structural   KAgTeS3
_chemical_formula_sum   'K4 Ag4 Te4 S12'
_cell_volume   689.41895966
_cell_formula_units_Z   4
loop_
 _symmetry_equiv_pos_site_id
 _symmetry_equiv_pos_as_xyz
  1  'x, y, z'
loop_
 _atom_site_type_symbol
 _atom_site_label
 _atom_site_symmetry_multiplicity
 _atom_site_fract_x
 _atom_site_fract_y
 _atom_site_fract_z
 _atom_site_occupancy
  K  K0  1  0.46649643  0.27883126  0.12083717  1.0
  K  K1  1  0.46649643  0.22116874  0.62083717  1.0
  K  K2  1  0.53350357  0.77883126  0.37916283  1.0
  K  K3  1  0.53350357  0.72116874  0.87916283  1.0
  Ag  Ag4  1  0.92191191  0.25487964  0.48303769  1.0
  Ag  Ag5  1  0.92191191  0.24512036  0.98303769  1.0
  Ag  Ag6  1  0.07808809  0.75487964  0.01696231  1.0
  Ag  Ag7  1  0.07808809  0.74512036  0.51696231  1.0
  Te  Te8  1  0.91837771  0.50613846  0.23056840  1.0
  Te  Te9  1  0.91837771  -0.00613846  0.73056840  1.0
  Te  Te10  1  0.08162229  1.00613846  0.26943160  1.0
  Te  Te11  1  0.08162229  0.49386154  0.76943160  1.0
  S  S12  1  0.73833670  0.05627782  0.46663128  1.0
  S  S13  1  0.73833670  0.44372218  0.96663128  1.0
  S  S14  1  0.26166330  0.55627782  0.03336872  1.0
  S  S15  1  0.26166330  0.94372218  0.53336872  1.0
  S  S16  1  0.86484160  0.72604005  0.21355564  1.0
  S  S17  1  0.86484160  0.77395995  0.71355564  1.0
  S  S18  1  0.13515840  0.22604005  0.28644436  1.0
  S  S19  1  0.13515840  0.27395995  0.78644436  1.0
  S  S20  1  0.73079043  0.44990571  0.40400223  1.0
  S  S21  1  0.73079043  0.05009429  0.90400223  1.0
  S  S22  1  0.26920957  0.94990571  0.09599777  1.0
  S  S23  1  0.26920957  0.55009429  0.59599777  1.0
