# generated using pymatgen
data_CrAu4
_symmetry_space_group_name_H-M   'P 1'
_cell_length_a   5.03231094
_cell_length_b   5.03231094
_cell_length_c   5.03231094
_cell_angle_alpha   99.44309223
_cell_angle_beta   99.44309223
_cell_angle_gamma   132.21110540
_symmetry_Int_Tables_number   1
_chemical_formula_structural   CrAu4
_chemical_formula_sum   'Cr1 Au4'
_cell_volume   86.30088046
_cell_formula_units_Z   1
loop_
 _symmetry_equiv_pos_site_id
 _symmetry_equiv_pos_as_xyz
  1  'x, y, z'
loop_
 _atom_site_type_symbol
 _atom_site_label
 _atom_site_symmetry_multiplicity
 _atom_site_fract_x
 _atom_site_fract_y
 _atom_site_fract_z
 _atom_site_occupancy
  Cr  Cr0  1  0.00000000  0.00000000  0.00000000  1.0
  Au  Au1  1  0.79659317  0.60222455  0.39881772  1.0
  Au  Au2  1  0.60222455  0.20340683  0.80563137  1.0
  Au  Au3  1  1.20340683  1.39777545  1.60118228  1.0
  Au  Au4  1  0.39777545  0.79659317  1.19436863  1.0
