# generated using pymatgen
data_AsI3
_symmetry_space_group_name_H-M   'P 1'
_cell_length_a   8.46704956
_cell_length_b   8.46704956
_cell_length_c   8.46704956
_cell_angle_alpha   50.95517546
_cell_angle_beta   50.95517546
_cell_angle_gamma   50.95517546
_symmetry_Int_Tables_number   1
_chemical_formula_structural   AsI3
_chemical_formula_sum   'As2 I6'
_cell_volume   337.69352332
_cell_formula_units_Z   2
loop_
 _symmetry_equiv_pos_site_id
 _symmetry_equiv_pos_as_xyz
  1  'x, y, z'
loop_
 _atom_site_type_symbol
 _atom_site_label
 _atom_site_symmetry_multiplicity
 _atom_site_fract_x
 _atom_site_fract_y
 _atom_site_fract_z
 _atom_site_occupancy
  As  As0  1  0.16863881  0.16863881  0.16863881  1.0
  As  As1  1  0.83136119  -0.16863881  -0.16863881  1.0
  I  I2  1  0.42571085  0.06789252  -0.22237686  1.0
  I  I3  1  1.22237686  -0.42571085  -0.06789252  1.0
  I  I4  1  0.93210748  0.22237686  -0.42571085  1.0
  I  I5  1  0.57428915  -0.06789252  0.22237686  1.0
  I  I6  1  0.77762314  -0.57428915  0.06789252  1.0
  I  I7  1  1.06789252  -0.22237686  -0.57428915  1.0
