# generated using pymatgen
data_Cs5Si3AgO9
_symmetry_space_group_name_H-M   'P 1'
_cell_length_a   9.88667802
_cell_length_b   6.58918427
_cell_length_c   11.88064168
_cell_angle_alpha   90.00000000
_cell_angle_beta   93.79226166
_cell_angle_gamma   90.00000000
_symmetry_Int_Tables_number   1
_chemical_formula_structural   Cs5Si3AgO9
_chemical_formula_sum   'Cs10 Si6 Ag2 O18'
_cell_volume   772.27143713
_cell_formula_units_Z   2
loop_
 _symmetry_equiv_pos_site_id
 _symmetry_equiv_pos_as_xyz
  1  'x, y, z'
loop_
 _atom_site_type_symbol
 _atom_site_label
 _atom_site_symmetry_multiplicity
 _atom_site_fract_x
 _atom_site_fract_y
 _atom_site_fract_z
 _atom_site_occupancy
  Cs  Cs0  1  0.72178828  0.25000000  0.36630442  1.0
  Cs  Cs1  1  0.27821172  0.75000000  0.63369558  1.0
  Cs  Cs2  1  0.46308108  0.25000000  0.10316826  1.0
  Cs  Cs3  1  0.53691892  0.75000000  0.89683174  1.0
  Cs  Cs4  1  0.33768178  0.25000000  0.43586810  1.0
  Cs  Cs5  1  0.66231822  0.75000000  0.56413190  1.0
  Cs  Cs6  1  0.22327170  0.25000000  0.81892231  1.0
  Cs  Cs7  1  0.77672830  0.75000000  0.18107769  1.0
  Cs  Cs8  1  0.04604387  0.25000000  0.12051735  1.0
  Cs  Cs9  1  0.95395613  0.75000000  0.87948265  1.0
  Si  Si10  1  0.86979229  0.25000000  0.69854190  1.0
  Si  Si11  1  0.13020771  0.75000000  0.30145810  1.0
  Si  Si12  1  0.74681423  0.25000000  0.93167152  1.0
  Si  Si13  1  0.25318577  0.75000000  0.06832848  1.0
  Si  Si14  1  0.55729107  0.25000000  0.70832577  1.0
  Si  Si15  1  0.44270893  0.75000000  0.29167423  1.0
  Ag  Ag16  1  0.00000000  0.50000000  0.50000000  1.0
  Ag  Ag17  1  0.00000000  0.00000000  0.50000000  1.0
  O  O18  1  0.94643781  0.45902368  0.66274525  1.0
  O  O19  1  0.94643781  0.04097632  0.66274525  1.0
  O  O20  1  0.05356219  0.95902368  0.33725475  1.0
  O  O21  1  0.05356219  0.54097632  0.33725475  1.0
  O  O22  1  0.47638330  0.45698107  0.67417278  1.0
  O  O23  1  0.47638330  0.04301893  0.67417278  1.0
  O  O24  1  0.52361670  0.95698107  0.32582722  1.0
  O  O25  1  0.52361670  0.54301893  0.32582722  1.0
  O  O26  1  0.24233574  0.95804262  0.99634165  1.0
  O  O27  1  0.24233574  0.54195738  0.99634165  1.0
  O  O28  1  0.75766426  0.45804262  0.00365835  1.0
  O  O29  1  0.75766426  0.04195738  0.00365835  1.0
  O  O30  1  0.87120932  0.25000000  0.83822877  1.0
  O  O31  1  0.12879068  0.75000000  0.16177123  1.0
  O  O32  1  0.70894933  0.25000000  0.64577544  1.0
  O  O33  1  0.29105067  0.75000000  0.35422456  1.0
  O  O34  1  0.60108501  0.25000000  0.84793616  1.0
  O  O35  1  0.39891499  0.75000000  0.15206384  1.0
