# generated using pymatgen
data_V5P3
_symmetry_space_group_name_H-M   'P 1'
_cell_length_a   6.93211560
_cell_length_b   6.93211560
_cell_length_c   4.79826387
_cell_angle_alpha   90.00000000
_cell_angle_beta   90.00000000
_cell_angle_gamma   120.00000000
_symmetry_Int_Tables_number   1
_chemical_formula_structural   V5P3
_chemical_formula_sum   'V10 P6'
_cell_volume   199.68541814
_cell_formula_units_Z   2
loop_
 _symmetry_equiv_pos_site_id
 _symmetry_equiv_pos_as_xyz
  1  'x, y, z'
loop_
 _atom_site_type_symbol
 _atom_site_label
 _atom_site_symmetry_multiplicity
 _atom_site_fract_x
 _atom_site_fract_y
 _atom_site_fract_z
 _atom_site_occupancy
  V  V0  1  0.66666667  0.33333333  0.50000000  1.0
  V  V1  1  0.33333333  0.66666667  0.50000000  1.0
  V  V2  1  0.33333333  0.66666667  0.00000000  1.0
  V  V3  1  0.66666667  0.33333333  0.00000000  1.0
  V  V4  1  0.74658834  0.74658834  0.25000000  1.0
  V  V5  1  0.25341166  0.00000000  0.25000000  1.0
  V  V6  1  -0.00000000  0.25341166  0.25000000  1.0
  V  V7  1  0.25341166  0.25341166  0.75000000  1.0
  V  V8  1  0.74658834  -0.00000000  0.75000000  1.0
  V  V9  1  0.00000000  0.74658834  0.75000000  1.0
  P  P10  1  0.38719532  0.38719532  0.25000000  1.0
  P  P11  1  0.61280468  0.00000000  0.25000000  1.0
  P  P12  1  -0.00000000  0.61280468  0.25000000  1.0
  P  P13  1  0.61280468  0.61280468  0.75000000  1.0
  P  P14  1  0.38719532  -0.00000000  0.75000000  1.0
  P  P15  1  0.00000000  0.38719532  0.75000000  1.0
