# generated using pymatgen
data_LiLuF4
_symmetry_space_group_name_H-M   'P 1'
_cell_length_a   6.47289884
_cell_length_b   6.47289884
_cell_length_c   5.19069087
_cell_angle_alpha   66.37255311
_cell_angle_beta   113.62744689
_cell_angle_gamma   69.08167832
_symmetry_Int_Tables_number   1
_chemical_formula_structural   LiLuF4
_chemical_formula_sum   'Li2 Lu2 F8'
_cell_volume   143.69611197
_cell_formula_units_Z   2
loop_
 _symmetry_equiv_pos_site_id
 _symmetry_equiv_pos_as_xyz
  1  'x, y, z'
loop_
 _atom_site_type_symbol
 _atom_site_label
 _atom_site_symmetry_multiplicity
 _atom_site_fract_x
 _atom_site_fract_y
 _atom_site_fract_z
 _atom_site_occupancy
  Li  Li0  1  0.87512335  0.87512335  0.75000000  1.0
  Li  Li1  1  1.12487665  0.12487665  0.25000000  1.0
  Lu  Lu2  1  1.37496326  0.37496326  0.75000000  1.0
  Lu  Lu3  1  0.62503674  0.62503674  0.25000000  1.0
  F  F4  1  1.62735713  -0.03810782  0.86686045  1.0
  F  F5  1  1.03810782  0.37264287  0.36686045  1.0
  F  F6  1  0.96189218  0.62735713  0.63313955  1.0
  F  F7  1  1.37264287  0.03810782  0.13313955  1.0
  F  F8  1  1.32881451  -0.23957947  0.70170124  1.0
  F  F9  1  1.23957947  0.67118549  0.20170124  1.0
  F  F10  1  0.76042053  0.32881451  0.79829876  1.0
  F  F11  1  1.67118549  0.23957947  0.29829876  1.0
