# generated using pymatgen
data_La2Rh7
_symmetry_space_group_name_H-M   'P 1'
_cell_length_a   5.33287071
_cell_length_b   5.33287071
_cell_length_c   26.49661069
_cell_angle_alpha   90.00000000
_cell_angle_beta   90.00000000
_cell_angle_gamma   120.00000000
_symmetry_Int_Tables_number   1
_chemical_formula_structural   La2Rh7
_chemical_formula_sum   'La8 Rh28'
_cell_volume   652.59398495
_cell_formula_units_Z   4
loop_
 _symmetry_equiv_pos_site_id
 _symmetry_equiv_pos_as_xyz
  1  'x, y, z'
loop_
 _atom_site_type_symbol
 _atom_site_label
 _atom_site_symmetry_multiplicity
 _atom_site_fract_x
 _atom_site_fract_y
 _atom_site_fract_z
 _atom_site_occupancy
  La  La0  1  0.33333333  0.66666667  0.82563980  1.0
  La  La1  1  0.33333333  0.66666667  0.67436020  1.0
  La  La2  1  0.66666667  0.33333333  0.32563980  1.0
  La  La3  1  0.66666667  0.33333333  0.17436020  1.0
  La  La4  1  0.33333333  0.66666667  0.97031850  1.0
  La  La5  1  0.33333333  0.66666667  0.52968150  1.0
  La  La6  1  0.66666667  0.33333333  0.47031850  1.0
  La  La7  1  0.66666667  0.33333333  0.02968150  1.0
  Rh  Rh8  1  0.00000000  0.00000000  0.50000000  1.0
  Rh  Rh9  1  0.00000000  0.00000000  0.00000000  1.0
  Rh  Rh10  1  0.33333333  0.66666667  0.33301080  1.0
  Rh  Rh11  1  0.33333333  0.66666667  0.16698920  1.0
  Rh  Rh12  1  0.66666667  0.33333333  0.83301080  1.0
  Rh  Rh13  1  0.66666667  0.33333333  0.66698920  1.0
  Rh  Rh14  1  0.16642159  0.83357841  0.25000000  1.0
  Rh  Rh15  1  0.16642159  0.33284318  0.25000000  1.0
  Rh  Rh16  1  0.83357841  0.16642159  0.75000000  1.0
  Rh  Rh17  1  0.83357841  0.66715682  0.75000000  1.0
  Rh  Rh18  1  0.66715682  0.83357841  0.25000000  1.0
  Rh  Rh19  1  0.33284318  0.16642159  0.75000000  1.0
  Rh  Rh20  1  0.16662380  0.83337620  0.41385348  1.0
  Rh  Rh21  1  0.16662380  0.83337620  0.08614652  1.0
  Rh  Rh22  1  0.16662380  0.33324760  0.41385348  1.0
  Rh  Rh23  1  0.16662380  0.33324760  0.08614652  1.0
  Rh  Rh24  1  0.83337620  0.16662380  0.91385348  1.0
  Rh  Rh25  1  0.83337620  0.16662380  0.58614652  1.0
  Rh  Rh26  1  0.83337620  0.66675240  0.91385348  1.0
  Rh  Rh27  1  0.83337620  0.66675240  0.58614652  1.0
  Rh  Rh28  1  0.66675240  0.83337620  0.41385348  1.0
  Rh  Rh29  1  0.66675240  0.83337620  0.08614652  1.0
  Rh  Rh30  1  0.33324760  0.16662380  0.91385348  1.0
  Rh  Rh31  1  0.33324760  0.16662380  0.58614652  1.0
  Rh  Rh32  1  0.00000000  0.00000000  0.33250155  1.0
  Rh  Rh33  1  0.00000000  0.00000000  0.16749845  1.0
  Rh  Rh34  1  0.00000000  0.00000000  0.83250155  1.0
  Rh  Rh35  1  0.00000000  0.00000000  0.66749845  1.0
