# generated using pymatgen
data_Ba2HgS3
_symmetry_space_group_name_H-M   'P 1'
_cell_length_a   9.04026078
_cell_length_b   4.39534485
_cell_length_c   17.48632930
_cell_angle_alpha   90.00000000
_cell_angle_beta   90.00000000
_cell_angle_gamma   90.00000000
_symmetry_Int_Tables_number   1
_chemical_formula_structural   Ba2HgS3
_chemical_formula_sum   'Ba8 Hg4 S12'
_cell_volume   694.82040776
_cell_formula_units_Z   4
loop_
 _symmetry_equiv_pos_site_id
 _symmetry_equiv_pos_as_xyz
  1  'x, y, z'
loop_
 _atom_site_type_symbol
 _atom_site_label
 _atom_site_symmetry_multiplicity
 _atom_site_fract_x
 _atom_site_fract_y
 _atom_site_fract_z
 _atom_site_occupancy
  Ba  Ba0  1  0.92187241  0.75000000  0.78381631  1.0
  Ba  Ba1  1  0.42187241  0.75000000  0.71618369  1.0
  Ba  Ba2  1  0.07812759  0.25000000  0.21618369  1.0
  Ba  Ba3  1  0.57812759  0.25000000  0.28381631  1.0
  Ba  Ba4  1  0.75964132  0.75000000  0.03930376  1.0
  Ba  Ba5  1  0.25964132  0.75000000  0.46069624  1.0
  Ba  Ba6  1  0.24035868  0.25000000  0.96069624  1.0
  Ba  Ba7  1  0.74035868  0.25000000  0.53930376  1.0
  Hg  Hg8  1  0.87614358  0.75000000  0.36693627  1.0
  Hg  Hg9  1  0.37614358  0.75000000  0.13306373  1.0
  Hg  Hg10  1  0.12385642  0.25000000  0.63306373  1.0
  Hg  Hg11  1  0.62385642  0.25000000  0.86693627  1.0
  S  S12  1  0.98356555  0.75000000  0.59633234  1.0
  S  S13  1  0.48356555  0.75000000  0.90366766  1.0
  S  S14  1  0.01643445  0.25000000  0.40366766  1.0
  S  S15  1  0.51643445  0.25000000  0.09633234  1.0
  S  S16  1  0.81480930  0.75000000  0.22231942  1.0
  S  S17  1  0.31480930  0.75000000  0.27768058  1.0
  S  S18  1  0.18519070  0.25000000  0.77768058  1.0
  S  S19  1  0.68519070  0.25000000  0.72231942  1.0
  S  S20  1  0.61774501  0.75000000  0.42830628  1.0
  S  S21  1  0.11774501  0.75000000  0.07169372  1.0
  S  S22  1  0.38225499  0.25000000  0.57169372  1.0
  S  S23  1  0.88225499  0.25000000  0.92830628  1.0
