# generated using pymatgen
data_Na2P2H2O7
_symmetry_space_group_name_H-M   'P 1'
_cell_length_a   15.26181741
_cell_length_b   14.37031107
_cell_length_c   7.11584654
_cell_angle_alpha   83.19921299
_cell_angle_beta   69.22180064
_cell_angle_gamma   27.57898637
_symmetry_Int_Tables_number   1
_chemical_formula_structural   Na2P2H2O7
_chemical_formula_sum   'Na8 P8 H8 O28'
_cell_volume   602.29250982
_cell_formula_units_Z   4
loop_
 _symmetry_equiv_pos_site_id
 _symmetry_equiv_pos_as_xyz
  1  'x, y, z'
loop_
 _atom_site_type_symbol
 _atom_site_label
 _atom_site_symmetry_multiplicity
 _atom_site_fract_x
 _atom_site_fract_y
 _atom_site_fract_z
 _atom_site_occupancy
  Na  Na0  1  0.99198176  -0.09100411  0.79045715  1.0
  Na  Na1  1  -0.09100411  0.99198176  0.30856521  1.0
  Na  Na2  1  0.79045715  0.30856521  0.99198176  1.0
  Na  Na3  1  0.30856521  0.79045715  -0.09100411  1.0
  Na  Na4  1  0.25801824  0.34100411  0.45954285  1.0
  Na  Na5  1  0.34100411  0.25801824  -0.05856521  1.0
  Na  Na6  1  0.45954285  -0.05856521  0.25801824  1.0
  Na  Na7  1  -0.05856521  0.45954285  0.34100411  1.0
  P  P8  1  0.44326134  0.41253568  0.27088063  1.0
  P  P9  1  0.41253568  0.44326134  -0.12667764  1.0
  P  P10  1  0.27088063  0.87332236  0.44326134  1.0
  P  P11  1  -0.12667764  1.27088063  0.41253568  1.0
  P  P12  1  0.80673866  -0.16253568  0.97911937  1.0
  P  P13  1  -0.16253568  0.80673866  0.37667764  1.0
  P  P14  1  0.97911937  -0.62332236  0.80673866  1.0
  P  P15  1  -0.62332236  0.97911937  0.83746432  1.0
  H  H16  1  0.38527868  0.38527868  -0.38527868  1.0
  H  H17  1  0.61472132  0.61472132  -0.61472132  1.0
  H  H18  1  -0.13527868  0.86472132  0.63527868  1.0
  H  H19  1  -0.36472132  0.63527868  0.86472132  1.0
  H  H20  1  0.32170625  0.67829375  0.32170625  1.0
  H  H21  1  0.67829375  0.32170625  -0.32170625  1.0
  H  H22  1  0.92829375  -0.42829375  0.92829375  1.0
  H  H23  1  -0.42829375  0.92829375  0.57170625  1.0
  O  O24  1  0.39662714  0.36862234  1.44173221  1.0
  O  O25  1  0.36862234  0.39662714  -0.20698170  1.0
  O  O26  1  1.44173221  -0.20698170  0.39662714  1.0
  O  O27  1  -0.20698170  1.44173221  0.36862234  1.0
  O  O28  1  -0.14662714  0.88137766  0.80826779  1.0
  O  O29  1  -0.11862234  0.85337286  0.45698170  1.0
  O  O30  1  -0.19173221  0.45698170  0.85337286  1.0
  O  O31  1  -0.54301830  0.80826779  0.88137766  1.0
  O  O32  1  0.25522786  0.65908644  0.38499347  1.0
  O  O33  1  -0.34091356  1.25522786  0.70069222  1.0
  O  O34  1  0.38499347  0.70069222  0.25522786  1.0
  O  O35  1  0.70069222  0.38499347  -0.34091356  1.0
  O  O36  1  0.99477214  -0.40908644  0.86500653  1.0
  O  O37  1  -0.40908644  0.99477214  0.54930778  1.0
  O  O38  1  0.86500653  -0.45069222  0.99477214  1.0
  O  O39  1  -0.45069222  0.86500653  0.59091356  1.0
  O  O40  1  0.67917297  0.23890611  1.14530112  1.0
  O  O41  1  0.23890611  0.67917297  -0.06338020  1.0
  O  O42  1  1.14530112  -0.06338020  0.67917297  1.0
  O  O43  1  -0.06338020  1.14530112  0.23890611  1.0
  O  O44  1  0.57082703  0.01109389  0.10469888  1.0
  O  O45  1  0.01109389  0.57082703  0.31338020  1.0
  O  O46  1  0.10469888  0.31338020  0.57082703  1.0
  O  O47  1  0.31338020  0.10469888  0.01109389  1.0
  O  O48  1  0.40342009  0.40342009  0.09657991  1.0
  O  O49  1  0.09657991  1.09657991  0.40342009  1.0
  O  O50  1  -0.15342009  0.84657991  0.15342009  1.0
  O  O51  1  0.15342009  0.15342009  -0.15342009  1.0
