# generated using pymatgen
data_Cs3Y2Br9
_symmetry_space_group_name_H-M   'P 1'
_cell_length_a   10.48470378
_cell_length_b   10.48470378
_cell_length_c   10.48470378
_cell_angle_alpha   83.20273702
_cell_angle_beta   83.20273702
_cell_angle_gamma   83.20273702
_symmetry_Int_Tables_number   1
_chemical_formula_structural   Cs3Y2Br9
_chemical_formula_sum   'Cs6 Y4 Br18'
_cell_volume   1130.04558710
_cell_formula_units_Z   2
loop_
 _symmetry_equiv_pos_site_id
 _symmetry_equiv_pos_as_xyz
  1  'x, y, z'
loop_
 _atom_site_type_symbol
 _atom_site_label
 _atom_site_symmetry_multiplicity
 _atom_site_fract_x
 _atom_site_fract_y
 _atom_site_fract_z
 _atom_site_occupancy
  Cs  Cs0  1  0.58800954  0.25000000  -0.08800954  1.0
  Cs  Cs1  1  0.08800954  0.41199046  -0.25000000  1.0
  Cs  Cs2  1  0.75000000  0.08800954  -0.58800954  1.0
  Cs  Cs3  1  0.25000000  0.91199046  -0.41199046  1.0
  Cs  Cs4  1  0.41199046  0.75000000  -0.91199046  1.0
  Cs  Cs5  1  0.91199046  -0.41199046  0.25000000  1.0
  Y  Y6  1  0.34696382  0.34696382  -0.65303618  1.0
  Y  Y7  1  0.84696382  0.84696382  -0.15303618  1.0
  Y  Y8  1  1.15303618  1.15303618  0.15303618  1.0
  Y  Y9  1  0.65303618  0.65303618  -0.34696382  1.0
  Br  Br10  1  0.23379398  0.57976284  -0.58520726  1.0
  Br  Br11  1  0.73379398  -0.08520726  0.07976284  1.0
  Br  Br12  1  1.08520726  -0.07976284  -0.73379398  1.0
  Br  Br13  1  0.58520726  0.76620602  -0.57976284  1.0
  Br  Br14  1  0.42023716  0.58520726  -0.23379398  1.0
  Br  Br15  1  0.92023716  -0.73379398  0.08520726  1.0
  Br  Br16  1  0.76620602  0.42023716  -0.41479274  1.0
  Br  Br17  1  0.26620602  0.08520726  -0.07976284  1.0
  Br  Br18  1  0.41479274  0.23379398  -0.42023716  1.0
  Br  Br19  1  0.91479274  0.07976284  -0.26620602  1.0
  Br  Br20  1  1.07976284  -0.26620602  -0.08520726  1.0
  Br  Br21  1  0.57976284  0.41479274  -0.76620602  1.0
  Br  Br22  1  1.09502361  1.25000000  0.40497639  1.0
  Br  Br23  1  0.59502361  0.90497639  -0.25000000  1.0
  Br  Br24  1  0.75000000  0.59502361  -0.09502361  1.0
  Br  Br25  1  1.25000000  1.40497639  0.09502361  1.0
  Br  Br26  1  0.90497639  0.75000000  -0.40497639  1.0
  Br  Br27  1  1.40497639  1.09502361  0.25000000  1.0
