# generated using pymatgen
data_Sc5Ge4
_symmetry_space_group_name_H-M   'P 1'
_cell_length_a   7.14626569
_cell_length_b   13.81560688
_cell_length_c   7.26094994
_cell_angle_alpha   90.00000000
_cell_angle_beta   90.00000000
_cell_angle_gamma   90.00000000
_symmetry_Int_Tables_number   1
_chemical_formula_structural   Sc5Ge4
_chemical_formula_sum   'Sc20 Ge16'
_cell_volume   716.87356953
_cell_formula_units_Z   4
loop_
 _symmetry_equiv_pos_site_id
 _symmetry_equiv_pos_as_xyz
  1  'x, y, z'
loop_
 _atom_site_type_symbol
 _atom_site_label
 _atom_site_symmetry_multiplicity
 _atom_site_fract_x
 _atom_site_fract_y
 _atom_site_fract_z
 _atom_site_occupancy
  Sc  Sc0  1  0.13216227  0.37860045  0.83608948  1.0
  Sc  Sc1  1  0.13216227  0.12139955  0.83608948  1.0
  Sc  Sc2  1  0.63216227  0.37860045  0.66391052  1.0
  Sc  Sc3  1  0.63216227  0.12139955  0.66391052  1.0
  Sc  Sc4  1  0.86783773  0.87860045  0.16391052  1.0
  Sc  Sc5  1  0.86783773  0.62139955  0.16391052  1.0
  Sc  Sc6  1  0.36783773  0.87860045  0.33608948  1.0
  Sc  Sc7  1  0.36783773  0.62139955  0.33608948  1.0
  Sc  Sc8  1  0.29876424  0.25000000  0.50164641  1.0
  Sc  Sc9  1  0.79876424  0.25000000  0.99835359  1.0
  Sc  Sc10  1  0.70123576  0.75000000  0.49835359  1.0
  Sc  Sc11  1  0.20123576  0.75000000  0.00164641  1.0
  Sc  Sc12  1  0.47920908  0.40219560  0.17816986  1.0
  Sc  Sc13  1  0.47920908  0.09780440  0.17816986  1.0
  Sc  Sc14  1  0.97920908  0.40219560  0.32183014  1.0
  Sc  Sc15  1  0.97920908  0.09780440  0.32183014  1.0
  Sc  Sc16  1  0.52079092  0.90219560  0.82183014  1.0
  Sc  Sc17  1  0.52079092  0.59780440  0.82183014  1.0
  Sc  Sc18  1  0.02079092  0.90219560  0.67816986  1.0
  Sc  Sc19  1  0.02079092  0.59780440  0.67816986  1.0
  Ge  Ge20  1  0.43240627  0.25000000  0.88239511  1.0
  Ge  Ge21  1  0.93240627  0.25000000  0.61760489  1.0
  Ge  Ge22  1  0.56759373  0.75000000  0.11760489  1.0
  Ge  Ge23  1  0.06759373  0.75000000  0.38239511  1.0
  Ge  Ge24  1  0.17012034  0.25000000  0.14329177  1.0
  Ge  Ge25  1  0.67012034  0.25000000  0.35670823  1.0
  Ge  Ge26  1  0.82987966  0.75000000  0.85670823  1.0
  Ge  Ge27  1  0.32987966  0.75000000  0.64329177  1.0
  Ge  Ge28  1  0.29163542  0.45825610  0.53555611  1.0
  Ge  Ge29  1  0.29163542  0.04174390  0.53555611  1.0
  Ge  Ge30  1  0.79163542  0.45825610  0.96444389  1.0
  Ge  Ge31  1  0.79163542  0.04174390  0.96444389  1.0
  Ge  Ge32  1  0.70836458  0.95825610  0.46444389  1.0
  Ge  Ge33  1  0.70836458  0.54174390  0.46444389  1.0
  Ge  Ge34  1  0.20836458  0.95825610  0.03555611  1.0
  Ge  Ge35  1  0.20836458  0.54174390  0.03555611  1.0
