# generated using pymatgen
data_PWO5
_symmetry_space_group_name_H-M   'P 1'
_cell_length_a   11.33539384
_cell_length_b   6.69287693
_cell_length_c   5.35048633
_cell_angle_alpha   90.00000000
_cell_angle_beta   90.00000000
_cell_angle_gamma   90.00000000
_symmetry_Int_Tables_number   1
_chemical_formula_structural   PWO5
_chemical_formula_sum   'P4 W4 O20'
_cell_volume   405.92211419
_cell_formula_units_Z   4
loop_
 _symmetry_equiv_pos_site_id
 _symmetry_equiv_pos_as_xyz
  1  'x, y, z'
loop_
 _atom_site_type_symbol
 _atom_site_label
 _atom_site_symmetry_multiplicity
 _atom_site_fract_x
 _atom_site_fract_y
 _atom_site_fract_z
 _atom_site_occupancy
  P  P0  1  0.34468288  0.02871063  0.71472658  1.0
  P  P1  1  0.84468288  0.47128937  0.71472658  1.0
  P  P2  1  0.65531712  0.97128937  0.21472658  1.0
  P  P3  1  0.15531712  0.52871063  0.21472658  1.0
  W  W4  1  0.44003390  0.33309668  0.21469820  1.0
  W  W5  1  0.94003390  0.16690332  0.21469820  1.0
  W  W6  1  0.55996610  0.66690332  0.71469820  1.0
  W  W7  1  0.05996610  0.83309668  0.71469820  1.0
  O  O8  1  0.50000648  0.50003854  0.46465381  1.0
  O  O9  1  1.00000648  -0.00003854  0.46465381  1.0
  O  O10  1  0.49999352  0.49996146  -0.03534619  1.0
  O  O11  1  -0.00000648  1.00003854  -0.03534619  1.0
  O  O12  1  0.37280294  0.14694476  0.95367483  1.0
  O  O13  1  0.87280294  0.35305524  0.95367483  1.0
  O  O14  1  0.62719706  0.85305524  0.45367483  1.0
  O  O15  1  0.12719706  0.64694476  0.45367483  1.0
  O  O16  1  0.37284451  0.14700479  0.47585081  1.0
  O  O17  1  0.87284451  0.35299521  0.47585081  1.0
  O  O18  1  0.62715549  0.85299521  0.97585081  1.0
  O  O19  1  0.12715549  0.64700479  0.97585081  1.0
  O  O20  1  0.28824050  0.47871785  0.21467360  1.0
  O  O21  1  0.78824050  0.02128215  0.21467360  1.0
  O  O22  1  0.71175950  0.52128215  0.71467360  1.0
  O  O23  1  0.21175950  0.97871785  0.71467360  1.0
  O  O24  1  0.08542527  0.32934964  0.21472216  1.0
  O  O25  1  0.58542527  0.17065036  0.21472216  1.0
  O  O26  1  0.91457473  0.67065036  0.71472216  1.0
  O  O27  1  0.41457473  0.82934964  0.71472216  1.0
