# generated using pymatgen
data_Sn(HgSe2)2
_symmetry_space_group_name_H-M   'P 1'
_cell_length_a   7.29571290
_cell_length_b   7.29571290
_cell_length_c   7.29571290
_cell_angle_alpha   132.11484564
_cell_angle_beta   132.11484564
_cell_angle_gamma   70.04770106
_symmetry_Int_Tables_number   1
_chemical_formula_structural   Sn(HgSe2)2
_chemical_formula_sum   'Sn1 Hg2 Se4'
_cell_volume   209.49314911
_cell_formula_units_Z   1
loop_
 _symmetry_equiv_pos_site_id
 _symmetry_equiv_pos_as_xyz
  1  'x, y, z'
loop_
 _atom_site_type_symbol
 _atom_site_label
 _atom_site_symmetry_multiplicity
 _atom_site_fract_x
 _atom_site_fract_y
 _atom_site_fract_z
 _atom_site_occupancy
  Sn  Sn0  1  0.00000000  0.00000000  0.00000000  1.0
  Hg  Hg1  1  0.25000000  0.75000000  0.50000000  1.0
  Hg  Hg2  1  0.50000000  0.50000000  1.00000000  1.0
  Se  Se3  1  0.40547640  0.92464686  1.05988683  1.0
  Se  Se4  1  1.07535314  1.13523997  1.48082954  1.0
  Se  Se5  1  0.86476003  0.34558957  0.94011317  1.0
  Se  Se6  1  0.65441043  0.59452360  0.51917046  1.0
