# generated using pymatgen
data_GaS
_symmetry_space_group_name_H-M   'P 1'
_cell_length_a   8.81331229
_cell_length_b   8.81331229
_cell_length_c   8.81331229
_cell_angle_alpha   23.74955539
_cell_angle_beta   23.74955539
_cell_angle_gamma   23.74955539
_symmetry_Int_Tables_number   1
_chemical_formula_structural   GaS
_chemical_formula_sum   'Ga2 S2'
_cell_volume   97.53657237
_cell_formula_units_Z   2
loop_
 _symmetry_equiv_pos_site_id
 _symmetry_equiv_pos_as_xyz
  1  'x, y, z'
loop_
 _atom_site_type_symbol
 _atom_site_label
 _atom_site_symmetry_multiplicity
 _atom_site_fract_x
 _atom_site_fract_y
 _atom_site_fract_z
 _atom_site_occupancy
  Ga  Ga0  1  -0.00463033  -0.00463033  -0.00463033  1.0
  Ga  Ga1  1  0.89921324  -0.10078676  -0.10078676  1.0
  S  S2  1  0.70426999  -0.29573001  -0.29573001  1.0
  S  S3  1  0.52364710  0.52364710  -0.47635290  1.0
