# generated using pymatgen
data_Sb2O3
_symmetry_space_group_name_H-M   'P 1'
_cell_length_a   7.73870893
_cell_length_b   7.86786913
_cell_length_c   12.10269205
_cell_angle_alpha   90.00000000
_cell_angle_beta   90.00000000
_cell_angle_gamma   90.00000000
_symmetry_Int_Tables_number   1
_chemical_formula_structural   Sb2O3
_chemical_formula_sum   'Sb16 O24'
_cell_volume   736.89841524
_cell_formula_units_Z   8
loop_
 _symmetry_equiv_pos_site_id
 _symmetry_equiv_pos_as_xyz
  1  'x, y, z'
loop_
 _atom_site_type_symbol
 _atom_site_label
 _atom_site_symmetry_multiplicity
 _atom_site_fract_x
 _atom_site_fract_y
 _atom_site_fract_z
 _atom_site_occupancy
  Sb  Sb0  1  0.49663526  0.51129490  0.76289899  1.0
  Sb  Sb1  1  0.99663526  0.98870510  0.23710101  1.0
  Sb  Sb2  1  0.50336474  0.01129490  0.73710101  1.0
  Sb  Sb3  1  0.00336474  0.48870510  0.26289899  1.0
  Sb  Sb4  1  0.27022440  0.78607807  0.51604849  1.0
  Sb  Sb5  1  0.77022440  0.71392193  0.48395151  1.0
  Sb  Sb6  1  0.72977560  0.28607807  0.98395151  1.0
  Sb  Sb7  1  0.22977560  0.21392193  0.01604849  1.0
  Sb  Sb8  1  0.28124307  0.75055441  0.98381046  1.0
  Sb  Sb9  1  0.78124307  0.74944559  0.01618954  1.0
  Sb  Sb10  1  0.71875693  0.25055441  0.51618954  1.0
  Sb  Sb11  1  0.21875693  0.24944559  0.48381046  1.0
  Sb  Sb12  1  0.03893100  0.92746751  0.74196470  1.0
  Sb  Sb13  1  0.53893100  0.57253249  0.25803530  1.0
  Sb  Sb14  1  0.96106900  0.42746751  0.75803530  1.0
  Sb  Sb15  1  0.46106900  0.07253249  0.24196470  1.0
  O  O16  1  0.48185039  0.86063463  0.60237177  1.0
  O  O17  1  0.98185039  0.63936537  0.39762823  1.0
  O  O18  1  0.51814961  0.36063463  0.89762823  1.0
  O  O19  1  0.01814961  0.13936537  0.10237177  1.0
  O  O20  1  0.44831467  0.72301243  0.85774423  1.0
  O  O21  1  0.94831467  0.77698757  0.14225577  1.0
  O  O22  1  0.55168533  0.22301243  0.64225577  1.0
  O  O23  1  0.05168533  0.27698757  0.35774423  1.0
  O  O24  1  0.35606957  0.99156780  0.00616538  1.0
  O  O25  1  0.85606957  0.50843220  0.99383462  1.0
  O  O26  1  0.64393043  0.49156780  0.49383462  1.0
  O  O27  1  0.14393043  0.00843220  0.50616538  1.0
  O  O28  1  0.24793872  0.92807131  0.24989441  1.0
  O  O29  1  0.74793872  0.57192869  0.75010559  1.0
  O  O30  1  0.75206128  0.42807131  0.25010559  1.0
  O  O31  1  0.25206128  0.07192869  0.74989441  1.0
  O  O32  1  0.13360550  0.72988673  0.65146445  1.0
  O  O33  1  0.63360550  0.77011327  0.34853555  1.0
  O  O34  1  0.86639450  0.22988673  0.84853555  1.0
  O  O35  1  0.36639450  0.27011327  0.15146445  1.0
  O  O36  1  0.07205671  0.80993396  0.88786437  1.0
  O  O37  1  0.57205671  0.69006604  0.11213563  1.0
  O  O38  1  0.92794329  0.30993396  0.61213563  1.0
  O  O39  1  0.42794329  0.19006604  0.38786437  1.0
