# generated using pymatgen
data_LiB13C2
_symmetry_space_group_name_H-M   'P 1'
_cell_length_a   7.31459851
_cell_length_b   7.31459851
_cell_length_c   7.31459851
_cell_angle_alpha   134.35693071
_cell_angle_beta   84.52370384
_cell_angle_gamma   113.34756730
_symmetry_Int_Tables_number   1
_chemical_formula_structural   LiB13C2
_chemical_formula_sum   'Li2 B26 C4'
_cell_volume   246.87641913
_cell_formula_units_Z   2
loop_
 _symmetry_equiv_pos_site_id
 _symmetry_equiv_pos_as_xyz
  1  'x, y, z'
loop_
 _atom_site_type_symbol
 _atom_site_label
 _atom_site_symmetry_multiplicity
 _atom_site_fract_x
 _atom_site_fract_y
 _atom_site_fract_z
 _atom_site_occupancy
  Li  Li0  1  0.94906403  1.19906403  0.75000000  1.0
  Li  Li1  1  1.05093597  0.80093597  1.25000000  1.0
  B  B2  1  0.87681216  0.70137752  0.68125944  1.0
  B  B3  1  1.47988192  0.80444729  1.18125944  1.0
  B  B4  1  1.12318784  0.80444729  0.82456536  1.0
  B  B5  1  0.52011808  0.70137752  0.32456536  1.0
  B  B6  1  0.87681216  1.19555271  1.17543464  1.0
  B  B7  1  1.47988192  1.29862248  1.67543464  1.0
  B  B8  1  1.12318784  1.29862248  1.31874056  1.0
  B  B9  1  0.52011808  1.19555271  0.81874056  1.0
  B  B10  1  1.27193118  0.50092914  1.09150387  1.0
  B  B11  1  1.09057473  0.81957269  1.59150387  1.0
  B  B12  1  0.72806882  0.81957269  0.22899796  1.0
  B  B13  1  0.90942527  1.50092914  0.72899796  1.0
  B  B14  1  1.27193118  1.18042731  1.77100204  1.0
  B  B15  1  1.09057473  0.49907086  1.27100204  1.0
  B  B16  1  0.72806882  1.49907086  0.90849613  1.0
  B  B17  1  0.90942527  1.18042731  0.40849613  1.0
  B  B18  1  1.60354896  0.67736488  0.92618409  1.0
  B  B19  1  1.74881921  1.32263512  1.42618409  1.0
  B  B20  1  0.39645104  0.32263512  0.07381591  1.0
  B  B21  1  0.25118079  0.67736488  0.57381591  1.0
  B  B22  1  1.32118113  0.48783067  0.83335046  1.0
  B  B23  1  0.84551978  0.51216933  0.33335046  1.0
  B  B24  1  0.67881887  0.51216933  0.16664954  1.0
  B  B25  1  1.15448022  0.48783067  0.66664954  1.0
  B  B26  1  0.61461236  0.86461236  0.75000000  1.0
  B  B27  1  1.38538764  1.13538764  1.25000000  1.0
  C  C28  1  1.75151451  0.87059767  0.88091684  1.0
  C  C29  1  1.51031917  1.12940233  1.38091684  1.0
  C  C30  1  0.24848549  0.12940233  0.11908316  1.0
  C  C31  1  0.48968083  0.87059767  0.61908316  1.0
