# generated using pymatgen
data_PbS2
_symmetry_space_group_name_H-M   'P 1'
_cell_length_a   5.79243453
_cell_length_b   5.79243453
_cell_length_c   5.79243453
_cell_angle_alpha   115.55579450
_cell_angle_beta   115.55579450
_cell_angle_gamma   97.88703129
_symmetry_Int_Tables_number   1
_chemical_formula_structural   PbS2
_chemical_formula_sum   'Pb2 S4'
_cell_volume   145.16535188
_cell_formula_units_Z   2
loop_
 _symmetry_equiv_pos_site_id
 _symmetry_equiv_pos_as_xyz
  1  'x, y, z'
loop_
 _atom_site_type_symbol
 _atom_site_label
 _atom_site_symmetry_multiplicity
 _atom_site_fract_x
 _atom_site_fract_y
 _atom_site_fract_z
 _atom_site_occupancy
  Pb  Pb0  1  0.25000000  0.25000000  0.00000000  1.0
  Pb  Pb1  1  0.75000000  0.75000000  0.00000000  1.0
  S  S2  1  0.88021257  0.38021257  1.26042514  1.0
  S  S3  1  0.61978743  0.88021257  0.50000000  1.0
  S  S4  1  0.38021257  0.11978743  0.50000000  1.0
  S  S5  1  1.11978743  0.61978743  0.73957486  1.0
