# generated using pymatgen
data_Pb3O4
_symmetry_space_group_name_H-M   'P 1'
_cell_length_a   7.00018492
_cell_length_b   10.17316996
_cell_length_c   3.51165768
_cell_angle_alpha   90.00000000
_cell_angle_beta   90.00000000
_cell_angle_gamma   90.00000000
_symmetry_Int_Tables_number   1
_chemical_formula_structural   Pb3O4
_chemical_formula_sum   'Pb6 O8'
_cell_volume   250.07943942
_cell_formula_units_Z   2
loop_
 _symmetry_equiv_pos_site_id
 _symmetry_equiv_pos_as_xyz
  1  'x, y, z'
loop_
 _atom_site_type_symbol
 _atom_site_label
 _atom_site_symmetry_multiplicity
 _atom_site_fract_x
 _atom_site_fract_y
 _atom_site_fract_z
 _atom_site_occupancy
  Pb  Pb0  1  0.49788593  0.69381235  0.50000000  1.0
  Pb  Pb1  1  0.50211407  0.30618765  0.50000000  1.0
  Pb  Pb2  1  0.00211407  0.19381235  0.50000000  1.0
  Pb  Pb3  1  0.99788593  0.80618765  0.50000000  1.0
  Pb  Pb4  1  0.00000000  0.50000000  0.00000000  1.0
  Pb  Pb5  1  0.50000000  0.00000000  0.00000000  1.0
  O  O6  1  0.65131367  0.18951349  0.00000000  1.0
  O  O7  1  0.34868633  0.81048651  0.00000000  1.0
  O  O8  1  0.84868633  0.68951349  0.00000000  1.0
  O  O9  1  0.15131367  0.31048651  0.00000000  1.0
  O  O10  1  0.65857850  0.90885026  0.50000000  1.0
  O  O11  1  0.34142150  0.09114974  0.50000000  1.0
  O  O12  1  0.84142150  0.40885026  0.50000000  1.0
  O  O13  1  0.15857850  0.59114974  0.50000000  1.0
