# generated using pymatgen
data_Sc2Ge4Mo3
_symmetry_space_group_name_H-M   'P 1'
_cell_length_a   6.72578037
_cell_length_b   12.90960042
_cell_length_c   6.92296944
_cell_angle_alpha   90.00000000
_cell_angle_beta   90.00000000
_cell_angle_gamma   90.00000000
_symmetry_Int_Tables_number   1
_chemical_formula_structural   Sc2Ge4Mo3
_chemical_formula_sum   'Sc8 Ge16 Mo12'
_cell_volume   601.10161632
_cell_formula_units_Z   4
loop_
 _symmetry_equiv_pos_site_id
 _symmetry_equiv_pos_as_xyz
  1  'x, y, z'
loop_
 _atom_site_type_symbol
 _atom_site_label
 _atom_site_symmetry_multiplicity
 _atom_site_fract_x
 _atom_site_fract_y
 _atom_site_fract_z
 _atom_site_occupancy
  Sc  Sc0  1  0.48856152  0.58990841  0.67336177  1.0
  Sc  Sc1  1  0.98856152  0.91009159  0.82663823  1.0
  Sc  Sc2  1  0.51143848  0.08990841  0.32663823  1.0
  Sc  Sc3  1  0.01143848  0.41009159  0.17336177  1.0
  Sc  Sc4  1  0.51143848  0.41009159  0.32663823  1.0
  Sc  Sc5  1  0.01143848  0.08990841  0.17336177  1.0
  Sc  Sc6  1  0.48856152  0.91009159  0.67336177  1.0
  Sc  Sc7  1  0.98856152  0.58990841  0.82663823  1.0
  Ge  Ge8  1  0.67656229  0.45418562  0.95730626  1.0
  Ge  Ge9  1  0.17656229  0.04581438  0.54269374  1.0
  Ge  Ge10  1  0.32343771  0.95418562  0.04269374  1.0
  Ge  Ge11  1  0.82343771  0.54581438  0.45730626  1.0
  Ge  Ge12  1  0.32343771  0.54581438  0.04269374  1.0
  Ge  Ge13  1  0.82343771  0.95418562  0.45730626  1.0
  Ge  Ge14  1  0.67656229  0.04581438  0.95730626  1.0
  Ge  Ge15  1  0.17656229  0.45418562  0.54269374  1.0
  Ge  Ge16  1  0.47210205  0.75000000  0.37798797  1.0
  Ge  Ge17  1  0.97210205  0.75000000  0.12201203  1.0
  Ge  Ge18  1  0.52789795  0.25000000  0.62201203  1.0
  Ge  Ge19  1  0.02789795  0.25000000  0.87798797  1.0
  Ge  Ge20  1  0.69198816  0.75000000  0.84506349  1.0
  Ge  Ge21  1  0.19198816  0.75000000  0.65493651  1.0
  Ge  Ge22  1  0.30801184  0.25000000  0.15493651  1.0
  Ge  Ge23  1  0.80801184  0.25000000  0.34506349  1.0
  Mo  Mo24  1  0.67074395  0.62591473  0.15479129  1.0
  Mo  Mo25  1  0.17074395  0.87408527  0.34520871  1.0
  Mo  Mo26  1  0.32925605  0.12591473  0.84520871  1.0
  Mo  Mo27  1  0.82925605  0.37408527  0.65479129  1.0
  Mo  Mo28  1  0.32925605  0.37408527  0.84520871  1.0
  Mo  Mo29  1  0.82925605  0.12591473  0.65479129  1.0
  Mo  Mo30  1  0.67074395  0.87408527  0.15479129  1.0
  Mo  Mo31  1  0.17074395  0.62591473  0.34520871  1.0
  Mo  Mo32  1  0.83725595  0.75000000  0.49589015  1.0
  Mo  Mo33  1  0.33725595  0.75000000  1.00410985  1.0
  Mo  Mo34  1  0.16274405  0.25000000  0.50410985  1.0
  Mo  Mo35  1  0.66274405  0.25000000  -0.00410985  1.0
