# generated using pymatgen
data_SrBNO
_symmetry_space_group_name_H-M   'P 1'
_cell_length_a   6.62200433
_cell_length_b   7.90401362
_cell_length_c   13.52368867
_cell_angle_alpha   90.00000000
_cell_angle_beta   117.61945405
_cell_angle_gamma   90.00000000
_symmetry_Int_Tables_number   1
_chemical_formula_structural   SrBNO
_chemical_formula_sum   'Sr12 B12 N12 O12'
_cell_volume   627.17491933
_cell_formula_units_Z   12
loop_
 _symmetry_equiv_pos_site_id
 _symmetry_equiv_pos_as_xyz
  1  'x, y, z'
loop_
 _atom_site_type_symbol
 _atom_site_label
 _atom_site_symmetry_multiplicity
 _atom_site_fract_x
 _atom_site_fract_y
 _atom_site_fract_z
 _atom_site_occupancy
  Sr  Sr0  1  0.96965441  0.88725961  0.11404650  1.0
  Sr  Sr1  1  0.96965441  0.61274039  0.61404650  1.0
  Sr  Sr2  1  0.03034559  0.38725961  0.38595350  1.0
  Sr  Sr3  1  0.03034559  0.11274039  0.88595350  1.0
  Sr  Sr4  1  0.95586766  0.36487614  0.10521469  1.0
  Sr  Sr5  1  0.95586766  0.13512386  0.60521469  1.0
  Sr  Sr6  1  0.04413234  0.86487614  0.39478531  1.0
  Sr  Sr7  1  0.04413234  0.63512386  0.89478531  1.0
  Sr  Sr8  1  0.43672470  0.12286778  0.32073847  1.0
  Sr  Sr9  1  0.43672470  0.37713222  0.82073847  1.0
  Sr  Sr10  1  0.56327530  0.62286778  0.17926153  1.0
  Sr  Sr11  1  0.56327530  0.87713222  0.67926153  1.0
  B  B12  1  0.75837820  0.12539405  0.20656915  1.0
  B  B13  1  0.75837820  0.37460595  0.70656915  1.0
  B  B14  1  0.24162180  0.62539405  0.29343085  1.0
  B  B15  1  0.24162180  0.87460595  0.79343085  1.0
  B  B16  1  0.59781948  0.46713322  0.38952074  1.0
  B  B17  1  0.59781948  0.03286678  0.88952074  1.0
  B  B18  1  0.40218052  0.96713322  0.11047926  1.0
  B  B19  1  0.40218052  0.53286678  0.61047926  1.0
  B  B20  1  0.39768712  0.27808065  0.10551329  1.0
  B  B21  1  0.39768712  0.22191935  0.60551329  1.0
  B  B22  1  0.60231288  0.77808065  0.39448671  1.0
  B  B23  1  0.60231288  0.72191935  0.89448671  1.0
  N  N24  1  0.72962285  0.87749058  0.90173654  1.0
  N  N25  1  0.72962285  0.62250942  0.40173654  1.0
  N  N26  1  0.27037715  0.37749058  0.59826346  1.0
  N  N27  1  0.27037715  0.12250942  0.09826346  1.0
  N  N28  1  0.64396091  0.28926200  0.17641857  1.0
  N  N29  1  0.64396091  0.21073800  0.67641857  1.0
  N  N30  1  0.35603909  0.78926200  0.32358143  1.0
  N  N31  1  0.35603909  0.71073800  0.82358143  1.0
  N  N32  1  0.35101183  0.45992845  0.31993620  1.0
  N  N33  1  0.35101183  0.04007155  0.81993620  1.0
  N  N34  1  0.64898817  0.95992845  0.18006380  1.0
  N  N35  1  0.64898817  0.54007155  0.68006380  1.0
  O  O36  1  1.00237937  0.12683873  0.26034876  1.0
  O  O37  1  1.00237937  0.37316127  0.76034876  1.0
  O  O38  1  -0.00237937  0.62683873  0.23965124  1.0
  O  O39  1  -0.00237937  0.87316127  0.73965124  1.0
  O  O40  1  0.73062744  0.91721521  0.45810172  1.0
  O  O41  1  0.73062744  0.58278479  0.95810172  1.0
  O  O42  1  0.26937256  0.41721521  0.04189828  1.0
  O  O43  1  0.26937256  0.08278479  0.54189828  1.0
  O  O44  1  0.72327206  0.32335680  0.44517320  1.0
  O  O45  1  0.72327206  0.17664320  0.94517320  1.0
  O  O46  1  0.27672794  0.82335680  0.05482680  1.0
  O  O47  1  0.27672794  0.67664320  0.55482680  1.0
