# generated using pymatgen
data_NiH12C4(N2O3)2
_symmetry_space_group_name_H-M   'P 1'
_cell_length_a   9.31250012
_cell_length_b   9.31250012
_cell_length_c   7.10261947
_cell_angle_alpha   90.00000000
_cell_angle_beta   90.00000000
_cell_angle_gamma   120.00000000
_symmetry_Int_Tables_number   1
_chemical_formula_structural   NiH12C4(N2O3)2
_chemical_formula_sum   'Ni2 H24 C8 N8 O12'
_cell_volume   533.43531281
_cell_formula_units_Z   2
loop_
 _symmetry_equiv_pos_site_id
 _symmetry_equiv_pos_as_xyz
  1  'x, y, z'
loop_
 _atom_site_type_symbol
 _atom_site_label
 _atom_site_symmetry_multiplicity
 _atom_site_fract_x
 _atom_site_fract_y
 _atom_site_fract_z
 _atom_site_occupancy
  Ni  Ni0  1  0.00000000  0.00000000  0.00000000  1.0
  Ni  Ni1  1  -0.00000000  -0.00000000  0.50000000  1.0
  H  H2  1  0.73097265  0.46194530  0.38713537  1.0
  H  H3  1  0.73097265  0.26902735  0.38713537  1.0
  H  H4  1  0.53805470  0.26902735  0.38713537  1.0
  H  H5  1  0.26902735  0.53805470  0.61286463  1.0
  H  H6  1  0.26902735  0.73097265  0.61286463  1.0
  H  H7  1  0.46194530  0.73097265  0.61286463  1.0
  H  H8  1  0.45128947  0.09611214  0.66649195  1.0
  H  H9  1  0.64482266  0.54871053  0.66649195  1.0
  H  H10  1  0.90388786  0.35517734  0.66649195  1.0
  H  H11  1  0.45128947  0.35517734  0.66649195  1.0
  H  H12  1  0.90388786  0.54871053  0.66649195  1.0
  H  H13  1  0.64482266  0.09611214  0.66649195  1.0
  H  H14  1  0.54871053  0.90388786  0.33350805  1.0
  H  H15  1  0.35517734  0.45128947  0.33350805  1.0
  H  H16  1  0.09611214  0.64482266  0.33350805  1.0
  H  H17  1  0.54871053  0.64482266  0.33350805  1.0
  H  H18  1  0.09611214  0.45128947  0.33350805  1.0
  H  H19  1  0.35517734  0.90388786  0.33350805  1.0
  H  H20  1  0.57961128  0.15922256  0.87275745  1.0
  H  H21  1  0.57961128  0.42038872  0.87275745  1.0
  H  H22  1  0.84077744  0.42038872  0.87275745  1.0
  H  H23  1  0.42038872  0.84077744  0.12724255  1.0
  H  H24  1  0.42038872  0.57961128  0.12724255  1.0
  H  H25  1  0.15922256  0.57961128  0.12724255  1.0
  C  C26  1  0.66666667  0.33333333  0.43700059  1.0
  C  C27  1  0.33333333  0.66666667  0.56299941  1.0
  C  C28  1  0.57893528  0.15787055  0.71886292  1.0
  C  C29  1  0.57893528  0.42106472  0.71886292  1.0
  C  C30  1  0.84212945  0.42106472  0.71886292  1.0
  C  C31  1  0.42106472  0.84212945  0.28113708  1.0
  C  C32  1  0.42106472  0.57893528  0.28113708  1.0
  C  C33  1  0.15787055  0.57893528  0.28113708  1.0
  N  N34  1  0.10819081  0.89180919  0.83500644  1.0
  N  N35  1  0.78361838  0.89180919  0.83500644  1.0
  N  N36  1  0.10819081  0.21638162  0.83500644  1.0
  N  N37  1  0.89180919  0.10819081  0.16499356  1.0
  N  N38  1  0.21638162  0.10819081  0.16499356  1.0
  N  N39  1  0.89180919  0.78361838  0.16499356  1.0
  N  N40  1  0.66666667  0.33333333  0.64842811  1.0
  N  N41  1  0.33333333  0.66666667  0.35157189  1.0
  O  O42  1  0.10762827  0.89237173  0.65382974  1.0
  O  O43  1  0.78474347  0.89237173  0.65382974  1.0
  O  O44  1  0.10762827  0.21525653  0.65382974  1.0
  O  O45  1  0.89237173  0.10762827  0.34617026  1.0
  O  O46  1  0.21525653  0.10762827  0.34617026  1.0
  O  O47  1  0.89237173  0.78474347  0.34617026  1.0
  O  O48  1  0.17680444  0.82319556  0.91070348  1.0
  O  O49  1  0.64639111  0.82319556  0.91070348  1.0
  O  O50  1  0.17680444  0.35360889  0.91070348  1.0
  O  O51  1  0.82319556  0.17680444  0.08929652  1.0
  O  O52  1  0.35360889  0.17680444  0.08929652  1.0
  O  O53  1  0.82319556  0.64639111  0.08929652  1.0
