# generated using pymatgen
data_Sc2B6Rh
_symmetry_space_group_name_H-M   'P 1'
_cell_length_a   8.91237170
_cell_length_b   11.19394624
_cell_length_c   3.45775140
_cell_angle_alpha   90.00000000
_cell_angle_beta   90.00000000
_cell_angle_gamma   90.00000000
_symmetry_Int_Tables_number   1
_chemical_formula_structural   Sc2B6Rh
_chemical_formula_sum   'Sc8 B24 Rh4'
_cell_volume   344.96121898
_cell_formula_units_Z   4
loop_
 _symmetry_equiv_pos_site_id
 _symmetry_equiv_pos_as_xyz
  1  'x, y, z'
loop_
 _atom_site_type_symbol
 _atom_site_label
 _atom_site_symmetry_multiplicity
 _atom_site_fract_x
 _atom_site_fract_y
 _atom_site_fract_z
 _atom_site_occupancy
  Sc  Sc0  1  0.18144143  0.91420841  0.50000000  1.0
  Sc  Sc1  1  0.68144143  0.58579159  0.50000000  1.0
  Sc  Sc2  1  0.81855857  0.08579159  0.50000000  1.0
  Sc  Sc3  1  0.31855857  0.41420841  0.50000000  1.0
  Sc  Sc4  1  0.05579676  0.62616371  0.50000000  1.0
  Sc  Sc5  1  0.55579676  0.87383629  0.50000000  1.0
  Sc  Sc6  1  0.94420324  0.37383629  0.50000000  1.0
  Sc  Sc7  1  0.44420324  0.12616371  0.50000000  1.0
  B  B8  1  0.44600271  0.56360410  0.00000000  1.0
  B  B9  1  0.94600271  0.93639590  0.00000000  1.0
  B  B10  1  0.55399729  0.43639590  0.00000000  1.0
  B  B11  1  0.05399729  0.06360410  0.00000000  1.0
  B  B12  1  0.39711658  0.97216054  0.00000000  1.0
  B  B13  1  0.89711658  0.52783946  0.00000000  1.0
  B  B14  1  0.60288342  0.02783946  0.00000000  1.0
  B  B15  1  0.10288342  0.47216054  0.00000000  1.0
  B  B16  1  0.36883328  0.81886115  0.00000000  1.0
  B  B17  1  0.86883328  0.68113885  0.00000000  1.0
  B  B18  1  0.63116672  0.18113885  0.00000000  1.0
  B  B19  1  0.13116672  0.31886115  0.00000000  1.0
  B  B20  1  0.24748652  0.57810656  0.00000000  1.0
  B  B21  1  0.74748652  0.92189344  0.00000000  1.0
  B  B22  1  0.75251348  0.42189344  0.00000000  1.0
  B  B23  1  0.25251348  0.07810656  0.00000000  1.0
  B  B24  1  0.20408226  0.73765399  0.00000000  1.0
  B  B25  1  0.70408226  0.76234601  0.00000000  1.0
  B  B26  1  0.79591774  0.26234601  0.00000000  1.0
  B  B27  1  0.29591774  0.23765399  0.00000000  1.0
  B  B28  1  0.02025178  0.78703849  0.00000000  1.0
  B  B29  1  0.52025178  0.71296151  0.00000000  1.0
  B  B30  1  0.97974822  0.21296151  0.00000000  1.0
  B  B31  1  0.47974822  0.28703849  0.00000000  1.0
  Rh  Rh32  1  0.35952904  0.68014306  0.50000000  1.0
  Rh  Rh33  1  0.85952904  0.81985694  0.50000000  1.0
  Rh  Rh34  1  0.64047096  0.31985694  0.50000000  1.0
  Rh  Rh35  1  0.14047096  0.18014306  0.50000000  1.0
