# generated using pymatgen
data_BaTm2NiO5
_symmetry_space_group_name_H-M   'P 1'
_cell_length_a   6.62998976
_cell_length_b   6.62998976
_cell_length_c   6.62998976
_cell_angle_alpha   147.20895179
_cell_angle_beta   128.26225255
_cell_angle_gamma   62.61849973
_symmetry_Int_Tables_number   1
_chemical_formula_structural   BaTm2NiO5
_chemical_formula_sum   'Ba1 Tm2 Ni1 O5'
_cell_volume   122.66046833
_cell_formula_units_Z   1
loop_
 _symmetry_equiv_pos_site_id
 _symmetry_equiv_pos_as_xyz
  1  'x, y, z'
loop_
 _atom_site_type_symbol
 _atom_site_label
 _atom_site_symmetry_multiplicity
 _atom_site_fract_x
 _atom_site_fract_y
 _atom_site_fract_z
 _atom_site_occupancy
  Ba  Ba0  1  0.50000000  0.00000000  0.50000000  1.0
  Tm  Tm1  1  0.79662273  0.79662273  1.00000000  1.0
  Tm  Tm2  1  0.20337727  0.20337727  -0.00000000  1.0
  Ni  Ni3  1  -0.00000000  0.50000000  0.50000000  1.0
  O  O4  1  0.38301067  0.64580673  0.73720394  1.0
  O  O5  1  1.09139720  0.35419327  0.73720394  1.0
  O  O6  1  0.90860280  0.64580673  1.26279606  1.0
  O  O7  1  0.61698933  0.35419327  0.26279606  1.0
  O  O8  1  0.00000000  0.00000000  0.00000000  1.0
