# generated using pymatgen
data_Ba5Cr3O13
_symmetry_space_group_name_H-M   'P 1'
_cell_length_a   10.51150055
_cell_length_b   10.51150055
_cell_length_c   7.97122398
_cell_angle_alpha   90.00000000
_cell_angle_beta   90.00000000
_cell_angle_gamma   120.00000000
_symmetry_Int_Tables_number   1
_chemical_formula_structural   Ba5Cr3O13
_chemical_formula_sum   'Ba10 Cr6 O26'
_cell_volume   762.75502699
_cell_formula_units_Z   2
loop_
 _symmetry_equiv_pos_site_id
 _symmetry_equiv_pos_as_xyz
  1  'x, y, z'
loop_
 _atom_site_type_symbol
 _atom_site_label
 _atom_site_symmetry_multiplicity
 _atom_site_fract_x
 _atom_site_fract_y
 _atom_site_fract_z
 _atom_site_occupancy
  Ba  Ba0  1  1.01463554  0.77682522  0.06904743  1.0
  Ba  Ba1  1  0.77682522  0.76218968  0.56904743  1.0
  Ba  Ba2  1  0.76218968  -0.01463554  0.06904743  1.0
  Ba  Ba3  1  0.22317478  0.23781032  0.06904743  1.0
  Ba  Ba4  1  -0.01463554  0.22317478  0.56904743  1.0
  Ba  Ba5  1  0.23781032  1.01463554  0.56904743  1.0
  Ba  Ba6  1  0.33333333  0.66666667  0.31856401  1.0
  Ba  Ba7  1  0.66666667  0.33333333  0.81856401  1.0
  Ba  Ba8  1  0.33333333  0.66666667  0.81981176  1.0
  Ba  Ba9  1  0.66666667  0.33333333  0.31981176  1.0
  Cr  Cr10  1  0.62862339  0.59251460  0.06910894  1.0
  Cr  Cr11  1  0.59251460  0.96389120  0.56910894  1.0
  Cr  Cr12  1  0.96389120  0.37137661  0.06910894  1.0
  Cr  Cr13  1  0.40748540  0.03610880  0.06910894  1.0
  Cr  Cr14  1  0.37137661  0.40748540  0.56910894  1.0
  Cr  Cr15  1  0.03610880  0.62862339  0.56910894  1.0
  O  O16  1  0.33367813  0.85061241  0.06909736  1.0
  O  O17  1  0.85061241  0.51693427  0.56909736  1.0
  O  O18  1  0.51693427  0.66632187  0.06909736  1.0
  O  O19  1  0.14938759  0.48306573  0.06909736  1.0
  O  O20  1  0.66632187  0.14938759  0.56909736  1.0
  O  O21  1  0.48306573  0.33367813  0.56909736  1.0
  O  O22  1  0.09176163  0.73759748  0.39787771  1.0
  O  O23  1  0.73759748  0.64583584  0.89787771  1.0
  O  O24  1  0.64583584  0.90823837  0.39787771  1.0
  O  O25  1  0.26240252  0.35416416  0.39787771  1.0
  O  O26  1  0.90823837  0.26240252  0.89787771  1.0
  O  O27  1  0.35416416  0.09176163  0.89787771  1.0
  O  O28  1  0.73765276  0.64592853  0.24029431  1.0
  O  O29  1  0.64592853  0.90827577  0.74029431  1.0
  O  O30  1  0.90827577  0.26234724  0.24029431  1.0
  O  O31  1  0.35407147  0.09172423  0.24029431  1.0
  O  O32  1  0.26234724  0.35407147  0.74029431  1.0
  O  O33  1  0.09172423  0.73765276  0.74029431  1.0
  O  O34  1  0.53314826  0.40655153  0.06917318  1.0
  O  O35  1  0.40655153  0.87340326  0.56917318  1.0
  O  O36  1  0.87340326  0.46685174  0.06917318  1.0
  O  O37  1  0.59344847  0.12659674  0.06917318  1.0
  O  O38  1  0.46685174  0.59344847  0.56917318  1.0
  O  O39  1  0.12659674  0.53314826  0.56917318  1.0
  O  O40  1  0.00000000  0.00000000  0.06882742  1.0
  O  O41  1  0.00000000  0.00000000  0.56882742  1.0
