# generated using pymatgen
data_RbPb
_symmetry_space_group_name_H-M   'P 1'
_cell_length_a   13.09337050
_cell_length_b   13.09337050
_cell_length_c   13.09337050
_cell_angle_alpha   124.94310052
_cell_angle_beta   124.94310052
_cell_angle_gamma   81.63229866
_symmetry_Int_Tables_number   1
_chemical_formula_structural   RbPb
_chemical_formula_sum   'Rb16 Pb16'
_cell_volume   1451.57979104
_cell_formula_units_Z   16
loop_
 _symmetry_equiv_pos_site_id
 _symmetry_equiv_pos_as_xyz
  1  'x, y, z'
loop_
 _atom_site_type_symbol
 _atom_site_label
 _atom_site_symmetry_multiplicity
 _atom_site_fract_x
 _atom_site_fract_y
 _atom_site_fract_z
 _atom_site_occupancy
  Rb  Rb0  1  0.75944564  1.37500000  0.88444564  1.0
  Rb  Rb1  1  1.25944564  1.37500000  1.38444564  1.0
  Rb  Rb2  1  1.62500000  1.50944564  1.38444564  1.0
  Rb  Rb3  1  1.12500000  1.74055436  1.11555436  1.0
  Rb  Rb4  1  0.99055436  0.87500000  0.61555436  1.0
  Rb  Rb5  1  1.49055436  0.87500000  1.11555436  1.0
  Rb  Rb6  1  1.62500000  1.00944564  0.88444564  1.0
  Rb  Rb7  1  1.12500000  1.24055436  0.61555436  1.0
  Rb  Rb8  1  0.87181455  0.87181455  0.24362909  1.0
  Rb  Rb9  1  1.37181455  1.12818545  1.00000000  1.0
  Rb  Rb10  1  0.12181455  0.62181455  0.74362909  1.0
  Rb  Rb11  1  0.62181455  0.87818545  1.50000000  1.0
  Rb  Rb12  1  0.87818545  0.37818545  1.25637091  1.0
  Rb  Rb13  1  0.37818545  0.12181455  0.50000000  1.0
  Rb  Rb14  1  1.62818545  1.62818545  1.75637091  1.0
  Rb  Rb15  1  1.12818545  1.37181455  1.00000000  1.0
  Pb  Pb16  1  1.50337338  1.32812269  0.94578208  1.0
  Pb  Pb17  1  1.00337338  1.05759130  0.17525069  1.0
  Pb  Pb18  1  1.57812269  1.25337338  1.44578208  1.0
  Pb  Pb19  1  1.07812269  1.63234061  1.32474931  1.0
  Pb  Pb20  1  1.24662662  0.92187731  0.55421792  1.0
  Pb  Pb21  1  1.74662662  1.19240870  1.32474931  1.0
  Pb  Pb22  1  0.17187731  0.99662662  1.05421792  1.0
  Pb  Pb23  1  0.67187731  0.61765939  1.17525069  1.0
  Pb  Pb24  1  1.88234061  1.82812269  1.82474931  1.0
  Pb  Pb25  1  1.38234061  1.55759130  1.05421792  1.0
  Pb  Pb26  1  1.30759130  0.75337338  0.67525069  1.0
  Pb  Pb27  1  0.80759130  1.13234061  0.55421792  1.0
  Pb  Pb28  1  0.86765939  1.42187731  0.67525069  1.0
  Pb  Pb29  1  1.36765939  1.69240870  1.44578208  1.0
  Pb  Pb30  1  0.44240870  0.49662662  0.82474931  1.0
  Pb  Pb31  1  0.94240870  0.11765939  0.94578208  1.0
