# generated using pymatgen
data_NaNiPO11
_symmetry_space_group_name_H-M   'P 1'
_cell_length_a   6.49541863
_cell_length_b   6.49541863
_cell_length_c   9.43892976
_cell_angle_alpha   90.00000000
_cell_angle_beta   90.00000000
_cell_angle_gamma   90.00000000
_symmetry_Int_Tables_number   1
_chemical_formula_structural   NaNiPO11
_chemical_formula_sum   'Na2 Ni2 P2 O22'
_cell_volume   398.23281813
_cell_formula_units_Z   2
loop_
 _symmetry_equiv_pos_site_id
 _symmetry_equiv_pos_as_xyz
  1  'x, y, z'
loop_
 _atom_site_type_symbol
 _atom_site_label
 _atom_site_symmetry_multiplicity
 _atom_site_fract_x
 _atom_site_fract_y
 _atom_site_fract_z
 _atom_site_occupancy
  O  O0  1  0.00000000  0.50000000  0.80713900  1.0
  O  O1  1  0.00000000  0.50000000  0.19286100  1.0
  O  O2  1  0.50000000  0.00000000  0.30713900  1.0
  O  O3  1  0.50000000  0.00000000  0.69286100  1.0
  O  O4  1  0.80579726  0.70095044  0.00000000  1.0
  O  O5  1  0.80579726  0.29904956  -0.00000000  1.0
  O  O6  1  0.70095044  0.80579726  0.50000000  1.0
  O  O7  1  0.70095044  0.19420274  0.50000000  1.0
  O  O8  1  0.19420274  0.70095044  -0.00000000  1.0
  O  O9  1  0.19420274  0.29904956  0.00000000  1.0
  O  O10  1  0.29904956  0.80579726  0.50000000  1.0
  O  O11  1  0.29904956  0.19420274  0.50000000  1.0
  O  O12  1  0.50000000  0.69842959  0.84451576  1.0
  O  O13  1  0.50000000  0.69842959  0.15548424  1.0
  O  O14  1  0.50000000  0.30157041  0.84451576  1.0
  O  O15  1  0.50000000  0.30157041  0.15548424  1.0
  O  O16  1  0.69842959  0.50000000  0.34451576  1.0
  O  O17  1  0.69842959  0.50000000  0.65548424  1.0
  O  O18  1  0.30157041  0.50000000  0.34451576  1.0
  O  O19  1  0.30157041  0.50000000  0.65548424  1.0
  O  O20  1  0.00000000  0.00000000  0.75000000  1.0
  O  O21  1  0.00000000  0.00000000  0.25000000  1.0
  P  P22  1  0.50000000  0.50000000  0.75000000  1.0
  P  P23  1  0.50000000  0.50000000  0.25000000  1.0
  Ni  Ni24  1  0.00000000  0.50000000  0.00000000  1.0
  Ni  Ni25  1  0.50000000  0.00000000  0.50000000  1.0
  Na  Na26  1  0.00000000  0.00000000  0.00000000  1.0
  Na  Na27  1  0.00000000  0.00000000  0.50000000  1.0
