# generated using pymatgen
data_BaCdGaF7
_symmetry_space_group_name_H-M   'P 1'
_cell_length_a   7.58065299
_cell_length_b   7.58065299
_cell_length_c   15.24534007
_cell_angle_alpha   88.72162846
_cell_angle_beta   91.27837154
_cell_angle_gamma   137.94089288
_symmetry_Int_Tables_number   1
_chemical_formula_structural   BaCdGaF7
_chemical_formula_sum   'Ba4 Cd4 Ga4 F28'
_cell_volume   586.72449317
_cell_formula_units_Z   4
loop_
 _symmetry_equiv_pos_site_id
 _symmetry_equiv_pos_as_xyz
  1  'x, y, z'
loop_
 _atom_site_type_symbol
 _atom_site_label
 _atom_site_symmetry_multiplicity
 _atom_site_fract_x
 _atom_site_fract_y
 _atom_site_fract_z
 _atom_site_occupancy
  Ba  Ba0  1  0.65053112  0.27141108  0.62519384  1.0
  Ba  Ba1  1  0.72858892  0.34946888  0.12519384  1.0
  Ba  Ba2  1  1.27141108  0.65053112  0.87480616  1.0
  Ba  Ba3  1  0.34946888  -0.27141108  0.37480616  1.0
  Cd  Cd4  1  0.95656353  0.95656353  0.75000000  1.0
  Cd  Cd5  1  0.04343647  0.04343647  0.25000000  1.0
  Cd  Cd6  1  0.00000000  0.00000000  0.00000000  1.0
  Cd  Cd7  1  0.00000000  -0.00000000  0.50000000  1.0
  Ga  Ga8  1  0.38750437  -0.36596266  0.62516146  1.0
  Ga  Ga9  1  1.36596266  0.61249563  0.12516146  1.0
  Ga  Ga10  1  0.63403734  0.38750437  0.87483854  1.0
  Ga  Ga11  1  0.61249563  0.36596266  0.37483854  1.0
  F  F12  1  0.61478567  -0.37931833  0.84744055  1.0
  F  F13  1  1.37931833  0.38521433  0.34744055  1.0
  F  F14  1  0.62068167  0.61478567  0.65255945  1.0
  F  F15  1  0.38521433  0.37931833  0.15255945  1.0
  F  F16  1  0.83514677  -0.04384651  0.37229680  1.0
  F  F17  1  1.04384651  0.16485323  0.87229680  1.0
  F  F18  1  0.95615349  0.83514677  0.12770320  1.0
  F  F19  1  0.16485323  0.04384651  0.62770320  1.0
  F  F20  1  0.66321067  -0.06005810  0.54910752  1.0
  F  F21  1  1.06005810  0.33678933  0.04910752  1.0
  F  F22  1  0.93994190  0.66321067  0.95089248  1.0
  F  F23  1  0.33678933  0.06005810  0.45089248  1.0
  F  F24  1  0.55653434  -0.11728811  0.72217610  1.0
  F  F25  1  1.11728811  0.44346566  0.22217610  1.0
  F  F26  1  0.88271189  0.55653434  0.77782390  1.0
  F  F27  1  0.44346566  0.11728811  0.27782390  1.0
  F  F28  1  0.69314751  0.18918870  0.90245878  1.0
  F  F29  1  0.81081130  0.30685249  0.40245878  1.0
  F  F30  1  1.18918870  0.69314751  0.59754122  1.0
  F  F31  1  0.30685249  -0.18918870  0.09754122  1.0
  F  F32  1  0.35612012  0.11455716  0.79769311  1.0
  F  F33  1  0.88544284  0.64387988  0.29769311  1.0
  F  F34  1  1.11455716  0.35612012  0.70230689  1.0
  F  F35  1  0.64387988  -0.11455716  0.20230689  1.0
  F  F36  1  0.43091887  0.25154000  0.98039615  1.0
  F  F37  1  0.74846000  0.56908113  0.48039615  1.0
  F  F38  1  1.25154000  0.43091887  0.51960385  1.0
  F  F39  1  0.56908113  -0.25154000  0.01960385  1.0
