# generated using pymatgen
data_K2VH2OF5
_symmetry_space_group_name_H-M   'P 1'
_cell_length_a   6.40274505
_cell_length_b   6.40274505
_cell_length_c   7.91488312
_cell_angle_alpha   84.70607166
_cell_angle_beta   95.29392834
_cell_angle_gamma   100.93637068
_symmetry_Int_Tables_number   1
_chemical_formula_structural   K2VH2OF5
_chemical_formula_sum   'K4 V2 H4 O2 F10'
_cell_volume   316.29111929
_cell_formula_units_Z   2
loop_
 _symmetry_equiv_pos_site_id
 _symmetry_equiv_pos_as_xyz
  1  'x, y, z'
loop_
 _atom_site_type_symbol
 _atom_site_label
 _atom_site_symmetry_multiplicity
 _atom_site_fract_x
 _atom_site_fract_y
 _atom_site_fract_z
 _atom_site_occupancy
  K  K0  1  1.79918224  0.19781911  0.46213351  1.0
  K  K1  1  0.80218089  -0.79918224  0.96213351  1.0
  K  K2  1  1.19781911  0.79918224  0.03786649  1.0
  K  K3  1  0.20081776  -0.19781911  0.53786649  1.0
  V  V4  1  0.70126043  -0.29873957  0.25000000  1.0
  V  V5  1  1.29873957  0.29873957  0.75000000  1.0
  H  H6  1  1.34885684  0.40424231  0.34475743  1.0
  H  H7  1  0.59575769  -0.34885684  0.84475743  1.0
  H  H8  1  1.40424231  0.34885684  0.15524257  1.0
  H  H9  1  0.65114316  -0.40424231  0.65524257  1.0
  O  O10  1  1.44438553  0.44438553  0.25000000  1.0
  O  O11  1  0.55561447  -0.44438553  0.75000000  1.0
  F  F12  1  0.62585786  -0.21909112  0.01173487  1.0
  F  F13  1  1.21909112  0.37414214  0.51173487  1.0
  F  F14  1  0.78090888  -0.37414214  0.48826513  1.0
  F  F15  1  1.37414214  0.21909112  0.98826513  1.0
  F  F16  1  0.51530983  -0.12260077  0.31569755  1.0
  F  F17  1  1.12260077  0.48469017  0.81569755  1.0
  F  F18  1  0.87739923  -0.48469017  0.18430245  1.0
  F  F19  1  1.48469017  0.12260077  0.68430245  1.0
  F  F20  1  0.94580187  -0.05419813  0.25000000  1.0
  F  F21  1  1.05419813  0.05419813  0.75000000  1.0
