# generated using pymatgen
data_SiC
_symmetry_space_group_name_H-M   'P 1'
_cell_length_a   3.09643925
_cell_length_b   3.09643925
_cell_length_c   22.77872119
_cell_angle_alpha   90.00000000
_cell_angle_beta   90.00000000
_cell_angle_gamma   120.00000000
_symmetry_Int_Tables_number   1
_chemical_formula_structural   SiC
_chemical_formula_sum   'Si9 C9'
_cell_volume   189.14074605
_cell_formula_units_Z   9
loop_
 _symmetry_equiv_pos_site_id
 _symmetry_equiv_pos_as_xyz
  1  'x, y, z'
loop_
 _atom_site_type_symbol
 _atom_site_label
 _atom_site_symmetry_multiplicity
 _atom_site_fract_x
 _atom_site_fract_y
 _atom_site_fract_z
 _atom_site_occupancy
  Si  Si0  1  0.00000000  0.00000000  0.02780519  1.0
  Si  Si1  1  0.00000000  0.00000000  0.36108195  1.0
  Si  Si2  1  0.00000000  0.00000000  0.69438324  1.0
  Si  Si3  1  0.66666667  0.33333333  0.25004403  1.0
  Si  Si4  1  0.66666667  0.33333333  0.58316457  1.0
  Si  Si5  1  0.66666667  0.33333333  0.80557274  1.0
  Si  Si6  1  0.33333333  0.66666667  0.13899990  1.0
  Si  Si7  1  0.33333333  0.66666667  0.47212406  1.0
  Si  Si8  1  0.33333333  0.66666667  0.91659446  1.0
  C  C9  1  0.00000000  0.00000000  0.11137321  1.0
  C  C10  1  0.00000000  0.00000000  0.44442244  1.0
  C  C11  1  0.00000000  0.00000000  0.77795137  1.0
  C  C12  1  0.66666667  0.33333333  0.33338590  1.0
  C  C13  1  0.66666667  0.33333333  0.66648909  1.0
  C  C14  1  0.66666667  0.33333333  0.88889562  1.0
  C  C15  1  0.33333333  0.66666667  -0.00009033  1.0
  C  C16  1  0.33333333  0.66666667  0.22232342  1.0
  C  C17  1  0.33333333  0.66666667  0.55547913  1.0
