# generated using pymatgen
data_AuSe
_symmetry_space_group_name_H-M   'P 1'
_cell_length_a   4.88620081
_cell_length_b   4.88620081
_cell_length_c   6.43685787
_cell_angle_alpha   76.32862252
_cell_angle_beta   103.67137748
_cell_angle_gamma   135.06607330
_symmetry_Int_Tables_number   1
_chemical_formula_structural   AuSe
_chemical_formula_sum   'Au2 Se2'
_cell_volume   104.93233321
_cell_formula_units_Z   2
loop_
 _symmetry_equiv_pos_site_id
 _symmetry_equiv_pos_as_xyz
  1  'x, y, z'
loop_
 _atom_site_type_symbol
 _atom_site_label
 _atom_site_symmetry_multiplicity
 _atom_site_fract_x
 _atom_site_fract_y
 _atom_site_fract_z
 _atom_site_occupancy
  Au  Au0  1  0.00000000  -0.00000000  0.50000000  1.0
  Au  Au1  1  0.50000000  0.50000000  0.00000000  1.0
  Se  Se2  1  0.85632774  0.14367226  0.77293162  1.0
  Se  Se3  1  0.14367226  -0.14367226  0.22706838  1.0
