# generated using pymatgen
data_NaCrP2O7
_symmetry_space_group_name_H-M   'P 1'
_cell_length_a   7.38933049
_cell_length_b   7.95803500
_cell_length_c   9.57488815
_cell_angle_alpha   90.00000000
_cell_angle_beta   111.52220280
_cell_angle_gamma   90.00000000
_symmetry_Int_Tables_number   1
_chemical_formula_structural   NaCrP2O7
_chemical_formula_sum   'Na4 Cr4 P8 O28'
_cell_volume   523.78881111
_cell_formula_units_Z   4
loop_
 _symmetry_equiv_pos_site_id
 _symmetry_equiv_pos_as_xyz
  1  'x, y, z'
loop_
 _atom_site_type_symbol
 _atom_site_label
 _atom_site_symmetry_multiplicity
 _atom_site_fract_x
 _atom_site_fract_y
 _atom_site_fract_z
 _atom_site_occupancy
  Na  Na0  1  0.70813886  0.52632638  0.70473879  1.0
  Na  Na1  1  0.70813886  0.97367362  0.20473879  1.0
  Na  Na2  1  0.29186114  0.02632638  0.79526121  1.0
  Na  Na3  1  0.29186114  0.47367362  0.29526121  1.0
  Cr  Cr4  1  0.74184081  0.99236612  0.75216776  1.0
  Cr  Cr5  1  0.74184081  0.50763388  0.25216776  1.0
  Cr  Cr6  1  0.25815919  0.49236612  0.74783224  1.0
  Cr  Cr7  1  0.25815919  0.00763388  0.24783224  1.0
  P  P8  1  0.92775350  0.74477477  0.54702875  1.0
  P  P9  1  0.92775350  0.75522523  0.04702875  1.0
  P  P10  1  0.07224650  0.24477477  0.95297125  1.0
  P  P11  1  0.07224650  0.25522523  0.45297125  1.0
  P  P12  1  0.67197943  0.29050079  0.95300117  1.0
  P  P13  1  0.67197943  0.20949921  0.45300117  1.0
  P  P14  1  0.32802057  0.79050079  0.54699883  1.0
  P  P15  1  0.32802057  0.70949921  0.04699883  1.0
  O  O16  1  0.35892936  0.60477408  0.59885072  1.0
  O  O17  1  0.35892936  0.89522592  0.09885072  1.0
  O  O18  1  0.64107064  0.10477408  0.90114928  1.0
  O  O19  1  0.64107064  0.39522592  0.40114928  1.0
  O  O20  1  0.99134093  0.58368374  0.64260070  1.0
  O  O21  1  0.99134093  0.91631626  0.14260070  1.0
  O  O22  1  0.00865907  0.08368374  0.85739930  1.0
  O  O23  1  0.00865907  0.41631626  0.35739930  1.0
  O  O24  1  0.87660769  0.34988375  0.93785619  1.0
  O  O25  1  0.87660769  0.15011625  0.43785619  1.0
  O  O26  1  0.12339231  0.84988375  0.56214381  1.0
  O  O27  1  0.12339231  0.65011625  0.06214381  1.0
  O  O28  1  0.81110606  0.86330236  0.60600314  1.0
  O  O29  1  0.81110606  0.63669764  0.10600314  1.0
  O  O30  1  0.18889394  0.36330236  0.89399686  1.0
  O  O31  1  0.18889394  0.13669764  0.39399686  1.0
  O  O32  1  0.81398304  0.78829340  0.87963714  1.0
  O  O33  1  0.81398304  0.71170660  0.37963714  1.0
  O  O34  1  0.18601696  0.28829340  0.62036286  1.0
  O  O35  1  0.18601696  0.21170660  0.12036286  1.0
  O  O36  1  0.46976133  0.91292807  0.65603308  1.0
  O  O37  1  0.46976133  0.58707193  0.15603308  1.0
  O  O38  1  0.53023867  0.41292807  0.84396692  1.0
  O  O39  1  0.53023867  0.08707193  0.34396692  1.0
  O  O40  1  0.31159286  0.69778521  0.88282093  1.0
  O  O41  1  0.31159286  0.80221479  0.38282093  1.0
  O  O42  1  0.68840714  0.19778521  0.61717907  1.0
  O  O43  1  0.68840714  0.30221479  0.11717907  1.0
