# generated using pymatgen
data_AlAu2
_symmetry_space_group_name_H-M   'P 1'
_cell_length_a   8.96497518
_cell_length_b   17.15615868
_cell_length_c   3.26964039
_cell_angle_alpha   90.00000000
_cell_angle_beta   90.00000000
_cell_angle_gamma   90.00000000
_symmetry_Int_Tables_number   1
_chemical_formula_structural   AlAu2
_chemical_formula_sum   'Al10 Au20'
_cell_volume   502.88552468
_cell_formula_units_Z   10
loop_
 _symmetry_equiv_pos_site_id
 _symmetry_equiv_pos_as_xyz
  1  'x, y, z'
loop_
 _atom_site_type_symbol
 _atom_site_label
 _atom_site_symmetry_multiplicity
 _atom_site_fract_x
 _atom_site_fract_y
 _atom_site_fract_z
 _atom_site_occupancy
  Al  Al0  1  0.47898020  0.70176374  0.50000000  1.0
  Al  Al1  1  0.97898020  0.79823626  -0.00000000  1.0
  Al  Al2  1  0.52101980  0.29823626  0.50000000  1.0
  Al  Al3  1  0.02101980  0.20176374  -0.00000000  1.0
  Al  Al4  1  0.47102060  0.09861542  0.50000000  1.0
  Al  Al5  1  0.97102060  0.40138458  0.00000000  1.0
  Al  Al6  1  0.52897940  0.90138458  0.50000000  1.0
  Al  Al7  1  0.02897940  0.59861542  0.00000000  1.0
  Al  Al8  1  0.50000000  0.50000000  0.50000000  1.0
  Al  Al9  1  0.00000000  0.00000000  0.00000000  1.0
  Au  Au10  1  0.17380464  0.09524084  0.50000000  1.0
  Au  Au11  1  0.67380464  0.40475916  0.00000000  1.0
  Au  Au12  1  0.82619536  0.90475916  0.50000000  1.0
  Au  Au13  1  0.32619536  0.59524084  0.00000000  1.0
  Au  Au14  1  0.16978258  0.71289296  0.50000000  1.0
  Au  Au15  1  0.66978258  0.78710704  0.00000000  1.0
  Au  Au16  1  0.83021742  0.28710704  0.50000000  1.0
  Au  Au17  1  0.33021742  0.21289296  0.00000000  1.0
  Au  Au18  1  0.13507713  0.89338828  0.50000000  1.0
  Au  Au19  1  0.63507713  0.60661172  -0.00000000  1.0
  Au  Au20  1  0.86492287  0.10661172  0.50000000  1.0
  Au  Au21  1  0.36492287  0.39338828  -0.00000000  1.0
  Au  Au22  1  0.86160191  0.68656290  0.50000000  1.0
  Au  Au23  1  0.36160191  0.81343710  0.00000000  1.0
  Au  Au24  1  0.13839809  0.31343710  0.50000000  1.0
  Au  Au25  1  0.63839809  0.18656290  -0.00000000  1.0
  Au  Au26  1  0.84466274  0.51423564  0.50000000  1.0
  Au  Au27  1  0.34466274  0.98576436  0.00000000  1.0
  Au  Au28  1  0.15533726  0.48576436  0.50000000  1.0
  Au  Au29  1  0.65533726  0.01423564  0.00000000  1.0
