# generated using pymatgen
data_Ba11Sb10
_symmetry_space_group_name_H-M   'P 1'
_cell_length_a   13.55541812
_cell_length_b   13.55541812
_cell_length_c   13.55541812
_cell_angle_alpha   123.62947860
_cell_angle_beta   121.05954189
_cell_angle_gamma   86.00045342
_symmetry_Int_Tables_number   1
_chemical_formula_structural   Ba11Sb10
_chemical_formula_sum   'Ba22 Sb20'
_cell_volume   1693.18488108
_cell_formula_units_Z   2
loop_
 _symmetry_equiv_pos_site_id
 _symmetry_equiv_pos_as_xyz
  1  'x, y, z'
loop_
 _atom_site_type_symbol
 _atom_site_label
 _atom_site_symmetry_multiplicity
 _atom_site_fract_x
 _atom_site_fract_y
 _atom_site_fract_z
 _atom_site_occupancy
  Ba  Ba0  1  0.83638722  0.67311880  1.50950602  1.0
  Ba  Ba1  1  0.16361278  0.67311880  0.83673158  1.0
  Ba  Ba2  1  0.83638722  0.32688120  1.16326842  1.0
  Ba  Ba3  1  0.16361278  0.32688120  0.49049398  1.0
  Ba  Ba4  1  0.59989673  0.42806079  0.82816406  1.0
  Ba  Ba5  1  0.40010327  1.22826733  0.82816406  1.0
  Ba  Ba6  1  0.59989673  0.77173267  1.17183594  1.0
  Ba  Ba7  1  0.40010327  0.57193921  0.17183594  1.0
  Ba  Ba8  1  0.80339766  0.55261129  0.74921362  1.0
  Ba  Ba9  1  0.19660234  0.94581596  0.74921362  1.0
  Ba  Ba10  1  0.80339766  1.05418404  1.25078638  1.0
  Ba  Ba11  1  0.19660234  0.44738871  0.25078638  1.0
  Ba  Ba12  1  0.71323494  0.88980944  0.82342550  1.0
  Ba  Ba13  1  0.93361606  0.11019056  0.82342550  1.0
  Ba  Ba14  1  1.06638394  0.88980944  1.17657450  1.0
  Ba  Ba15  1  0.28676506  0.11019056  0.17657450  1.0
  Ba  Ba16  1  0.43900439  0.68712574  0.75187865  1.0
  Ba  Ba17  1  1.06475291  0.31287426  0.75187865  1.0
  Ba  Ba18  1  0.93524709  0.68712574  1.24812135  1.0
  Ba  Ba19  1  0.56099561  0.31287426  0.24812135  1.0
  Ba  Ba20  1  0.64742487  0.14742487  0.50000000  1.0
  Ba  Ba21  1  0.35257513  0.85257513  0.50000000  1.0
  Sb  Sb22  1  0.52633931  0.60181408  0.49711011  1.0
  Sb  Sb23  1  0.89529603  0.97077080  1.49711011  1.0
  Sb  Sb24  1  1.10470397  0.60181408  1.07547477  1.0
  Sb  Sb25  1  0.47366069  0.97077080  1.07547477  1.0
  Sb  Sb26  1  0.52633931  1.02922920  0.92452523  1.0
  Sb  Sb27  1  0.89529603  0.39818592  0.92452523  1.0
  Sb  Sb28  1  1.10470397  1.02922920  1.50288989  1.0
  Sb  Sb29  1  0.47366069  0.39818592  0.50288989  1.0
  Sb  Sb30  1  0.63080649  0.89018924  1.52099573  1.0
  Sb  Sb31  1  0.36919351  0.89018924  1.25938276  1.0
  Sb  Sb32  1  0.63080649  0.10981076  0.74061724  1.0
  Sb  Sb33  1  0.36919351  0.10981076  0.47900427  1.0
  Sb  Sb34  1  0.88621079  0.38621079  0.50000000  1.0
  Sb  Sb35  1  0.11378921  0.61378921  0.50000000  1.0
  Sb  Sb36  1  0.74464196  0.74464196  1.00000000  1.0
  Sb  Sb37  1  0.25535804  0.25535804  -0.00000000  1.0
  Sb  Sb38  1  0.34865702  0.50000000  0.84865702  1.0
  Sb  Sb39  1  0.65134298  0.50000000  1.15134298  1.0
  Sb  Sb40  1  0.00000000  0.88503786  0.88503786  1.0
  Sb  Sb41  1  0.00000000  0.11496214  0.11496214  1.0
