# generated using pymatgen
data_CsInP2O7
_symmetry_space_group_name_H-M   'P 1'
_cell_length_a   7.85711998
_cell_length_b   10.57576340
_cell_length_c   8.76442578
_cell_angle_alpha   90.00000000
_cell_angle_beta   104.91228138
_cell_angle_gamma   90.00000000
_symmetry_Int_Tables_number   1
_chemical_formula_structural   CsInP2O7
_chemical_formula_sum   'Cs4 In4 P8 O28'
_cell_volume   703.75253063
_cell_formula_units_Z   4
loop_
 _symmetry_equiv_pos_site_id
 _symmetry_equiv_pos_as_xyz
  1  'x, y, z'
loop_
 _atom_site_type_symbol
 _atom_site_label
 _atom_site_symmetry_multiplicity
 _atom_site_fract_x
 _atom_site_fract_y
 _atom_site_fract_z
 _atom_site_occupancy
  Cs  Cs0  1  0.80571726  0.80567005  0.45287598  1.0
  Cs  Cs1  1  0.80571726  0.69432995  0.95287598  1.0
  Cs  Cs2  1  0.19428274  0.30567005  0.04712402  1.0
  Cs  Cs3  1  0.19428274  0.19432995  0.54712402  1.0
  In  In4  1  0.76110657  0.39791366  0.24350813  1.0
  In  In5  1  0.76110657  0.10208634  0.74350813  1.0
  In  In6  1  0.23889343  0.89791366  0.25649187  1.0
  In  In7  1  0.23889343  0.60208634  0.75649187  1.0
  P  P8  1  0.86947692  0.09398826  0.17106021  1.0
  P  P9  1  0.86947692  0.40601174  0.67106021  1.0
  P  P10  1  0.13052308  0.59398826  0.32893979  1.0
  P  P11  1  0.13052308  0.90601174  0.82893979  1.0
  P  P12  1  0.57426771  0.12821309  0.31654772  1.0
  P  P13  1  0.57426771  0.37178691  0.81654772  1.0
  P  P14  1  0.42573229  0.62821309  0.18345228  1.0
  P  P15  1  0.42573229  0.87178691  0.68345228  1.0
  O  O16  1  -0.00084077  0.49857248  0.22913468  1.0
  O  O17  1  -0.00084077  0.00142752  0.72913468  1.0
  O  O18  1  1.00084077  0.99857248  0.27086532  1.0
  O  O19  1  1.00084077  0.50142752  0.77086532  1.0
  O  O20  1  0.91756032  0.22892321  0.23620647  1.0
  O  O21  1  0.91756032  0.27107679  0.73620647  1.0
  O  O22  1  0.08243968  0.72892321  0.26379353  1.0
  O  O23  1  0.08243968  0.77107679  0.76379353  1.0
  O  O24  1  0.85030492  0.41774391  0.49514628  1.0
  O  O25  1  0.85030492  0.08225609  0.99514628  1.0
  O  O26  1  0.14969508  0.91774391  0.00485372  1.0
  O  O27  1  0.14969508  0.58225609  0.50485372  1.0
  O  O28  1  0.68170556  0.10005538  0.48473537  1.0
  O  O29  1  0.68170556  0.39994462  0.98473537  1.0
  O  O30  1  0.31829444  0.60005538  0.01526463  1.0
  O  O31  1  0.31829444  0.89994462  0.51526463  1.0
  O  O32  1  0.67756877  0.05731221  0.20000842  1.0
  O  O33  1  0.67756877  0.44268779  0.70000842  1.0
  O  O34  1  0.32243123  0.55731221  0.29999158  1.0
  O  O35  1  0.32243123  0.94268779  0.79999158  1.0
  O  O36  1  0.55743905  0.26972865  0.27198057  1.0
  O  O37  1  0.55743905  0.23027135  0.77198057  1.0
  O  O38  1  0.44256095  0.76972865  0.22801943  1.0
  O  O39  1  0.44256095  0.73027135  0.72801943  1.0
  O  O40  1  0.38777151  0.07129797  0.27253396  1.0
  O  O41  1  0.38777151  0.42870203  0.77253396  1.0
  O  O42  1  0.61222849  0.57129797  0.22746604  1.0
  O  O43  1  0.61222849  0.92870203  0.72746604  1.0
