# generated using pymatgen
data_Al6C3N2
_symmetry_space_group_name_H-M   'P 1'
_cell_length_a   13.64393413
_cell_length_b   13.64393413
_cell_length_c   13.64393413
_cell_angle_alpha   13.79527641
_cell_angle_beta   13.79527641
_cell_angle_gamma   13.79527641
_symmetry_Int_Tables_number   1
_chemical_formula_structural   Al6C3N2
_chemical_formula_sum   'Al6 C3 N2'
_cell_volume   125.67513927
_cell_formula_units_Z   1
loop_
 _symmetry_equiv_pos_site_id
 _symmetry_equiv_pos_as_xyz
  1  'x, y, z'
loop_
 _atom_site_type_symbol
 _atom_site_label
 _atom_site_symmetry_multiplicity
 _atom_site_fract_x
 _atom_site_fract_y
 _atom_site_fract_z
 _atom_site_occupancy
  Al  Al0  1  0.91287998  0.91287998  0.91287998  1.0
  Al  Al1  1  1.08712002  1.08712002  0.08712002  1.0
  Al  Al2  1  0.81056483  0.81056483  0.81056483  1.0
  Al  Al3  1  1.18943517  1.18943517  0.18943517  1.0
  Al  Al4  1  0.69123924  0.69123924  0.69123924  1.0
  Al  Al5  1  1.30876076  1.30876076  0.30876076  1.0
  C  C6  1  0.86512198  0.86512198  0.86512198  1.0
  C  C7  1  1.13487802  1.13487802  0.13487802  1.0
  C  C8  1  0.00000000  0.00000000  0.00000000  1.0
  N  N9  1  0.73644621  0.73644621  0.73644621  1.0
  N  N10  1  1.26355379  1.26355379  0.26355379  1.0
