# generated using pymatgen
data_CsSbF4
_symmetry_space_group_name_H-M   'P 1'
_cell_length_a   10.04596510
_cell_length_b   16.45458801
_cell_length_c   6.44819045
_cell_angle_alpha   90.00000000
_cell_angle_beta   90.00000000
_cell_angle_gamma   90.00000000
_symmetry_Int_Tables_number   1
_chemical_formula_structural   CsSbF4
_chemical_formula_sum   'Cs8 Sb8 F32'
_cell_volume   1065.90017618
_cell_formula_units_Z   8
loop_
 _symmetry_equiv_pos_site_id
 _symmetry_equiv_pos_as_xyz
  1  'x, y, z'
loop_
 _atom_site_type_symbol
 _atom_site_label
 _atom_site_symmetry_multiplicity
 _atom_site_fract_x
 _atom_site_fract_y
 _atom_site_fract_z
 _atom_site_occupancy
  Cs  Cs0  1  0.17058519  0.74052339  0.50000000  1.0
  Cs  Cs1  1  0.67058519  0.75947661  0.50000000  1.0
  Cs  Cs2  1  0.82941481  0.25947661  0.50000000  1.0
  Cs  Cs3  1  0.32941481  0.24052339  0.50000000  1.0
  Cs  Cs4  1  0.41655171  0.88727621  0.00000000  1.0
  Cs  Cs5  1  0.91655171  0.61272379  0.00000000  1.0
  Cs  Cs6  1  0.58344829  0.11272379  0.00000000  1.0
  Cs  Cs7  1  0.08344829  0.38727621  0.00000000  1.0
  Sb  Sb8  1  0.28448227  0.49912491  0.50000000  1.0
  Sb  Sb9  1  0.78448227  1.00087509  0.50000000  1.0
  Sb  Sb10  1  0.71551773  0.50087509  0.50000000  1.0
  Sb  Sb11  1  0.21551773  -0.00087509  0.50000000  1.0
  Sb  Sb12  1  0.49056460  0.63787590  0.00000000  1.0
  Sb  Sb13  1  0.99056460  0.86212410  0.00000000  1.0
  Sb  Sb14  1  0.50943540  0.36212410  0.00000000  1.0
  Sb  Sb15  1  0.00943540  0.13787590  0.00000000  1.0
  F  F16  1  0.41839771  0.71496261  0.77516425  1.0
  F  F17  1  0.41839771  0.71496261  0.22483575  1.0
  F  F18  1  0.91839771  0.78503739  0.77516425  1.0
  F  F19  1  0.91839771  0.78503739  0.22483575  1.0
  F  F20  1  0.58160229  0.28503739  0.77516425  1.0
  F  F21  1  0.58160229  0.28503739  0.22483575  1.0
  F  F22  1  0.08160229  0.21496261  0.77516425  1.0
  F  F23  1  0.08160229  0.21496261  0.22483575  1.0
  F  F24  1  0.16695804  0.55039163  0.72150362  1.0
  F  F25  1  0.16695804  0.55039163  0.27849638  1.0
  F  F26  1  0.66695804  0.94960837  0.72150362  1.0
  F  F27  1  0.66695804  0.94960837  0.27849638  1.0
  F  F28  1  0.83304196  0.44960837  0.72150362  1.0
  F  F29  1  0.83304196  0.44960837  0.27849638  1.0
  F  F30  1  0.33304196  0.05039163  0.72150362  1.0
  F  F31  1  0.33304196  0.05039163  0.27849638  1.0
  F  F32  1  0.12728290  0.91552627  0.75546549  1.0
  F  F33  1  0.12728290  0.91552627  0.24453451  1.0
  F  F34  1  0.62728290  0.58447373  0.75546549  1.0
  F  F35  1  0.62728290  0.58447373  0.24453451  1.0
  F  F36  1  0.87271710  0.08447373  0.75546549  1.0
  F  F37  1  0.87271710  0.08447373  0.24453451  1.0
  F  F38  1  0.37271710  0.41552627  0.75546549  1.0
  F  F39  1  0.37271710  0.41552627  0.24453451  1.0
  F  F40  1  0.34257024  0.90752596  0.50000000  1.0
  F  F41  1  0.84257024  0.59247404  0.50000000  1.0
  F  F42  1  0.65742976  0.09247404  0.50000000  1.0
  F  F43  1  0.15742976  0.40752596  0.50000000  1.0
  F  F44  1  0.13970869  0.78305456  0.00000000  1.0
  F  F45  1  0.63970869  0.71694544  0.00000000  1.0
  F  F46  1  0.86029131  0.21694544  0.00000000  1.0
  F  F47  1  0.36029131  0.28305456  0.00000000  1.0
