# generated using pymatgen
data_Y2MgGa2
_symmetry_space_group_name_H-M   'P 1'
_cell_length_a   7.37405515
_cell_length_b   7.37405515
_cell_length_c   4.31217264
_cell_angle_alpha   90.00000000
_cell_angle_beta   90.00000000
_cell_angle_gamma   90.00000000
_symmetry_Int_Tables_number   1
_chemical_formula_structural   Y2MgGa2
_chemical_formula_sum   'Y4 Mg2 Ga4'
_cell_volume   234.48167192
_cell_formula_units_Z   2
loop_
 _symmetry_equiv_pos_site_id
 _symmetry_equiv_pos_as_xyz
  1  'x, y, z'
loop_
 _atom_site_type_symbol
 _atom_site_label
 _atom_site_symmetry_multiplicity
 _atom_site_fract_x
 _atom_site_fract_y
 _atom_site_fract_z
 _atom_site_occupancy
  Y  Y0  1  0.32732797  0.17267203  0.50000000  1.0
  Y  Y1  1  0.82732797  0.32732797  0.50000000  1.0
  Y  Y2  1  0.67267203  0.82732797  0.50000000  1.0
  Y  Y3  1  0.17267203  0.67267203  0.50000000  1.0
  Mg  Mg4  1  0.50000000  0.50000000  0.00000000  1.0
  Mg  Mg5  1  0.00000000  0.00000000  0.00000000  1.0
  Ga  Ga6  1  0.87464116  0.62535884  0.00000000  1.0
  Ga  Ga7  1  0.37464116  0.87464116  0.00000000  1.0
  Ga  Ga8  1  0.12535884  0.37464116  0.00000000  1.0
  Ga  Ga9  1  0.62535884  0.12535884  0.00000000  1.0
