# generated using pymatgen
data_Ba3(AlPt)4
_symmetry_space_group_name_H-M   'P 1'
_cell_length_a   6.81486802
_cell_length_b   6.81486802
_cell_length_c   11.97772954
_cell_angle_alpha   90.00000000
_cell_angle_beta   90.00000000
_cell_angle_gamma   74.41404481
_symmetry_Int_Tables_number   1
_chemical_formula_structural   Ba3(AlPt)4
_chemical_formula_sum   'Ba6 Al8 Pt8'
_cell_volume   535.81973635
_cell_formula_units_Z   2
loop_
 _symmetry_equiv_pos_site_id
 _symmetry_equiv_pos_as_xyz
  1  'x, y, z'
loop_
 _atom_site_type_symbol
 _atom_site_label
 _atom_site_symmetry_multiplicity
 _atom_site_fract_x
 _atom_site_fract_y
 _atom_site_fract_z
 _atom_site_occupancy
  Ba  Ba0  1  0.77980989  0.77980989  0.50000000  1.0
  Ba  Ba1  1  0.77980989  0.77980989  0.00000000  1.0
  Ba  Ba2  1  0.22019011  0.22019011  0.50000000  1.0
  Ba  Ba3  1  0.22019011  0.22019011  0.00000000  1.0
  Ba  Ba4  1  0.02310474  0.97689526  0.25000000  1.0
  Ba  Ba5  1  -0.02310474  1.02310474  0.75000000  1.0
  Al  Al6  1  -0.21560034  1.48599793  0.25000000  1.0
  Al  Al7  1  0.48599793  0.78439966  0.75000000  1.0
  Al  Al8  1  -0.48599793  1.21560034  0.25000000  1.0
  Al  Al9  1  0.21560034  0.51400207  0.75000000  1.0
  Al  Al10  1  0.39720764  0.60279236  0.37494636  1.0
  Al  Al11  1  0.39720764  0.60279236  0.12505364  1.0
  Al  Al12  1  -0.39720764  1.39720764  0.87494636  1.0
  Al  Al13  1  -0.39720764  1.39720764  0.62505364  1.0
  Pt  Pt14  1  0.16039441  0.46606583  0.25000000  1.0
  Pt  Pt15  1  -0.53393417  1.16039441  0.75000000  1.0
  Pt  Pt16  1  0.53393417  0.83960559  0.25000000  1.0
  Pt  Pt17  1  -0.16039441  1.53393417  0.75000000  1.0
  Pt  Pt18  1  0.30019567  0.69980433  0.92637445  1.0
  Pt  Pt19  1  0.30019567  0.69980433  0.57362555  1.0
  Pt  Pt20  1  -0.30019567  1.30019567  0.42637445  1.0
  Pt  Pt21  1  -0.30019567  1.30019567  0.07362555  1.0
