# generated using pymatgen
data_La5P12Ir19
_symmetry_space_group_name_H-M   'P 1'
_cell_length_a   12.83515215
_cell_length_b   12.83515215
_cell_length_c   4.04477845
_cell_angle_alpha   90.00000000
_cell_angle_beta   90.00000000
_cell_angle_gamma   120.00000000
_symmetry_Int_Tables_number   1
_chemical_formula_structural   La5P12Ir19
_chemical_formula_sum   'La5 P12 Ir19'
_cell_volume   577.06855923
_cell_formula_units_Z   1
loop_
 _symmetry_equiv_pos_site_id
 _symmetry_equiv_pos_as_xyz
  1  'x, y, z'
loop_
 _atom_site_type_symbol
 _atom_site_label
 _atom_site_symmetry_multiplicity
 _atom_site_fract_x
 _atom_site_fract_y
 _atom_site_fract_z
 _atom_site_occupancy
  La  La0  1  0.18599242  0.18599242  0.50000000  1.0
  La  La1  1  0.00000000  0.81400758  0.50000000  1.0
  La  La2  1  0.81400758  0.00000000  0.50000000  1.0
  La  La3  1  0.33333333  0.66666667  0.00000000  1.0
  La  La4  1  0.66666667  0.33333333  0.00000000  1.0
  P  P5  1  0.31014327  0.82920513  0.50000000  1.0
  P  P6  1  0.82920513  0.31014327  0.50000000  1.0
  P  P7  1  0.51906186  0.68985673  0.50000000  1.0
  P  P8  1  0.17079487  0.48093814  0.50000000  1.0
  P  P9  1  0.68985673  0.51906186  0.50000000  1.0
  P  P10  1  0.48093814  0.17079487  0.50000000  1.0
  P  P11  1  0.81799899  0.81799899  0.00000000  1.0
  P  P12  1  -0.00000000  0.18200101  0.00000000  1.0
  P  P13  1  0.18200101  0.00000000  0.00000000  1.0
  P  P14  1  0.36231130  0.36231130  0.00000000  1.0
  P  P15  1  -0.00000000  0.63768870  0.00000000  1.0
  P  P16  1  0.63768870  0.00000000  0.00000000  1.0
  Ir  Ir17  1  0.12871150  0.63701848  0.50000000  1.0
  Ir  Ir18  1  0.63701848  0.12871150  0.50000000  1.0
  Ir  Ir19  1  0.50830698  0.87128850  0.50000000  1.0
  Ir  Ir20  1  0.36298152  0.49169302  0.50000000  1.0
  Ir  Ir21  1  0.87128850  0.50830698  0.50000000  1.0
  Ir  Ir22  1  0.49169302  0.36298152  0.50000000  1.0
  Ir  Ir23  1  0.19907243  0.81937605  0.00000000  1.0
  Ir  Ir24  1  0.81937605  0.19907243  0.00000000  1.0
  Ir  Ir25  1  0.62030362  0.80092757  0.00000000  1.0
  Ir  Ir26  1  0.18062395  0.37969638  0.00000000  1.0
  Ir  Ir27  1  0.80092757  0.62030362  0.00000000  1.0
  Ir  Ir28  1  0.37969638  0.18062395  0.00000000  1.0
  Ir  Ir29  1  0.71305007  0.71305007  0.50000000  1.0
  Ir  Ir30  1  -0.00000000  0.28694993  0.50000000  1.0
  Ir  Ir31  1  0.28694993  0.00000000  0.50000000  1.0
  Ir  Ir32  1  0.53913199  0.53913199  0.00000000  1.0
  Ir  Ir33  1  0.00000000  0.46086801  0.00000000  1.0
  Ir  Ir34  1  0.46086801  0.00000000  0.00000000  1.0
  Ir  Ir35  1  0.00000000  0.00000000  0.00000000  1.0
