# generated using pymatgen
data_Na3Hg2
_symmetry_space_group_name_H-M   'P 1'
_cell_length_a   8.56491195
_cell_length_b   8.56491195
_cell_length_c   7.84149338
_cell_angle_alpha   90.00000000
_cell_angle_beta   90.00000000
_cell_angle_gamma   90.00000000
_symmetry_Int_Tables_number   1
_chemical_formula_structural   Na3Hg2
_chemical_formula_sum   'Na12 Hg8'
_cell_volume   575.23405087
_cell_formula_units_Z   4
loop_
 _symmetry_equiv_pos_site_id
 _symmetry_equiv_pos_as_xyz
  1  'x, y, z'
loop_
 _atom_site_type_symbol
 _atom_site_label
 _atom_site_symmetry_multiplicity
 _atom_site_fract_x
 _atom_site_fract_y
 _atom_site_fract_z
 _atom_site_occupancy
  Na  Na0  1  0.20276238  0.20276238  0.50000000  1.0
  Na  Na1  1  0.70276238  0.29723762  0.00000000  1.0
  Na  Na2  1  0.79723762  0.79723762  0.50000000  1.0
  Na  Na3  1  0.29723762  0.70276238  0.00000000  1.0
  Na  Na4  1  0.35831427  0.64168573  0.50000000  1.0
  Na  Na5  1  0.85831427  0.85831427  0.00000000  1.0
  Na  Na6  1  0.64168573  0.35831427  0.50000000  1.0
  Na  Na7  1  0.14168573  0.14168573  0.00000000  1.0
  Na  Na8  1  0.50000000  0.00000000  0.25000000  1.0
  Na  Na9  1  0.50000000  0.00000000  0.75000000  1.0
  Na  Na10  1  0.00000000  0.50000000  0.75000000  1.0
  Na  Na11  1  0.00000000  0.50000000  0.25000000  1.0
  Hg  Hg12  1  0.12680925  0.87319075  0.30598819  1.0
  Hg  Hg13  1  0.12680925  0.87319075  0.69401181  1.0
  Hg  Hg14  1  0.62680925  0.62680925  0.80598819  1.0
  Hg  Hg15  1  0.62680925  0.62680925  0.19401181  1.0
  Hg  Hg16  1  0.87319075  0.12680925  0.30598819  1.0
  Hg  Hg17  1  0.87319075  0.12680925  0.69401181  1.0
  Hg  Hg18  1  0.37319075  0.37319075  0.80598819  1.0
  Hg  Hg19  1  0.37319075  0.37319075  0.19401181  1.0
