# generated using pymatgen
data_CuBi2(SeO3)4
_symmetry_space_group_name_H-M   'P 1'
_cell_length_a   10.82211808
_cell_length_b   7.59482281
_cell_length_c   8.16992684
_cell_angle_alpha   90.00000000
_cell_angle_beta   110.81336462
_cell_angle_gamma   90.00000000
_symmetry_Int_Tables_number   1
_chemical_formula_structural   CuBi2(SeO3)4
_chemical_formula_sum   'Cu2 Bi4 Se8 O24'
_cell_volume   627.68278754
_cell_formula_units_Z   2
loop_
 _symmetry_equiv_pos_site_id
 _symmetry_equiv_pos_as_xyz
  1  'x, y, z'
loop_
 _atom_site_type_symbol
 _atom_site_label
 _atom_site_symmetry_multiplicity
 _atom_site_fract_x
 _atom_site_fract_y
 _atom_site_fract_z
 _atom_site_occupancy
  Cu  Cu0  1  0.00000000  0.00000000  0.00000000  1.0
  Cu  Cu1  1  -0.00000000  0.50000000  0.50000000  1.0
  Bi  Bi2  1  0.60151115  0.88965003  0.74979373  1.0
  Bi  Bi3  1  0.60151115  0.61034997  0.24979373  1.0
  Bi  Bi4  1  0.39848885  0.38965003  0.75020627  1.0
  Bi  Bi5  1  0.39848885  0.11034997  0.25020627  1.0
  Se  Se6  1  0.86957016  0.82240616  0.61332078  1.0
  Se  Se7  1  0.86957016  0.67759384  0.11332078  1.0
  Se  Se8  1  0.13042984  0.32240616  0.88667922  1.0
  Se  Se9  1  0.13042984  0.17759384  0.38667922  1.0
  Se  Se10  1  0.31304350  0.82299947  0.85817027  1.0
  Se  Se11  1  0.31304350  0.67700053  0.35817027  1.0
  Se  Se12  1  0.68695650  0.32299947  0.64182973  1.0
  Se  Se13  1  0.68695650  0.17700053  0.14182973  1.0
  O  O14  1  0.95326186  0.62637972  0.67690516  1.0
  O  O15  1  0.95326186  0.87362028  0.17690516  1.0
  O  O16  1  0.04673814  0.12637972  0.82309484  1.0
  O  O17  1  0.04673814  0.37362028  0.32309484  1.0
  O  O18  1  0.85593417  0.88241852  0.81509551  1.0
  O  O19  1  0.85593417  0.61758148  0.31509551  1.0
  O  O20  1  0.14406583  0.38241852  0.68490449  1.0
  O  O21  1  0.14406583  0.11758148  0.18490449  1.0
  O  O22  1  0.70460426  0.76853096  0.52317655  1.0
  O  O23  1  0.70460426  0.73146904  0.02317655  1.0
  O  O24  1  0.29539574  0.26853096  0.97682345  1.0
  O  O25  1  0.29539574  0.23146904  0.47682345  1.0
  O  O26  1  0.68602384  0.38195278  0.43673423  1.0
  O  O27  1  0.68602384  0.11804722  0.93673423  1.0
  O  O28  1  0.31397616  0.88195278  0.06326577  1.0
  O  O29  1  0.31397616  0.61804722  0.56326577  1.0
  O  O30  1  0.41967287  0.64082571  0.92385873  1.0
  O  O31  1  0.41967287  0.85917429  0.42385873  1.0
  O  O32  1  0.58032713  0.14082571  0.57614127  1.0
  O  O33  1  0.58032713  0.35917429  0.07614127  1.0
  O  O34  1  0.41189866  0.97336146  0.80741989  1.0
  O  O35  1  0.41189866  0.52663854  0.30741989  1.0
  O  O36  1  0.58810134  0.47336146  0.69258011  1.0
  O  O37  1  0.58810134  0.02663854  0.19258011  1.0
