# generated using pymatgen
data_Ba4Cd(ReO6)2
_symmetry_space_group_name_H-M   'P 1'
_cell_length_a   10.07589078
_cell_length_b   10.07589078
_cell_length_c   10.07589078
_cell_angle_alpha   33.81923550
_cell_angle_beta   33.81923550
_cell_angle_gamma   33.81923550
_symmetry_Int_Tables_number   1
_chemical_formula_structural   Ba4Cd(ReO6)2
_chemical_formula_sum   'Ba4 Cd1 Re2 O12'
_cell_volume   282.37596463
_cell_formula_units_Z   1
loop_
 _symmetry_equiv_pos_site_id
 _symmetry_equiv_pos_as_xyz
  1  'x, y, z'
loop_
 _atom_site_type_symbol
 _atom_site_label
 _atom_site_symmetry_multiplicity
 _atom_site_fract_x
 _atom_site_fract_y
 _atom_site_fract_z
 _atom_site_occupancy
  Ba  Ba0  1  0.70913942  0.70913942  0.70913942  1.0
  Ba  Ba1  1  1.29086058  1.29086058  0.29086058  1.0
  Ba  Ba2  1  0.86852057  0.86852057  0.86852057  1.0
  Ba  Ba3  1  1.13147943  1.13147943  0.13147943  1.0
  Cd  Cd4  1  -0.00000000  0.00000000  -0.00000000  1.0
  Re  Re5  1  1.57825403  0.57825403  0.57825403  1.0
  Re  Re6  1  1.42174597  0.42174597  0.42174597  1.0
  O  O7  1  1.38926313  0.38926313  0.85538454  1.0
  O  O8  1  1.38926313  0.85538454  0.38926313  1.0
  O  O9  1  1.14461546  0.61073687  0.61073687  1.0
  O  O10  1  1.61073687  0.14461546  0.61073687  1.0
  O  O11  1  1.61073687  0.61073687  0.14461546  1.0
  O  O12  1  0.85538454  1.38926313  0.38926313  1.0
  O  O13  1  1.22840464  0.22840464  0.68247292  1.0
  O  O14  1  1.22840464  0.68247292  0.22840464  1.0
  O  O15  1  1.31752708  0.77159536  0.77159536  1.0
  O  O16  1  1.77159536  0.31752708  0.77159536  1.0
  O  O17  1  1.77159536  0.77159536  0.31752708  1.0
  O  O18  1  0.68247292  1.22840464  0.22840464  1.0
