# generated using pymatgen
data_Sr3Ga4O9
_symmetry_space_group_name_H-M   'P 1'
_cell_length_a   9.81880340
_cell_length_b   8.11792330
_cell_length_c   6.82418186
_cell_angle_alpha   74.66293846
_cell_angle_beta   72.27464214
_cell_angle_gamma   84.89383568
_symmetry_Int_Tables_number   1
_chemical_formula_structural   Sr3Ga4O9
_chemical_formula_sum   'Sr6 Ga8 O18'
_cell_volume   499.64779353
_cell_formula_units_Z   2
loop_
 _symmetry_equiv_pos_site_id
 _symmetry_equiv_pos_as_xyz
  1  'x, y, z'
loop_
 _atom_site_type_symbol
 _atom_site_label
 _atom_site_symmetry_multiplicity
 _atom_site_fract_x
 _atom_site_fract_y
 _atom_site_fract_z
 _atom_site_occupancy
  Sr  Sr0  1  -0.95928650  -0.21140634  -0.81143309  1.0
  Sr  Sr1  1  -0.04071350  -0.78859366  -0.18856691  1.0
  Sr  Sr2  1  -0.67810456  -0.56625415  -0.68652031  1.0
  Sr  Sr3  1  -0.32189544  -0.43374585  -0.31347969  1.0
  Sr  Sr4  1  -0.31009681  -0.95014567  -0.44033419  1.0
  Sr  Sr5  1  -0.68990319  -0.04985433  -0.55966581  1.0
  Ga  Ga6  1  -0.41905637  -0.80538366  -0.93992031  1.0
  Ga  Ga7  1  -0.58094363  -0.19461634  -0.06007969  1.0
  Ga  Ga8  1  -0.23571976  -0.55161547  -0.83436225  1.0
  Ga  Ga9  1  -0.76428024  -0.44838453  -0.16563775  1.0
  Ga  Ga10  1  -0.94454729  -0.74551165  -0.75275488  1.0
  Ga  Ga11  1  -0.05545271  -0.25448835  -0.24724512  1.0
  Ga  Ga12  1  -0.69878795  -0.82866281  -0.11056069  1.0
  Ga  Ga13  1  -0.30121205  -0.17133719  -0.88943931  1.0
  O  O14  1  -0.88687356  -0.89378492  -0.94078606  1.0
  O  O15  1  -0.11312644  -0.10621508  -0.05921394  1.0
  O  O16  1  -0.61557548  -0.80275373  -0.90801776  1.0
  O  O17  1  -0.38442452  -0.19724627  -0.09198224  1.0
  O  O18  1  -0.87117382  -0.51820589  -0.87695740  1.0
  O  O19  1  -0.12882618  -0.48179411  -0.12304260  1.0
  O  O20  1  -0.41504775  -0.63328823  -0.80379572  1.0
  O  O21  1  -0.58495225  -0.36671177  -0.19620428  1.0
  O  O22  1  -0.70369909  -0.24083032  -0.79035690  1.0
  O  O23  1  -0.29630091  -0.75916968  -0.20964310  1.0
  O  O24  1  -0.14109811  -0.74017202  -0.71152777  1.0
  O  O25  1  -0.85890189  -0.25982798  -0.28847223  1.0
  O  O26  1  -0.87709081  -0.81399811  -0.52129244  1.0
  O  O27  1  -0.12290919  -0.18600189  -0.47870756  1.0
  O  O28  1  -0.73194093  -0.62615651  -0.29819149  1.0
  O  O29  1  -0.26805907  -0.37384349  -0.70180851  1.0
  O  O30  1  -0.60163267  -0.98611024  -0.25908746  1.0
  O  O31  1  -0.39836733  -0.01388976  -0.74091254  1.0
