# generated using pymatgen
data_Si(AgO)2
_symmetry_space_group_name_H-M   'P 1'
_cell_length_a   10.98371680
_cell_length_b   10.98371680
_cell_length_c   2.65227794
_cell_angle_alpha   90.00000000
_cell_angle_beta   90.00000000
_cell_angle_gamma   90.00000000
_symmetry_Int_Tables_number   1
_chemical_formula_structural   Si(AgO)2
_chemical_formula_sum   'Si4 Ag8 O8'
_cell_volume   319.97620664
_cell_formula_units_Z   4
loop_
 _symmetry_equiv_pos_site_id
 _symmetry_equiv_pos_as_xyz
  1  'x, y, z'
loop_
 _atom_site_type_symbol
 _atom_site_label
 _atom_site_symmetry_multiplicity
 _atom_site_fract_x
 _atom_site_fract_y
 _atom_site_fract_z
 _atom_site_occupancy
  Si  Si0  1  0.25000000  0.25000000  0.25000000  1.0
  Si  Si1  1  0.75000000  0.75000000  0.25000000  1.0
  Si  Si2  1  0.25000000  0.75000000  0.75000000  1.0
  Si  Si3  1  0.75000000  0.25000000  0.75000000  1.0
  Ag  Ag4  1  0.33614403  0.99991759  -0.00110456  1.0
  Ag  Ag5  1  0.83614403  0.49991759  0.50110456  1.0
  Ag  Ag6  1  0.99991759  0.66385597  1.00110456  1.0
  Ag  Ag7  1  0.49991759  0.16385597  0.49889544  1.0
  Ag  Ag8  1  0.66385597  0.00008241  -0.00110456  1.0
  Ag  Ag9  1  0.16385597  0.50008241  0.50110456  1.0
  Ag  Ag10  1  0.00008241  0.33614403  1.00110456  1.0
  Ag  Ag11  1  0.50008241  0.83614403  0.49889544  1.0
  O  O12  1  0.32430099  0.32451258  0.73996075  1.0
  O  O13  1  0.82430099  0.82451258  -0.23996075  1.0
  O  O14  1  0.32451258  0.67569901  0.26003925  1.0
  O  O15  1  0.82451258  0.17569901  1.23996075  1.0
  O  O16  1  0.67569901  0.67548742  0.73996075  1.0
  O  O17  1  0.17569901  0.17548742  -0.23996075  1.0
  O  O18  1  0.67548742  0.32430099  0.26003925  1.0
  O  O19  1  0.17548742  0.82430099  1.23996075  1.0
