# generated using pymatgen
data_Ga2S3
_symmetry_space_group_name_H-M   'P 1'
_cell_length_a   6.55953613
_cell_length_b   6.55953613
_cell_length_c   18.29578127
_cell_angle_alpha   90.00000000
_cell_angle_beta   90.00000000
_cell_angle_gamma   120.00000000
_symmetry_Int_Tables_number   1
_chemical_formula_structural   Ga2S3
_chemical_formula_sum   'Ga12 S18'
_cell_volume   681.75424099
_cell_formula_units_Z   6
loop_
 _symmetry_equiv_pos_site_id
 _symmetry_equiv_pos_as_xyz
  1  'x, y, z'
loop_
 _atom_site_type_symbol
 _atom_site_label
 _atom_site_symmetry_multiplicity
 _atom_site_fract_x
 _atom_site_fract_y
 _atom_site_fract_z
 _atom_site_occupancy
  Ga  Ga0  1  0.34587125  -0.02052701  0.79019590  1.0
  Ga  Ga1  1  -0.02052701  0.63360174  0.62352923  1.0
  Ga  Ga2  1  0.63360174  0.65412875  0.45686257  1.0
  Ga  Ga3  1  0.02052701  0.36639826  0.12352923  1.0
  Ga  Ga4  1  0.65412875  0.02052701  0.29019590  1.0
  Ga  Ga5  1  0.36639826  0.34587125  0.95686257  1.0
  Ga  Ga6  1  -0.00427048  0.66891141  0.96003352  1.0
  Ga  Ga7  1  0.66891141  0.67318189  0.79336685  1.0
  Ga  Ga8  1  0.67318189  0.00427048  0.62670018  1.0
  Ga  Ga9  1  0.33108859  0.32681811  0.29336685  1.0
  Ga  Ga10  1  0.00427048  0.33108859  0.46003352  1.0
  Ga  Ga11  1  0.32681811  -0.00427048  0.12670018  1.0
  S  S12  1  0.31735238  -0.01765358  0.66261453  1.0
  S  S13  1  -0.01765358  0.66499404  0.49594786  1.0
  S  S14  1  0.66499404  0.68264762  0.32928119  1.0
  S  S15  1  0.01765358  0.33500596  -0.00405214  1.0
  S  S16  1  0.68264762  0.01765358  0.16261453  1.0
  S  S17  1  0.33500596  0.31735238  0.82928119  1.0
  S  S18  1  0.65291663  0.65456350  0.66514229  1.0
  S  S19  1  0.65456350  0.00164687  0.49847562  1.0
  S  S20  1  0.00164687  0.34708337  0.33180896  1.0
  S  S21  1  0.34543650  -0.00164687  -0.00152438  1.0
  S  S22  1  0.34708337  0.34543650  0.16514229  1.0
  S  S23  1  -0.00164687  0.65291663  0.83180896  1.0
  S  S24  1  0.67576472  0.65843680  1.00534710  1.0
  S  S25  1  0.65843680  -0.01732792  0.83868044  1.0
  S  S26  1  -0.01732792  0.32423528  0.67201377  1.0
  S  S27  1  0.34156320  0.01732792  0.33868044  1.0
  S  S28  1  0.32423528  0.34156320  0.50534710  1.0
  S  S29  1  0.01732792  0.67576472  0.17201377  1.0
