# generated using pymatgen
data_La3FeW(SO2)3
_symmetry_space_group_name_H-M   'P 1'
_cell_length_a   9.43235888
_cell_length_b   9.43235888
_cell_length_c   5.55094670
_cell_angle_alpha   90.00000000
_cell_angle_beta   90.00000000
_cell_angle_gamma   120.00000000
_symmetry_Int_Tables_number   1
_chemical_formula_structural   La3FeW(SO2)3
_chemical_formula_sum   'La6 Fe2 W2 S6 O12'
_cell_volume   427.69908608
_cell_formula_units_Z   2
loop_
 _symmetry_equiv_pos_site_id
 _symmetry_equiv_pos_as_xyz
  1  'x, y, z'
loop_
 _atom_site_type_symbol
 _atom_site_label
 _atom_site_symmetry_multiplicity
 _atom_site_fract_x
 _atom_site_fract_y
 _atom_site_fract_z
 _atom_site_occupancy
  La  La0  1  0.68507884  0.59552528  0.25000000  1.0
  La  La1  1  0.59552528  0.91044644  0.75000000  1.0
  La  La2  1  0.91044644  0.31492116  0.25000000  1.0
  La  La3  1  0.40447472  0.08955356  0.25000000  1.0
  La  La4  1  0.31492116  0.40447472  0.75000000  1.0
  La  La5  1  0.08955356  0.68507884  0.75000000  1.0
  Fe  Fe6  1  0.00000000  0.00000000  0.50000000  1.0
  Fe  Fe7  1  0.00000000  0.00000000  0.00000000  1.0
  W  W8  1  0.33333333  0.66666667  0.25000000  1.0
  W  W9  1  0.66666667  0.33333333  0.75000000  1.0
  S  S10  1  0.04415265  0.83077341  0.25000000  1.0
  S  S11  1  0.83077341  0.78662076  0.75000000  1.0
  S  S12  1  0.78662076  0.95584735  0.25000000  1.0
  S  S13  1  0.16922659  0.21337924  0.25000000  1.0
  S  S14  1  0.95584735  0.16922659  0.75000000  1.0
  S  S15  1  0.21337924  0.04415265  0.75000000  1.0
  O  O16  1  0.36353967  0.83801924  0.47543180  1.0
  O  O17  1  0.36353967  0.83801924  0.02456820  1.0
  O  O18  1  0.83801924  0.47447957  0.97543180  1.0
  O  O19  1  0.83801924  0.47447957  0.52456820  1.0
  O  O20  1  0.47447957  0.63646033  0.47543180  1.0
  O  O21  1  0.47447957  0.63646033  0.02456820  1.0
  O  O22  1  0.16198076  0.52552043  0.47543180  1.0
  O  O23  1  0.16198076  0.52552043  0.02456820  1.0
  O  O24  1  0.63646033  0.16198076  0.97543180  1.0
  O  O25  1  0.63646033  0.16198076  0.52456820  1.0
  O  O26  1  0.52552043  0.36353967  0.97543180  1.0
  O  O27  1  0.52552043  0.36353967  0.52456820  1.0
