# generated using pymatgen
data_Cs5As(PSe3)4
_symmetry_space_group_name_H-M   'P 1'
_cell_length_a   14.28830025
_cell_length_b   14.28830025
_cell_length_c   7.75348044
_cell_angle_alpha   90.00000000
_cell_angle_beta   90.00000000
_cell_angle_gamma   90.00000000
_symmetry_Int_Tables_number   1
_chemical_formula_structural   Cs5As(PSe3)4
_chemical_formula_sum   'Cs10 As2 P8 Se24'
_cell_volume   1582.91586217
_cell_formula_units_Z   2
loop_
 _symmetry_equiv_pos_site_id
 _symmetry_equiv_pos_as_xyz
  1  'x, y, z'
loop_
 _atom_site_type_symbol
 _atom_site_label
 _atom_site_symmetry_multiplicity
 _atom_site_fract_x
 _atom_site_fract_y
 _atom_site_fract_z
 _atom_site_occupancy
  Cs  Cs0  1  0.68207753  0.97095863  0.00000000  1.0
  Cs  Cs1  1  0.97095863  0.31792247  0.50000000  1.0
  Cs  Cs2  1  0.31792247  0.02904137  0.00000000  1.0
  Cs  Cs3  1  0.02904137  0.68207753  0.50000000  1.0
  Cs  Cs4  1  0.68619182  0.34044571  0.00000000  1.0
  Cs  Cs5  1  0.34044571  0.31380818  0.50000000  1.0
  Cs  Cs6  1  0.31380818  0.65955429  0.00000000  1.0
  Cs  Cs7  1  0.65955429  0.68619182  0.50000000  1.0
  Cs  Cs8  1  0.00000000  0.00000000  0.00000000  1.0
  Cs  Cs9  1  0.00000000  0.00000000  0.50000000  1.0
  As  As10  1  0.00000000  0.50000000  0.00000000  1.0
  As  As11  1  0.50000000  0.00000000  0.50000000  1.0
  P  P12  1  0.88594138  0.74406557  0.00000000  1.0
  P  P13  1  0.74406557  0.11405862  0.50000000  1.0
  P  P14  1  0.11405862  0.25593443  0.00000000  1.0
  P  P15  1  0.25593443  0.88594138  0.50000000  1.0
  P  P16  1  0.80151130  0.60651307  0.00000000  1.0
  P  P17  1  0.60651307  0.19848870  0.50000000  1.0
  P  P18  1  0.19848870  0.39348693  0.00000000  1.0
  P  P19  1  0.39348693  0.80151130  0.50000000  1.0
  Se  Se20  1  0.84964611  0.81941061  0.76327274  1.0
  Se  Se21  1  0.84964611  0.81941061  0.23672726  1.0
  Se  Se22  1  0.81941061  0.15035389  0.26327274  1.0
  Se  Se23  1  0.81941061  0.15035389  0.73672726  1.0
  Se  Se24  1  0.15035389  0.18058939  0.76327274  1.0
  Se  Se25  1  0.15035389  0.18058939  0.23672726  1.0
  Se  Se26  1  0.18058939  0.84964611  0.26327274  1.0
  Se  Se27  1  0.18058939  0.84964611  0.73672726  1.0
  Se  Se28  1  0.85675152  0.52860575  0.77101147  1.0
  Se  Se29  1  0.85675152  0.52860575  0.22898853  1.0
  Se  Se30  1  0.52860575  0.14324848  0.27101147  1.0
  Se  Se31  1  0.52860575  0.14324848  0.72898853  1.0
  Se  Se32  1  0.14324848  0.47139425  0.77101147  1.0
  Se  Se33  1  0.14324848  0.47139425  0.22898853  1.0
  Se  Se34  1  0.47139425  0.85675152  0.27101147  1.0
  Se  Se35  1  0.47139425  0.85675152  0.72898853  1.0
  Se  Se36  1  0.96705980  0.31054663  0.00000000  1.0
  Se  Se37  1  0.31054663  0.03294020  0.50000000  1.0
  Se  Se38  1  0.03294020  0.68945337  0.00000000  1.0
  Se  Se39  1  0.68945337  0.96705980  0.50000000  1.0
  Se  Se40  1  0.65286832  0.62762207  0.00000000  1.0
  Se  Se41  1  0.62762207  0.34713168  0.50000000  1.0
  Se  Se42  1  0.34713168  0.37237793  0.00000000  1.0
  Se  Se43  1  0.37237793  0.65286832  0.50000000  1.0
