# generated using pymatgen
data_BaGdCuSe3
_symmetry_space_group_name_H-M   'P 1'
_cell_length_a   7.36073592
_cell_length_b   7.36073592
_cell_length_c   10.78824007
_cell_angle_alpha   90.00000000
_cell_angle_beta   90.00000000
_cell_angle_gamma   146.77136516
_symmetry_Int_Tables_number   1
_chemical_formula_structural   BaGdCuSe3
_chemical_formula_sum   'Ba2 Gd2 Cu2 Se6'
_cell_volume   320.30141075
_cell_formula_units_Z   2
loop_
 _symmetry_equiv_pos_site_id
 _symmetry_equiv_pos_as_xyz
  1  'x, y, z'
loop_
 _atom_site_type_symbol
 _atom_site_label
 _atom_site_symmetry_multiplicity
 _atom_site_fract_x
 _atom_site_fract_y
 _atom_site_fract_z
 _atom_site_occupancy
  Ba  Ba0  1  -0.25250921  0.25250921  0.75000000  1.0
  Ba  Ba1  1  0.25250921  0.74749079  0.25000000  1.0
  Gd  Gd2  1  0.00000000  0.00000000  0.00000000  1.0
  Gd  Gd3  1  0.00000000  0.00000000  0.50000000  1.0
  Cu  Cu4  1  0.46899099  0.53100901  0.75000000  1.0
  Cu  Cu5  1  -0.46899099  0.46899099  0.25000000  1.0
  Se  Se6  1  0.36561503  0.63438497  0.93510950  1.0
  Se  Se7  1  0.36561503  0.63438497  0.56489050  1.0
  Se  Se8  1  -0.36561503  0.36561503  0.43510950  1.0
  Se  Se9  1  -0.36561503  0.36561503  0.06489050  1.0
  Se  Se10  1  0.06963938  0.93036062  0.75000000  1.0
  Se  Se11  1  -0.06963938  0.06963938  0.25000000  1.0
