# generated using pymatgen
data_Sr3Ga4Ni3
_symmetry_space_group_name_H-M   'P 1'
_cell_length_a   6.45810301
_cell_length_b   6.45810301
_cell_length_c   6.45810301
_cell_angle_alpha   107.81778384
_cell_angle_beta   107.81778384
_cell_angle_gamma   107.81778384
_symmetry_Int_Tables_number   1
_chemical_formula_structural   Sr3Ga4Ni3
_chemical_formula_sum   'Sr3 Ga4 Ni3'
_cell_volume   219.11956994
_cell_formula_units_Z   1
loop_
 _symmetry_equiv_pos_site_id
 _symmetry_equiv_pos_as_xyz
  1  'x, y, z'
loop_
 _atom_site_type_symbol
 _atom_site_label
 _atom_site_symmetry_multiplicity
 _atom_site_fract_x
 _atom_site_fract_y
 _atom_site_fract_z
 _atom_site_occupancy
  Sr  Sr0  1  1.45827779  0.45827779  -0.14610863  1.0
  Sr  Sr1  1  1.45827779  -0.14610863  0.45827779  1.0
  Sr  Sr2  1  0.85389137  0.45827779  0.45827779  1.0
  Ga  Ga3  1  0.24440294  0.24440294  0.24440294  1.0
  Ga  Ga4  1  0.95420719  0.95420719  0.36755735  1.0
  Ga  Ga5  1  0.95420719  1.36755735  -0.04579281  1.0
  Ga  Ga6  1  1.36755735  0.95420719  -0.04579281  1.0
  Ni  Ni7  1  1.01809237  0.01809237  -0.23210637  1.0
  Ni  Ni8  1  1.01809237  -0.23210637  0.01809237  1.0
  Ni  Ni9  1  0.76789363  0.01809237  0.01809237  1.0
