# generated using pymatgen
data_Ca2GePt2
_symmetry_space_group_name_H-M   'P 1'
_cell_length_a   5.62033186
_cell_length_b   5.62033186
_cell_length_c   7.98050470
_cell_angle_alpha   79.54445543
_cell_angle_beta   100.45554457
_cell_angle_gamma   119.63299739
_symmetry_Int_Tables_number   1
_chemical_formula_structural   Ca2GePt2
_chemical_formula_sum   'Ca4 Ge2 Pt4'
_cell_volume   214.23553656
_cell_formula_units_Z   2
loop_
 _symmetry_equiv_pos_site_id
 _symmetry_equiv_pos_as_xyz
  1  'x, y, z'
loop_
 _atom_site_type_symbol
 _atom_site_label
 _atom_site_symmetry_multiplicity
 _atom_site_fract_x
 _atom_site_fract_y
 _atom_site_fract_z
 _atom_site_occupancy
  Ca  Ca0  1  1.51978952  0.21557898  0.15305075  1.0
  Ca  Ca1  1  0.78442102  -0.51978952  0.65305075  1.0
  Ca  Ca2  1  1.21557898  0.51978952  0.34694925  1.0
  Ca  Ca3  1  0.48021048  -0.21557898  0.84694925  1.0
  Ge  Ge4  1  0.87570527  -0.12429473  0.25000000  1.0
  Ge  Ge5  1  1.12429473  0.12429473  0.75000000  1.0
  Pt  Pt6  1  0.73914469  -0.00421966  0.50010155  1.0
  Pt  Pt7  1  1.00421966  0.26085531  1.00010155  1.0
  Pt  Pt8  1  0.99578034  -0.26085531  -0.00010155  1.0
  Pt  Pt9  1  1.26085531  0.00421966  0.49989845  1.0
