# generated using pymatgen
data_Al45V7
_symmetry_space_group_name_H-M   'P 1'
_cell_length_a   11.09589334
_cell_length_b   11.09589334
_cell_length_c   11.07737835
_cell_angle_alpha   74.10369991
_cell_angle_beta   105.89630009
_cell_angle_gamma   139.91933970
_symmetry_Int_Tables_number   1
_chemical_formula_structural   Al45V7
_chemical_formula_sum   'Al45 V7'
_cell_volume   839.97592737
_cell_formula_units_Z   1
loop_
 _symmetry_equiv_pos_site_id
 _symmetry_equiv_pos_as_xyz
  1  'x, y, z'
loop_
 _atom_site_type_symbol
 _atom_site_label
 _atom_site_symmetry_multiplicity
 _atom_site_fract_x
 _atom_site_fract_y
 _atom_site_fract_z
 _atom_site_occupancy
  Al  Al0  1  1.64905761  -0.26045405  0.87716257  1.0
  Al  Al1  1  1.26045405  -0.64905761  0.87716257  1.0
  Al  Al2  1  0.73954595  -0.35094239  0.12283743  1.0
  Al  Al3  1  1.35094239  0.26045405  0.12283743  1.0
  Al  Al4  1  1.74884700  -0.11357778  0.51026862  1.0
  Al  Al5  1  1.11357778  -0.74884700  0.51026862  1.0
  Al  Al6  1  0.88642222  -0.25115300  0.48973138  1.0
  Al  Al7  1  1.25115300  0.11357778  0.48973138  1.0
  Al  Al8  1  1.64133811  -0.02856991  0.64365929  1.0
  Al  Al9  1  1.02856991  -0.64133811  0.64365929  1.0
  Al  Al10  1  0.97143009  -0.35866189  0.35634071  1.0
  Al  Al11  1  1.35866189  0.02856991  0.35634071  1.0
  Al  Al12  1  1.49479890  -0.12528307  0.87856870  1.0
  Al  Al13  1  1.12528307  -0.49479890  0.87856870  1.0
  Al  Al14  1  0.87471693  -0.50520110  0.12143130  1.0
  Al  Al15  1  1.50520110  0.12528307  0.12143130  1.0
  Al  Al16  1  1.39102579  -0.02023224  0.63288625  1.0
  Al  Al17  1  1.02023224  -0.39102579  0.63288625  1.0
  Al  Al18  1  0.97976776  -0.60897421  0.36711375  1.0
  Al  Al19  1  1.60897421  0.02023224  0.36711375  1.0
  Al  Al20  1  1.49528656  0.13449555  0.85138832  1.0
  Al  Al21  1  0.86550445  -0.49528656  0.85138832  1.0
  Al  Al22  1  1.13449555  -0.50471344  0.14861168  1.0
  Al  Al23  1  1.50471344  -0.13449555  0.14861168  1.0
  Al  Al24  1  1.34922320  0.27728140  0.70543153  1.0
  Al  Al25  1  0.72271860  -0.34922320  0.70543153  1.0
  Al  Al26  1  1.27728140  -0.65077680  0.29456847  1.0
  Al  Al27  1  1.65077680  -0.27728140  0.29456847  1.0
  Al  Al28  1  0.97909228  -0.97909228  0.74338813  1.0
  Al  Al29  1  1.02090772  -0.02090772  0.25661187  1.0
  Al  Al30  1  0.88465153  -0.88465153  0.27224390  1.0
  Al  Al31  1  1.11534847  -0.11534847  0.72775610  1.0
  Al  Al32  1  0.87501486  -0.87501486  0.86160463  1.0
  Al  Al33  1  1.12498514  -0.12498514  0.13839537  1.0
  Al  Al34  1  0.72444739  -0.72444739  0.49224863  1.0
  Al  Al35  1  1.27555261  -0.27555261  0.50775137  1.0
  Al  Al36  1  0.62868163  -0.62868163  0.61299426  1.0
  Al  Al37  1  1.37131837  -0.37131837  0.38700574  1.0
  Al  Al38  1  0.58245792  -0.58245792  0.94140447  1.0
  Al  Al39  1  1.41754208  -0.41754208  0.05859553  1.0
  Al  Al40  1  1.40989764  -0.40989764  0.65457180  1.0
  Al  Al41  1  0.59010236  -0.59010236  0.34542820  1.0
  Al  Al42  1  1.20712880  -0.20712880  0.98962964  1.0
  Al  Al43  1  0.79287120  -0.79287120  0.01037036  1.0
  Al  Al44  1  0.00000000  0.00000000  0.00000000  1.0
  V  V45  1  1.25573176  0.08408107  0.91896762  1.0
  V  V46  1  0.91591893  -0.25573176  0.91896762  1.0
  V  V47  1  1.08408107  -0.74426824  0.08103238  1.0
  V  V48  1  1.74426824  -0.08408107  0.08103238  1.0
  V  V49  1  0.75098271  -0.75098271  0.73936242  1.0
  V  V50  1  1.24901729  -0.24901729  0.26063758  1.0
  V  V51  1  0.50000000  0.50000000  0.50000000  1.0
