# generated using pymatgen
data_Fe3P2(HO)16
_symmetry_space_group_name_H-M   'P 1'
_cell_length_a   8.41538699
_cell_length_b   8.41538699
_cell_length_c   4.82955324
_cell_angle_alpha   81.05925148
_cell_angle_beta   98.94074852
_cell_angle_gamma   75.79421684
_symmetry_Int_Tables_number   1
_chemical_formula_structural   Fe3P2(HO)16
_chemical_formula_sum   'Fe3 P2 H16 O16'
_cell_volume   320.77574003
_cell_formula_units_Z   1
loop_
 _symmetry_equiv_pos_site_id
 _symmetry_equiv_pos_as_xyz
  1  'x, y, z'
loop_
 _atom_site_type_symbol
 _atom_site_label
 _atom_site_symmetry_multiplicity
 _atom_site_fract_x
 _atom_site_fract_y
 _atom_site_fract_z
 _atom_site_occupancy
  P  P0  1  0.69244965  -0.69244965  0.63645225  1.0
  P  P1  1  0.30755035  -0.30755035  0.36354775  1.0
  O  O2  1  0.62512939  -0.18890539  0.72044578  1.0
  O  O3  1  1.18890539  0.37487061  0.72044578  1.0
  O  O4  1  0.81109461  -0.37487061  0.27955422  1.0
  O  O5  1  1.37487061  0.18890539  0.27955422  1.0
  O  O6  1  1.56275851  0.24206386  0.78575727  1.0
  O  O7  1  0.75793614  -0.56275851  0.78575727  1.0
  O  O8  1  1.24206386  0.56275851  0.21424273  1.0
  O  O9  1  0.43724149  -0.24206386  0.21424273  1.0
  O  O10  1  1.22105234  0.01696393  0.80068785  1.0
  O  O11  1  0.98303607  -0.22105234  0.80068785  1.0
  O  O12  1  1.01696393  0.22105234  0.19931215  1.0
  O  O13  1  0.77894766  -0.01696393  0.19931215  1.0
  O  O14  1  0.84609432  -0.84609432  0.64115933  1.0
  O  O15  1  0.15390568  -0.15390568  0.35884067  1.0
  O  O16  1  0.38512175  -0.38512175  0.68552392  1.0
  O  O17  1  0.61487825  -0.61487825  0.31447608  1.0
  Fe  Fe18  1  0.59314220  -0.40685780  0.00000000  1.0
  Fe  Fe19  1  1.40685780  0.40685780  0.00000000  1.0
  Fe  Fe20  1  0.00000000  0.00000000  0.00000000  1.0
  H  H21  1  0.74464922  -0.19844543  0.72684694  1.0
  H  H22  1  1.19844543  0.25535078  0.72684694  1.0
  H  H23  1  0.80155457  -0.25535078  0.27315306  1.0
  H  H24  1  1.25535078  0.19844543  0.27315306  1.0
  H  H25  1  1.78832644  0.03962299  0.36448273  1.0
  H  H26  1  0.96037701  -0.78832644  0.36448273  1.0
  H  H27  1  1.03962299  0.78832644  0.63551727  1.0
  H  H28  1  0.21167356  -0.03962299  0.63551727  1.0
  H  H29  1  0.57291741  -0.18699284  0.52144344  1.0
  H  H30  1  1.18699284  0.42708259  0.52144344  1.0
  H  H31  1  0.81300716  -0.42708259  0.47855656  1.0
  H  H32  1  1.42708259  0.18699284  0.47855656  1.0
  H  H33  1  0.31874905  -0.06017327  0.94382324  1.0
  H  H34  1  1.06017327  0.68125095  0.94382324  1.0
  H  H35  1  0.93982673  -0.68125095  0.05617676  1.0
  H  H36  1  1.68125095  0.06017327  0.05617676  1.0
