# generated using pymatgen
data_ReN2
_symmetry_space_group_name_H-M   'P 1'
_cell_length_a   2.88627763
_cell_length_b   4.94244896
_cell_length_c   7.87085592
_cell_angle_alpha   90.00000000
_cell_angle_beta   90.00000000
_cell_angle_gamma   90.00000000
_symmetry_Int_Tables_number   1
_chemical_formula_structural   ReN2
_chemical_formula_sum   'Re4 N8'
_cell_volume   112.27996268
_cell_formula_units_Z   4
loop_
 _symmetry_equiv_pos_site_id
 _symmetry_equiv_pos_as_xyz
  1  'x, y, z'
loop_
 _atom_site_type_symbol
 _atom_site_label
 _atom_site_symmetry_multiplicity
 _atom_site_fract_x
 _atom_site_fract_y
 _atom_site_fract_z
 _atom_site_occupancy
  Re  Re0  1  0.29204461  0.25000000  0.50000000  1.0
  Re  Re1  1  0.70795539  0.75000000  0.00000000  1.0
  Re  Re2  1  0.29204461  0.25000000  0.00000000  1.0
  Re  Re3  1  0.70795539  0.75000000  0.50000000  1.0
  N  N4  1  0.78712657  0.08108934  0.66381664  1.0
  N  N5  1  0.21287343  0.91891066  0.16381664  1.0
  N  N6  1  0.78712657  0.41891066  0.16381664  1.0
  N  N7  1  0.21287343  0.58108934  0.66381664  1.0
  N  N8  1  0.78712657  0.08108934  0.83618336  1.0
  N  N9  1  0.21287343  0.91891066  0.33618336  1.0
  N  N10  1  0.78712657  0.41891066  0.33618336  1.0
  N  N11  1  0.21287343  0.58108934  0.83618336  1.0
