# generated using pymatgen
data_Gd5(SiB4)2
_symmetry_space_group_name_H-M   'P 1'
_cell_length_a   7.27701160
_cell_length_b   7.27701160
_cell_length_c   8.23987405
_cell_angle_alpha   90.00000000
_cell_angle_beta   90.00000000
_cell_angle_gamma   90.00000000
_symmetry_Int_Tables_number   1
_chemical_formula_structural   Gd5(SiB4)2
_chemical_formula_sum   'Gd10 Si4 B16'
_cell_volume   436.34168838
_cell_formula_units_Z   2
loop_
 _symmetry_equiv_pos_site_id
 _symmetry_equiv_pos_as_xyz
  1  'x, y, z'
loop_
 _atom_site_type_symbol
 _atom_site_label
 _atom_site_symmetry_multiplicity
 _atom_site_fract_x
 _atom_site_fract_y
 _atom_site_fract_z
 _atom_site_occupancy
  Si  Si0  1  0.38556805  0.11443195  0.50000000  1.0
  Si  Si1  1  0.88556805  0.38556805  0.50000000  1.0
  Si  Si2  1  0.61443195  0.88556805  0.50000000  1.0
  Si  Si3  1  0.11443195  0.61443195  0.50000000  1.0
  B  B4  1  0.32787249  0.53950551  0.00000000  1.0
  B  B5  1  0.82787249  0.96049449  0.00000000  1.0
  B  B6  1  0.46049449  0.32787249  0.00000000  1.0
  B  B7  1  0.96049449  0.17212751  0.00000000  1.0
  B  B8  1  0.67212751  0.46049449  0.00000000  1.0
  B  B9  1  0.17212751  0.03950551  0.00000000  1.0
  B  B10  1  0.53950551  0.67212751  0.00000000  1.0
  B  B11  1  0.03950551  0.82787249  0.00000000  1.0
  B  B12  1  0.40915500  0.09084500  0.00000000  1.0
  B  B13  1  0.90915500  0.40915500  0.00000000  1.0
  B  B14  1  0.59084500  0.90915500  0.00000000  1.0
  B  B15  1  0.09084500  0.59084500  0.00000000  1.0
  B  B16  1  0.50000000  0.50000000  0.84188358  1.0
  B  B17  1  0.50000000  0.50000000  0.15811642  1.0
  B  B18  1  0.00000000  0.00000000  0.84188358  1.0
  B  B19  1  0.00000000  0.00000000  0.15811642  1.0
  Gd  Gd20  1  0.81882550  0.68117450  0.77629911  1.0
  Gd  Gd21  1  0.81882550  0.68117450  0.22370089  1.0
  Gd  Gd22  1  0.31882550  0.81882550  0.77629911  1.0
  Gd  Gd23  1  0.31882550  0.81882550  0.22370089  1.0
  Gd  Gd24  1  0.18117450  0.31882550  0.77629911  1.0
  Gd  Gd25  1  0.18117450  0.31882550  0.22370089  1.0
  Gd  Gd26  1  0.68117450  0.18117450  0.77629911  1.0
  Gd  Gd27  1  0.68117450  0.18117450  0.22370089  1.0
  Gd  Gd28  1  0.50000000  0.50000000  0.50000000  1.0
  Gd  Gd29  1  0.00000000  0.00000000  0.50000000  1.0
