# generated using pymatgen
data_K4Ru(NO2)6
_symmetry_space_group_name_H-M   'P 1'
_cell_length_a   8.68342285
_cell_length_b   8.68342285
_cell_length_c   8.68342285
_cell_angle_alpha   51.62214080
_cell_angle_beta   51.62214080
_cell_angle_gamma   51.62214080
_symmetry_Int_Tables_number   1
_chemical_formula_structural   K4Ru(NO2)6
_chemical_formula_sum   'K4 Ru1 N6 O12'
_cell_volume   371.68712526
_cell_formula_units_Z   1
loop_
 _symmetry_equiv_pos_site_id
 _symmetry_equiv_pos_as_xyz
  1  'x, y, z'
loop_
 _atom_site_type_symbol
 _atom_site_label
 _atom_site_symmetry_multiplicity
 _atom_site_fract_x
 _atom_site_fract_y
 _atom_site_fract_z
 _atom_site_occupancy
  K  K0  1  0.19185763  0.19185763  0.19185763  1.0
  K  K1  1  0.80814237  -0.19185763  -0.19185763  1.0
  K  K2  1  0.37875825  0.37875825  -0.62124175  1.0
  K  K3  1  0.62124175  0.62124175  -0.37875825  1.0
  Ru  Ru4  1  -0.00000000  0.00000000  0.00000000  1.0
  N  N5  1  0.30806577  -0.06857223  -0.07656943  1.0
  N  N6  1  1.07656943  -0.30806577  0.06857223  1.0
  N  N7  1  1.06857223  0.07656943  -0.30806577  1.0
  N  N8  1  0.69193423  0.06857223  0.07656943  1.0
  N  N9  1  0.92343057  -0.69193423  -0.06857223  1.0
  N  N10  1  0.93142777  -0.07656943  -0.69193423  1.0
  O  O11  1  0.36640315  0.07351682  -0.14876083  1.0
  O  O12  1  1.14876083  -0.36640315  -0.07351682  1.0
  O  O13  1  0.92648318  0.14876083  -0.36640315  1.0
  O  O14  1  0.63359685  -0.07351682  0.14876083  1.0
  O  O15  1  0.85123917  -0.63359685  0.07351682  1.0
  O  O16  1  1.07351682  -0.14876083  -0.63359685  1.0
  O  O17  1  0.55642212  0.25681568  0.04618316  1.0
  O  O18  1  0.95381684  -0.55642212  -0.25681568  1.0
  O  O19  1  0.74318432  -0.04618316  -0.55642212  1.0
  O  O20  1  0.44357788  -0.25681568  -0.04618316  1.0
  O  O21  1  1.04618316  -0.44357788  0.25681568  1.0
  O  O22  1  1.25681568  0.04618316  -0.44357788  1.0
