# generated using pymatgen
data_FeHg3(SCl2)2
_symmetry_space_group_name_H-M   'P 1'
_cell_length_a   7.60595642
_cell_length_b   7.60595642
_cell_length_c   10.52337296
_cell_angle_alpha   90.00000000
_cell_angle_beta   90.00000000
_cell_angle_gamma   119.17209408
_symmetry_Int_Tables_number   1
_chemical_formula_structural   FeHg3(SCl2)2
_chemical_formula_sum   'Fe2 Hg6 S4 Cl8'
_cell_volume   531.56484894
_cell_formula_units_Z   2
loop_
 _symmetry_equiv_pos_site_id
 _symmetry_equiv_pos_as_xyz
  1  'x, y, z'
loop_
 _atom_site_type_symbol
 _atom_site_label
 _atom_site_symmetry_multiplicity
 _atom_site_fract_x
 _atom_site_fract_y
 _atom_site_fract_z
 _atom_site_occupancy
  Fe  Fe0  1  -0.00099377  1.00099377  0.25000000  1.0
  Fe  Fe1  1  0.00099377  0.99900623  0.75000000  1.0
  Hg  Hg2  1  0.05306089  0.54844515  0.02213934  1.0
  Hg  Hg3  1  -0.45155485  1.05306089  0.97786066  1.0
  Hg  Hg4  1  0.45155485  0.94693911  0.47786066  1.0
  Hg  Hg5  1  -0.05306089  1.45155485  0.52213934  1.0
  Hg  Hg6  1  0.56462436  0.56462436  0.00000000  1.0
  Hg  Hg7  1  0.43537564  0.43537564  0.50000000  1.0
  S  S8  1  -0.29437454  1.36911111  0.09171965  1.0
  S  S9  1  0.36911111  0.70562546  0.90828035  1.0
  S  S10  1  -0.36911111  1.29437454  0.40828035  1.0
  S  S11  1  0.29437454  0.63088889  0.59171965  1.0
  Cl  Cl12  1  0.17608320  0.34152071  0.22159058  1.0
  Cl  Cl13  1  -0.65847929  1.17608320  0.77840942  1.0
  Cl  Cl14  1  0.65847929  0.82391680  0.27840942  1.0
  Cl  Cl15  1  -0.17608320  1.65847929  0.72159058  1.0
  Cl  Cl16  1  0.17342261  0.82657739  0.25000000  1.0
  Cl  Cl17  1  -0.17342261  1.17342261  0.75000000  1.0
  Cl  Cl18  1  0.93931984  0.93931984  0.00000000  1.0
  Cl  Cl19  1  0.06068016  0.06068016  0.50000000  1.0
