# generated using pymatgen
data_Mn2AsHO5
_symmetry_space_group_name_H-M   'P 1'
_cell_length_a   8.67793313
_cell_length_b   8.77784221
_cell_length_c   6.37333161
_cell_angle_alpha   90.00000000
_cell_angle_beta   90.00000000
_cell_angle_gamma   90.00000000
_symmetry_Int_Tables_number   1
_chemical_formula_structural   Mn2AsHO5
_chemical_formula_sum   'Mn8 As4 H4 O20'
_cell_volume   485.47915209
_cell_formula_units_Z   4
loop_
 _symmetry_equiv_pos_site_id
 _symmetry_equiv_pos_as_xyz
  1  'x, y, z'
loop_
 _atom_site_type_symbol
 _atom_site_label
 _atom_site_symmetry_multiplicity
 _atom_site_fract_x
 _atom_site_fract_y
 _atom_site_fract_z
 _atom_site_occupancy
  Mn  Mn0  1  0.50000000  0.50000000  0.24929716  1.0
  Mn  Mn1  1  0.50000000  0.50000000  0.75070284  1.0
  Mn  Mn2  1  0.00000000  0.00000000  0.74929716  1.0
  Mn  Mn3  1  0.00000000  0.00000000  0.25070284  1.0
  Mn  Mn4  1  0.85968902  0.63216302  0.50000000  1.0
  Mn  Mn5  1  0.35968902  0.86783698  -0.00000000  1.0
  Mn  Mn6  1  0.14031098  0.36783698  0.50000000  1.0
  Mn  Mn7  1  0.64031098  0.13216302  0.00000000  1.0
  O  O8  1  0.22497916  0.86264653  0.27887939  1.0
  O  O9  1  0.22497916  0.86264653  0.72112061  1.0
  O  O10  1  0.72497916  0.63735347  0.77887939  1.0
  O  O11  1  0.72497916  0.63735347  0.22112061  1.0
  O  O12  1  0.77502084  0.13735347  0.27887939  1.0
  O  O13  1  0.77502084  0.13735347  0.72112061  1.0
  O  O14  1  0.27502084  0.36264653  0.77887939  1.0
  O  O15  1  0.27502084  0.36264653  0.22112061  1.0
  O  O16  1  0.41943619  0.64370329  0.50000000  1.0
  O  O17  1  0.91943619  0.85629671  -0.00000000  1.0
  O  O18  1  0.58056381  0.35629671  0.50000000  1.0
  O  O19  1  0.08056381  0.14370329  0.00000000  1.0
  O  O20  1  0.10150657  0.60651541  0.50000000  1.0
  O  O21  1  0.60150657  0.89348459  0.00000000  1.0
  O  O22  1  0.89849343  0.39348459  0.50000000  1.0
  O  O23  1  0.39849343  0.10651541  0.00000000  1.0
  O  O24  1  0.88944964  0.87081700  0.50000000  1.0
  O  O25  1  0.38944964  0.62918300  0.00000000  1.0
  O  O26  1  0.11055036  0.12918300  0.50000000  1.0
  O  O27  1  0.61055036  0.37081700  0.00000000  1.0
  H  H28  1  0.21289297  0.08304407  0.50000000  1.0
  H  H29  1  0.71289297  0.41695593  0.00000000  1.0
  H  H30  1  0.78710703  0.91695593  0.50000000  1.0
  H  H31  1  0.28710703  0.58304407  0.00000000  1.0
  As  As32  1  0.24556223  0.74557612  0.50000000  1.0
  As  As33  1  0.74556223  0.75442388  0.00000000  1.0
  As  As34  1  0.75443777  0.25442388  0.50000000  1.0
  As  As35  1  0.25443777  0.24557612  0.00000000  1.0
