# generated using pymatgen
data_Gd3(SbPd2)4
_symmetry_space_group_name_H-M   'P 1'
_cell_length_a   9.41899763
_cell_length_b   9.41899763
_cell_length_c   9.41899763
_cell_angle_alpha   60.00000000
_cell_angle_beta   60.00000000
_cell_angle_gamma   60.00000000
_symmetry_Int_Tables_number   1
_chemical_formula_structural   Gd3(SbPd2)4
_chemical_formula_sum   'Gd6 Sb8 Pd16'
_cell_volume   590.87969416
_cell_formula_units_Z   2
loop_
 _symmetry_equiv_pos_site_id
 _symmetry_equiv_pos_as_xyz
  1  'x, y, z'
loop_
 _atom_site_type_symbol
 _atom_site_label
 _atom_site_symmetry_multiplicity
 _atom_site_fract_x
 _atom_site_fract_y
 _atom_site_fract_z
 _atom_site_occupancy
  Gd  Gd0  1  -0.72528742  0.72528742  0.72528742  1.0
  Gd  Gd1  1  -0.27471258  0.27471258  0.72528742  1.0
  Gd  Gd2  1  0.72528742  0.72528742  -0.72528742  1.0
  Gd  Gd3  1  0.27471258  1.27471258  -0.27471258  1.0
  Gd  Gd4  1  0.27471258  -0.27471258  1.27471258  1.0
  Gd  Gd5  1  -0.27471258  0.27471258  0.27471258  1.0
  Sb  Sb6  1  -0.50000000  0.50000000  0.50000000  1.0
  Sb  Sb7  1  1.50000000  -0.00000000  0.00000000  1.0
  Sb  Sb8  1  1.00000000  0.50000000  -0.50000000  1.0
  Sb  Sb9  1  -0.00000000  1.50000000  0.00000000  1.0
  Sb  Sb10  1  0.50000000  1.00000000  -0.50000000  1.0
  Sb  Sb11  1  -0.00000000  -0.00000000  0.50000000  1.0
  Sb  Sb12  1  0.50000000  -0.50000000  1.00000000  1.0
  Sb  Sb13  1  -0.00000000  -0.00000000  0.00000000  1.0
  Pd  Pd14  1  0.88112119  0.88112119  -0.11887881  1.0
  Pd  Pd15  1  1.11887881  0.11887881  0.64336357  1.0
  Pd  Pd16  1  1.11887881  0.64336357  0.11887881  1.0
  Pd  Pd17  1  0.35663643  0.88112119  -0.11887881  1.0
  Pd  Pd18  1  1.64336357  0.11887881  0.11887881  1.0
  Pd  Pd19  1  0.88112119  0.35663643  -0.11887881  1.0
  Pd  Pd20  1  0.88112119  0.88112119  -0.64336357  1.0
  Pd  Pd21  1  1.11887881  0.11887881  0.11887881  1.0
  Pd  Pd22  1  0.66836050  0.66836050  -0.33163950  1.0
  Pd  Pd23  1  0.33163950  1.33163950  0.00508151  1.0
  Pd  Pd24  1  1.33163950  0.00508151  0.33163950  1.0
  Pd  Pd25  1  0.99491849  0.66836050  0.66836050  1.0
  Pd  Pd26  1  0.00508151  1.33163950  0.33163950  1.0
  Pd  Pd27  1  0.66836050  0.99491849  -0.33163950  1.0
  Pd  Pd28  1  0.66836050  0.66836050  0.99491849  1.0
  Pd  Pd29  1  1.33163950  0.33163950  0.33163950  1.0
