# generated using pymatgen
data_Mn(InTe2)2
_symmetry_space_group_name_H-M   'P 1'
_cell_length_a   28.70412013
_cell_length_b   4.44563678
_cell_length_c   7.22397385
_cell_angle_alpha   90.00000000
_cell_angle_beta   90.00000000
_cell_angle_gamma   90.00000000
_symmetry_Int_Tables_number   1
_chemical_formula_structural   Mn(InTe2)2
_chemical_formula_sum   'Mn4 In8 Te16'
_cell_volume   921.83752119
_cell_formula_units_Z   4
loop_
 _symmetry_equiv_pos_site_id
 _symmetry_equiv_pos_as_xyz
  1  'x, y, z'
loop_
 _atom_site_type_symbol
 _atom_site_label
 _atom_site_symmetry_multiplicity
 _atom_site_fract_x
 _atom_site_fract_y
 _atom_site_fract_z
 _atom_site_occupancy
  Mn  Mn0  1  0.19423071  0.75000000  0.85372188  1.0
  Mn  Mn1  1  0.69423071  0.75000000  0.64627812  1.0
  Mn  Mn2  1  0.80576929  0.25000000  0.14627812  1.0
  Mn  Mn3  1  0.30576929  0.25000000  0.35372188  1.0
  In  In4  1  0.45023878  0.75000000  0.57185494  1.0
  In  In5  1  0.95023878  0.75000000  0.92814506  1.0
  In  In6  1  0.54976122  0.25000000  0.42814506  1.0
  In  In7  1  0.04976122  0.25000000  0.07185494  1.0
  In  In8  1  0.34664458  0.75000000  0.96368508  1.0
  In  In9  1  0.84664458  0.75000000  0.53631492  1.0
  In  In10  1  0.65335542  0.25000000  0.03631492  1.0
  In  In11  1  0.15335542  0.25000000  0.46368508  1.0
  Te  Te12  1  0.35152297  0.75000000  0.57056400  1.0
  Te  Te13  1  0.85152297  0.75000000  0.92943600  1.0
  Te  Te14  1  0.64847703  0.25000000  0.42943600  1.0
  Te  Te15  1  0.14847703  0.25000000  0.07056400  1.0
  Te  Te16  1  0.26176066  0.75000000  0.16049700  1.0
  Te  Te17  1  0.76176066  0.75000000  0.33950300  1.0
  Te  Te18  1  0.73823934  0.25000000  0.83950300  1.0
  Te  Te19  1  0.23823934  0.25000000  0.66049700  1.0
  Te  Te20  1  0.10814781  0.75000000  0.63396804  1.0
  Te  Te21  1  0.60814781  0.75000000  0.86603196  1.0
  Te  Te22  1  0.89185219  0.25000000  0.36603196  1.0
  Te  Te23  1  0.39185219  0.25000000  0.13396804  1.0
  Te  Te24  1  0.00605904  0.75000000  0.26131447  1.0
  Te  Te25  1  0.50605904  0.75000000  0.23868553  1.0
  Te  Te26  1  0.99394096  0.25000000  0.73868553  1.0
  Te  Te27  1  0.49394096  0.25000000  0.76131447  1.0
