# generated using pymatgen
data_SbOF
_symmetry_space_group_name_H-M   'P 1'
_cell_length_a   5.78938053
_cell_length_b   12.58756797
_cell_length_c   11.86921789
_cell_angle_alpha   90.00000000
_cell_angle_beta   90.00000000
_cell_angle_gamma   90.00000000
_symmetry_Int_Tables_number   1
_chemical_formula_structural   SbOF
_chemical_formula_sum   'Sb16 O16 F16'
_cell_volume   864.96000656
_cell_formula_units_Z   16
loop_
 _symmetry_equiv_pos_site_id
 _symmetry_equiv_pos_as_xyz
  1  'x, y, z'
loop_
 _atom_site_type_symbol
 _atom_site_label
 _atom_site_symmetry_multiplicity
 _atom_site_fract_x
 _atom_site_fract_y
 _atom_site_fract_z
 _atom_site_occupancy
  Sb  Sb0  1  0.29128807  0.29539091  0.14205412  1.0
  Sb  Sb1  1  0.29128807  0.20460909  0.64205412  1.0
  Sb  Sb2  1  0.79128807  0.29539091  0.35794588  1.0
  Sb  Sb3  1  0.79128807  0.20460909  0.85794588  1.0
  Sb  Sb4  1  0.70871193  0.79539091  0.35794588  1.0
  Sb  Sb5  1  0.70871193  0.70460909  0.85794588  1.0
  Sb  Sb6  1  0.20871193  0.79539091  0.14205412  1.0
  Sb  Sb7  1  0.20871193  0.70460909  0.64205412  1.0
  Sb  Sb8  1  0.19953818  0.48871091  0.38250065  1.0
  Sb  Sb9  1  0.19953818  0.01128909  0.88250065  1.0
  Sb  Sb10  1  0.69953818  0.48871091  0.11749935  1.0
  Sb  Sb11  1  0.69953818  0.01128909  0.61749935  1.0
  Sb  Sb12  1  0.80046182  0.98871091  0.11749935  1.0
  Sb  Sb13  1  0.80046182  0.51128909  0.61749935  1.0
  Sb  Sb14  1  0.30046182  0.98871091  0.38250065  1.0
  Sb  Sb15  1  0.30046182  0.51128909  0.88250065  1.0
  O  O16  1  0.41218078  0.42075491  0.05037516  1.0
  O  O17  1  0.41218078  0.07924509  0.55037516  1.0
  O  O18  1  0.91218078  0.42075491  0.44962484  1.0
  O  O19  1  0.91218078  0.07924509  0.94962484  1.0
  O  O20  1  0.58781922  0.92075491  0.44962484  1.0
  O  O21  1  0.58781922  0.57924509  0.94962484  1.0
  O  O22  1  0.08781922  0.92075491  0.05037516  1.0
  O  O23  1  0.08781922  0.57924509  0.55037516  1.0
  O  O24  1  0.10305622  0.37364476  0.26102738  1.0
  O  O25  1  0.10305622  0.12635524  0.76102738  1.0
  O  O26  1  0.60305622  0.37364476  0.23897262  1.0
  O  O27  1  0.60305622  0.12635524  0.73897262  1.0
  O  O28  1  0.89694378  0.87364476  0.23897262  1.0
  O  O29  1  0.89694378  0.62635524  0.73897262  1.0
  O  O30  1  0.39694378  0.87364476  0.26102738  1.0
  O  O31  1  0.39694378  0.62635524  0.76102738  1.0
  F  F32  1  0.49385263  0.09481879  0.29877861  1.0
  F  F33  1  0.49385263  0.40518121  0.79877861  1.0
  F  F34  1  0.99385263  0.09481879  0.20122139  1.0
  F  F35  1  0.99385263  0.40518121  0.70122139  1.0
  F  F36  1  0.50614737  0.59481879  0.20122139  1.0
  F  F37  1  0.50614737  0.90518121  0.70122139  1.0
  F  F38  1  0.00614737  0.59481879  0.29877861  1.0
  F  F39  1  0.00614737  0.90518121  0.79877861  1.0
  F  F40  1  -0.00113986  0.31614088  0.04177654  1.0
  F  F41  1  -0.00113986  0.18385912  0.54177654  1.0
  F  F42  1  0.49886014  0.31614088  0.45822346  1.0
  F  F43  1  0.49886014  0.18385912  0.95822346  1.0
  F  F44  1  1.00113986  0.81614088  0.45822346  1.0
  F  F45  1  1.00113986  0.68385912  0.95822346  1.0
  F  F46  1  0.50113986  0.81614088  0.04177654  1.0
  F  F47  1  0.50113986  0.68385912  0.54177654  1.0
