# generated using pymatgen
data_TlSI
_symmetry_space_group_name_H-M   'P 1'
_cell_length_a   3.68468053
_cell_length_b   3.68468053
_cell_length_c   14.75545756
_cell_angle_alpha   90.00000000
_cell_angle_beta   90.00000000
_cell_angle_gamma   90.00000000
_symmetry_Int_Tables_number   1
_chemical_formula_structural   TlSI
_chemical_formula_sum   'Tl2 S2 I2'
_cell_volume   200.33293764
_cell_formula_units_Z   2
loop_
 _symmetry_equiv_pos_site_id
 _symmetry_equiv_pos_as_xyz
  1  'x, y, z'
loop_
 _atom_site_type_symbol
 _atom_site_label
 _atom_site_symmetry_multiplicity
 _atom_site_fract_x
 _atom_site_fract_y
 _atom_site_fract_z
 _atom_site_occupancy
  Tl  Tl0  1  0.50000000  0.00000000  0.19744543  1.0
  Tl  Tl1  1  0.00000000  0.50000000  0.80255457  1.0
  S  S2  1  0.00000000  0.00000000  0.00000000  1.0
  S  S3  1  0.50000000  0.50000000  0.00000000  1.0
  I  I4  1  0.50000000  0.00000000  0.64778295  1.0
  I  I5  1  0.00000000  0.50000000  0.35221705  1.0
