# generated using pymatgen
data_ScSiPt
_symmetry_space_group_name_H-M   'P 1'
_cell_length_a   6.60426763
_cell_length_b   4.15099303
_cell_length_c   7.32673402
_cell_angle_alpha   90.00000000
_cell_angle_beta   90.00000000
_cell_angle_gamma   90.00000000
_symmetry_Int_Tables_number   1
_chemical_formula_structural   ScSiPt
_chemical_formula_sum   'Sc4 Si4 Pt4'
_cell_volume   200.85705658
_cell_formula_units_Z   4
loop_
 _symmetry_equiv_pos_site_id
 _symmetry_equiv_pos_as_xyz
  1  'x, y, z'
loop_
 _atom_site_type_symbol
 _atom_site_label
 _atom_site_symmetry_multiplicity
 _atom_site_fract_x
 _atom_site_fract_y
 _atom_site_fract_z
 _atom_site_occupancy
  Sc  Sc0  1  0.00095610  0.75000000  0.69983672  1.0
  Sc  Sc1  1  0.50095610  0.75000000  0.80016328  1.0
  Sc  Sc2  1  -0.00095610  0.25000000  0.30016328  1.0
  Sc  Sc3  1  0.49904390  0.25000000  0.19983672  1.0
  Si  Si4  1  0.69395247  0.75000000  0.40643018  1.0
  Si  Si5  1  0.19395247  0.75000000  0.09356982  1.0
  Si  Si6  1  0.30604753  0.25000000  0.59356982  1.0
  Si  Si7  1  0.80604753  0.25000000  0.90643018  1.0
  Pt  Pt8  1  0.80162990  0.75000000  0.08375020  1.0
  Pt  Pt9  1  0.30162990  0.75000000  0.41624980  1.0
  Pt  Pt10  1  0.19837010  0.25000000  0.91624980  1.0
  Pt  Pt11  1  0.69837010  0.25000000  0.58375020  1.0
