# generated using pymatgen
data_BaC2(SN)2
_symmetry_space_group_name_H-M   'P 1'
_cell_length_a   6.35876275
_cell_length_b   6.35876275
_cell_length_c   8.71729976
_cell_angle_alpha   91.69894776
_cell_angle_beta   88.30105224
_cell_angle_gamma   114.85412007
_symmetry_Int_Tables_number   1
_chemical_formula_structural   BaC2(SN)2
_chemical_formula_sum   'Ba2 C4 S4 N4'
_cell_volume   319.63026969
_cell_formula_units_Z   2
loop_
 _symmetry_equiv_pos_site_id
 _symmetry_equiv_pos_as_xyz
  1  'x, y, z'
loop_
 _atom_site_type_symbol
 _atom_site_label
 _atom_site_symmetry_multiplicity
 _atom_site_fract_x
 _atom_site_fract_y
 _atom_site_fract_z
 _atom_site_occupancy
  Ba  Ba0  1  0.89659246  -0.10340754  0.75000000  1.0
  Ba  Ba1  1  1.10340754  0.10340754  0.25000000  1.0
  C  C2  1  1.23395238  0.47536043  0.60743207  1.0
  C  C3  1  1.47536043  0.23395238  0.89256793  1.0
  C  C4  1  0.76604762  -0.47536043  0.39256793  1.0
  C  C5  1  0.52463957  -0.23395238  0.10743207  1.0
  S  S6  1  0.33863107  -0.26025863  0.67732109  1.0
  S  S7  1  0.73974137  -0.66136893  0.82267891  1.0
  S  S8  1  1.66136893  0.26025863  0.32267891  1.0
  S  S9  1  1.26025863  0.66136893  0.17732109  1.0
  N  N10  1  1.15520999  0.28201633  0.55782649  1.0
  N  N11  1  1.28201633  0.15520999  0.94217351  1.0
  N  N12  1  0.84479001  -0.28201633  0.44217351  1.0
  N  N13  1  0.71798367  -0.15520999  0.05782649  1.0
