# generated using pymatgen
data_Zr2Ni7
_symmetry_space_group_name_H-M   'P 1'
_cell_length_a   4.73597714
_cell_length_b   4.73597714
_cell_length_c   6.29811069
_cell_angle_alpha   82.13229303
_cell_angle_beta   97.86770697
_cell_angle_gamma   59.42115285
_symmetry_Int_Tables_number   1
_chemical_formula_structural   Zr2Ni7
_chemical_formula_sum   'Zr2 Ni7'
_cell_volume   116.88718724
_cell_formula_units_Z   1
loop_
 _symmetry_equiv_pos_site_id
 _symmetry_equiv_pos_as_xyz
  1  'x, y, z'
loop_
 _atom_site_type_symbol
 _atom_site_label
 _atom_site_symmetry_multiplicity
 _atom_site_fract_x
 _atom_site_fract_y
 _atom_site_fract_z
 _atom_site_occupancy
  Zr  Zr0  1  0.39235114  -0.39235114  0.72787532  1.0
  Zr  Zr1  1  0.60764886  -0.60764886  0.27212468  1.0
  Ni  Ni2  1  0.70752209  -0.03873151  0.65624455  1.0
  Ni  Ni3  1  1.03873151  -0.70752209  0.65624455  1.0
  Ni  Ni4  1  0.96126849  -0.29247791  0.34375545  1.0
  Ni  Ni5  1  0.29247791  0.03873151  0.34375545  1.0
  Ni  Ni6  1  0.50000000  0.00000000  -0.00000000  1.0
  Ni  Ni7  1  1.00000000  -0.50000000  -0.00000000  1.0
  Ni  Ni8  1  0.00000000  0.00000000  0.00000000  1.0
