# generated using pymatgen
data_NbPt3
_symmetry_space_group_name_H-M   'P 1'
_cell_length_a   5.57877623
_cell_length_b   5.58800161
_cell_length_c   26.51547259
_cell_angle_alpha   90.00000000
_cell_angle_beta   78.89896534
_cell_angle_gamma   90.00000000
_symmetry_Int_Tables_number   1
_chemical_formula_structural   NbPt3
_chemical_formula_sum   'Nb12 Pt36'
_cell_volume   811.13258866
_cell_formula_units_Z   12
loop_
 _symmetry_equiv_pos_site_id
 _symmetry_equiv_pos_as_xyz
  1  'x, y, z'
loop_
 _atom_site_type_symbol
 _atom_site_label
 _atom_site_symmetry_multiplicity
 _atom_site_fract_x
 _atom_site_fract_y
 _atom_site_fract_z
 _atom_site_occupancy
  Nb  Nb0  1  0.44820731  0.75000000  -0.04997502  1.0
  Nb  Nb1  1  0.55179269  0.25000000  0.04997502  1.0
  Nb  Nb2  1  0.11523968  0.75000000  0.28334549  1.0
  Nb  Nb3  1  0.88476032  0.25000000  0.71665451  1.0
  Nb  Nb4  1  0.38476644  0.75000000  0.71665437  1.0
  Nb  Nb5  1  0.61523356  0.25000000  0.28334563  1.0
  Nb  Nb6  1  0.78145702  0.75000000  0.61668844  1.0
  Nb  Nb7  1  0.21854298  0.25000000  0.38331156  1.0
  Nb  Nb8  1  0.71854136  0.75000000  0.38331217  1.0
  Nb  Nb9  1  0.28145864  0.25000000  0.61668783  1.0
  Nb  Nb10  1  0.05178400  0.75000000  0.04997523  1.0
  Nb  Nb11  1  0.94821600  0.25000000  -0.04997524  1.0
  Pt  Pt12  1  0.74597876  0.50016733  0.12009954  1.0
  Pt  Pt13  1  0.25402124  0.00016733  0.87990046  1.0
  Pt  Pt14  1  0.25402124  0.49983267  0.87990046  1.0
  Pt  Pt15  1  0.74597876  -0.00016733  0.12009954  1.0
  Pt  Pt16  1  0.22166909  0.75000000  0.37617599  1.0
  Pt  Pt17  1  0.77833091  0.25000000  0.62382401  1.0
  Pt  Pt18  1  0.07888880  0.50017115  0.78677871  1.0
  Pt  Pt19  1  0.92111120  0.00017115  0.21322129  1.0
  Pt  Pt20  1  0.92111120  0.49982885  0.21322129  1.0
  Pt  Pt21  1  0.07888880  -0.00017115  0.78677871  1.0
  Pt  Pt22  1  0.94507871  0.75000000  -0.04284537  1.0
  Pt  Pt23  1  0.05492129  0.25000000  0.04284537  1.0
  Pt  Pt24  1  0.88788427  0.75000000  0.70952037  1.0
  Pt  Pt25  1  0.11211573  0.25000000  0.29047963  1.0
  Pt  Pt26  1  0.08738921  0.50018159  0.54656216  1.0
  Pt  Pt27  1  0.91261079  0.00018159  0.45343784  1.0
  Pt  Pt28  1  0.91261079  0.49981841  0.45343784  1.0
  Pt  Pt29  1  0.08738921  -0.00018159  0.54656216  1.0
  Pt  Pt30  1  0.75402169  0.50016703  0.87990028  1.0
  Pt  Pt31  1  0.24597831  0.00016703  0.12009972  1.0
  Pt  Pt32  1  0.24597831  0.49983297  0.12009972  1.0
  Pt  Pt33  1  0.75402169  -0.00016703  0.87990028  1.0
  Pt  Pt34  1  0.27833885  0.75000000  0.62382410  1.0
  Pt  Pt35  1  0.72166115  0.25000000  0.37617590  1.0
  Pt  Pt36  1  0.55491951  0.75000000  0.04284589  1.0
  Pt  Pt37  1  0.44508049  0.25000000  -0.04284589  1.0
  Pt  Pt38  1  0.42111480  0.50017077  0.21322168  1.0
  Pt  Pt39  1  0.57888520  0.00017077  0.78677832  1.0
  Pt  Pt40  1  0.57888520  0.49982923  0.78677832  1.0
  Pt  Pt41  1  0.42111480  -0.00017077  0.21322168  1.0
  Pt  Pt42  1  0.61211895  0.75000000  0.29047978  1.0
  Pt  Pt43  1  0.38788105  0.25000000  0.70952022  1.0
  Pt  Pt44  1  0.41260977  0.50017613  0.45343728  1.0
  Pt  Pt45  1  0.58739023  0.00017613  0.54656272  1.0
  Pt  Pt46  1  0.58739023  0.49982387  0.54656272  1.0
  Pt  Pt47  1  0.41260977  -0.00017613  0.45343728  1.0
