# generated using pymatgen
data_Gd4Si2Se3O7
_symmetry_space_group_name_H-M   'P 1'
_cell_length_a   11.08372524
_cell_length_b   11.08372524
_cell_length_c   11.08372524
_cell_angle_alpha   114.32898832
_cell_angle_beta   114.32898832
_cell_angle_gamma   100.13971818
_symmetry_Int_Tables_number   1
_chemical_formula_structural   Gd4Si2Se3O7
_chemical_formula_sum   'Gd16 Si8 Se12 O28'
_cell_volume   1027.82311959
_cell_formula_units_Z   4
loop_
 _symmetry_equiv_pos_site_id
 _symmetry_equiv_pos_as_xyz
  1  'x, y, z'
loop_
 _atom_site_type_symbol
 _atom_site_label
 _atom_site_symmetry_multiplicity
 _atom_site_fract_x
 _atom_site_fract_y
 _atom_site_fract_z
 _atom_site_occupancy
  Gd  Gd0  1  0.04153400  0.80234457  0.76081057  1.0
  Gd  Gd1  1  0.55234457  0.29153400  0.26081057  1.0
  Gd  Gd2  1  1.03072343  1.29153400  0.73918943  1.0
  Gd  Gd3  1  0.04153400  0.28072343  0.23918943  1.0
  Gd  Gd4  1  0.70846600  1.44765543  0.73918943  1.0
  Gd  Gd5  1  1.19765543  0.95846600  1.23918943  1.0
  Gd  Gd6  1  1.71927657  0.95846600  0.76081057  1.0
  Gd  Gd7  1  0.70846600  0.96927657  0.26081057  1.0
  Gd  Gd8  1  0.67222981  0.67222981  0.34445963  1.0
  Gd  Gd9  1  1.32777019  0.67222981  1.00000000  1.0
  Gd  Gd10  1  0.42222981  0.92222981  0.84445963  1.0
  Gd  Gd11  1  1.07777019  0.92222981  0.50000000  1.0
  Gd  Gd12  1  0.67222981  0.32777019  1.00000000  1.0
  Gd  Gd13  1  1.32777019  1.32777019  1.65554037  1.0
  Gd  Gd14  1  0.42222981  0.57777019  0.50000000  1.0
  Gd  Gd15  1  1.07777019  0.57777019  1.15554037  1.0
  Si  Si16  1  0.28174363  0.40597426  0.12423064  1.0
  Si  Si17  1  1.15597426  0.53174363  0.62423064  1.0
  Si  Si18  1  0.90751299  0.53174363  0.37576936  1.0
  Si  Si19  1  0.28174363  1.15751299  0.87576936  1.0
  Si  Si20  1  0.46825637  0.84402574  0.37576936  1.0
  Si  Si21  1  0.59402574  0.71825637  0.87576936  1.0
  Si  Si22  1  0.84248701  0.71825637  1.12423064  1.0
  Si  Si23  1  0.46825637  1.09248701  0.62423064  1.0
  Se  Se24  1  0.72992619  1.12500000  1.10492619  1.0
  Se  Se25  1  1.02007381  1.12500000  0.39507381  1.0
  Se  Se26  1  0.87500000  0.97992619  0.60492619  1.0
  Se  Se27  1  1.37500000  0.97992619  1.10492619  1.0
  Se  Se28  1  0.72992619  0.62500000  0.60492619  1.0
  Se  Se29  1  1.02007381  0.62500000  0.89507381  1.0
  Se  Se30  1  0.87500000  0.27007381  0.89507381  1.0
  Se  Se31  1  1.37500000  1.27007381  1.39507381  1.0
  Se  Se32  1  0.00000000  -0.00000000  -0.00000000  1.0
  Se  Se33  1  0.75000000  1.25000000  0.50000000  1.0
  Se  Se34  1  0.25000000  0.75000000  0.50000000  1.0
  Se  Se35  1  0.50000000  0.50000000  -0.00000000  1.0
  O  O36  1  0.45527145  1.19426354  0.98007184  1.0
  O  O37  1  1.21419171  1.19426354  0.73899209  1.0
  O  O38  1  0.94426354  0.70527145  0.48007184  1.0
  O  O39  1  0.22519962  0.70527145  0.76100791  1.0
  O  O40  1  0.45527145  0.47519962  0.26100791  1.0
  O  O41  1  1.21419171  0.47519962  1.01992816  1.0
  O  O42  1  0.94426354  0.46419171  1.23899209  1.0
  O  O43  1  0.22519962  0.46419171  0.51992816  1.0
  O  O44  1  1.29472855  1.05573646  1.51992816  1.0
  O  O45  1  1.53580829  1.05573646  0.76100791  1.0
  O  O46  1  0.80573646  0.54472855  1.01992816  1.0
  O  O47  1  1.52480038  1.54472855  1.73899209  1.0
  O  O48  1  1.29472855  0.77480038  1.23899209  1.0
  O  O49  1  0.53580829  0.77480038  0.48007184  1.0
  O  O50  1  0.80573646  0.78580829  0.26100791  1.0
  O  O51  1  1.52480038  0.78580829  0.98007184  1.0
  O  O52  1  0.20532706  0.97622224  0.77089518  1.0
  O  O53  1  0.72622224  0.45532706  0.27089518  1.0
  O  O54  1  1.18443188  1.45532706  0.72910482  1.0
  O  O55  1  0.20532706  0.43443188  0.22910482  1.0
  O  O56  1  0.54467294  1.27377776  0.72910482  1.0
  O  O57  1  1.02377776  0.79467294  1.22910482  1.0
  O  O58  1  1.56556812  0.79467294  0.77089518  1.0
  O  O59  1  0.54467294  0.81556812  0.27089518  1.0
  O  O60  1  0.76797806  0.76797806  1.00000000  1.0
  O  O61  1  0.51797806  1.01797806  0.50000000  1.0
  O  O62  1  0.98202194  0.48202194  0.50000000  1.0
  O  O63  1  0.23202194  0.23202194  0.00000000  1.0
