# generated using pymatgen
data_Sc2Te3
_symmetry_space_group_name_H-M   'P 1'
_cell_length_a   13.72980593
_cell_length_b   13.08764632
_cell_length_c   7.19372943
_cell_angle_alpha   79.43374325
_cell_angle_beta   69.56442505
_cell_angle_gamma   31.00183170
_symmetry_Int_Tables_number   1
_chemical_formula_structural   Sc2Te3
_chemical_formula_sum   'Sc8 Te12'
_cell_volume   605.63947120
_cell_formula_units_Z   4
loop_
 _symmetry_equiv_pos_site_id
 _symmetry_equiv_pos_as_xyz
  1  'x, y, z'
loop_
 _atom_site_type_symbol
 _atom_site_label
 _atom_site_symmetry_multiplicity
 _atom_site_fract_x
 _atom_site_fract_y
 _atom_site_fract_z
 _atom_site_occupancy
  Sc  Sc0  1  0.58174375  0.58174375  0.41825625  1.0
  Sc  Sc1  1  0.41825625  0.41825625  0.58174375  1.0
  Sc  Sc2  1  0.66825625  -0.33174375  0.83174375  1.0
  Sc  Sc3  1  0.83174375  -0.16825625  0.66825625  1.0
  Sc  Sc4  1  0.25083129  0.25083129  -0.25083129  1.0
  Sc  Sc5  1  -0.25083129  0.74916871  0.25083129  1.0
  Sc  Sc6  1  -0.00083129  0.99916871  0.50083129  1.0
  Sc  Sc7  1  0.50083129  0.50083129  -0.00083129  1.0
  Te  Te8  1  0.24685288  0.75314712  -0.24685288  1.0
  Te  Te9  1  -0.24685288  1.24685288  0.24685288  1.0
  Te  Te10  1  0.00314712  0.49685288  0.49685288  1.0
  Te  Te11  1  0.49685288  0.00314712  0.00314712  1.0
  Te  Te12  1  -0.08404067  0.41791698  0.08291569  1.0
  Te  Te13  1  0.58320800  0.08291569  0.41791698  1.0
  Te  Te14  1  0.08291569  0.58320800  -0.08404067  1.0
  Te  Te15  1  0.41791698  -0.08404067  0.58320800  1.0
  Te  Te16  1  0.33404067  0.83208302  0.16708431  1.0
  Te  Te17  1  0.66679200  0.16708431  0.83208302  1.0
  Te  Te18  1  0.16708431  0.66679200  0.33404067  1.0
  Te  Te19  1  0.83208302  0.33404067  0.66679200  1.0
