# generated using pymatgen
data_Ca5Hg3
_symmetry_space_group_name_H-M   'P 1'
_cell_length_a   9.40391101
_cell_length_b   9.40391101
_cell_length_c   9.40391101
_cell_angle_alpha   128.03525567
_cell_angle_beta   128.03525567
_cell_angle_gamma   76.56792230
_symmetry_Int_Tables_number   1
_chemical_formula_structural   Ca5Hg3
_chemical_formula_sum   'Ca10 Hg6'
_cell_volume   501.14479677
_cell_formula_units_Z   2
loop_
 _symmetry_equiv_pos_site_id
 _symmetry_equiv_pos_as_xyz
  1  'x, y, z'
loop_
 _atom_site_type_symbol
 _atom_site_label
 _atom_site_symmetry_multiplicity
 _atom_site_fract_x
 _atom_site_fract_y
 _atom_site_fract_z
 _atom_site_occupancy
  Ca  Ca0  1  1.18856112  0.68856112  1.17187385  1.0
  Ca  Ca1  1  0.48331272  0.98331272  1.17187385  1.0
  Ca  Ca2  1  1.01668728  1.18856112  1.50000000  1.0
  Ca  Ca3  1  0.31143888  0.48331272  0.50000000  1.0
  Ca  Ca4  1  0.68856112  0.51668728  0.50000000  1.0
  Ca  Ca5  1  0.98331272  0.81143888  1.50000000  1.0
  Ca  Ca6  1  0.51668728  1.01668728  0.82812615  1.0
  Ca  Ca7  1  0.81143888  0.31143888  0.82812615  1.0
  Ca  Ca8  1  0.00000000  0.00000000  0.00000000  1.0
  Ca  Ca9  1  0.50000000  0.50000000  1.00000000  1.0
  Hg  Hg10  1  0.86517565  0.36517565  1.23035130  1.0
  Hg  Hg11  1  0.63482435  0.86517565  1.50000000  1.0
  Hg  Hg12  1  0.36517565  0.13482435  0.50000000  1.0
  Hg  Hg13  1  0.13482435  0.63482435  0.76964870  1.0
  Hg  Hg14  1  0.75000000  0.75000000  1.00000000  1.0
  Hg  Hg15  1  0.25000000  0.25000000  0.00000000  1.0
