# generated using pymatgen
data_MgSiO3
_symmetry_space_group_name_H-M   'P 1'
_cell_length_a   9.36177766
_cell_length_b   8.85812666
_cell_length_c   5.37905512
_cell_angle_alpha   90.00000000
_cell_angle_beta   90.00000000
_cell_angle_gamma   90.00000000
_symmetry_Int_Tables_number   1
_chemical_formula_structural   MgSiO3
_chemical_formula_sum   'Mg8 Si8 O24'
_cell_volume   446.07327251
_cell_formula_units_Z   8
loop_
 _symmetry_equiv_pos_site_id
 _symmetry_equiv_pos_as_xyz
  1  'x, y, z'
loop_
 _atom_site_type_symbol
 _atom_site_label
 _atom_site_symmetry_multiplicity
 _atom_site_fract_x
 _atom_site_fract_y
 _atom_site_fract_z
 _atom_site_occupancy
  Mg  Mg0  1  0.50000000  0.40132221  0.25000000  1.0
  Mg  Mg1  1  0.00000000  0.09867779  0.75000000  1.0
  Mg  Mg2  1  0.50000000  0.59867779  0.75000000  1.0
  Mg  Mg3  1  0.00000000  0.90132221  0.25000000  1.0
  Mg  Mg4  1  0.50000000  0.23874458  0.75000000  1.0
  Mg  Mg5  1  0.00000000  0.26125542  0.25000000  1.0
  Mg  Mg6  1  0.50000000  0.76125542  0.25000000  1.0
  Mg  Mg7  1  0.00000000  0.73874458  0.75000000  1.0
  Si  Si8  1  0.79205215  0.40940428  0.56293770  1.0
  Si  Si9  1  0.70794785  0.09059572  1.06293770  1.0
  Si  Si10  1  0.29205215  0.09059572  0.43706230  1.0
  Si  Si11  1  0.20794785  0.40940428  -0.06293770  1.0
  Si  Si12  1  0.20794785  0.59059572  0.43706230  1.0
  Si  Si13  1  0.29205215  0.90940428  -0.06293770  1.0
  Si  Si14  1  0.70794785  0.90940428  0.56293770  1.0
  Si  Si15  1  0.79205215  0.59059572  1.06293770  1.0
  O  O16  1  0.38213903  0.59378957  0.42370918  1.0
  O  O17  1  0.11786097  0.90621043  0.92370918  1.0
  O  O18  1  0.88213903  0.90621043  0.57629082  1.0
  O  O19  1  0.61786097  0.59378957  0.07629082  1.0
  O  O20  1  0.61786097  0.40621043  0.57629082  1.0
  O  O21  1  0.88213903  0.09378957  0.07629082  1.0
  O  O22  1  0.11786097  0.09378957  0.42370918  1.0
  O  O23  1  0.38213903  0.40621043  0.92370918  1.0
  O  O24  1  0.12157815  0.74746419  0.43253995  1.0
  O  O25  1  0.37842185  0.75253581  0.93253995  1.0
  O  O26  1  0.62157815  0.75253581  0.56746005  1.0
  O  O27  1  0.87842185  0.74746419  0.06746005  1.0
  O  O28  1  0.87842185  0.25253581  0.56746005  1.0
  O  O29  1  0.62157815  0.24746419  0.06746005  1.0
  O  O30  1  0.37842185  0.24746419  0.43253995  1.0
  O  O31  1  0.12157815  0.25253581  0.93253995  1.0
  O  O32  1  0.34855831  0.02600715  0.71464966  1.0
  O  O33  1  0.15144169  0.47399285  0.21464966  1.0
  O  O34  1  0.84855831  0.47399285  0.28535034  1.0
  O  O35  1  0.65144169  0.02600715  0.78535034  1.0
  O  O36  1  0.65144169  0.97399285  0.28535034  1.0
  O  O37  1  0.84855831  0.52600715  0.78535034  1.0
  O  O38  1  0.15144169  0.52600715  0.71464966  1.0
  O  O39  1  0.34855831  0.97399285  0.21464966  1.0
