# generated using pymatgen
data_ZrPb2F8
_symmetry_space_group_name_H-M   'P 1'
_cell_length_a   10.00441778
_cell_length_b   5.65515104
_cell_length_c   11.70493847
_cell_angle_alpha   90.00000000
_cell_angle_beta   90.00000000
_cell_angle_gamma   90.00000000
_symmetry_Int_Tables_number   1
_chemical_formula_structural   ZrPb2F8
_chemical_formula_sum   'Zr4 Pb8 F32'
_cell_volume   662.22437608
_cell_formula_units_Z   4
loop_
 _symmetry_equiv_pos_site_id
 _symmetry_equiv_pos_as_xyz
  1  'x, y, z'
loop_
 _atom_site_type_symbol
 _atom_site_label
 _atom_site_symmetry_multiplicity
 _atom_site_fract_x
 _atom_site_fract_y
 _atom_site_fract_z
 _atom_site_occupancy
  Zr  Zr0  1  0.73701318  0.75000000  0.35372954  1.0
  Zr  Zr1  1  0.23701318  0.75000000  0.14627046  1.0
  Zr  Zr2  1  0.26298682  0.25000000  0.64627046  1.0
  Zr  Zr3  1  0.76298682  0.25000000  0.85372954  1.0
  Pb  Pb4  1  0.98115184  0.75000000  0.67252878  1.0
  Pb  Pb5  1  0.48115184  0.75000000  0.82747122  1.0
  Pb  Pb6  1  0.01884816  0.25000000  0.32747122  1.0
  Pb  Pb7  1  0.51884816  0.25000000  0.17252878  1.0
  Pb  Pb8  1  0.84337687  0.75000000  0.05135606  1.0
  Pb  Pb9  1  0.34337687  0.75000000  0.44864394  1.0
  Pb  Pb10  1  0.15662313  0.25000000  0.94864394  1.0
  Pb  Pb11  1  0.65662313  0.25000000  0.55135606  1.0
  F  F12  1  0.84468037  0.98926476  0.46151781  1.0
  F  F13  1  0.84468037  0.51073524  0.46151781  1.0
  F  F14  1  0.34468037  0.98926476  0.03848219  1.0
  F  F15  1  0.34468037  0.51073524  0.03848219  1.0
  F  F16  1  0.15531963  0.48926476  0.53848219  1.0
  F  F17  1  0.15531963  0.01073524  0.53848219  1.0
  F  F18  1  0.65531963  0.48926476  0.96151781  1.0
  F  F19  1  0.65531963  0.01073524  0.96151781  1.0
  F  F20  1  0.85486375  0.98231678  0.24869285  1.0
  F  F21  1  0.85486375  0.51768322  0.24869285  1.0
  F  F22  1  0.35486375  0.98231678  0.25130715  1.0
  F  F23  1  0.35486375  0.51768322  0.25130715  1.0
  F  F24  1  0.14513625  0.48231678  0.75130715  1.0
  F  F25  1  0.14513625  0.01768322  0.75130715  1.0
  F  F26  1  0.64513625  0.48231678  0.74869285  1.0
  F  F27  1  0.64513625  0.01768322  0.74869285  1.0
  F  F28  1  0.60158128  0.47503995  0.34787992  1.0
  F  F29  1  0.60158128  1.02496005  0.34787992  1.0
  F  F30  1  0.10158128  0.47503995  0.15212008  1.0
  F  F31  1  0.10158128  1.02496005  0.15212008  1.0
  F  F32  1  0.39841872  -0.02496005  0.65212008  1.0
  F  F33  1  0.39841872  0.52496005  0.65212008  1.0
  F  F34  1  0.89841872  -0.02496005  0.84787992  1.0
  F  F35  1  0.89841872  0.52496005  0.84787992  1.0
  F  F36  1  0.63125123  0.75000000  0.51228516  1.0
  F  F37  1  0.13125123  0.75000000  0.98771484  1.0
  F  F38  1  0.36874877  0.25000000  0.48771484  1.0
  F  F39  1  0.86874877  0.25000000  0.01228516  1.0
  F  F40  1  0.65120834  0.75000000  0.18122542  1.0
  F  F41  1  0.15120834  0.75000000  0.31877458  1.0
  F  F42  1  0.34879166  0.25000000  0.81877458  1.0
  F  F43  1  0.84879166  0.25000000  0.68122542  1.0
