# generated using pymatgen
data_InGaS3
_symmetry_space_group_name_H-M   'P 1'
_cell_length_a   6.86002988
_cell_length_b   6.86002988
_cell_length_c   18.28531216
_cell_angle_alpha   90.00000000
_cell_angle_beta   90.00000000
_cell_angle_gamma   120.00000000
_symmetry_Int_Tables_number   1
_chemical_formula_structural   InGaS3
_chemical_formula_sum   'In6 Ga6 S18'
_cell_volume   745.22089838
_cell_formula_units_Z   6
loop_
 _symmetry_equiv_pos_site_id
 _symmetry_equiv_pos_as_xyz
  1  'x, y, z'
loop_
 _atom_site_type_symbol
 _atom_site_label
 _atom_site_symmetry_multiplicity
 _atom_site_fract_x
 _atom_site_fract_y
 _atom_site_fract_z
 _atom_site_occupancy
  In  In0  1  0.33088375  0.00087259  0.65824977  1.0
  In  In1  1  0.00087259  0.66998884  0.49158310  1.0
  In  In2  1  0.66998884  0.66911625  0.32491643  1.0
  In  In3  1  0.99912741  0.33001116  -0.00841690  1.0
  In  In4  1  0.66911625  0.99912741  0.15824977  1.0
  In  In5  1  0.33001116  0.33088375  0.82491643  1.0
  Ga  Ga6  1  -0.01798376  0.66465081  0.13036360  1.0
  Ga  Ga7  1  0.66465081  0.68263457  0.96369693  1.0
  Ga  Ga8  1  0.68263457  1.01798376  0.79703026  1.0
  Ga  Ga9  1  0.33534919  0.31736543  0.46369693  1.0
  Ga  Ga10  1  1.01798376  0.33534919  0.63036360  1.0
  Ga  Ga11  1  0.31736543  -0.01798376  0.29703026  1.0
  S  S12  1  0.32579387  0.96350844  0.80599032  1.0
  S  S13  1  0.96350844  0.63771457  0.63932366  1.0
  S  S14  1  0.63771457  0.67420613  0.47265699  1.0
  S  S15  1  0.03649156  0.36228543  0.13932366  1.0
  S  S16  1  0.67420613  0.03649156  0.30599032  1.0
  S  S17  1  0.36228543  0.32579387  0.97265699  1.0
  S  S18  1  0.70410484  0.70678553  0.83629601  1.0
  S  S19  1  0.70678553  1.00268070  0.66962934  1.0
  S  S20  1  1.00268070  0.29589516  0.50296268  1.0
  S  S21  1  0.29321447  -0.00268070  0.16962934  1.0
  S  S22  1  0.29589516  0.29321447  0.33629601  1.0
  S  S23  1  -0.00268070  0.70410484  1.00296268  1.0
  S  S24  1  0.65862612  0.62774699  0.17773364  1.0
  S  S25  1  0.62774699  0.96912087  0.01106697  1.0
  S  S26  1  0.96912087  0.34137388  0.84440031  1.0
  S  S27  1  0.37225301  0.03087913  0.51106697  1.0
  S  S28  1  0.34137388  0.37225301  0.67773364  1.0
  S  S29  1  0.03087913  0.65862612  0.34440031  1.0
