# generated using pymatgen
data_CdRe2(NO2)4
_symmetry_space_group_name_H-M   'P 1'
_cell_length_a   7.57856706
_cell_length_b   7.57856706
_cell_length_c   7.57856706
_cell_angle_alpha   60.00000000
_cell_angle_beta   60.00000000
_cell_angle_gamma   60.00000000
_symmetry_Int_Tables_number   1
_chemical_formula_structural   CdRe2(NO2)4
_chemical_formula_sum   'Cd1 Re2 N4 O8'
_cell_volume   307.78418168
_cell_formula_units_Z   1
loop_
 _symmetry_equiv_pos_site_id
 _symmetry_equiv_pos_as_xyz
  1  'x, y, z'
loop_
 _atom_site_type_symbol
 _atom_site_label
 _atom_site_symmetry_multiplicity
 _atom_site_fract_x
 _atom_site_fract_y
 _atom_site_fract_z
 _atom_site_occupancy
  Re  Re0  1  0.75000000  0.75000000  -0.25000000  1.0
  Re  Re1  1  0.00000000  0.00000000  0.00000000  1.0
  O  O2  1  0.90611625  0.90611625  -0.09388375  1.0
  O  O3  1  0.28165126  0.90611625  -0.09388375  1.0
  O  O4  1  0.90611625  0.90611625  -0.71834874  1.0
  O  O5  1  0.90611625  0.28165126  -0.09388375  1.0
  O  O6  1  -0.34448183  0.65551817  0.65551817  1.0
  O  O7  1  1.03344549  0.65551817  -0.34448183  1.0
  O  O8  1  -0.34448183  0.65551817  1.03344549  1.0
  O  O9  1  0.65551817  1.03344549  -0.34448183  1.0
  N  N10  1  0.37445440  1.37445440  0.37445440  1.0
  N  N11  1  -0.12336319  0.37445440  0.37445440  1.0
  N  N12  1  0.37445440  1.37445440  -0.12336319  1.0
  N  N13  1  0.37445440  -0.12336319  0.37445440  1.0
  Cd  Cd14  1  0.25000000  0.25000000  0.25000000  1.0
