# generated using pymatgen
data_BaMg2H8Ru
_symmetry_space_group_name_H-M   'P 1'
_cell_length_a   4.97118353
_cell_length_b   4.97118353
_cell_length_c   10.80091729
_cell_angle_alpha   90.00000000
_cell_angle_beta   90.00000000
_cell_angle_gamma   90.00000000
_symmetry_Int_Tables_number   1
_chemical_formula_structural   BaMg2H8Ru
_chemical_formula_sum   'Ba2 Mg4 H16 Ru2'
_cell_volume   266.91945766
_cell_formula_units_Z   2
loop_
 _symmetry_equiv_pos_site_id
 _symmetry_equiv_pos_as_xyz
  1  'x, y, z'
loop_
 _atom_site_type_symbol
 _atom_site_label
 _atom_site_symmetry_multiplicity
 _atom_site_fract_x
 _atom_site_fract_y
 _atom_site_fract_z
 _atom_site_occupancy
  Ba  Ba0  1  0.00000000  0.50000000  0.50000000  1.0
  Ba  Ba1  1  0.50000000  0.00000000  0.00000000  1.0
  Mg  Mg2  1  0.00000000  0.50000000  0.85939631  1.0
  Mg  Mg3  1  0.00000000  0.50000000  0.14060369  1.0
  Mg  Mg4  1  0.50000000  0.00000000  0.35939631  1.0
  Mg  Mg5  1  0.50000000  0.00000000  0.64060369  1.0
  H  H6  1  0.75698046  0.75698046  0.75000000  1.0
  H  H7  1  0.75698046  0.75698046  0.25000000  1.0
  H  H8  1  0.75698046  0.24301954  0.75000000  1.0
  H  H9  1  0.75698046  0.24301954  0.25000000  1.0
  H  H10  1  0.24301954  0.75698046  0.75000000  1.0
  H  H11  1  0.24301954  0.75698046  0.25000000  1.0
  H  H12  1  0.24301954  0.24301954  0.75000000  1.0
  H  H13  1  0.24301954  0.24301954  0.25000000  1.0
  H  H14  1  0.74869534  0.50000000  0.00000000  1.0
  H  H15  1  0.50000000  0.74869534  0.50000000  1.0
  H  H16  1  0.50000000  0.25130466  0.50000000  1.0
  H  H17  1  0.25130466  0.50000000  0.00000000  1.0
  H  H18  1  0.00000000  0.00000000  0.90656860  1.0
  H  H19  1  0.00000000  0.00000000  0.09343140  1.0
  H  H20  1  0.00000000  0.00000000  0.40656860  1.0
  H  H21  1  0.00000000  0.00000000  0.59343140  1.0
  Ru  Ru22  1  0.00000000  0.00000000  0.75000000  1.0
  Ru  Ru23  1  0.00000000  0.00000000  0.25000000  1.0
