# generated using pymatgen
data_TlB3O5
_symmetry_space_group_name_H-M   'P 1'
_cell_length_a   6.78575202
_cell_length_b   6.78575202
_cell_length_c   9.22748533
_cell_angle_alpha   81.12430955
_cell_angle_beta   98.87569045
_cell_angle_gamma   97.78983925
_symmetry_Int_Tables_number   1
_chemical_formula_structural   TlB3O5
_chemical_formula_sum   'Tl4 B12 O20'
_cell_volume   412.05193431
_cell_formula_units_Z   4
loop_
 _symmetry_equiv_pos_site_id
 _symmetry_equiv_pos_as_xyz
  1  'x, y, z'
loop_
 _atom_site_type_symbol
 _atom_site_label
 _atom_site_symmetry_multiplicity
 _atom_site_fract_x
 _atom_site_fract_y
 _atom_site_fract_z
 _atom_site_occupancy
  Tl  Tl0  1  1.56294233  -0.26337675  0.55620973  1.0
  Tl  Tl1  1  1.26337675  -0.56294233  0.05620973  1.0
  Tl  Tl2  1  0.73662325  0.56294233  0.94379027  1.0
  Tl  Tl3  1  0.43705767  0.26337675  0.44379027  1.0
  B  B4  1  0.79244745  0.18264748  0.77055123  1.0
  B  B5  1  0.81735252  0.20755255  0.27055123  1.0
  B  B6  1  1.18264748  -0.20755255  0.72944877  1.0
  B  B7  1  1.20755255  -0.18264748  0.22944877  1.0
  B  B8  1  0.42672621  0.06331303  0.82102135  1.0
  B  B9  1  0.93668697  0.57327379  0.32102135  1.0
  B  B10  1  1.06331303  -0.57327379  0.67897865  1.0
  B  B11  1  1.57327379  -0.06331303  0.17897865  1.0
  B  B12  1  1.10900521  -0.03412637  0.93113686  1.0
  B  B13  1  1.03412637  -0.10900521  0.43113686  1.0
  B  B14  1  0.96587363  0.10900521  0.56886314  1.0
  B  B15  1  0.89099479  0.03412637  0.06886314  1.0
  O  O16  1  0.91338598  0.06957760  0.90485841  1.0
  O  O17  1  0.93042240  0.08661402  0.40485841  1.0
  O  O18  1  1.06957760  -0.08661402  0.59514159  1.0
  O  O19  1  1.08661402  -0.06957760  0.09514159  1.0
  O  O20  1  0.78836927  0.08721896  0.63875743  1.0
  O  O21  1  0.91278104  0.21163073  0.13875743  1.0
  O  O22  1  1.08721896  -0.21163073  0.86124257  1.0
  O  O23  1  1.21163073  -0.08721896  0.36124257  1.0
  O  O24  1  1.39070337  -0.10403020  0.74906760  1.0
  O  O25  1  1.10403020  -0.39070337  0.24906760  1.0
  O  O26  1  0.89596980  0.39070337  0.75093240  1.0
  O  O27  1  0.60929663  0.10403020  0.25093240  1.0
  O  O28  1  0.59644292  0.19667124  0.81081421  1.0
  O  O29  1  0.80332876  0.40355708  0.31081421  1.0
  O  O30  1  1.19667124  -0.40355708  0.68918579  1.0
  O  O31  1  1.40355708  -0.19667124  0.18918579  1.0
  O  O32  1  0.28534917  0.10360555  0.90242500  1.0
  O  O33  1  0.89639445  0.71465083  0.40242500  1.0
  O  O34  1  1.10360555  -0.71465083  0.59757500  1.0
  O  O35  1  1.71465083  -0.10360555  0.09757500  1.0
