# generated using pymatgen
data_HfFeGe
_symmetry_space_group_name_H-M   'P 1'
_cell_length_a   6.66394804
_cell_length_b   6.66394804
_cell_length_c   3.60056937
_cell_angle_alpha   90.00000000
_cell_angle_beta   90.00000000
_cell_angle_gamma   120.00000000
_symmetry_Int_Tables_number   1
_chemical_formula_structural   HfFeGe
_chemical_formula_sum   'Hf3 Fe3 Ge3'
_cell_volume   138.47297375
_cell_formula_units_Z   3
loop_
 _symmetry_equiv_pos_site_id
 _symmetry_equiv_pos_as_xyz
  1  'x, y, z'
loop_
 _atom_site_type_symbol
 _atom_site_label
 _atom_site_symmetry_multiplicity
 _atom_site_fract_x
 _atom_site_fract_y
 _atom_site_fract_z
 _atom_site_occupancy
  Hf  Hf0  1  0.40941693  0.40941693  0.00000000  1.0
  Hf  Hf1  1  -0.00000000  0.59058307  0.00000000  1.0
  Hf  Hf2  1  0.59058307  0.00000000  0.00000000  1.0
  Fe  Fe3  1  0.75201608  0.75201608  0.50000000  1.0
  Fe  Fe4  1  0.00000000  0.24798392  0.50000000  1.0
  Fe  Fe5  1  0.24798392  0.00000000  0.50000000  1.0
  Ge  Ge6  1  0.33333333  0.66666667  0.50000000  1.0
  Ge  Ge7  1  0.66666667  0.33333333  0.50000000  1.0
  Ge  Ge8  1  0.00000000  0.00000000  0.00000000  1.0
