# generated using pymatgen
data_EuWO4
_symmetry_space_group_name_H-M   'P 1'
_cell_length_a   7.04638514
_cell_length_b   7.04638514
_cell_length_c   5.41978331
_cell_angle_alpha   67.38233582
_cell_angle_beta   112.61766418
_cell_angle_gamma   65.91166800
_symmetry_Int_Tables_number   1
_chemical_formula_structural   EuWO4
_chemical_formula_sum   'Eu2 W2 O8'
_cell_volume   173.74899373
_cell_formula_units_Z   2
loop_
 _symmetry_equiv_pos_site_id
 _symmetry_equiv_pos_as_xyz
  1  'x, y, z'
loop_
 _atom_site_type_symbol
 _atom_site_label
 _atom_site_symmetry_multiplicity
 _atom_site_fract_x
 _atom_site_fract_y
 _atom_site_fract_z
 _atom_site_occupancy
  Eu  Eu0  1  1.37501272  0.37501272  0.75000000  1.0
  Eu  Eu1  1  0.62498728  0.62498728  0.25000000  1.0
  W  W2  1  0.87505224  0.87505224  0.75000000  1.0
  W  W3  1  1.12494776  0.12494776  0.25000000  1.0
  O  O4  1  1.64470728  -0.06125775  0.84374869  1.0
  O  O5  1  1.06125775  0.35529272  0.34374869  1.0
  O  O6  1  0.93874225  0.64470728  0.65625131  1.0
  O  O7  1  1.35529272  0.06125775  0.15625131  1.0
  O  O8  1  1.28241300  -0.19906521  0.63790923  1.0
  O  O9  1  1.19906521  0.71758700  0.13790923  1.0
  O  O10  1  0.80093479  0.28241300  0.86209077  1.0
  O  O11  1  1.71758700  0.19906521  0.36209077  1.0
