# generated using pymatgen
data_LaH4S2NO8
_symmetry_space_group_name_H-M   'P 1'
_cell_length_a   7.18033180
_cell_length_b   5.56376163
_cell_length_c   9.45039354
_cell_angle_alpha   90.00000000
_cell_angle_beta   99.43335858
_cell_angle_gamma   90.00000000
_symmetry_Int_Tables_number   1
_chemical_formula_structural   LaH4S2NO8
_chemical_formula_sum   'La2 H8 S4 N2 O16'
_cell_volume   372.43444811
_cell_formula_units_Z   2
loop_
 _symmetry_equiv_pos_site_id
 _symmetry_equiv_pos_as_xyz
  1  'x, y, z'
loop_
 _atom_site_type_symbol
 _atom_site_label
 _atom_site_symmetry_multiplicity
 _atom_site_fract_x
 _atom_site_fract_y
 _atom_site_fract_z
 _atom_site_occupancy
  La  La0  1  0.19540087  0.25000000  0.77493063  1.0
  La  La1  1  0.80459913  0.75000000  0.22506937  1.0
  H  H2  1  0.61166915  0.89918381  0.66329790  1.0
  H  H3  1  0.61166915  0.60081619  0.66329790  1.0
  H  H4  1  0.38833085  0.39918381  0.33670210  1.0
  H  H5  1  0.38833085  0.10081619  0.33670210  1.0
  H  H6  1  0.31120018  0.25000000  0.18429440  1.0
  H  H7  1  0.68879982  0.75000000  0.81570560  1.0
  H  H8  1  0.17718138  0.25000000  0.31581213  1.0
  H  H9  1  0.82281862  0.75000000  0.68418787  1.0
  S  S10  1  0.81124084  0.25000000  0.42516421  1.0
  S  S11  1  0.18875916  0.75000000  0.57483579  1.0
  S  S12  1  0.72511583  0.25000000  0.93593722  1.0
  S  S13  1  0.27488417  0.75000000  0.06406278  1.0
  N  N14  1  0.31509957  0.25000000  0.29364575  1.0
  N  N15  1  0.68490043  0.75000000  0.70635425  1.0
  O  O16  1  0.68929377  0.47051207  0.40697896  1.0
  O  O17  1  0.68929377  0.02948793  0.40697896  1.0
  O  O18  1  0.31070623  0.97051207  0.59302104  1.0
  O  O19  1  0.31070623  0.52948793  0.59302104  1.0
  O  O20  1  0.27827141  0.97119178  0.97558868  1.0
  O  O21  1  0.27827141  0.52880822  0.97558868  1.0
  O  O22  1  0.72172859  0.47119178  0.02441132  1.0
  O  O23  1  0.72172859  0.02880822  0.02441132  1.0
  O  O24  1  0.92972685  0.25000000  0.56876781  1.0
  O  O25  1  0.07027315  0.75000000  0.43123219  1.0
  O  O26  1  0.92857807  0.25000000  0.30655769  1.0
  O  O27  1  0.07142193  0.75000000  0.69344231  1.0
  O  O28  1  0.89964172  0.25000000  0.86948083  1.0
  O  O29  1  0.10035828  0.75000000  0.13051917  1.0
  O  O30  1  0.55784389  0.25000000  0.81876296  1.0
  O  O31  1  0.44215611  0.75000000  0.18123704  1.0
