# generated using pymatgen
data_ScS2NO8
_symmetry_space_group_name_H-M   'P 1'
_cell_length_a   5.37735513
_cell_length_b   5.37735513
_cell_length_c   8.10869675
_cell_angle_alpha   90.00000000
_cell_angle_beta   90.00000000
_cell_angle_gamma   120.00000000
_symmetry_Int_Tables_number   1
_chemical_formula_structural   ScS2NO8
_chemical_formula_sum   'Sc1 S2 N1 O8'
_cell_volume   203.05754398
_cell_formula_units_Z   1
loop_
 _symmetry_equiv_pos_site_id
 _symmetry_equiv_pos_as_xyz
  1  'x, y, z'
loop_
 _atom_site_type_symbol
 _atom_site_label
 _atom_site_symmetry_multiplicity
 _atom_site_fract_x
 _atom_site_fract_y
 _atom_site_fract_z
 _atom_site_occupancy
  Sc  Sc0  1  0.00000000  0.00000000  0.00000000  1.0
  S  S1  1  0.33333333  0.66666667  0.21338824  1.0
  S  S2  1  0.66666667  0.33333333  0.78661176  1.0
  O  O3  1  0.18326268  0.81618180  0.14648745  1.0
  O  O4  1  0.81618180  0.18326268  0.85351255  1.0
  O  O5  1  0.63291911  0.81673732  0.14648745  1.0
  O  O6  1  0.18381820  0.36708089  0.14648745  1.0
  O  O7  1  0.81673732  0.63291911  0.85351255  1.0
  O  O8  1  0.36708089  0.18381820  0.85351255  1.0
  O  O9  1  0.33333333  0.66666667  0.39279135  1.0
  O  O10  1  0.66666667  0.33333333  0.60720865  1.0
  N  N11  1  0.00000000  0.00000000  0.50000000  1.0
