# generated using pymatgen
data_Na2Zn2Si2O7
_symmetry_space_group_name_H-M   'P 1'
_cell_length_a   5.34707228
_cell_length_b   5.34707228
_cell_length_c   13.81452466
_cell_angle_alpha   90.00000000
_cell_angle_beta   90.00000000
_cell_angle_gamma   57.76540909
_symmetry_Int_Tables_number   1
_chemical_formula_structural   Na2Zn2Si2O7
_chemical_formula_sum   'Na4 Zn4 Si4 O14'
_cell_volume   334.09682360
_cell_formula_units_Z   2
loop_
 _symmetry_equiv_pos_site_id
 _symmetry_equiv_pos_as_xyz
  1  'x, y, z'
loop_
 _atom_site_type_symbol
 _atom_site_label
 _atom_site_symmetry_multiplicity
 _atom_site_fract_x
 _atom_site_fract_y
 _atom_site_fract_z
 _atom_site_occupancy
  Na  Na0  1  -0.94172563  1.01458808  0.75000000  1.0
  Na  Na1  1  -0.01458808  0.94172563  0.25000000  1.0
  Na  Na2  1  0.00812597  -0.00812597  0.50000000  1.0
  Na  Na3  1  0.00812597  -0.00812597  -0.00000000  1.0
  Zn  Zn4  1  -0.22924905  0.65722218  0.58016853  1.0
  Zn  Zn5  1  -0.65722218  1.22924905  0.08016853  1.0
  Zn  Zn6  1  -0.65722218  1.22924905  0.41983147  1.0
  Zn  Zn7  1  -0.22924905  0.65722218  0.91983147  1.0
  Si  Si8  1  -0.57167781  1.33094398  0.64042630  1.0
  Si  Si9  1  -0.33094398  0.57167781  0.14042630  1.0
  Si  Si10  1  -0.33094398  0.57167781  0.35957370  1.0
  Si  Si11  1  -0.57167781  1.33094398  0.85957370  1.0
  O  O12  1  -0.54982335  1.08152847  0.56316716  1.0
  O  O13  1  -0.08152847  0.54982335  0.06316716  1.0
  O  O14  1  -0.08152847  0.54982335  0.43683284  1.0
  O  O15  1  -0.54982335  1.08152847  0.93683284  1.0
  O  O16  1  -0.27916484  0.35199072  0.62911644  1.0
  O  O17  1  -0.35199072  1.27916484  0.12911644  1.0
  O  O18  1  -0.35199072  1.27916484  0.37088356  1.0
  O  O19  1  -0.27916484  0.35199072  0.87088356  1.0
  O  O20  1  -0.65081357  0.87696711  0.12613756  1.0
  O  O21  1  0.12303289  0.65081357  0.62613756  1.0
  O  O22  1  0.12303289  0.65081357  0.87386244  1.0
  O  O23  1  -0.65081357  0.87696711  0.37386244  1.0
  O  O24  1  -0.56314829  1.19022778  0.75000000  1.0
  O  O25  1  -0.19022778  0.56314829  0.25000000  1.0
