# generated using pymatgen
data_Mg2Ni
_symmetry_space_group_name_H-M   'P 1'
_cell_length_a   7.52374502
_cell_length_b   7.52374502
_cell_length_c   6.14355547
_cell_angle_alpha   65.81639314
_cell_angle_beta   114.18360686
_cell_angle_gamma   131.83788821
_symmetry_Int_Tables_number   1
_chemical_formula_structural   Mg2Ni
_chemical_formula_sum   'Mg8 Ni4'
_cell_volume   231.54982030
_cell_formula_units_Z   4
loop_
 _symmetry_equiv_pos_site_id
 _symmetry_equiv_pos_as_xyz
  1  'x, y, z'
loop_
 _atom_site_type_symbol
 _atom_site_label
 _atom_site_symmetry_multiplicity
 _atom_site_fract_x
 _atom_site_fract_y
 _atom_site_fract_z
 _atom_site_occupancy
  Mg  Mg0  1  0.75013417  -0.74986586  0.49996958  1.0
  Mg  Mg1  1  1.25013414  -0.24986583  1.00003042  1.0
  Mg  Mg2  1  1.24986583  -0.25013414  0.50003042  1.0
  Mg  Mg3  1  1.74986586  0.24986583  -0.00003042  1.0
  Mg  Mg4  1  0.99999264  0.99999264  0.75000000  1.0
  Mg  Mg5  1  0.00000736  0.00000736  0.25000000  1.0
  Mg  Mg6  1  0.50032172  0.50032172  0.75000000  1.0
  Mg  Mg7  1  0.49967828  0.49967828  0.25000000  1.0
  Ni  Ni8  1  0.87498881  -0.37500784  0.62494520  1.0
  Ni  Ni9  1  1.62499216  -0.12501119  0.87505480  1.0
  Ni  Ni10  1  1.12501119  -0.62499216  0.37505480  1.0
  Ni  Ni11  1  1.37500784  0.12501119  0.12494520  1.0
