# generated using pymatgen
data_La2Ni5C3
_symmetry_space_group_name_H-M   'P 1'
_cell_length_a   8.33253859
_cell_length_b   8.33253859
_cell_length_c   4.04099397
_cell_angle_alpha   90.00000000
_cell_angle_beta   90.00000000
_cell_angle_gamma   90.00000000
_symmetry_Int_Tables_number   1
_chemical_formula_structural   La2Ni5C3
_chemical_formula_sum   'La4 Ni10 C6'
_cell_volume   280.57105823
_cell_formula_units_Z   2
loop_
 _symmetry_equiv_pos_site_id
 _symmetry_equiv_pos_as_xyz
  1  'x, y, z'
loop_
 _atom_site_type_symbol
 _atom_site_label
 _atom_site_symmetry_multiplicity
 _atom_site_fract_x
 _atom_site_fract_y
 _atom_site_fract_z
 _atom_site_occupancy
  La  La0  1  0.33834176  0.16165824  0.50000000  1.0
  La  La1  1  0.83834176  0.33834176  0.50000000  1.0
  La  La2  1  0.66165824  0.83834176  0.50000000  1.0
  La  La3  1  0.16165824  0.66165824  0.50000000  1.0
  Ni  Ni4  1  0.42542691  0.71292983  0.00000000  1.0
  Ni  Ni5  1  0.92542691  0.78707017  0.00000000  1.0
  Ni  Ni6  1  0.28707017  0.42542691  0.00000000  1.0
  Ni  Ni7  1  0.78707017  0.07457309  0.00000000  1.0
  Ni  Ni8  1  0.57457309  0.28707017  0.00000000  1.0
  Ni  Ni9  1  0.07457309  0.21292983  0.00000000  1.0
  Ni  Ni10  1  0.71292983  0.57457309  0.00000000  1.0
  Ni  Ni11  1  0.21292983  0.92542691  0.00000000  1.0
  Ni  Ni12  1  0.50000000  0.50000000  0.50000000  1.0
  Ni  Ni13  1  0.00000000  0.00000000  0.50000000  1.0
  C  C14  1  0.94218780  0.55781220  0.00000000  1.0
  C  C15  1  0.44218780  0.94218780  0.00000000  1.0
  C  C16  1  0.05781220  0.44218780  0.00000000  1.0
  C  C17  1  0.55781220  0.05781220  0.00000000  1.0
  C  C18  1  0.50000000  0.50000000  0.00000000  1.0
  C  C19  1  0.00000000  0.00000000  0.00000000  1.0
