# generated using pymatgen
data_Cu2ClO3
_symmetry_space_group_name_H-M   'P 1'
_cell_length_a   8.56047867
_cell_length_b   8.56047867
_cell_length_c   8.56047867
_cell_angle_alpha   94.63254500
_cell_angle_beta   94.63254500
_cell_angle_gamma   94.63254500
_symmetry_Int_Tables_number   1
_chemical_formula_structural   Cu2ClO3
_chemical_formula_sum   'Cu16 Cl8 O24'
_cell_volume   620.82496446
_cell_formula_units_Z   8
loop_
 _symmetry_equiv_pos_site_id
 _symmetry_equiv_pos_as_xyz
  1  'x, y, z'
loop_
 _atom_site_type_symbol
 _atom_site_label
 _atom_site_symmetry_multiplicity
 _atom_site_fract_x
 _atom_site_fract_y
 _atom_site_fract_z
 _atom_site_occupancy
  Cl  Cl0  1  0.69539315  0.69539315  0.69539315  1.0
  Cl  Cl1  1  0.30460685  0.30460685  0.30460685  1.0
  Cl  Cl2  1  0.80517051  0.80360740  0.30578377  1.0
  Cl  Cl3  1  1.19639260  -0.30578377  0.19482949  1.0
  Cl  Cl4  1  0.69421623  0.19482949  0.19639260  1.0
  Cl  Cl5  1  1.19482949  0.19639260  -0.30578377  1.0
  Cl  Cl6  1  0.80360740  1.30578377  -0.19482949  1.0
  Cl  Cl7  1  1.30578377  0.80517051  -0.19639260  1.0
  O  O8  1  0.53591075  0.72696857  0.03071755  1.0
  O  O9  1  1.27303143  -0.03071755  0.46408925  1.0
  O  O10  1  0.96928245  0.46408925  0.27303143  1.0
  O  O11  1  1.46408925  0.27303143  -0.03071755  1.0
  O  O12  1  0.72696857  1.03071755  -0.46408925  1.0
  O  O13  1  1.03071755  0.53591075  -0.27303143  1.0
  O  O14  1  1.76815746  0.96497606  -0.03083605  1.0
  O  O15  1  1.03502394  0.03083605  -0.76815746  1.0
  O  O16  1  1.03083605  -0.76815746  0.03502394  1.0
  O  O17  1  0.23184254  0.03502394  0.03083605  1.0
  O  O18  1  0.96497606  0.96916395  0.76815746  1.0
  O  O19  1  0.96916395  1.76815746  -0.03502394  1.0
  O  O20  1  1.46415856  0.46768626  -0.23034137  1.0
  O  O21  1  0.53231374  1.23034137  -0.46415856  1.0
  O  O22  1  1.23034137  0.53584144  -0.46768626  1.0
  O  O23  1  0.53584144  0.53231374  0.23034137  1.0
  O  O24  1  1.46768626  -0.23034137  0.46415856  1.0
  O  O25  1  0.76965863  0.46415856  0.46768626  1.0
  O  O26  1  0.74280102  0.53324588  0.03586419  1.0
  O  O27  1  1.46675412  -0.03586419  0.25719898  1.0
  O  O28  1  0.96413581  0.25719898  0.46675412  1.0
  O  O29  1  1.25719898  0.46675412  -0.03586419  1.0
  O  O30  1  0.53324588  1.03586419  -0.25719898  1.0
  O  O31  1  1.03586419  0.74280102  -0.46675412  1.0
  Cu  Cu32  1  0.75338862  0.74765782  0.00040200  1.0
  Cu  Cu33  1  1.25234218  -0.00040200  0.24661138  1.0
  Cu  Cu34  1  0.99959800  0.24661138  0.25234218  1.0
  Cu  Cu35  1  1.24661138  0.25234218  -0.00040200  1.0
  Cu  Cu36  1  0.74765782  1.00040200  -0.24661138  1.0
  Cu  Cu37  1  1.00040200  0.75338862  -0.25234218  1.0
  Cu  Cu38  1  0.75241790  0.49955732  0.25056089  1.0
  Cu  Cu39  1  0.50044268  0.74943911  0.24758210  1.0
  Cu  Cu40  1  0.74943911  1.24758210  -0.49955732  1.0
  Cu  Cu41  1  1.24758210  0.50044268  -0.25056089  1.0
  Cu  Cu42  1  1.49955732  0.25056089  -0.24758210  1.0
  Cu  Cu43  1  1.25056089  -0.24758210  0.49955732  1.0
  Cu  Cu44  1  0.50000000  0.50000000  -0.00000000  1.0
  Cu  Cu45  1  0.50000000  1.00000000  -0.50000000  1.0
  Cu  Cu46  1  1.00000000  0.50000000  -0.50000000  1.0
  Cu  Cu47  1  0.00000000  0.00000000  0.00000000  1.0
