# generated using pymatgen
data_Na2SbF5
_symmetry_space_group_name_H-M   'P 1'
_cell_length_a   5.59101975
_cell_length_b   8.27707654
_cell_length_c   11.49334009
_cell_angle_alpha   90.00000000
_cell_angle_beta   90.00000000
_cell_angle_gamma   90.00000000
_symmetry_Int_Tables_number   1
_chemical_formula_structural   Na2SbF5
_chemical_formula_sum   'Na8 Sb4 F20'
_cell_volume   531.88072881
_cell_formula_units_Z   4
loop_
 _symmetry_equiv_pos_site_id
 _symmetry_equiv_pos_as_xyz
  1  'x, y, z'
loop_
 _atom_site_type_symbol
 _atom_site_label
 _atom_site_symmetry_multiplicity
 _atom_site_fract_x
 _atom_site_fract_y
 _atom_site_fract_z
 _atom_site_occupancy
  Na  Na0  1  0.06456596  0.14371412  0.93582989  1.0
  Na  Na1  1  0.93543404  0.64371412  0.56417011  1.0
  Na  Na2  1  0.56456596  0.35628588  0.06417011  1.0
  Na  Na3  1  0.43543404  0.85628588  0.43582989  1.0
  Na  Na4  1  1.01339926  0.60017188  0.23917603  1.0
  Na  Na5  1  -0.01339926  0.10017188  0.26082397  1.0
  Na  Na6  1  0.51339926  0.89982812  0.76082397  1.0
  Na  Na7  1  0.48660074  0.39982812  0.73917603  1.0
  Sb  Sb8  1  -0.00333968  0.57514289  0.88491369  1.0
  Sb  Sb9  1  1.00333968  0.07514289  0.61508631  1.0
  Sb  Sb10  1  0.49666032  0.92485711  0.11508631  1.0
  Sb  Sb11  1  0.50333968  0.42485711  0.38491369  1.0
  F  F12  1  0.67245362  0.64718515  0.80260060  1.0
  F  F13  1  0.32754638  0.14718515  0.69739940  1.0
  F  F14  1  0.17245362  0.85281485  0.19739940  1.0
  F  F15  1  0.82754638  0.35281485  0.30260060  1.0
  F  F16  1  0.81122373  0.36448970  0.87465941  1.0
  F  F17  1  0.18877627  0.86448970  0.62534059  1.0
  F  F18  1  0.31122373  0.13551030  0.12534059  1.0
  F  F19  1  0.68877627  0.63551030  0.37465941  1.0
  F  F20  1  0.85054505  0.55507175  0.05678940  1.0
  F  F21  1  0.14945495  0.05507175  0.44321060  1.0
  F  F22  1  0.35054505  0.94492825  0.94321060  1.0
  F  F23  1  0.64945495  0.44492825  0.55678940  1.0
  F  F24  1  0.10671016  0.50880190  0.71603212  1.0
  F  F25  1  0.89328984  0.00880190  0.78396788  1.0
  F  F26  1  0.60671016  0.99119810  0.28396788  1.0
  F  F27  1  0.39328984  0.49119810  0.21603212  1.0
  F  F28  1  0.26542634  0.39804930  0.92851915  1.0
  F  F29  1  0.73457366  0.89804930  0.57148085  1.0
  F  F30  1  0.76542634  0.10195070  0.07148085  1.0
  F  F31  1  0.23457366  0.60195070  0.42851915  1.0
