# generated using pymatgen
data_CdSiAs2
_symmetry_space_group_name_H-M   'P 1'
_cell_length_a   6.97188565
_cell_length_b   6.97188565
_cell_length_c   6.97188565
_cell_angle_alpha   129.24754801
_cell_angle_beta   129.24754801
_cell_angle_gamma   74.61258337
_symmetry_Int_Tables_number   1
_chemical_formula_structural   CdSiAs2
_chemical_formula_sum   'Cd2 Si2 As4'
_cell_volume   198.02678916
_cell_formula_units_Z   2
loop_
 _symmetry_equiv_pos_site_id
 _symmetry_equiv_pos_as_xyz
  1  'x, y, z'
loop_
 _atom_site_type_symbol
 _atom_site_label
 _atom_site_symmetry_multiplicity
 _atom_site_fract_x
 _atom_site_fract_y
 _atom_site_fract_z
 _atom_site_occupancy
  Cd  Cd0  1  0.25000000  0.75000000  0.50000000  1.0
  Cd  Cd1  1  0.50000000  0.50000000  0.00000000  1.0
  Si  Si2  1  0.75000000  0.25000000  0.50000000  1.0
  Si  Si3  1  1.00000000  1.00000000  1.00000000  1.0
  As  As4  1  1.08591758  1.12500000  1.46091758  1.0
  As  As5  1  1.37500000  0.91408242  1.03908242  1.0
  As  As6  1  0.87500000  1.33591758  0.96091758  1.0
  As  As7  1  0.66408242  0.62500000  0.53908242  1.0
