# generated using pymatgen
data_CuMoS4N
_symmetry_space_group_name_H-M   'P 1'
_cell_length_a   6.52466499
_cell_length_b   6.52466499
_cell_length_c   6.52466499
_cell_angle_alpha   100.07305792
_cell_angle_beta   100.07305792
_cell_angle_gamma   130.55611475
_symmetry_Int_Tables_number   1
_chemical_formula_structural   CuMoS4N
_chemical_formula_sum   'Cu1 Mo1 S4 N1'
_cell_volume   191.69413865
_cell_formula_units_Z   1
loop_
 _symmetry_equiv_pos_site_id
 _symmetry_equiv_pos_as_xyz
  1  'x, y, z'
loop_
 _atom_site_type_symbol
 _atom_site_label
 _atom_site_symmetry_multiplicity
 _atom_site_fract_x
 _atom_site_fract_y
 _atom_site_fract_z
 _atom_site_occupancy
  Cu  Cu0  1  0.50000000  0.50000000  -0.00000000  1.0
  Mo  Mo1  1  0.00000000  0.00000000  0.00000000  1.0
  S  S2  1  1.57297848  1.65913396  1.71162023  1.0
  S  S3  1  1.13864175  1.42702152  1.08615548  1.0
  S  S4  1  0.94751373  0.86135825  0.28837977  1.0
  S  S5  1  1.34086604  1.05248627  0.91384452  1.0
  N  N6  1  0.75000000  0.25000000  0.50000000  1.0
