# generated using pymatgen
data_Sn(PS3)2
_symmetry_space_group_name_H-M   'P 1'
_cell_length_a   8.20061469
_cell_length_b   8.20061469
_cell_length_c   8.20061469
_cell_angle_alpha   43.93225061
_cell_angle_beta   43.93225061
_cell_angle_gamma   43.93225061
_symmetry_Int_Tables_number   1
_chemical_formula_structural   Sn(PS3)2
_chemical_formula_sum   'Sn1 P2 S6'
_cell_volume   241.08569736
_cell_formula_units_Z   1
loop_
 _symmetry_equiv_pos_site_id
 _symmetry_equiv_pos_as_xyz
  1  'x, y, z'
loop_
 _atom_site_type_symbol
 _atom_site_label
 _atom_site_symmetry_multiplicity
 _atom_site_fract_x
 _atom_site_fract_y
 _atom_site_fract_z
 _atom_site_occupancy
  Sn  Sn0  1  0.60913685  0.60913685  -0.39086315  1.0
  P  P1  1  -0.00712837  -0.00712837  -0.00712837  1.0
  P  P2  1  0.89199832  -0.10800168  -0.10800168  1.0
  S  S3  1  0.70712624  -0.65330186  0.00154155  1.0
  S  S4  1  1.00154155  -0.29287376  -0.65330186  1.0
  S  S5  1  0.34669814  0.00154155  -0.29287376  1.0
  S  S6  1  0.55519261  0.84937450  -0.80513984  1.0
  S  S7  1  0.19486016  0.55519261  -0.15062550  1.0
  S  S8  1  0.84937450  0.19486016  -0.44480739  1.0
