# generated using pymatgen
data_Ni2PdSe2
_symmetry_space_group_name_H-M   'P 1'
_cell_length_a   8.01049467
_cell_length_b   8.01049467
_cell_length_c   8.01049467
_cell_angle_alpha   97.14455722
_cell_angle_beta   97.14455722
_cell_angle_gamma   138.69909489
_symmetry_Int_Tables_number   1
_chemical_formula_structural   Ni2PdSe2
_chemical_formula_sum   'Ni8 Pd4 Se8'
_cell_volume   317.46100380
_cell_formula_units_Z   4
loop_
 _symmetry_equiv_pos_site_id
 _symmetry_equiv_pos_as_xyz
  1  'x, y, z'
loop_
 _atom_site_type_symbol
 _atom_site_label
 _atom_site_symmetry_multiplicity
 _atom_site_fract_x
 _atom_site_fract_y
 _atom_site_fract_z
 _atom_site_occupancy
  Ni  Ni0  1  1.09615556  0.59615556  1.19231112  1.0
  Ni  Ni1  1  1.59615556  1.09615556  1.19231112  1.0
  Ni  Ni2  1  0.40384444  0.59615556  0.50000000  1.0
  Ni  Ni3  1  0.90384444  1.09615556  0.50000000  1.0
  Ni  Ni4  1  1.09615556  0.90384444  1.50000000  1.0
  Ni  Ni5  1  1.59615556  1.40384444  1.50000000  1.0
  Ni  Ni6  1  0.40384444  0.90384444  0.80768888  1.0
  Ni  Ni7  1  0.90384444  1.40384444  0.80768888  1.0
  Pd  Pd8  1  0.50000000  1.00000000  0.50000000  1.0
  Pd  Pd9  1  0.00000000  0.50000000  0.50000000  1.0
  Pd  Pd10  1  0.50000000  0.50000000  0.00000000  1.0
  Pd  Pd11  1  0.00000000  0.00000000  0.00000000  1.0
  Se  Se12  1  -0.00000000  0.75517243  0.75517243  1.0
  Se  Se13  1  0.75517243  1.00000000  0.75517243  1.0
  Se  Se14  1  1.24482757  1.00000000  1.24482757  1.0
  Se  Se15  1  -0.00000000  0.24482757  0.24482757  1.0
  Se  Se16  1  0.66919890  0.66919890  0.33839780  1.0
  Se  Se17  1  1.33080110  0.66919890  1.00000000  1.0
  Se  Se18  1  0.66919890  0.33080110  1.00000000  1.0
  Se  Se19  1  0.33080110  0.33080110  0.66160220  1.0
