# generated using pymatgen
data_CaIrO3
_symmetry_space_group_name_H-M   'P 1'
_cell_length_a   5.16943917
_cell_length_b   5.16943917
_cell_length_c   7.33163087
_cell_angle_alpha   90.00000000
_cell_angle_beta   90.00000000
_cell_angle_gamma   143.83992961
_symmetry_Int_Tables_number   1
_chemical_formula_structural   CaIrO3
_chemical_formula_sum   'Ca2 Ir2 O6'
_cell_volume   115.60356387
_cell_formula_units_Z   2
loop_
 _symmetry_equiv_pos_site_id
 _symmetry_equiv_pos_as_xyz
  1  'x, y, z'
loop_
 _atom_site_type_symbol
 _atom_site_label
 _atom_site_symmetry_multiplicity
 _atom_site_fract_x
 _atom_site_fract_y
 _atom_site_fract_z
 _atom_site_occupancy
  Ca  Ca0  1  -0.24917204  0.24917204  0.75000000  1.0
  Ca  Ca1  1  0.24917204  0.75082796  0.25000000  1.0
  Ir  Ir2  1  0.00000000  0.00000000  0.00000000  1.0
  Ir  Ir3  1  0.00000000  0.00000000  0.50000000  1.0
  O  O4  1  0.37422891  0.62577109  0.95076345  1.0
  O  O5  1  0.37422891  0.62577109  0.54923655  1.0
  O  O6  1  -0.37422891  0.37422891  0.45076345  1.0
  O  O7  1  -0.37422891  0.37422891  0.04923655  1.0
  O  O8  1  0.07685100  0.92314900  0.75000000  1.0
  O  O9  1  -0.07685100  0.07685100  0.25000000  1.0
