# generated using pymatgen
data_RbP4(WO4)8
_symmetry_space_group_name_H-M   'P 1'
_cell_length_a   9.48225450
_cell_length_b   9.48225450
_cell_length_c   10.36551554
_cell_angle_alpha   68.84871983
_cell_angle_beta   111.15128017
_cell_angle_gamma   132.48035507
_symmetry_Int_Tables_number   1
_chemical_formula_structural   RbP4(WO4)8
_chemical_formula_sum   'Rb1 P4 W8 O32'
_cell_volume   631.68277382
_cell_formula_units_Z   1
loop_
 _symmetry_equiv_pos_site_id
 _symmetry_equiv_pos_as_xyz
  1  'x, y, z'
loop_
 _atom_site_type_symbol
 _atom_site_label
 _atom_site_symmetry_multiplicity
 _atom_site_fract_x
 _atom_site_fract_y
 _atom_site_fract_z
 _atom_site_occupancy
  Rb  Rb0  1  0.50000000  0.50000000  -0.00000000  1.0
  P  P1  1  0.61829430  -0.02958850  0.88625020  1.0
  P  P2  1  1.02958850  0.38170570  0.88625020  1.0
  P  P3  1  0.97041150  0.61829430  0.11374980  1.0
  P  P4  1  0.38170570  0.02958850  0.11374980  1.0
  W  W5  1  0.61823511  -0.11977170  0.58980634  1.0
  W  W6  1  1.11977170  0.38176489  0.58980634  1.0
  W  W7  1  0.88022830  0.61823511  0.41019366  1.0
  W  W8  1  0.38176489  0.11977170  0.41019366  1.0
  W  W9  1  0.35671382  0.14139541  0.75555199  1.0
  W  W10  1  0.85860459  0.64328618  0.75555199  1.0
  W  W11  1  1.14139541  0.35671382  0.24444801  1.0
  W  W12  1  0.64328618  -0.14139541  0.24444801  1.0
  O  O13  1  0.73236975  -0.25334819  0.69013111  1.0
  O  O14  1  1.25334819  0.26763025  0.69013111  1.0
  O  O15  1  0.74665181  0.73236975  0.30986889  1.0
  O  O16  1  0.26763025  0.25334819  0.30986889  1.0
  O  O17  1  0.59791378  -0.13193404  0.78753652  1.0
  O  O18  1  1.13193404  0.40208622  0.78753652  1.0
  O  O19  1  0.86806596  0.59791378  0.21246348  1.0
  O  O20  1  0.40208622  0.13193404  0.21246348  1.0
  O  O21  1  0.45632704  -0.01664556  0.85011552  1.0
  O  O22  1  1.01664556  0.54367296  0.85011552  1.0
  O  O23  1  0.98335444  0.45632704  0.14988448  1.0
  O  O24  1  0.54367296  0.01664556  0.14988448  1.0
  O  O25  1  0.36388208  0.13261146  0.96293660  1.0
  O  O26  1  0.86738854  0.63611792  0.96293660  1.0
  O  O27  1  1.13261146  0.36388208  0.03706340  1.0
  O  O28  1  0.63611792  -0.13261146  0.03706340  1.0
  O  O29  1  0.36263269  0.13165316  0.58149062  1.0
  O  O30  1  0.86834684  0.63736731  0.58149062  1.0
  O  O31  1  1.13165316  0.36263269  0.41850938  1.0
  O  O32  1  0.63736731  -0.13165316  0.41850938  1.0
  O  O33  1  0.89322314  0.10677686  0.23804257  1.0
  O  O34  1  0.10677686  -0.10677686  0.76195743  1.0
  O  O35  1  0.87225727  0.12774273  0.60307672  1.0
  O  O36  1  0.12774273  -0.12774273  0.39692328  1.0
  O  O37  1  0.81134073  0.18865927  0.86756287  1.0
  O  O38  1  0.18865927  -0.18865927  0.13243713  1.0
  O  O39  1  0.63092408  0.36907592  0.40918854  1.0
  O  O40  1  0.36907592  -0.36907592  0.59081146  1.0
  O  O41  1  0.62081792  0.37918208  0.77115101  1.0
  O  O42  1  0.37918208  -0.37918208  0.22884899  1.0
  O  O43  1  0.50000000  0.00000000  0.50000000  1.0
  O  O44  1  1.00000000  0.50000000  0.50000000  1.0
