# generated using pymatgen
data_Rb3Ca2Cl7
_symmetry_space_group_name_H-M   'P 1'
_cell_length_a   14.21319853
_cell_length_b   14.21319853
_cell_length_c   14.21319853
_cell_angle_alpha   158.05706650
_cell_angle_beta   158.05706650
_cell_angle_gamma   31.22777874
_symmetry_Int_Tables_number   1
_chemical_formula_structural   Rb3Ca2Cl7
_chemical_formula_sum   'Rb3 Ca2 Cl7'
_cell_volume   400.65914649
_cell_formula_units_Z   1
loop_
 _symmetry_equiv_pos_site_id
 _symmetry_equiv_pos_as_xyz
  1  'x, y, z'
loop_
 _atom_site_type_symbol
 _atom_site_label
 _atom_site_symmetry_multiplicity
 _atom_site_fract_x
 _atom_site_fract_y
 _atom_site_fract_z
 _atom_site_occupancy
  Rb  Rb0  1  0.68298353  0.68298353  1.00000000  1.0
  Rb  Rb1  1  0.31701647  0.31701647  0.00000000  1.0
  Rb  Rb2  1  0.50000000  0.50000000  1.00000000  1.0
  Ca  Ca3  1  0.89988781  0.89988781  1.00000000  1.0
  Ca  Ca4  1  0.10011219  0.10011219  0.00000000  1.0
  Cl  Cl5  1  0.40286926  0.90286926  0.50000000  1.0
  Cl  Cl6  1  0.59713074  0.09713074  0.50000000  1.0
  Cl  Cl7  1  0.90286926  0.40286926  0.50000000  1.0
  Cl  Cl8  1  0.09713074  0.59713074  0.50000000  1.0
  Cl  Cl9  1  0.80157316  0.80157316  1.00000000  1.0
  Cl  Cl10  1  0.19842684  0.19842684  0.00000000  1.0
  Cl  Cl11  1  0.00000000  0.00000000  0.00000000  1.0
