# generated using pymatgen
data_CaIn2O4
_symmetry_space_group_name_H-M   'P 1'
_cell_length_a   3.24534424
_cell_length_b   10.71345243
_cell_length_c   10.56289599
_cell_angle_alpha   90.00000000
_cell_angle_beta   90.00000000
_cell_angle_gamma   90.00000000
_symmetry_Int_Tables_number   1
_chemical_formula_structural   CaIn2O4
_chemical_formula_sum   'Ca4 In8 O16'
_cell_volume   367.25965180
_cell_formula_units_Z   4
loop_
 _symmetry_equiv_pos_site_id
 _symmetry_equiv_pos_as_xyz
  1  'x, y, z'
loop_
 _atom_site_type_symbol
 _atom_site_label
 _atom_site_symmetry_multiplicity
 _atom_site_fract_x
 _atom_site_fract_y
 _atom_site_fract_z
 _atom_site_occupancy
  Ca  Ca0  1  0.24999626  0.36049121  0.25000000  1.0
  Ca  Ca1  1  0.24999626  0.13950879  0.75000000  1.0
  Ca  Ca2  1  0.75000374  0.86049121  0.25000000  1.0
  Ca  Ca3  1  0.75000374  0.63950879  0.75000000  1.0
  In  In4  1  0.75004053  0.11557231  0.42743116  1.0
  In  In5  1  0.75004053  0.11557231  0.07256884  1.0
  In  In6  1  0.75004053  0.38442769  0.92743116  1.0
  In  In7  1  0.75004053  0.38442769  0.57256884  1.0
  In  In8  1  0.24995947  0.61557231  0.42743116  1.0
  In  In9  1  0.24995947  0.61557231  0.07256884  1.0
  In  In10  1  0.24995947  0.88442769  0.92743116  1.0
  In  In11  1  0.24995947  0.88442769  0.57256884  1.0
  O  O12  1  0.74999985  0.20808840  0.25000000  1.0
  O  O13  1  0.74999985  0.29191160  0.75000000  1.0
  O  O14  1  0.25000015  0.70808840  0.25000000  1.0
  O  O15  1  0.25000015  0.79191160  0.75000000  1.0
  O  O16  1  0.74997723  0.47678215  0.38703605  1.0
  O  O17  1  0.74997723  0.47678215  0.11296395  1.0
  O  O18  1  0.74997723  0.02321785  0.88703605  1.0
  O  O19  1  0.74997723  0.02321785  0.61296395  1.0
  O  O20  1  0.25002277  0.97678215  0.38703605  1.0
  O  O21  1  0.25002277  0.97678215  0.11296395  1.0
  O  O22  1  0.25002277  0.52321785  0.88703605  1.0
  O  O23  1  0.25002277  0.52321785  0.61296395  1.0
  O  O24  1  0.25003728  0.25000000  0.50000000  1.0
  O  O25  1  0.25003728  0.25000000  -0.00000000  1.0
  O  O26  1  0.74996272  0.75000000  0.50000000  1.0
  O  O27  1  0.74996272  0.75000000  0.00000000  1.0
