# generated using pymatgen
data_Cs3Bi2Br9
_symmetry_space_group_name_H-M   'P 1'
_cell_length_a   8.19513785
_cell_length_b   8.19513785
_cell_length_c   20.17258865
_cell_angle_alpha   89.95741679
_cell_angle_beta   90.04258321
_cell_angle_gamma   120.01234006
_symmetry_Int_Tables_number   1
_chemical_formula_structural   Cs3Bi2Br9
_chemical_formula_sum   'Cs6 Bi4 Br18'
_cell_volume   1173.14208471
_cell_formula_units_Z   2
loop_
 _symmetry_equiv_pos_site_id
 _symmetry_equiv_pos_as_xyz
  1  'x, y, z'
loop_
 _atom_site_type_symbol
 _atom_site_label
 _atom_site_symmetry_multiplicity
 _atom_site_fract_x
 _atom_site_fract_y
 _atom_site_fract_z
 _atom_site_occupancy
  Cs  Cs0  1  0.83215428  0.16578355  0.83019178  1.0
  Cs  Cs1  1  0.83421645  0.16784572  0.33019178  1.0
  Cs  Cs2  1  1.16578355  0.83215428  0.66980822  1.0
  Cs  Cs3  1  0.16784572  -0.16578355  0.16980822  1.0
  Cs  Cs4  1  0.50000000  0.50000000  -0.00000000  1.0
  Cs  Cs5  1  0.50000000  0.50000000  0.50000000  1.0
  Bi  Bi6  1  0.16633979  -0.16669638  0.90715676  1.0
  Bi  Bi7  1  1.16669638  0.83366021  0.40715676  1.0
  Bi  Bi8  1  0.83330362  0.16633979  0.59284324  1.0
  Bi  Bi9  1  0.83366021  0.16669638  0.09284324  1.0
  Br  Br10  1  0.66966367  -0.16048410  0.66717487  1.0
  Br  Br11  1  1.16048410  0.33033633  0.16717487  1.0
  Br  Br12  1  0.83951590  0.66966367  0.83282513  1.0
  Br  Br13  1  0.33033633  0.16048410  0.33282513  1.0
  Br  Br14  1  0.67016215  0.32950827  0.66728493  1.0
  Br  Br15  1  0.67049173  0.32983785  0.16728493  1.0
  Br  Br16  1  1.32950827  0.67016215  0.83271507  1.0
  Br  Br17  1  0.32983785  -0.32950827  0.33271507  1.0
  Br  Br18  1  0.32914508  0.15968589  0.83262143  1.0
  Br  Br19  1  0.84031411  0.67085492  0.33262143  1.0
  Br  Br20  1  1.15968589  0.32914508  0.66737857  1.0
  Br  Br21  1  0.67085492  -0.15968589  0.16737857  1.0
  Br  Br22  1  0.50000000  0.00000000  0.50000000  1.0
  Br  Br23  1  1.00000000  0.50000000  -0.00000000  1.0
  Br  Br24  1  0.50000000  0.00000000  -0.00000000  1.0
  Br  Br25  1  1.00000000  0.50000000  0.50000000  1.0
  Br  Br26  1  -0.00000000  -0.00000000  -0.00000000  1.0
  Br  Br27  1  0.00000000  -0.00000000  0.50000000  1.0
