# generated using pymatgen
data_RbGeI3
_symmetry_space_group_name_H-M   'P 1'
_cell_length_a   8.84412642
_cell_length_b   8.26237242
_cell_length_c   12.09719701
_cell_angle_alpha   90.00000000
_cell_angle_beta   90.00000000
_cell_angle_gamma   90.00000000
_symmetry_Int_Tables_number   1
_chemical_formula_structural   RbGeI3
_chemical_formula_sum   'Rb4 Ge4 I12'
_cell_volume   883.98411754
_cell_formula_units_Z   4
loop_
 _symmetry_equiv_pos_site_id
 _symmetry_equiv_pos_as_xyz
  1  'x, y, z'
loop_
 _atom_site_type_symbol
 _atom_site_label
 _atom_site_symmetry_multiplicity
 _atom_site_fract_x
 _atom_site_fract_y
 _atom_site_fract_z
 _atom_site_occupancy
  Rb  Rb0  1  0.41523525  0.96751895  0.24732029  1.0
  Rb  Rb1  1  0.91523525  0.53248105  0.24732029  1.0
  Rb  Rb2  1  0.58476475  0.03248105  0.74732029  1.0
  Rb  Rb3  1  0.08476475  0.46751895  0.74732029  1.0
  Ge  Ge4  1  0.53452072  0.52026493  -0.02533303  1.0
  Ge  Ge5  1  1.03452072  0.97973507  -0.02533303  1.0
  Ge  Ge6  1  0.46547928  0.47973507  0.47466697  1.0
  Ge  Ge7  1  -0.03452072  0.02026493  0.47466697  1.0
  I  I8  1  0.50250512  0.58203292  0.74956829  1.0
  I  I9  1  1.00250512  0.91796708  0.74956829  1.0
  I  I10  1  0.49749488  0.41796708  0.24956829  1.0
  I  I11  1  -0.00250512  0.08203292  0.24956829  1.0
  I  I12  1  0.21080573  0.68219773  0.45713043  1.0
  I  I13  1  0.71080573  0.81780227  0.45713043  1.0
  I  I14  1  0.78919427  0.31780227  0.95713043  1.0
  I  I15  1  0.28919427  0.18219773  0.95713043  1.0
  I  I16  1  0.19071233  0.69889166  0.03131403  1.0
  I  I17  1  0.69071233  0.80110834  0.03131403  1.0
  I  I18  1  0.80928767  0.30110834  0.53131403  1.0
  I  I19  1  0.30928767  0.19889166  0.53131403  1.0
