# generated using pymatgen
data_CsHC2
_symmetry_space_group_name_H-M   'P 1'
_cell_length_a   9.15764410
_cell_length_b   9.15764410
_cell_length_c   9.15764410
_cell_angle_alpha   109.19393640
_cell_angle_beta   109.19393640
_cell_angle_gamma   109.19393640
_symmetry_Int_Tables_number   1
_chemical_formula_structural   CsHC2
_chemical_formula_sum   'Cs6 H6 C12'
_cell_volume   597.18532742
_cell_formula_units_Z   6
loop_
 _symmetry_equiv_pos_site_id
 _symmetry_equiv_pos_as_xyz
  1  'x, y, z'
loop_
 _atom_site_type_symbol
 _atom_site_label
 _atom_site_symmetry_multiplicity
 _atom_site_fract_x
 _atom_site_fract_y
 _atom_site_fract_z
 _atom_site_occupancy
  Cs  Cs0  1  0.74110727  0.61730781  0.26323410  1.0
  Cs  Cs1  1  0.61730781  1.26323410  -0.25889273  1.0
  Cs  Cs2  1  1.26323410  0.74110727  -0.38269219  1.0
  Cs  Cs3  1  1.24110727  -0.23676590  0.11730781  1.0
  Cs  Cs4  1  0.76323410  0.11730781  0.24110727  1.0
  Cs  Cs5  1  1.11730781  0.24110727  -0.23676590  1.0
  H  H6  1  1.18711799  0.20657587  -0.64331056  1.0
  H  H7  1  1.20657587  -0.64331056  0.18711799  1.0
  H  H8  1  0.35668944  0.18711799  0.20657587  1.0
  H  H9  1  1.68711799  -0.14331056  0.70657587  1.0
  H  H10  1  0.85668944  0.70657587  0.68711799  1.0
  H  H11  1  1.70657587  0.68711799  -0.14331056  1.0
  C  C12  1  1.16798037  0.10000857  -0.61271395  1.0
  C  C13  1  1.10000857  -0.61271395  0.16798037  1.0
  C  C14  1  0.38728605  0.16798037  0.10000857  1.0
  C  C15  1  1.66798037  -0.11271395  0.60000857  1.0
  C  C16  1  0.88728605  0.60000857  0.66798037  1.0
  C  C17  1  1.60000857  0.66798037  -0.11271395  1.0
  C  C18  1  1.14405841  -0.02232426  0.42395837  1.0
  C  C19  1  0.97767574  0.42395837  0.14405841  1.0
  C  C20  1  1.42395837  0.14405841  -0.02232426  1.0
  C  C21  1  1.64405841  -0.07604163  0.47767574  1.0
  C  C22  1  0.92395837  0.47767574  0.64405841  1.0
  C  C23  1  1.47767574  0.64405841  -0.07604163  1.0
