# generated using pymatgen
data_Sn7Rh3
_symmetry_space_group_name_H-M   'P 1'
_cell_length_a   8.23538694
_cell_length_b   8.23538694
_cell_length_c   8.23538694
_cell_angle_alpha   109.47122063
_cell_angle_beta   109.47122063
_cell_angle_gamma   109.47122063
_symmetry_Int_Tables_number   1
_chemical_formula_structural   Sn7Rh3
_chemical_formula_sum   'Sn14 Rh6'
_cell_volume   429.96206287
_cell_formula_units_Z   2
loop_
 _symmetry_equiv_pos_site_id
 _symmetry_equiv_pos_as_xyz
  1  'x, y, z'
loop_
 _atom_site_type_symbol
 _atom_site_label
 _atom_site_symmetry_multiplicity
 _atom_site_fract_x
 _atom_site_fract_y
 _atom_site_fract_z
 _atom_site_occupancy
  Sn  Sn0  1  0.67216021  0.67216021  0.67216021  1.0
  Sn  Sn1  1  1.00000000  1.00000000  0.67216021  1.0
  Sn  Sn2  1  1.00000000  1.67216021  1.00000000  1.0
  Sn  Sn3  1  1.32783979  1.00000000  1.00000000  1.0
  Sn  Sn4  1  1.67216021  1.00000000  1.00000000  1.0
  Sn  Sn5  1  1.00000000  1.32783979  1.00000000  1.0
  Sn  Sn6  1  1.00000000  1.00000000  0.32783979  1.0
  Sn  Sn7  1  0.32783979  0.32783979  0.32783979  1.0
  Sn  Sn8  1  0.50000000  0.25000000  0.75000000  1.0
  Sn  Sn9  1  0.50000000  0.75000000  0.25000000  1.0
  Sn  Sn10  1  0.25000000  0.50000000  0.75000000  1.0
  Sn  Sn11  1  1.25000000  0.75000000  0.50000000  1.0
  Sn  Sn12  1  0.75000000  1.25000000  0.50000000  1.0
  Sn  Sn13  1  0.75000000  0.50000000  0.25000000  1.0
  Rh  Rh14  1  0.00000000  0.65645382  0.65645382  1.0
  Rh  Rh15  1  0.65645382  0.00000000  0.65645382  1.0
  Rh  Rh16  1  0.65645382  0.65645382  -0.00000000  1.0
  Rh  Rh17  1  0.34354618  0.34354618  -0.00000000  1.0
  Rh  Rh18  1  0.34354618  0.00000000  0.34354618  1.0
  Rh  Rh19  1  0.00000000  0.34354618  0.34354618  1.0
