# generated using pymatgen
data_CaMn(SiO3)2
_symmetry_space_group_name_H-M   'P 1'
_cell_length_a   8.02627908
_cell_length_b   7.74988705
_cell_length_c   7.29620456
_cell_angle_alpha   63.34297454
_cell_angle_beta   73.87465400
_cell_angle_gamma   78.27078601
_symmetry_Int_Tables_number   1
_chemical_formula_structural   CaMn(SiO3)2
_chemical_formula_sum   'Ca3 Mn3 Si6 O18'
_cell_volume   388.00655107
_cell_formula_units_Z   3
loop_
 _symmetry_equiv_pos_site_id
 _symmetry_equiv_pos_as_xyz
  1  'x, y, z'
loop_
 _atom_site_type_symbol
 _atom_site_label
 _atom_site_symmetry_multiplicity
 _atom_site_fract_x
 _atom_site_fract_y
 _atom_site_fract_z
 _atom_site_occupancy
  Ca  Ca0  1  0.70473310  0.74603993  0.92367979  1.0
  Ca  Ca1  1  0.29526690  0.25396007  0.07632021  1.0
  Ca  Ca2  1  0.00000000  0.00000000  0.00000000  1.0
  Mn  Mn3  1  0.32158705  0.22945376  0.58339682  1.0
  Mn  Mn4  1  0.67841295  0.77054624  0.41660318  1.0
  Mn  Mn5  1  0.00000000  -0.00000000  0.50000000  1.0
  Si  Si6  1  0.67810074  0.23478080  0.75228456  1.0
  Si  Si7  1  0.32189926  0.76521920  0.24771544  1.0
  Si  Si8  1  0.87912333  0.45696369  0.30335884  1.0
  Si  Si9  1  0.12087667  0.54303631  0.69664116  1.0
  Si  Si10  1  0.66693106  0.23508180  0.19574951  1.0
  Si  Si11  1  0.33306894  0.76491820  0.80425049  1.0
  O  O12  1  0.48009257  0.20065101  0.77510390  1.0
  O  O13  1  0.51990743  0.79934899  0.22489610  1.0
  O  O14  1  0.75068648  0.42761154  0.53799373  1.0
  O  O15  1  0.24931352  0.57238846  0.46200627  1.0
  O  O16  1  0.89386304  0.68954073  0.18388595  1.0
  O  O17  1  0.10613696  0.31045927  0.81611405  1.0
  O  O18  1  0.81719685  0.04578433  0.76410767  1.0
  O  O19  1  0.18280315  0.95421567  0.23589233  1.0
  O  O20  1  0.75014577  0.42279318  0.17777159  1.0
  O  O21  1  0.24985423  0.57720682  0.82222841  1.0
  O  O22  1  0.46189737  0.23273081  0.30438538  1.0
  O  O23  1  0.53810263  0.76726919  0.69561462  1.0
  O  O24  1  0.95313539  0.70045117  0.67756602  1.0
  O  O25  1  0.04686461  0.29954883  0.32243398  1.0
  O  O26  1  0.79241297  0.03757847  0.29557985  1.0
  O  O27  1  0.20758703  0.96242153  0.70442015  1.0
  O  O28  1  0.67970918  0.28704945  0.94716690  1.0
  O  O29  1  0.32029082  0.71295055  0.05283310  1.0
