# generated using pymatgen
data_Zr3Ge
_symmetry_space_group_name_H-M   'P 1'
_cell_length_a   11.11491921
_cell_length_b   11.11491921
_cell_length_c   5.47195196
_cell_angle_alpha   90.00000000
_cell_angle_beta   90.00000000
_cell_angle_gamma   90.00000000
_symmetry_Int_Tables_number   1
_chemical_formula_structural   Zr3Ge
_chemical_formula_sum   'Zr24 Ge8'
_cell_volume   676.01276561
_cell_formula_units_Z   8
loop_
 _symmetry_equiv_pos_site_id
 _symmetry_equiv_pos_as_xyz
  1  'x, y, z'
loop_
 _atom_site_type_symbol
 _atom_site_label
 _atom_site_symmetry_multiplicity
 _atom_site_fract_x
 _atom_site_fract_y
 _atom_site_fract_z
 _atom_site_occupancy
  Zr  Zr0  1  0.60601504  0.91812756  0.53232061  1.0
  Zr  Zr1  1  0.39398496  0.08187244  0.53232061  1.0
  Zr  Zr2  1  0.41812756  0.89398496  0.03232061  1.0
  Zr  Zr3  1  0.58187244  0.10601504  0.03232061  1.0
  Zr  Zr4  1  0.89398496  0.58187244  0.96767939  1.0
  Zr  Zr5  1  0.10601504  0.41812756  0.96767939  1.0
  Zr  Zr6  1  0.08187244  0.60601504  0.46767939  1.0
  Zr  Zr7  1  0.91812756  0.39398496  0.46767939  1.0
  Zr  Zr8  1  0.97379898  0.86030482  0.72147603  1.0
  Zr  Zr9  1  0.02620102  0.13969518  0.72147603  1.0
  Zr  Zr10  1  0.36030482  0.52620102  0.22147603  1.0
  Zr  Zr11  1  0.63969518  0.47379898  0.22147603  1.0
  Zr  Zr12  1  0.52620102  0.63969518  0.77852397  1.0
  Zr  Zr13  1  0.47379898  0.36030482  0.77852397  1.0
  Zr  Zr14  1  0.13969518  0.97379898  0.27852397  1.0
  Zr  Zr15  1  0.86030482  0.02620102  0.27852397  1.0
  Zr  Zr16  1  0.71584685  0.81977848  0.00662832  1.0
  Zr  Zr17  1  0.28415315  0.18022152  0.00662832  1.0
  Zr  Zr18  1  0.31977848  0.78415315  0.50662832  1.0
  Zr  Zr19  1  0.68022152  0.21584685  0.50662832  1.0
  Zr  Zr20  1  0.78415315  0.68022152  0.49337168  1.0
  Zr  Zr21  1  0.21584685  0.31977848  0.49337168  1.0
  Zr  Zr22  1  0.18022152  0.71584685  0.99337168  1.0
  Zr  Zr23  1  0.81977848  0.28415315  0.99337168  1.0
  Ge  Ge24  1  0.95888096  0.79520563  0.21364976  1.0
  Ge  Ge25  1  0.04111904  0.20479437  0.21364976  1.0
  Ge  Ge26  1  0.29520563  0.54111904  0.71364976  1.0
  Ge  Ge27  1  0.70479437  0.45888096  0.71364976  1.0
  Ge  Ge28  1  0.54111904  0.70479437  0.28635024  1.0
  Ge  Ge29  1  0.45888096  0.29520563  0.28635024  1.0
  Ge  Ge30  1  0.20479437  0.95888096  0.78635024  1.0
  Ge  Ge31  1  0.79520563  0.04111904  0.78635024  1.0
