# generated using pymatgen
data_Al2O3
_symmetry_space_group_name_H-M   'P 1'
_cell_length_a   6.53203178
_cell_length_b   6.53203178
_cell_length_c   6.53203178
_cell_angle_alpha   60.00000000
_cell_angle_beta   60.00000000
_cell_angle_gamma   60.00000000
_symmetry_Int_Tables_number   1
_chemical_formula_structural   Al2O3
_chemical_formula_sum   'Al8 O12'
_cell_volume   197.07424402
_cell_formula_units_Z   4
loop_
 _symmetry_equiv_pos_site_id
 _symmetry_equiv_pos_as_xyz
  1  'x, y, z'
loop_
 _atom_site_type_symbol
 _atom_site_label
 _atom_site_symmetry_multiplicity
 _atom_site_fract_x
 _atom_site_fract_y
 _atom_site_fract_z
 _atom_site_occupancy
  Al  Al0  1  0.62500000  1.12500000  0.12500000  1.0
  Al  Al1  1  0.12500000  1.62500000  0.12500000  1.0
  Al  Al2  1  0.12500000  0.12500000  1.62500000  1.0
  Al  Al3  1  0.12500000  0.12500000  0.12500000  1.0
  Al  Al4  1  1.12500000  0.62500000  0.62500000  1.0
  Al  Al5  1  0.62500000  1.12500000  -0.37500000  1.0
  Al  Al6  1  -0.37500000  0.62500000  1.12500000  1.0
  Al  Al7  1  -0.37500000  0.62500000  0.62500000  1.0
  O  O8  1  0.24998569  1.24998569  -0.24998569  1.0
  O  O9  1  0.75001431  -0.24998569  0.24998569  1.0
  O  O10  1  0.24998569  -0.24998569  0.24998569  1.0
  O  O11  1  -0.24998569  0.24998569  0.75001431  1.0
  O  O12  1  -0.24998569  0.24998569  1.24998569  1.0
  O  O13  1  -0.75001431  0.75001431  0.75001431  1.0
  O  O14  1  1.00001431  1.00001431  0.49998569  1.0
  O  O15  1  -0.50001431  0.49998569  1.00001431  1.0
  O  O16  1  1.00001431  0.49998569  1.00001431  1.0
  O  O17  1  0.49998569  1.00001431  -0.50001431  1.0
  O  O18  1  0.49998569  1.00001431  0.00001431  1.0
  O  O19  1  1.00001431  0.49998569  0.49998569  1.0
