# generated using pymatgen
data_Co2(SnSe)3
_symmetry_space_group_name_H-M   'P 1'
_cell_length_a   8.79200125
_cell_length_b   8.79200125
_cell_length_c   8.79200125
_cell_angle_alpha   90.12250082
_cell_angle_beta   90.12250082
_cell_angle_gamma   90.12250082
_symmetry_Int_Tables_number   1
_chemical_formula_structural   Co2(SnSe)3
_chemical_formula_sum   'Co8 Sn12 Se12'
_cell_volume   679.61075300
_cell_formula_units_Z   4
loop_
 _symmetry_equiv_pos_site_id
 _symmetry_equiv_pos_as_xyz
  1  'x, y, z'
loop_
 _atom_site_type_symbol
 _atom_site_label
 _atom_site_symmetry_multiplicity
 _atom_site_fract_x
 _atom_site_fract_y
 _atom_site_fract_z
 _atom_site_occupancy
  Co  Co0  1  0.76232675  -0.24463550  0.25873172  1.0
  Co  Co1  1  0.24463550  0.74126828  -0.76232675  1.0
  Co  Co2  1  0.74126828  0.23767325  -0.75536450  1.0
  Co  Co3  1  0.23767325  0.24463550  -0.25873172  1.0
  Co  Co4  1  0.75536450  0.25873172  -0.23767325  1.0
  Co  Co5  1  1.25873172  -0.23767325  -0.24463550  1.0
  Co  Co6  1  0.74138715  0.74138715  -0.25861285  1.0
  Co  Co7  1  1.25861285  1.25861285  0.25861285  1.0
  Sn  Sn8  1  0.65713708  0.49985866  -0.82767757  1.0
  Sn  Sn9  1  0.50014134  0.82767757  -0.65713708  1.0
  Sn  Sn10  1  0.82767757  0.34286292  -0.49985866  1.0
  Sn  Sn11  1  0.34286292  0.50014134  -0.17232243  1.0
  Sn  Sn12  1  0.49985866  0.17232243  -0.34286292  1.0
  Sn  Sn13  1  0.17232243  0.65713708  -0.50014134  1.0
  Sn  Sn14  1  0.67313826  0.84323487  0.00082809  1.0
  Sn  Sn15  1  1.15676513  0.99917191  0.32686174  1.0
  Sn  Sn16  1  0.99917191  1.32686174  0.15676513  1.0
  Sn  Sn17  1  1.32686174  1.15676513  -0.00082809  1.0
  Sn  Sn18  1  0.84323487  1.00082809  -0.32686174  1.0
  Sn  Sn19  1  1.00082809  0.67313826  -0.15676513  1.0
  Se  Se20  1  0.65571379  0.50232994  -0.16073154  1.0
  Se  Se21  1  0.49767006  0.16073154  -0.65571379  1.0
  Se  Se22  1  0.16073154  0.34428621  -0.50232994  1.0
  Se  Se23  1  0.34428621  0.49767006  -0.83926846  1.0
  Se  Se24  1  0.50232994  0.83926846  -0.34428621  1.0
  Se  Se25  1  0.83926846  0.65571379  -0.49767006  1.0
  Se  Se26  1  0.66069787  0.15590966  -0.00153335  1.0
  Se  Se27  1  0.84409034  0.00153335  -0.66069787  1.0
  Se  Se28  1  1.00153335  -0.66069787  -0.15590966  1.0
  Se  Se29  1  0.33930213  -0.15590966  0.00153335  1.0
  Se  Se30  1  1.15590966  -0.00153335  -0.33930213  1.0
  Se  Se31  1  0.99846665  -0.33930213  0.15590966  1.0
