# generated using pymatgen
data_CoSbS
_symmetry_space_group_name_H-M   'P 1'
_cell_length_a   5.86674087
_cell_length_b   5.94213409
_cell_length_c   11.70250876
_cell_angle_alpha   90.00000000
_cell_angle_beta   90.00000000
_cell_angle_gamma   90.00000000
_symmetry_Int_Tables_number   1
_chemical_formula_structural   CoSbS
_chemical_formula_sum   'Co8 Sb8 S8'
_cell_volume   407.96070023
_cell_formula_units_Z   8
loop_
 _symmetry_equiv_pos_site_id
 _symmetry_equiv_pos_as_xyz
  1  'x, y, z'
loop_
 _atom_site_type_symbol
 _atom_site_label
 _atom_site_symmetry_multiplicity
 _atom_site_fract_x
 _atom_site_fract_y
 _atom_site_fract_z
 _atom_site_occupancy
  Co  Co0  1  0.51820486  0.82113766  0.35825261  1.0
  Co  Co1  1  0.01820486  0.67886234  0.64174739  1.0
  Co  Co2  1  0.48179514  0.32113766  0.14174739  1.0
  Co  Co3  1  0.98179514  0.17886234  0.85825261  1.0
  Co  Co4  1  0.48179514  0.17886234  0.64174739  1.0
  Co  Co5  1  0.98179514  0.32113766  0.35825261  1.0
  Co  Co6  1  0.51820486  0.67886234  0.85825261  1.0
  Co  Co7  1  0.01820486  0.82113766  0.14174739  1.0
  Sb  Sb8  1  0.36850682  0.19291071  0.43066528  1.0
  Sb  Sb9  1  0.86850682  0.30708929  0.56933472  1.0
  Sb  Sb10  1  0.63149318  0.69291071  0.06933472  1.0
  Sb  Sb11  1  0.13149318  0.80708929  0.93066528  1.0
  Sb  Sb12  1  0.63149318  0.80708929  0.56933472  1.0
  Sb  Sb13  1  0.13149318  0.69291071  0.43066528  1.0
  Sb  Sb14  1  0.36850682  0.30708929  0.93066528  1.0
  Sb  Sb15  1  0.86850682  0.19291071  0.06933472  1.0
  S  S16  1  0.62606464  0.44818741  0.31338936  1.0
  S  S17  1  0.12606464  0.05181259  0.68661064  1.0
  S  S18  1  0.37393536  0.94818741  0.18661064  1.0
  S  S19  1  0.87393536  0.55181259  0.81338936  1.0
  S  S20  1  0.37393536  0.55181259  0.68661064  1.0
  S  S21  1  0.87393536  0.94818741  0.31338936  1.0
  S  S22  1  0.62606464  0.05181259  0.81338936  1.0
  S  S23  1  0.12606464  0.44818741  0.18661064  1.0
