# generated using pymatgen
data_SiO2
_symmetry_space_group_name_H-M   'P 1'
_cell_length_a   9.60800995
_cell_length_b   9.60800995
_cell_length_c   9.60800995
_cell_angle_alpha   117.33542772
_cell_angle_beta   117.33542772
_cell_angle_gamma   117.33542772
_symmetry_Int_Tables_number   1
_chemical_formula_structural   SiO2
_chemical_formula_sum   'Si6 O12'
_cell_volume   369.71377363
_cell_formula_units_Z   6
loop_
 _symmetry_equiv_pos_site_id
 _symmetry_equiv_pos_as_xyz
  1  'x, y, z'
loop_
 _atom_site_type_symbol
 _atom_site_label
 _atom_site_symmetry_multiplicity
 _atom_site_fract_x
 _atom_site_fract_y
 _atom_site_fract_z
 _atom_site_occupancy
  Si  Si0  1  0.25000000  0.68257972  -0.18257972  1.0
  Si  Si1  1  0.68257972  0.81742028  0.25000000  1.0
  Si  Si2  1  1.81742028  0.25000000  0.68257972  1.0
  Si  Si3  1  0.75000000  0.31742028  0.18257972  1.0
  Si  Si4  1  0.31742028  0.18257972  -0.25000000  1.0
  Si  Si5  1  1.18257972  0.75000000  0.31742028  1.0
  O  O6  1  1.00000000  -0.50000000  -0.00000000  1.0
  O  O7  1  0.50000000  1.00000000  -0.00000000  1.0
  O  O8  1  1.00000000  1.00000000  0.50000000  1.0
  O  O9  1  0.50000000  0.50000000  -0.00000000  1.0
  O  O10  1  0.50000000  0.00000000  -0.50000000  1.0
  O  O11  1  1.00000000  0.50000000  0.50000000  1.0
  O  O12  1  1.01006514  -0.51006514  -0.25000000  1.0
  O  O13  1  0.48993486  0.75000000  0.01006514  1.0
  O  O14  1  0.75000000  1.01006514  0.48993486  1.0
  O  O15  1  0.51006514  0.25000000  -0.01006514  1.0
  O  O16  1  1.25000000  0.98993486  0.51006514  1.0
  O  O17  1  0.98993486  0.51006514  0.25000000  1.0
