# generated using pymatgen
data_Y7FeI12
_symmetry_space_group_name_H-M   'P 1'
_cell_length_a   9.73419030
_cell_length_b   9.73419030
_cell_length_c   9.73419030
_cell_angle_alpha   106.92663547
_cell_angle_beta   106.92663547
_cell_angle_gamma   106.92663547
_symmetry_Int_Tables_number   1
_chemical_formula_structural   Y7FeI12
_chemical_formula_sum   'Y7 Fe1 I12'
_cell_volume   769.68065423
_cell_formula_units_Z   1
loop_
 _symmetry_equiv_pos_site_id
 _symmetry_equiv_pos_as_xyz
  1  'x, y, z'
loop_
 _atom_site_type_symbol
 _atom_site_label
 _atom_site_symmetry_multiplicity
 _atom_site_fract_x
 _atom_site_fract_y
 _atom_site_fract_z
 _atom_site_occupancy
  Y  Y0  1  1.71082220  0.90743916  -0.02204425  1.0
  Y  Y1  1  1.09256084  0.02204425  -0.71082220  1.0
  Y  Y2  1  1.02204425  -0.71082220  0.09256084  1.0
  Y  Y3  1  0.28917780  0.09256084  0.02204425  1.0
  Y  Y4  1  0.90743916  0.97795575  0.71082220  1.0
  Y  Y5  1  0.97795575  1.71082220  -0.09256084  1.0
  Y  Y6  1  0.50000000  0.50000000  0.50000000  1.0
  Fe  Fe7  1  0.00000000  0.00000000  0.00000000  1.0
  I  I8  1  1.61445805  0.53684916  -0.16015968  1.0
  I  I9  1  0.46315084  1.16015968  -0.61445805  1.0
  I  I10  1  1.16015968  0.38554195  -0.53684916  1.0
  I  I11  1  0.38554195  0.46315084  0.16015968  1.0
  I  I12  1  1.53684916  -0.16015968  0.61445805  1.0
  I  I13  1  0.83984032  0.61445805  0.53684916  1.0
  I  I14  1  0.67746810  0.22430236  0.07114673  1.0
  I  I15  1  0.77569764  0.92885327  0.32253190  1.0
  I  I16  1  0.92885327  1.32253190  -0.22430236  1.0
  I  I17  1  1.32253190  0.77569764  -0.07114673  1.0
  I  I18  1  1.22430236  0.07114673  -0.32253190  1.0
  I  I19  1  1.07114673  -0.32253190  0.22430236  1.0
