# generated using pymatgen
data_Nb2Te3O11
_symmetry_space_group_name_H-M   'P 1'
_cell_length_a   7.94872625
_cell_length_b   16.06396373
_cell_length_c   3.99998219
_cell_angle_alpha   90.00000000
_cell_angle_beta   90.00000000
_cell_angle_gamma   90.00000000
_symmetry_Int_Tables_number   1
_chemical_formula_structural   Nb2Te3O11
_chemical_formula_sum   'Nb4 Te6 O22'
_cell_volume   510.74992746
_cell_formula_units_Z   2
loop_
 _symmetry_equiv_pos_site_id
 _symmetry_equiv_pos_as_xyz
  1  'x, y, z'
loop_
 _atom_site_type_symbol
 _atom_site_label
 _atom_site_symmetry_multiplicity
 _atom_site_fract_x
 _atom_site_fract_y
 _atom_site_fract_z
 _atom_site_occupancy
  Nb  Nb0  1  0.37221038  0.60050378  0.74496837  1.0
  Nb  Nb1  1  0.87221038  0.89949622  0.25503163  1.0
  Nb  Nb2  1  0.62778962  0.39949622  0.74496837  1.0
  Nb  Nb3  1  0.12778962  0.10050378  0.25503163  1.0
  Te  Te4  1  0.80862932  0.70486789  0.86064049  1.0
  Te  Te5  1  0.30862932  0.79513211  0.13935951  1.0
  Te  Te6  1  0.19137068  0.29513211  0.86064049  1.0
  Te  Te7  1  0.69137068  0.20486789  0.13935951  1.0
  Te  Te8  1  0.50000000  0.00000000  0.85767923  1.0
  Te  Te9  1  0.00000000  0.50000000  0.14232077  1.0
  O  O10  1  0.42324359  0.32866503  0.78845790  1.0
  O  O11  1  0.92324359  0.17133497  0.21154210  1.0
  O  O12  1  0.57675641  0.67133497  0.78845790  1.0
  O  O13  1  0.07675641  0.82866503  0.21154210  1.0
  O  O14  1  0.36966193  0.88299503  0.81601915  1.0
  O  O15  1  0.86966193  0.61700497  0.18398085  1.0
  O  O16  1  0.63033807  0.11700497  0.81601915  1.0
  O  O17  1  0.13033807  0.38299503  0.18398085  1.0
  O  O18  1  0.35083045  0.60648594  0.29150301  1.0
  O  O19  1  0.85083045  0.89351406  0.70849699  1.0
  O  O20  1  0.64916955  0.39351406  0.29150301  1.0
  O  O21  1  0.14916955  0.10648594  0.70849699  1.0
  O  O22  1  0.24379284  0.71572078  0.79270273  1.0
  O  O23  1  0.74379284  0.78427922  0.20729727  1.0
  O  O24  1  0.75620716  0.28427922  0.79270273  1.0
  O  O25  1  0.25620716  0.21572078  0.20729727  1.0
  O  O26  1  0.14979283  0.54163379  0.78673736  1.0
  O  O27  1  0.64979283  0.95836621  0.21326264  1.0
  O  O28  1  0.85020717  0.45836621  0.78673736  1.0
  O  O29  1  0.35020717  0.04163379  0.21326264  1.0
  O  O30  1  0.50000000  0.50000000  0.79127897  1.0
  O  O31  1  0.00000000  0.00000000  0.20872103  1.0
