# generated using pymatgen
data_Ba3GdIr2O9
_symmetry_space_group_name_H-M   'P 1'
_cell_length_a   5.95648446
_cell_length_b   5.95648446
_cell_length_c   14.78467676
_cell_angle_alpha   90.00000000
_cell_angle_beta   90.00000000
_cell_angle_gamma   120.00000000
_symmetry_Int_Tables_number   1
_chemical_formula_structural   Ba3GdIr2O9
_chemical_formula_sum   'Ba6 Gd2 Ir4 O18'
_cell_volume   454.27882221
_cell_formula_units_Z   2
loop_
 _symmetry_equiv_pos_site_id
 _symmetry_equiv_pos_as_xyz
  1  'x, y, z'
loop_
 _atom_site_type_symbol
 _atom_site_label
 _atom_site_symmetry_multiplicity
 _atom_site_fract_x
 _atom_site_fract_y
 _atom_site_fract_z
 _atom_site_occupancy
  Ba  Ba0  1  0.33333333  0.66666667  0.40595511  1.0
  Ba  Ba1  1  0.33333333  0.66666667  0.09404489  1.0
  Ba  Ba2  1  0.66666667  0.33333333  0.90595511  1.0
  Ba  Ba3  1  0.66666667  0.33333333  0.59404489  1.0
  Ba  Ba4  1  0.00000000  0.00000000  0.25000000  1.0
  Ba  Ba5  1  0.00000000  0.00000000  0.75000000  1.0
  Gd  Gd6  1  0.00000000  0.00000000  0.50000000  1.0
  Gd  Gd7  1  0.00000000  0.00000000  0.00000000  1.0
  Ir  Ir8  1  0.33333333  0.66666667  0.83499546  1.0
  Ir  Ir9  1  0.33333333  0.66666667  0.66500454  1.0
  Ir  Ir10  1  0.66666667  0.33333333  0.33499546  1.0
  Ir  Ir11  1  0.66666667  0.33333333  0.16500454  1.0
  O  O12  1  0.17739972  0.82260028  0.91173872  1.0
  O  O13  1  0.17739972  0.82260028  0.58826128  1.0
  O  O14  1  0.17739972  0.35479945  0.91173872  1.0
  O  O15  1  0.17739972  0.35479945  0.58826128  1.0
  O  O16  1  0.82260028  0.17739972  0.41173872  1.0
  O  O17  1  0.82260028  0.17739972  0.08826128  1.0
  O  O18  1  0.82260028  0.64520055  0.41173872  1.0
  O  O19  1  0.82260028  0.64520055  0.08826128  1.0
  O  O20  1  0.64520055  0.82260028  0.91173872  1.0
  O  O21  1  0.64520055  0.82260028  0.58826128  1.0
  O  O22  1  0.35479945  0.17739972  0.41173872  1.0
  O  O23  1  0.35479945  0.17739972  0.08826128  1.0
  O  O24  1  0.50919378  0.49080622  0.25000000  1.0
  O  O25  1  0.50919378  0.01838755  0.25000000  1.0
  O  O26  1  0.49080622  0.50919378  0.75000000  1.0
  O  O27  1  0.49080622  0.98161245  0.75000000  1.0
  O  O28  1  0.98161245  0.49080622  0.25000000  1.0
  O  O29  1  0.01838755  0.50919378  0.75000000  1.0
