# generated using pymatgen
data_NaYTiO4
_symmetry_space_group_name_H-M   'P 1'
_cell_length_a   3.72049581
_cell_length_b   3.72049581
_cell_length_c   12.80832209
_cell_angle_alpha   90.00000000
_cell_angle_beta   90.00000000
_cell_angle_gamma   90.00000000
_symmetry_Int_Tables_number   1
_chemical_formula_structural   NaYTiO4
_chemical_formula_sum   'Na2 Y2 Ti2 O8'
_cell_volume   177.29393525
_cell_formula_units_Z   2
loop_
 _symmetry_equiv_pos_site_id
 _symmetry_equiv_pos_as_xyz
  1  'x, y, z'
loop_
 _atom_site_type_symbol
 _atom_site_label
 _atom_site_symmetry_multiplicity
 _atom_site_fract_x
 _atom_site_fract_y
 _atom_site_fract_z
 _atom_site_occupancy
  Na  Na0  1  0.50000000  0.00000000  0.58330808  1.0
  Na  Na1  1  0.00000000  0.50000000  0.41669192  1.0
  Y  Y2  1  0.50000000  0.00000000  0.89549582  1.0
  Y  Y3  1  0.00000000  0.50000000  0.10450418  1.0
  Ti  Ti4  1  0.50000000  0.00000000  0.26316736  1.0
  Ti  Ti5  1  0.00000000  0.50000000  0.73683264  1.0
  O  O6  1  0.00000000  0.00000000  0.22422759  1.0
  O  O7  1  0.50000000  0.50000000  0.77577241  1.0
  O  O8  1  0.50000000  0.50000000  0.22422759  1.0
  O  O9  1  0.00000000  0.00000000  0.77577241  1.0
  O  O10  1  0.50000000  0.00000000  0.06473995  1.0
  O  O11  1  0.00000000  0.50000000  0.93526005  1.0
  O  O12  1  0.50000000  0.00000000  0.40113993  1.0
  O  O13  1  0.00000000  0.50000000  0.59886007  1.0
