# generated using pymatgen
data_ZrSiPd
_symmetry_space_group_name_H-M   'P 1'
_cell_length_a   6.65061298
_cell_length_b   3.90840157
_cell_length_c   7.65088960
_cell_angle_alpha   90.00000000
_cell_angle_beta   90.00000000
_cell_angle_gamma   90.00000000
_symmetry_Int_Tables_number   1
_chemical_formula_structural   ZrSiPd
_chemical_formula_sum   'Zr4 Si4 Pd4'
_cell_volume   198.87161021
_cell_formula_units_Z   4
loop_
 _symmetry_equiv_pos_site_id
 _symmetry_equiv_pos_as_xyz
  1  'x, y, z'
loop_
 _atom_site_type_symbol
 _atom_site_label
 _atom_site_symmetry_multiplicity
 _atom_site_fract_x
 _atom_site_fract_y
 _atom_site_fract_z
 _atom_site_occupancy
  Zr  Zr0  1  0.97327007  0.75000000  0.68016105  1.0
  Zr  Zr1  1  0.47327007  0.75000000  0.81983895  1.0
  Zr  Zr2  1  0.02672993  0.25000000  0.31983895  1.0
  Zr  Zr3  1  0.52672993  0.25000000  0.18016105  1.0
  Si  Si4  1  0.73932563  0.75000000  0.37688551  1.0
  Si  Si5  1  0.23932563  0.75000000  0.12311449  1.0
  Si  Si6  1  0.26067437  0.25000000  0.62311449  1.0
  Si  Si7  1  0.76067437  0.25000000  0.87688551  1.0
  Pd  Pd8  1  0.85664052  0.75000000  0.06147789  1.0
  Pd  Pd9  1  0.35664052  0.75000000  0.43852211  1.0
  Pd  Pd10  1  0.14335948  0.25000000  0.93852211  1.0
  Pd  Pd11  1  0.64335948  0.25000000  0.56147789  1.0
