# generated using pymatgen
data_Zn8(FeO2)7
_symmetry_space_group_name_H-M   'P 1'
_cell_length_a   7.31628018
_cell_length_b   7.31628018
_cell_length_c   7.31628018
_cell_angle_alpha   69.70280633
_cell_angle_beta   69.70280633
_cell_angle_gamma   69.70280633
_symmetry_Int_Tables_number   1
_chemical_formula_structural   Zn8(FeO2)7
_chemical_formula_sum   'Zn8 Fe7 O14'
_cell_volume   332.87864592
_cell_formula_units_Z   1
loop_
 _symmetry_equiv_pos_site_id
 _symmetry_equiv_pos_as_xyz
  1  'x, y, z'
loop_
 _atom_site_type_symbol
 _atom_site_label
 _atom_site_symmetry_multiplicity
 _atom_site_fract_x
 _atom_site_fract_y
 _atom_site_fract_z
 _atom_site_occupancy
  Zn  Zn0  1  0.80100607  0.80100607  0.42030475  1.0
  Zn  Zn1  1  0.80100607  1.42030475  -0.19899393  1.0
  Zn  Zn2  1  0.56849018  0.56849018  0.56849018  1.0
  Zn  Zn3  1  0.57969525  0.19899393  0.19899393  1.0
  Zn  Zn4  1  0.43150982  0.43150982  0.43150982  1.0
  Zn  Zn5  1  1.42030475  0.80100607  -0.19899393  1.0
  Zn  Zn6  1  1.19899393  -0.42030475  0.19899393  1.0
  Zn  Zn7  1  1.19899393  0.19899393  -0.42030475  1.0
  Fe  Fe8  1  0.27084278  0.27084278  -0.04001936  1.0
  Fe  Fe9  1  0.27084278  0.95998064  -0.72915722  1.0
  Fe  Fe10  1  0.00000000  0.00000000  -0.00000000  1.0
  Fe  Fe11  1  1.04001936  0.72915722  -0.27084278  1.0
  Fe  Fe12  1  0.95998064  0.27084278  -0.72915722  1.0
  Fe  Fe13  1  0.72915722  0.72915722  0.04001936  1.0
  Fe  Fe14  1  0.72915722  1.04001936  -0.27084278  1.0
  O  O15  1  0.97857621  -0.02142379  -0.68689344  1.0
  O  O16  1  0.97857621  -0.68689344  -0.02142379  1.0
  O  O17  1  0.73059230  0.73059230  0.73059230  1.0
  O  O18  1  1.68689344  1.02142379  0.02142379  1.0
  O  O19  1  0.85005830  0.45618377  0.45618377  1.0
  O  O20  1  0.54381623  0.54381623  0.14994170  1.0
  O  O21  1  0.54381623  1.14994170  -0.45618377  1.0
  O  O22  1  1.45618377  -0.14994170  0.45618377  1.0
  O  O23  1  1.45618377  0.45618377  -0.14994170  1.0
  O  O24  1  0.31310656  -0.02142379  -0.02142379  1.0
  O  O25  1  1.14994170  0.54381623  -0.45618377  1.0
  O  O26  1  0.26940770  0.26940770  0.26940770  1.0
  O  O27  1  1.02142379  1.68689344  0.02142379  1.0
  O  O28  1  1.02142379  1.02142379  0.68689344  1.0
