# generated using pymatgen
data_Bi4Pb(ClO3)2
_symmetry_space_group_name_H-M   'P 1'
_cell_length_a   16.51006248
_cell_length_b   16.51006248
_cell_length_c   16.51006248
_cell_angle_alpha   166.16537759
_cell_angle_beta   166.16537759
_cell_angle_gamma   19.61323750
_symmetry_Int_Tables_number   1
_chemical_formula_structural   Bi4Pb(ClO3)2
_chemical_formula_sum   'Bi4 Pb1 Cl2 O6'
_cell_volume   257.29526998
_cell_formula_units_Z   1
loop_
 _symmetry_equiv_pos_site_id
 _symmetry_equiv_pos_as_xyz
  1  'x, y, z'
loop_
 _atom_site_type_symbol
 _atom_site_label
 _atom_site_symmetry_multiplicity
 _atom_site_fract_x
 _atom_site_fract_y
 _atom_site_fract_z
 _atom_site_occupancy
  Bi  Bi0  1  0.71194796  0.71194796  1.00000000  1.0
  Bi  Bi1  1  0.28805204  0.28805204  -0.00000000  1.0
  Bi  Bi2  1  0.58240883  0.58240883  1.00000000  1.0
  Bi  Bi3  1  0.41759117  0.41759117  -0.00000000  1.0
  Pb  Pb4  1  0.00000000  0.00000000  0.00000000  1.0
  Cl  Cl5  1  0.83204525  0.83204525  1.00000000  1.0
  Cl  Cl6  1  0.16795475  0.16795475  -0.00000000  1.0
  O  O7  1  0.44731031  0.94731031  0.50000000  1.0
  O  O8  1  0.55268969  0.05268969  0.50000000  1.0
  O  O9  1  0.94731031  0.44731031  0.50000000  1.0
  O  O10  1  0.05268969  0.55268969  0.50000000  1.0
  O  O11  1  0.25000000  0.75000000  0.50000000  1.0
  O  O12  1  0.75000000  0.25000000  0.50000000  1.0
