# generated using pymatgen
data_LiMg4V3O12
_symmetry_space_group_name_H-M   'P 1'
_cell_length_a   10.74474753
_cell_length_b   10.74474753
_cell_length_c   10.74474753
_cell_angle_alpha   142.47005091
_cell_angle_beta   142.47005091
_cell_angle_gamma   54.12137969
_symmetry_Int_Tables_number   1
_chemical_formula_structural   LiMg4V3O12
_chemical_formula_sum   'Li2 Mg8 V6 O24'
_cell_volume   457.25838618
_cell_formula_units_Z   2
loop_
 _symmetry_equiv_pos_site_id
 _symmetry_equiv_pos_as_xyz
  1  'x, y, z'
loop_
 _atom_site_type_symbol
 _atom_site_label
 _atom_site_symmetry_multiplicity
 _atom_site_fract_x
 _atom_site_fract_y
 _atom_site_fract_z
 _atom_site_occupancy
  Li  Li0  1  0.25000000  0.75000000  0.50000000  1.0
  Li  Li1  1  0.50000000  0.50000000  -0.00000000  1.0
  Mg  Mg2  1  1.11686494  1.12500000  1.49186494  1.0
  Mg  Mg3  1  1.37500000  0.88313506  1.00813506  1.0
  Mg  Mg4  1  0.87500000  1.36686494  0.99186494  1.0
  Mg  Mg5  1  0.63313506  0.62500000  0.50813506  1.0
  Mg  Mg6  1  0.97543452  0.47543452  0.50000000  1.0
  Mg  Mg7  1  0.77456548  0.77456548  1.00000000  1.0
  Mg  Mg8  1  1.22543452  1.22543452  1.00000000  1.0
  Mg  Mg9  1  0.52456548  1.02456548  0.50000000  1.0
  V  V10  1  0.52329814  1.12500000  0.89829814  1.0
  V  V11  1  1.37500000  1.47670186  1.60170186  1.0
  V  V12  1  0.87500000  0.77329814  0.39829814  1.0
  V  V13  1  1.22670186  0.62500000  1.10170186  1.0
  V  V14  1  0.75000000  0.25000000  0.50000000  1.0
  V  V15  1  1.00000000  1.00000000  1.00000000  1.0
  O  O16  1  1.19190296  1.37705286  1.27155502  1.0
  O  O17  1  0.64450216  0.87294714  0.31485010  1.0
  O  O18  1  0.67034794  1.35549784  1.22844498  1.0
  O  O19  1  0.62294714  0.89450216  0.81485010  1.0
  O  O20  1  1.55809704  1.32965206  1.68514990  1.0
  O  O21  1  1.10549784  0.92034794  0.72844498  1.0
  O  O22  1  1.07965206  0.80809704  1.18514990  1.0
  O  O23  1  1.12705286  0.44190296  0.77155502  1.0
  O  O24  1  0.84902686  1.08662210  1.34511477  1.0
  O  O25  1  1.00849266  1.16337790  1.26240476  1.0
  O  O26  1  1.25391210  0.99150734  1.15488523  1.0
  O  O27  1  0.91337790  1.25849266  0.76240476  1.0
  O  O28  1  0.90097314  0.74608790  0.73759524  1.0
  O  O29  1  0.74150734  0.50391210  0.65488523  1.0
  O  O30  1  1.49608790  1.15097314  1.23759524  1.0
  O  O31  1  0.83662210  1.09902686  0.84511477  1.0
  O  O32  1  1.29606481  1.09513595  1.77893822  1.0
  O  O33  1  1.43380228  1.15486405  1.70092887  1.0
  O  O34  1  1.26712659  0.56619772  0.72106178  1.0
  O  O35  1  0.90486405  1.68380228  1.20092887  1.0
  O  O36  1  0.45393519  0.73287341  0.29907113  1.0
  O  O37  1  0.31619772  0.51712659  0.22106178  1.0
  O  O38  1  1.48287341  0.70393519  0.79907113  1.0
  O  O39  1  0.84513595  1.54606481  1.27893822  1.0
