# generated using pymatgen
data_Ba3Zr2S7
_symmetry_space_group_name_H-M   'P 1'
_cell_length_a   7.14830848
_cell_length_b   7.14830848
_cell_length_c   25.46630138
_cell_angle_alpha   90.00000000
_cell_angle_beta   90.00000000
_cell_angle_gamma   90.00000000
_symmetry_Int_Tables_number   1
_chemical_formula_structural   Ba3Zr2S7
_chemical_formula_sum   'Ba12 Zr8 S28'
_cell_volume   1301.28506700
_cell_formula_units_Z   4
loop_
 _symmetry_equiv_pos_site_id
 _symmetry_equiv_pos_as_xyz
  1  'x, y, z'
loop_
 _atom_site_type_symbol
 _atom_site_label
 _atom_site_symmetry_multiplicity
 _atom_site_fract_x
 _atom_site_fract_y
 _atom_site_fract_z
 _atom_site_occupancy
  Ba  Ba0  1  0.26506796  0.73493204  0.18107727  1.0
  Ba  Ba1  1  0.26506796  0.73493204  0.81892273  1.0
  Ba  Ba2  1  0.76506796  0.76506796  0.68107727  1.0
  Ba  Ba3  1  0.76506796  0.76506796  0.31892273  1.0
  Ba  Ba4  1  0.73493204  0.26506796  0.18107727  1.0
  Ba  Ba5  1  0.73493204  0.26506796  0.81892273  1.0
  Ba  Ba6  1  0.23493204  0.23493204  0.68107727  1.0
  Ba  Ba7  1  0.23493204  0.23493204  0.31892273  1.0
  Ba  Ba8  1  0.25478218  0.25478218  0.50000000  1.0
  Ba  Ba9  1  0.75478218  0.24521782  0.00000000  1.0
  Ba  Ba10  1  0.74521782  0.74521782  0.50000000  1.0
  Ba  Ba11  1  0.24521782  0.75478218  0.00000000  1.0
  Zr  Zr12  1  0.25099765  0.74900235  0.40002032  1.0
  Zr  Zr13  1  0.25099765  0.74900235  0.59997968  1.0
  Zr  Zr14  1  0.75099765  0.75099765  0.90002032  1.0
  Zr  Zr15  1  0.75099765  0.75099765  0.09997968  1.0
  Zr  Zr16  1  0.74900235  0.25099765  0.40002032  1.0
  Zr  Zr17  1  0.74900235  0.25099765  0.59997968  1.0
  Zr  Zr18  1  0.24900235  0.24900235  0.90002032  1.0
  Zr  Zr19  1  0.24900235  0.24900235  0.09997968  1.0
  S  S20  1  0.21440175  0.78559825  0.30215381  1.0
  S  S21  1  0.21440175  0.78559825  0.69784619  1.0
  S  S22  1  0.71440175  0.71440175  0.80215381  1.0
  S  S23  1  0.71440175  0.71440175  0.19784619  1.0
  S  S24  1  0.78559825  0.21440175  0.30215381  1.0
  S  S25  1  0.78559825  0.21440175  0.69784619  1.0
  S  S26  1  0.28559825  0.28559825  0.80215381  1.0
  S  S27  1  0.28559825  0.28559825  0.19784619  1.0
  S  S28  1  0.50000000  0.00000000  0.40446422  1.0
  S  S29  1  0.50000000  0.00000000  0.59553578  1.0
  S  S30  1  0.00000000  0.50000000  0.90446422  1.0
  S  S31  1  0.00000000  0.50000000  0.09553578  1.0
  S  S32  1  0.00000000  0.50000000  0.40446422  1.0
  S  S33  1  0.00000000  0.50000000  0.59553578  1.0
  S  S34  1  0.50000000  0.00000000  0.90446422  1.0
  S  S35  1  0.50000000  0.00000000  0.09553578  1.0
  S  S36  1  0.29214813  0.70785187  0.50000000  1.0
  S  S37  1  0.79214813  0.79214813  0.00000000  1.0
  S  S38  1  0.70785187  0.29214813  0.50000000  1.0
  S  S39  1  0.20785187  0.20785187  0.00000000  1.0
  S  S40  1  0.50000000  0.50000000  0.38769075  1.0
  S  S41  1  0.50000000  0.50000000  0.61230925  1.0
  S  S42  1  0.00000000  0.00000000  0.88769075  1.0
  S  S43  1  0.00000000  0.00000000  0.11230925  1.0
  S  S44  1  0.50000000  0.50000000  0.08212738  1.0
  S  S45  1  0.50000000  0.50000000  0.91787262  1.0
  S  S46  1  0.00000000  0.00000000  0.58212738  1.0
  S  S47  1  0.00000000  0.00000000  0.41787262  1.0
