# generated using pymatgen
data_K3TaF8
_symmetry_space_group_name_H-M   'P 1'
_cell_length_a   8.41842052
_cell_length_b   8.41842052
_cell_length_c   6.44893910
_cell_angle_alpha   90.00000000
_cell_angle_beta   90.00000000
_cell_angle_gamma   120.00000000
_symmetry_Int_Tables_number   1
_chemical_formula_structural   K3TaF8
_chemical_formula_sum   'K6 Ta2 F16'
_cell_volume   395.80396414
_cell_formula_units_Z   2
loop_
 _symmetry_equiv_pos_site_id
 _symmetry_equiv_pos_as_xyz
  1  'x, y, z'
loop_
 _atom_site_type_symbol
 _atom_site_label
 _atom_site_symmetry_multiplicity
 _atom_site_fract_x
 _atom_site_fract_y
 _atom_site_fract_z
 _atom_site_occupancy
  K  K0  1  0.30590577  0.15295288  0.24112513  1.0
  K  K1  1  0.15295288  0.30590577  0.74112513  1.0
  K  K2  1  0.15295288  0.84704712  0.74112513  1.0
  K  K3  1  0.84704712  0.15295288  0.24112513  1.0
  K  K4  1  0.84704712  0.69409423  0.24112513  1.0
  K  K5  1  0.69409423  0.84704712  0.74112513  1.0
  Ta  Ta6  1  0.33333333  0.66666667  0.23709644  1.0
  Ta  Ta7  1  0.66666667  0.33333333  0.73709644  1.0
  F  F8  1  0.59585950  0.79792975  0.31448859  1.0
  F  F9  1  0.79792975  0.59585950  0.81448859  1.0
  F  F10  1  0.79792975  0.20207025  0.81448859  1.0
  F  F11  1  0.20207025  0.79792975  0.31448859  1.0
  F  F12  1  0.20207025  0.40414050  0.31448859  1.0
  F  F13  1  0.40414050  0.20207025  0.81448859  1.0
  F  F14  1  0.12717230  0.56358615  0.03611010  1.0
  F  F15  1  0.56358615  0.12717230  0.53611010  1.0
  F  F16  1  0.56358615  0.43641385  0.53611010  1.0
  F  F17  1  0.43641385  0.56358615  0.03611010  1.0
  F  F18  1  0.43641385  0.87282770  0.03611010  1.0
  F  F19  1  0.87282770  0.43641385  0.53611010  1.0
  F  F20  1  0.33333333  0.66666667  0.54493462  1.0
  F  F21  1  0.66666667  0.33333333  0.04493462  1.0
  F  F22  1  0.00000000  0.00000000  0.00199752  1.0
  F  F23  1  0.00000000  0.00000000  0.50199752  1.0
