# generated using pymatgen
data_Ba(AlSi)2
_symmetry_space_group_name_H-M   'P 1'
_cell_length_a   10.12973347
_cell_length_b   4.25613489
_cell_length_c   10.92632260
_cell_angle_alpha   90.00000000
_cell_angle_beta   90.00000000
_cell_angle_gamma   90.00000000
_symmetry_Int_Tables_number   1
_chemical_formula_structural   Ba(AlSi)2
_chemical_formula_sum   'Ba4 Al8 Si8'
_cell_volume   471.07214057
_cell_formula_units_Z   4
loop_
 _symmetry_equiv_pos_site_id
 _symmetry_equiv_pos_as_xyz
  1  'x, y, z'
loop_
 _atom_site_type_symbol
 _atom_site_label
 _atom_site_symmetry_multiplicity
 _atom_site_fract_x
 _atom_site_fract_y
 _atom_site_fract_z
 _atom_site_occupancy
  Ba  Ba0  1  0.75240024  0.75000000  0.32503676  1.0
  Ba  Ba1  1  0.25240024  0.75000000  0.17496324  1.0
  Ba  Ba2  1  0.24759976  0.25000000  0.67496324  1.0
  Ba  Ba3  1  0.74759976  0.25000000  0.82503676  1.0
  Al  Al4  1  0.95826449  0.75000000  0.61849820  1.0
  Al  Al5  1  0.45826449  0.75000000  0.88150180  1.0
  Al  Al6  1  0.04173551  0.25000000  0.38150180  1.0
  Al  Al7  1  0.54173551  0.25000000  0.11849820  1.0
  Al  Al8  1  0.89965679  0.75000000  0.04699646  1.0
  Al  Al9  1  0.39965679  0.75000000  0.45300354  1.0
  Al  Al10  1  0.10034321  0.25000000  0.95300354  1.0
  Al  Al11  1  0.60034321  0.25000000  0.54699646  1.0
  Si  Si12  1  0.64574822  0.75000000  0.04103070  1.0
  Si  Si13  1  0.14574822  0.75000000  0.45896930  1.0
  Si  Si14  1  0.35425178  0.25000000  0.95896930  1.0
  Si  Si15  1  0.85425178  0.25000000  0.54103070  1.0
  Si  Si16  1  0.52454227  0.75000000  0.65620093  1.0
  Si  Si17  1  0.02454227  0.75000000  0.84379907  1.0
  Si  Si18  1  0.47545773  0.25000000  0.34379907  1.0
  Si  Si19  1  0.97545773  0.25000000  0.15620093  1.0
