# generated using pymatgen
data_ZnS
_symmetry_space_group_name_H-M   'P 1'
_cell_length_a   3.82560061
_cell_length_b   3.82560062
_cell_length_c   38.86432401
_cell_angle_alpha   90.00000000
_cell_angle_beta   90.00000000
_cell_angle_gamma   120.00000000
_symmetry_Int_Tables_number   1
_chemical_formula_structural   ZnS
_chemical_formula_sum   'Zn12 S12'
_cell_volume   492.58480067
_cell_formula_units_Z   12
loop_
 _symmetry_equiv_pos_site_id
 _symmetry_equiv_pos_as_xyz
  1  'x, y, z'
loop_
 _atom_site_type_symbol
 _atom_site_label
 _atom_site_symmetry_multiplicity
 _atom_site_fract_x
 _atom_site_fract_y
 _atom_site_fract_z
 _atom_site_occupancy
  Zn  Zn0  1  0.00000000  0.00000000  0.00580106  1.0
  Zn  Zn1  1  0.33333333  0.66666667  0.08743479  1.0
  Zn  Zn2  1  0.66666667  0.33333333  0.16872686  1.0
  Zn  Zn3  1  -0.00000000  -0.00000000  0.24996801  1.0
  Zn  Zn4  1  0.33333333  0.66666667  0.33120563  1.0
  Zn  Zn5  1  0.66666667  0.33333333  0.41244973  1.0
  Zn  Zn6  1  0.00000000  0.00000000  0.49368490  1.0
  Zn  Zn7  1  0.33333333  0.66666667  0.57490353  1.0
  Zn  Zn8  1  0.66666667  0.33333333  0.65613473  1.0
  Zn  Zn9  1  -0.00000000  -0.00000000  0.73738002  1.0
  Zn  Zn10  1  0.66666667  0.33333333  0.87103822  1.0
  Zn  Zn11  1  0.33333333  0.66666667  0.82221109  1.0
  S  S12  1  0.00000000  0.00000000  0.06722470  1.0
  S  S13  1  0.33333333  0.66666667  0.14833063  1.0
  S  S14  1  0.66666667  0.33333333  0.22955302  1.0
  S  S15  1  0.00000000  0.00000000  0.31078114  1.0
  S  S16  1  0.33333333  0.66666667  0.39201859  1.0
  S  S17  1  0.66666667  0.33333333  0.47325831  1.0
  S  S18  1  -0.00000000  -0.00000000  0.55448313  1.0
  S  S19  1  0.33333333  0.66666667  0.63569844  1.0
  S  S20  1  0.66666667  0.33333333  0.71691795  1.0
  S  S21  1  -0.00000000  -0.00000000  0.79810600  1.0
  S  S22  1  0.66666667  0.33333333  0.92721199  1.0
  S  S23  1  0.33333333  0.66666667  0.98547751  1.0
