# generated using pymatgen
data_K3FeO2
_symmetry_space_group_name_H-M   'P 1'
_cell_length_a   6.14476093
_cell_length_b   6.14476093
_cell_length_c   14.71885666
_cell_angle_alpha   90.00000000
_cell_angle_beta   90.00000000
_cell_angle_gamma   90.00000000
_symmetry_Int_Tables_number   1
_chemical_formula_structural   K3FeO2
_chemical_formula_sum   'K12 Fe4 O8'
_cell_volume   555.75586868
_cell_formula_units_Z   4
loop_
 _symmetry_equiv_pos_site_id
 _symmetry_equiv_pos_as_xyz
  1  'x, y, z'
loop_
 _atom_site_type_symbol
 _atom_site_label
 _atom_site_symmetry_multiplicity
 _atom_site_fract_x
 _atom_site_fract_y
 _atom_site_fract_z
 _atom_site_occupancy
  K  K0  1  1.00006322  0.50118542  0.12496964  1.0
  K  K1  1  0.50006322  0.99881458  0.62503036  1.0
  K  K2  1  0.49881458  -0.00006322  0.37503036  1.0
  K  K3  1  0.99881458  0.50006322  0.37496964  1.0
  K  K4  1  -0.00006322  0.49881458  0.62496964  1.0
  K  K5  1  0.49993678  0.00118542  0.12503036  1.0
  K  K6  1  0.50118542  1.00006322  0.87503036  1.0
  K  K7  1  0.00118542  0.49993678  0.87496964  1.0
  K  K8  1  0.49938857  0.50061143  0.25000000  1.0
  K  K9  1  0.99938857  0.99938857  0.50000000  1.0
  K  K10  1  0.50061143  0.49938857  0.75000000  1.0
  K  K11  1  0.00061143  0.00061143  0.00000000  1.0
  Fe  Fe12  1  0.99919826  0.00080174  0.25000000  1.0
  Fe  Fe13  1  0.49919826  0.49919826  0.50000000  1.0
  Fe  Fe14  1  0.00080174  0.99919826  0.75000000  1.0
  Fe  Fe15  1  0.50080174  0.50080174  0.00000000  1.0
  O  O16  1  0.29552007  0.70630568  0.00040838  1.0
  O  O17  1  0.79552007  0.79369432  0.74959162  1.0
  O  O18  1  0.29369432  0.70447993  0.49959162  1.0
  O  O19  1  0.79369432  0.79552007  0.25040838  1.0
  O  O20  1  0.70447993  0.29369432  0.50040838  1.0
  O  O21  1  0.20447993  0.20630568  0.24959162  1.0
  O  O22  1  0.70630568  0.29552007  0.99959162  1.0
  O  O23  1  0.20630568  0.20447993  0.75040838  1.0
