# generated using pymatgen
data_Eu(InSe2)2
_symmetry_space_group_name_H-M   'P 1'
_cell_length_a   6.41246170
_cell_length_b   6.41246170
_cell_length_c   10.98470638
_cell_angle_alpha   90.00000000
_cell_angle_beta   90.00000000
_cell_angle_gamma   115.06351266
_symmetry_Int_Tables_number   1
_chemical_formula_structural   Eu(InSe2)2
_chemical_formula_sum   'Eu2 In4 Se8'
_cell_volume   409.15599505
_cell_formula_units_Z   2
loop_
 _symmetry_equiv_pos_site_id
 _symmetry_equiv_pos_as_xyz
  1  'x, y, z'
loop_
 _atom_site_type_symbol
 _atom_site_label
 _atom_site_symmetry_multiplicity
 _atom_site_fract_x
 _atom_site_fract_y
 _atom_site_fract_z
 _atom_site_occupancy
  Eu  Eu0  1  0.00000000  0.00000000  0.75000000  1.0
  Eu  Eu1  1  0.00000000  0.00000000  0.25000000  1.0
  In  In2  1  -0.28191968  1.27415291  0.00000000  1.0
  In  In3  1  0.27415291  0.71808032  0.50000000  1.0
  In  In4  1  -0.27415291  1.28191968  0.50000000  1.0
  In  In5  1  0.28191968  0.72584709  0.00000000  1.0
  Se  Se6  1  -0.14425081  1.72075778  0.00000000  1.0
  Se  Se7  1  0.72075778  0.85574919  0.50000000  1.0
  Se  Se8  1  -0.72075778  1.14425081  0.50000000  1.0
  Se  Se9  1  0.14425081  0.27924222  0.00000000  1.0
  Se  Se10  1  -0.00000000  1.50000000  0.68400271  1.0
  Se  Se11  1  -0.00000000  1.50000000  0.31599729  1.0
  Se  Se12  1  0.50000000  1.00000000  0.18400271  1.0
  Se  Se13  1  0.50000000  1.00000000  0.81599729  1.0
