# generated using pymatgen
data_GdP4H4NO12
_symmetry_space_group_name_H-M   'P 1'
_cell_length_a   7.54731517
_cell_length_b   7.54731517
_cell_length_c   10.64472418
_cell_angle_alpha   79.58814867
_cell_angle_beta   100.41185133
_cell_angle_gamma   64.28363106
_symmetry_Int_Tables_number   1
_chemical_formula_structural   GdP4H4NO12
_chemical_formula_sum   'Gd2 P8 H8 N2 O24'
_cell_volume   513.80352900
_cell_formula_units_Z   2
loop_
 _symmetry_equiv_pos_site_id
 _symmetry_equiv_pos_as_xyz
  1  'x, y, z'
loop_
 _atom_site_type_symbol
 _atom_site_label
 _atom_site_symmetry_multiplicity
 _atom_site_fract_x
 _atom_site_fract_y
 _atom_site_fract_z
 _atom_site_occupancy
  Gd  Gd0  1  0.87861139  -0.12138861  0.25000000  1.0
  Gd  Gd1  1  1.12138861  0.12138861  0.75000000  1.0
  P  P2  1  0.62343996  -0.28801180  0.00453113  1.0
  P  P3  1  1.28801180  0.37656004  0.50453113  1.0
  P  P4  1  0.71198820  -0.37656004  0.49546887  1.0
  P  P5  1  1.37656004  0.28801180  0.99546887  1.0
  P  P6  1  1.69711620  0.25372228  0.44536354  1.0
  P  P7  1  0.74627772  -0.69711620  0.94536354  1.0
  P  P8  1  1.25372228  0.69711620  0.05463646  1.0
  P  P9  1  0.30288380  -0.25372228  0.55463646  1.0
  H  H10  1  1.31720816  0.13818399  0.22414944  1.0
  H  H11  1  0.86181601  -0.31720816  0.72414944  1.0
  H  H12  1  1.13818399  0.31720816  0.27585056  1.0
  H  H13  1  0.68279184  -0.13818399  0.77585056  1.0
  H  H14  1  1.19866132  0.06525109  0.32840489  1.0
  H  H15  1  0.93474891  -0.19866132  0.82840489  1.0
  H  H16  1  1.06525109  0.19866132  0.17159511  1.0
  H  H17  1  0.80133868  -0.06525109  0.67159511  1.0
  N  N18  1  1.18170645  0.18170645  0.25000000  1.0
  N  N19  1  0.81829355  -0.18170645  0.75000000  1.0
  O  O20  1  0.70617543  -0.20257873  0.39640327  1.0
  O  O21  1  1.20257873  0.29382457  0.89640327  1.0
  O  O22  1  0.79742127  -0.29382457  0.10359673  1.0
  O  O23  1  1.29382457  0.20257873  0.60359673  1.0
  O  O24  1  0.49237061  -0.35317746  0.08865932  1.0
  O  O25  1  1.35317746  0.50762939  0.58865932  1.0
  O  O26  1  0.64682254  -0.50762939  0.41134068  1.0
  O  O27  1  1.50762939  0.35317746  0.91134068  1.0
  O  O28  1  1.75337036  0.17671974  0.33083762  1.0
  O  O29  1  0.82328026  -0.75337036  0.83083762  1.0
  O  O30  1  1.17671974  0.75337036  0.16916238  1.0
  O  O31  1  0.24662964  -0.17671974  0.66916238  1.0
  O  O32  1  1.51042316  0.09947035  0.11393017  1.0
  O  O33  1  0.90052965  -0.51042316  0.61393017  1.0
  O  O34  1  1.09947035  0.51042316  0.38606983  1.0
  O  O35  1  0.48957684  -0.09947035  0.88606983  1.0
  O  O36  1  0.15960483  -0.13911262  0.41417564  1.0
  O  O37  1  1.13911262  0.84039517  0.91417564  1.0
  O  O38  1  0.86088738  -0.84039517  0.08582436  1.0
  O  O39  1  1.84039517  0.13911262  0.58582436  1.0
  O  O40  1  1.47534657  0.27157884  0.44154139  1.0
  O  O41  1  0.72842116  -0.47534657  0.94154139  1.0
  O  O42  1  1.27157884  0.47534657  0.05845861  1.0
  O  O43  1  0.52465343  -0.27157884  0.55845861  1.0
