# generated using pymatgen
data_Ba(C2N3)2
_symmetry_space_group_name_H-M   'P 1'
_cell_length_a   13.85422633
_cell_length_b   4.34001089
_cell_length_c   12.55943437
_cell_angle_alpha   90.00000000
_cell_angle_beta   90.00000000
_cell_angle_gamma   90.00000000
_symmetry_Int_Tables_number   1
_chemical_formula_structural   Ba(C2N3)2
_chemical_formula_sum   'Ba4 C16 N24'
_cell_volume   755.16730326
_cell_formula_units_Z   4
loop_
 _symmetry_equiv_pos_site_id
 _symmetry_equiv_pos_as_xyz
  1  'x, y, z'
loop_
 _atom_site_type_symbol
 _atom_site_label
 _atom_site_symmetry_multiplicity
 _atom_site_fract_x
 _atom_site_fract_y
 _atom_site_fract_z
 _atom_site_occupancy
  Ba  Ba0  1  0.28695277  0.75000000  0.87708063  1.0
  Ba  Ba1  1  0.78695277  0.75000000  0.62291937  1.0
  Ba  Ba2  1  0.71304723  0.25000000  0.12291937  1.0
  Ba  Ba3  1  0.21304723  0.25000000  0.37708063  1.0
  C  C4  1  0.49822874  0.75000000  0.64825983  1.0
  C  C5  1  0.99822874  0.75000000  0.85174017  1.0
  C  C6  1  0.50177126  0.25000000  0.35174017  1.0
  C  C7  1  0.00177126  0.25000000  0.14825983  1.0
  C  C8  1  0.48262325  0.75000000  0.11033540  1.0
  C  C9  1  0.98262325  0.75000000  0.38966460  1.0
  C  C10  1  0.51737675  0.25000000  0.88966460  1.0
  C  C11  1  0.01737675  0.25000000  0.61033540  1.0
  C  C12  1  0.34603413  0.75000000  0.57570764  1.0
  C  C13  1  0.84603413  0.75000000  0.92429236  1.0
  C  C14  1  0.65396587  0.25000000  0.42429236  1.0
  C  C15  1  0.15396587  0.25000000  0.07570764  1.0
  C  C16  1  0.32799412  0.75000000  0.17550171  1.0
  C  C17  1  0.82799412  0.75000000  0.32449829  1.0
  C  C18  1  0.67200588  0.25000000  0.82449829  1.0
  C  C19  1  0.17200588  0.25000000  0.67550171  1.0
  N  N20  1  0.40420514  0.75000000  0.65611421  1.0
  N  N21  1  0.90420514  0.75000000  0.84388579  1.0
  N  N22  1  0.59579486  0.25000000  0.34388579  1.0
  N  N23  1  0.09579486  0.25000000  0.15611421  1.0
  N  N24  1  0.38969627  0.75000000  0.09804110  1.0
  N  N25  1  0.88969627  0.75000000  0.40195890  1.0
  N  N26  1  0.61030373  0.25000000  0.90195890  1.0
  N  N27  1  0.11030373  0.25000000  0.59804110  1.0
  N  N28  1  0.28564064  0.75000000  0.50908461  1.0
  N  N29  1  0.78564064  0.75000000  0.99091539  1.0
  N  N30  1  0.71435936  0.25000000  0.49091539  1.0
  N  N31  1  0.21435936  0.25000000  0.00908461  1.0
  N  N32  1  0.26493452  0.75000000  0.23855900  1.0
  N  N33  1  0.76493452  0.75000000  0.26144100  1.0
  N  N34  1  0.73506548  0.25000000  0.76144100  1.0
  N  N35  1  0.23506548  0.25000000  0.73855900  1.0
  N  N36  1  0.08306074  0.75000000  0.84929772  1.0
  N  N37  1  0.58306074  0.75000000  0.65070228  1.0
  N  N38  1  0.91693926  0.25000000  0.15070228  1.0
  N  N39  1  0.41693926  0.25000000  0.34929772  1.0
  N  N40  1  0.06782585  0.75000000  0.38870498  1.0
  N  N41  1  0.56782585  0.75000000  0.11129502  1.0
  N  N42  1  0.93217415  0.25000000  0.61129502  1.0
  N  N43  1  0.43217415  0.25000000  0.88870498  1.0
