# generated using pymatgen
data_RbCuO
_symmetry_space_group_name_H-M   'P 1'
_cell_length_a   9.29417782
_cell_length_b   9.29417782
_cell_length_c   5.68529720
_cell_angle_alpha   90.00000000
_cell_angle_beta   90.00000000
_cell_angle_gamma   90.00000000
_symmetry_Int_Tables_number   1
_chemical_formula_structural   RbCuO
_chemical_formula_sum   'Rb4 Cu4 O4'
_cell_volume   491.10587171
_cell_formula_units_Z   4
loop_
 _symmetry_equiv_pos_site_id
 _symmetry_equiv_pos_as_xyz
  1  'x, y, z'
loop_
 _atom_site_type_symbol
 _atom_site_label
 _atom_site_symmetry_multiplicity
 _atom_site_fract_x
 _atom_site_fract_y
 _atom_site_fract_z
 _atom_site_occupancy
  Rb  Rb0  1  0.81562815  0.49998905  0.00000000  1.0
  Rb  Rb1  1  0.49998905  0.18437185  0.00000000  1.0
  Rb  Rb2  1  0.18437185  0.50001095  0.00000000  1.0
  Rb  Rb3  1  0.50001095  0.81562815  0.00000000  1.0
  Cu  Cu4  1  0.86002477  0.86005333  0.00000000  1.0
  Cu  Cu5  1  0.86005333  0.13997523  0.00000000  1.0
  Cu  Cu6  1  0.13997523  0.13994667  0.00000000  1.0
  Cu  Cu7  1  0.13994667  0.86002477  0.00000000  1.0
  O  O8  1  -0.00001777  0.72180792  0.00000000  1.0
  O  O9  1  0.72180792  0.00001777  0.00000000  1.0
  O  O10  1  0.00001777  0.27819208  0.00000000  1.0
  O  O11  1  0.27819208  -0.00001777  0.00000000  1.0
