# generated using pymatgen
data_SmAsO2
_symmetry_space_group_name_H-M   'P 1'
_cell_length_a   7.53053078
_cell_length_b   7.53053078
_cell_length_c   7.53053078
_cell_angle_alpha   128.61713951
_cell_angle_beta   128.61713951
_cell_angle_gamma   75.62739737
_symmetry_Int_Tables_number   1
_chemical_formula_structural   SmAsO2
_chemical_formula_sum   'Sm4 As4 O8'
_cell_volume   253.62694762
_cell_formula_units_Z   4
loop_
 _symmetry_equiv_pos_site_id
 _symmetry_equiv_pos_as_xyz
  1  'x, y, z'
loop_
 _atom_site_type_symbol
 _atom_site_label
 _atom_site_symmetry_multiplicity
 _atom_site_fract_x
 _atom_site_fract_y
 _atom_site_fract_z
 _atom_site_occupancy
  Sm  Sm0  1  0.37500000  0.62500000  0.75000000  1.0
  Sm  Sm1  1  0.87500000  0.62500000  1.25000000  1.0
  Sm  Sm2  1  0.37500000  1.12500000  0.75000000  1.0
  Sm  Sm3  1  0.37500000  0.62500000  0.25000000  1.0
  As  As4  1  0.87500000  0.12500000  0.75000000  1.0
  As  As5  1  0.37500000  0.12500000  0.25000000  1.0
  As  As6  1  0.87500000  0.62500000  0.75000000  1.0
  As  As7  1  0.87500000  1.12500000  1.25000000  1.0
  O  O8  1  1.17222020  0.93521024  1.76299760  1.0
  O  O9  1  0.57778736  0.84077740  1.26299760  1.0
  O  O10  1  1.06478976  0.82778736  1.23700996  1.0
  O  O11  1  1.15922260  1.42222020  1.73700996  1.0
  O  O12  1  0.17221264  0.40922260  0.23700240  1.0
  O  O13  1  0.57777980  0.31478976  0.73700240  1.0
  O  O14  1  0.59077740  0.82777980  0.76299004  1.0
  O  O15  1  0.68521024  0.42221264  0.26299004  1.0
