# generated using pymatgen
data_Cs4Pb9
_symmetry_space_group_name_H-M   'P 1'
_cell_length_a   10.27006338
_cell_length_b   15.03508388
_cell_length_c   17.75104729
_cell_angle_alpha   90.00000000
_cell_angle_beta   115.51450990
_cell_angle_gamma   90.00000000
_symmetry_Int_Tables_number   1
_chemical_formula_structural   Cs4Pb9
_chemical_formula_sum   'Cs16 Pb36'
_cell_volume   2473.65274328
_cell_formula_units_Z   4
loop_
 _symmetry_equiv_pos_site_id
 _symmetry_equiv_pos_as_xyz
  1  'x, y, z'
loop_
 _atom_site_type_symbol
 _atom_site_label
 _atom_site_symmetry_multiplicity
 _atom_site_fract_x
 _atom_site_fract_y
 _atom_site_fract_z
 _atom_site_occupancy
  Cs  Cs0  1  0.86587242  0.76167001  0.38060733  1.0
  Cs  Cs1  1  0.86587242  0.73832999  0.88060733  1.0
  Cs  Cs2  1  0.13412758  0.26167001  0.11939267  1.0
  Cs  Cs3  1  0.13412758  0.23832999  0.61939267  1.0
  Cs  Cs4  1  0.77073638  0.42816663  0.16024481  1.0
  Cs  Cs5  1  0.77073638  0.07183337  0.66024481  1.0
  Cs  Cs6  1  0.22926362  0.92816663  0.33975519  1.0
  Cs  Cs7  1  0.22926362  0.57183337  0.83975519  1.0
  Cs  Cs8  1  0.72564897  0.45544246  0.48619448  1.0
  Cs  Cs9  1  0.72564897  0.04455754  0.98619448  1.0
  Cs  Cs10  1  0.27435103  0.95544246  0.01380552  1.0
  Cs  Cs11  1  0.27435103  0.54455754  0.51380552  1.0
  Cs  Cs12  1  0.30223076  0.23268012  0.40663586  1.0
  Cs  Cs13  1  0.30223076  0.26731988  0.90663586  1.0
  Cs  Cs14  1  0.69776924  0.73268012  0.09336414  1.0
  Cs  Cs15  1  0.69776924  0.76731988  0.59336414  1.0
  Pb  Pb16  1  0.96440907  0.07934645  0.40736971  1.0
  Pb  Pb17  1  0.96440907  0.42065355  0.90736971  1.0
  Pb  Pb18  1  0.03559093  0.57934645  0.09263029  1.0
  Pb  Pb19  1  0.03559093  0.92065355  0.59263029  1.0
  Pb  Pb20  1  0.90114087  0.15721272  0.22789836  1.0
  Pb  Pb21  1  0.90114087  0.34278728  0.72789836  1.0
  Pb  Pb22  1  0.09885913  0.65721272  0.27210164  1.0
  Pb  Pb23  1  0.09885913  0.84278728  0.77210164  1.0
  Pb  Pb24  1  0.89909318  0.28860394  0.36754609  1.0
  Pb  Pb25  1  0.89909318  0.21139606  0.86754609  1.0
  Pb  Pb26  1  0.10090682  0.78860394  0.13245391  1.0
  Pb  Pb27  1  0.10090682  0.71139606  0.63245391  1.0
  Pb  Pb28  1  0.70762391  0.18810846  0.44074164  1.0
  Pb  Pb29  1  0.70762391  0.31189154  0.94074164  1.0
  Pb  Pb30  1  0.29237609  0.68810846  0.05925836  1.0
  Pb  Pb31  1  0.29237609  0.81189154  0.55925836  1.0
  Pb  Pb32  1  0.70604591  0.99026934  0.22726369  1.0
  Pb  Pb33  1  0.70604591  0.50973066  0.72726369  1.0
  Pb  Pb34  1  0.29395409  0.49026934  0.27273631  1.0
  Pb  Pb35  1  0.29395409  0.00973066  0.77273631  1.0
  Pb  Pb36  1  0.68546218  0.98382186  0.40192168  1.0
  Pb  Pb37  1  0.68546218  0.51617814  0.90192168  1.0
  Pb  Pb38  1  0.31453782  0.48382186  0.09807832  1.0
  Pb  Pb39  1  0.31453782  0.01617814  0.59807832  1.0
  Pb  Pb40  1  0.56254471  0.17303462  0.13110635  1.0
  Pb  Pb41  1  0.56254471  0.32696538  0.63110635  1.0
  Pb  Pb42  1  0.43745529  0.67303462  0.36889365  1.0
  Pb  Pb43  1  0.43745529  0.82696538  0.86889365  1.0
  Pb  Pb44  1  0.55475242  0.30069909  0.27318556  1.0
  Pb  Pb45  1  0.55475242  0.19930091  0.77318556  1.0
  Pb  Pb46  1  0.44524758  0.80069909  0.22681444  1.0
  Pb  Pb47  1  0.44524758  0.69930091  0.72681444  1.0
  Pb  Pb48  1  0.45099300  0.09752927  0.25905287  1.0
  Pb  Pb49  1  0.45099300  0.40247073  0.75905287  1.0
  Pb  Pb50  1  0.54900700  0.59752927  0.24094713  1.0
  Pb  Pb51  1  0.54900700  0.90247073  0.74094713  1.0
