# generated using pymatgen
data_KMnF3
_symmetry_space_group_name_H-M   'P 1'
_cell_length_a   6.01186095
_cell_length_b   6.01186095
_cell_length_c   6.01186095
_cell_angle_alpha   120.33673356
_cell_angle_beta   120.33673356
_cell_angle_gamma   89.41774321
_symmetry_Int_Tables_number   1
_chemical_formula_structural   KMnF3
_chemical_formula_sum   'K2 Mn2 F6'
_cell_volume   152.85209396
_cell_formula_units_Z   2
loop_
 _symmetry_equiv_pos_site_id
 _symmetry_equiv_pos_as_xyz
  1  'x, y, z'
loop_
 _atom_site_type_symbol
 _atom_site_label
 _atom_site_symmetry_multiplicity
 _atom_site_fract_x
 _atom_site_fract_y
 _atom_site_fract_z
 _atom_site_occupancy
  K  K0  1  0.25000000  0.75000000  0.50000000  1.0
  K  K1  1  0.75000000  0.25000000  0.50000000  1.0
  Mn  Mn2  1  0.00000000  0.00000000  0.00000000  1.0
  Mn  Mn3  1  0.50000000  0.50000000  1.00000000  1.0
  F  F4  1  0.28287070  0.78287070  1.06574140  1.0
  F  F5  1  0.21712930  0.28287070  0.50000000  1.0
  F  F6  1  0.78287070  0.71712930  1.50000000  1.0
  F  F7  1  0.71712930  0.21712930  0.93425860  1.0
  F  F8  1  0.75000000  0.75000000  1.00000000  1.0
  F  F9  1  0.25000000  0.25000000  0.00000000  1.0
