# generated using pymatgen
data_Na3Sc(BO3)2
_symmetry_space_group_name_H-M   'P 1'
_cell_length_a   5.14159681
_cell_length_b   9.04990268
_cell_length_c   7.22537282
_cell_angle_alpha   90.00000000
_cell_angle_beta   124.06177189
_cell_angle_gamma   90.00000000
_symmetry_Int_Tables_number   1
_chemical_formula_structural   Na3Sc(BO3)2
_chemical_formula_sum   'Na6 Sc2 B4 O12'
_cell_volume   278.52245409
_cell_formula_units_Z   2
loop_
 _symmetry_equiv_pos_site_id
 _symmetry_equiv_pos_as_xyz
  1  'x, y, z'
loop_
 _atom_site_type_symbol
 _atom_site_label
 _atom_site_symmetry_multiplicity
 _atom_site_fract_x
 _atom_site_fract_y
 _atom_site_fract_z
 _atom_site_occupancy
  Na  Na0  1  0.75668550  0.83139236  0.25359456  1.0
  Na  Na1  1  0.75668550  0.66860764  0.75359456  1.0
  Na  Na2  1  0.24331450  0.33139236  0.24640544  1.0
  Na  Na3  1  0.24331450  0.16860764  0.74640544  1.0
  Na  Na4  1  0.50000000  0.50000000  0.00000000  1.0
  Na  Na5  1  0.50000000  0.00000000  0.50000000  1.0
  Sc  Sc6  1  -0.00000000  0.50000000  0.50000000  1.0
  Sc  Sc7  1  0.00000000  0.00000000  0.00000000  1.0
  B  B8  1  0.72717231  0.16828276  0.23852068  1.0
  B  B9  1  0.72717231  0.33171724  0.73852068  1.0
  B  B10  1  0.27282769  0.66828276  0.26147932  1.0
  B  B11  1  0.27282769  0.83171724  0.76147932  1.0
  O  O12  1  0.97165792  0.08391774  0.26617645  1.0
  O  O13  1  0.97165792  0.41608226  0.76617645  1.0
  O  O14  1  0.02834208  0.58391774  0.23382355  1.0
  O  O15  1  0.02834208  0.91608226  0.73382355  1.0
  O  O16  1  0.76994460  0.31723702  0.29248899  1.0
  O  O17  1  0.76994460  0.18276298  0.79248899  1.0
  O  O18  1  0.23005540  0.81723702  0.20751101  1.0
  O  O19  1  0.23005540  0.68276298  0.70751101  1.0
  O  O20  1  0.43695273  0.10594696  0.15862936  1.0
  O  O21  1  0.43695273  0.39405304  0.65862936  1.0
  O  O22  1  0.56304727  0.60594696  0.34137064  1.0
  O  O23  1  0.56304727  0.89405304  0.84137064  1.0
