# generated using pymatgen
data_HfFeCl6
_symmetry_space_group_name_H-M   'P 1'
_cell_length_a   6.35771556
_cell_length_b   6.35771556
_cell_length_c   13.41464813
_cell_angle_alpha   90.00000000
_cell_angle_beta   90.00000000
_cell_angle_gamma   120.00000000
_symmetry_Int_Tables_number   1
_chemical_formula_structural   HfFeCl6
_chemical_formula_sum   'Hf2 Fe2 Cl12'
_cell_volume   469.58271752
_cell_formula_units_Z   2
loop_
 _symmetry_equiv_pos_site_id
 _symmetry_equiv_pos_as_xyz
  1  'x, y, z'
loop_
 _atom_site_type_symbol
 _atom_site_label
 _atom_site_symmetry_multiplicity
 _atom_site_fract_x
 _atom_site_fract_y
 _atom_site_fract_z
 _atom_site_occupancy
  Hf  Hf0  1  0.33333333  0.66666667  0.25000000  1.0
  Hf  Hf1  1  0.66666667  0.33333333  0.75000000  1.0
  Fe  Fe2  1  0.00000000  0.00000000  0.25000000  1.0
  Fe  Fe3  1  0.00000000  0.00000000  0.75000000  1.0
  Cl  Cl4  1  0.30492616  0.96975506  0.14426698  1.0
  Cl  Cl5  1  0.30492616  0.33517110  0.35573302  1.0
  Cl  Cl6  1  0.96975506  0.30492616  0.64426698  1.0
  Cl  Cl7  1  0.96975506  0.66482890  0.85573302  1.0
  Cl  Cl8  1  0.66482890  0.96975506  0.35573302  1.0
  Cl  Cl9  1  0.66482890  0.69507384  0.14426698  1.0
  Cl  Cl10  1  0.03024494  0.69507384  0.35573302  1.0
  Cl  Cl11  1  0.03024494  0.33517110  0.14426698  1.0
  Cl  Cl12  1  0.69507384  0.66482890  0.64426698  1.0
  Cl  Cl13  1  0.69507384  0.03024494  0.85573302  1.0
  Cl  Cl14  1  0.33517110  0.30492616  0.85573302  1.0
  Cl  Cl15  1  0.33517110  0.03024494  0.64426698  1.0
