# generated using pymatgen
data_CaIn2Cu
_symmetry_space_group_name_H-M   'P 1'
_cell_length_a   5.86479869
_cell_length_b   5.86479869
_cell_length_c   7.52030188
_cell_angle_alpha   90.00000000
_cell_angle_beta   90.00000000
_cell_angle_gamma   135.25341880
_symmetry_Int_Tables_number   1
_chemical_formula_structural   CaIn2Cu
_chemical_formula_sum   'Ca2 In4 Cu2'
_cell_volume   182.09461087
_cell_formula_units_Z   2
loop_
 _symmetry_equiv_pos_site_id
 _symmetry_equiv_pos_as_xyz
  1  'x, y, z'
loop_
 _atom_site_type_symbol
 _atom_site_label
 _atom_site_symmetry_multiplicity
 _atom_site_fract_x
 _atom_site_fract_y
 _atom_site_fract_z
 _atom_site_occupancy
  Ca  Ca0  1  0.43269288  0.56730712  0.75000000  1.0
  Ca  Ca1  1  -0.43269288  0.43269288  0.25000000  1.0
  In  In2  1  0.14302234  0.85697766  0.94926033  1.0
  In  In3  1  0.14302234  0.85697766  0.55073967  1.0
  In  In4  1  -0.14302234  0.14302234  0.44926033  1.0
  In  In5  1  -0.14302234  0.14302234  0.05073967  1.0
  Cu  Cu6  1  -0.28448819  0.28448819  0.75000000  1.0
  Cu  Cu7  1  0.28448819  0.71551181  0.25000000  1.0
