# generated using pymatgen
data_CdNi
_symmetry_space_group_name_H-M   'P 1'
_cell_length_a   8.58218100
_cell_length_b   8.58218100
_cell_length_c   8.58218100
_cell_angle_alpha   60.00000000
_cell_angle_beta   60.00000000
_cell_angle_gamma   60.00000000
_symmetry_Int_Tables_number   1
_chemical_formula_structural   CdNi
_chemical_formula_sum   'Cd12 Ni12'
_cell_volume   446.96962620
_cell_formula_units_Z   12
loop_
 _symmetry_equiv_pos_site_id
 _symmetry_equiv_pos_as_xyz
  1  'x, y, z'
loop_
 _atom_site_type_symbol
 _atom_site_label
 _atom_site_symmetry_multiplicity
 _atom_site_fract_x
 _atom_site_fract_y
 _atom_site_fract_z
 _atom_site_occupancy
  Cd  Cd0  1  0.76403449  0.76403449  -0.76403449  1.0
  Cd  Cd1  1  0.23596551  1.23596551  -0.23596551  1.0
  Cd  Cd2  1  0.76403449  -0.76403449  0.76403449  1.0
  Cd  Cd3  1  0.23596551  -0.23596551  0.23596551  1.0
  Cd  Cd4  1  -0.76403449  0.76403449  0.76403449  1.0
  Cd  Cd5  1  -0.23596551  0.23596551  0.23596551  1.0
  Cd  Cd6  1  0.48596551  1.48596551  0.01403449  1.0
  Cd  Cd7  1  0.01403449  0.01403449  0.48596551  1.0
  Cd  Cd8  1  0.48596551  1.01403449  0.48596551  1.0
  Cd  Cd9  1  0.01403449  1.48596551  0.01403449  1.0
  Cd  Cd10  1  0.01403449  1.48596551  0.48596551  1.0
  Cd  Cd11  1  0.48596551  1.01403449  0.01403449  1.0
  Ni  Ni12  1  0.62500000  1.12500000  0.12500000  1.0
  Ni  Ni13  1  0.12500000  1.62500000  0.12500000  1.0
  Ni  Ni14  1  0.12500000  0.12500000  1.62500000  1.0
  Ni  Ni15  1  0.12500000  0.12500000  0.12500000  1.0
  Ni  Ni16  1  -0.28532181  0.42844060  0.42844060  1.0
  Ni  Ni17  1  0.42844060  -0.28532181  0.42844060  1.0
  Ni  Ni18  1  0.42844060  1.42844060  -0.28532181  1.0
  Ni  Ni19  1  0.42844060  1.42844060  0.42844060  1.0
  Ni  Ni20  1  0.53532181  0.82155940  -0.17844060  1.0
  Ni  Ni21  1  0.82155940  0.53532181  0.82155940  1.0
  Ni  Ni22  1  0.82155940  0.82155940  -0.46467819  1.0
  Ni  Ni23  1  0.82155940  0.82155940  0.82155940  1.0
