# generated using pymatgen
data_Sm2ScSi2
_symmetry_space_group_name_H-M   'P 1'
_cell_length_a   7.27839368
_cell_length_b   7.27839368
_cell_length_c   4.52505661
_cell_angle_alpha   90.00000000
_cell_angle_beta   90.00000000
_cell_angle_gamma   90.00000000
_symmetry_Int_Tables_number   1
_chemical_formula_structural   Sm2ScSi2
_chemical_formula_sum   'Sm4 Sc2 Si4'
_cell_volume   239.71493979
_cell_formula_units_Z   2
loop_
 _symmetry_equiv_pos_site_id
 _symmetry_equiv_pos_as_xyz
  1  'x, y, z'
loop_
 _atom_site_type_symbol
 _atom_site_label
 _atom_site_symmetry_multiplicity
 _atom_site_fract_x
 _atom_site_fract_y
 _atom_site_fract_z
 _atom_site_occupancy
  Sm  Sm0  1  0.32176250  0.17823750  0.50000000  1.0
  Sm  Sm1  1  0.82176250  0.32176250  0.50000000  1.0
  Sm  Sm2  1  0.67823750  0.82176250  0.50000000  1.0
  Sm  Sm3  1  0.17823750  0.67823750  0.50000000  1.0
  Sc  Sc4  1  0.50000000  0.50000000  0.00000000  1.0
  Sc  Sc5  1  0.00000000  0.00000000  0.00000000  1.0
  Si  Si6  1  0.88159062  0.61840938  0.00000000  1.0
  Si  Si7  1  0.38159062  0.88159062  0.00000000  1.0
  Si  Si8  1  0.11840938  0.38159062  0.00000000  1.0
  Si  Si9  1  0.61840938  0.11840938  0.00000000  1.0
