# generated using pymatgen
data_Sr4In2N
_symmetry_space_group_name_H-M   'P 1'
_cell_length_a   15.87197567
_cell_length_b   15.87197567
_cell_length_c   15.87197567
_cell_angle_alpha   160.90648124
_cell_angle_beta   160.90648124
_cell_angle_gamma   27.13029131
_symmetry_Int_Tables_number   1
_chemical_formula_structural   Sr4In2N
_chemical_formula_sum   'Sr8 In4 N2'
_cell_volume   427.67068391
_cell_formula_units_Z   2
loop_
 _symmetry_equiv_pos_site_id
 _symmetry_equiv_pos_as_xyz
  1  'x, y, z'
loop_
 _atom_site_type_symbol
 _atom_site_label
 _atom_site_symmetry_multiplicity
 _atom_site_fract_x
 _atom_site_fract_y
 _atom_site_fract_z
 _atom_site_occupancy
  Sr  Sr0  1  1.25011290  1.25011290  1.00000000  1.0
  Sr  Sr1  1  1.00011290  1.50011290  0.50000000  1.0
  Sr  Sr2  1  0.49988710  -0.00011290  0.50000000  1.0
  Sr  Sr3  1  0.74988710  0.74988710  -0.00000000  1.0
  Sr  Sr4  1  0.58191007  0.58191007  1.00000000  1.0
  Sr  Sr5  1  1.33191007  0.83191007  0.50000000  1.0
  Sr  Sr6  1  1.16808993  0.66808993  0.50000000  1.0
  Sr  Sr7  1  1.41808993  1.41808993  1.00000000  1.0
  In  In8  1  0.90909873  0.90909873  -0.00000000  1.0
  In  In9  1  0.65909873  1.15909873  0.50000000  1.0
  In  In10  1  0.84090127  1.34090127  0.50000000  1.0
  In  In11  1  0.09090127  0.09090127  0.00000000  1.0
  N  N12  1  1.25000000  0.75000000  0.50000000  1.0
  N  N13  1  0.50000000  0.50000000  1.00000000  1.0
