# generated using pymatgen
data_K3Mg4O8
_symmetry_space_group_name_H-M   'P 1'
_cell_length_a   7.39683064
_cell_length_b   7.39683064
_cell_length_c   7.39683064
_cell_angle_alpha   102.99663239
_cell_angle_beta   102.99663239
_cell_angle_gamma   123.38158785
_symmetry_Int_Tables_number   1
_chemical_formula_structural   K3Mg4O8
_chemical_formula_sum   'K3 Mg4 O8'
_cell_volume   297.52054938
_cell_formula_units_Z   1
loop_
 _symmetry_equiv_pos_site_id
 _symmetry_equiv_pos_as_xyz
  1  'x, y, z'
loop_
 _atom_site_type_symbol
 _atom_site_label
 _atom_site_symmetry_multiplicity
 _atom_site_fract_x
 _atom_site_fract_y
 _atom_site_fract_z
 _atom_site_occupancy
  K  K0  1  0.74788153  0.24788153  0.50000000  1.0
  K  K1  1  1.24788153  0.74788153  0.50000000  1.0
  K  K2  1  0.35110572  0.35110572  0.00000000  1.0
  Mg  Mg3  1  0.19955539  0.19955539  0.39367811  1.0
  Mg  Mg4  1  0.80587728  1.19955539  1.00000000  1.0
  Mg  Mg5  1  0.80587728  0.80587728  0.60632189  1.0
  Mg  Mg6  1  0.19955539  0.80587728  1.00000000  1.0
  O  O7  1  1.26487266  0.99087349  0.27399917  1.0
  O  O8  1  0.99087349  1.26487266  1.27399917  1.0
  O  O9  1  1.71687433  0.99087349  0.72600083  1.0
  O  O10  1  0.99087349  0.71687433  0.72600083  1.0
  O  O11  1  1.07054390  1.07054390  0.57790186  1.0
  O  O12  1  0.49264204  1.07054390  1.00000000  1.0
  O  O13  1  0.49264204  0.49264204  0.42209814  1.0
  O  O14  1  1.07054390  1.49264204  1.00000000  1.0
