# generated using pymatgen
data_Sr7Hf(BO3)6
_symmetry_space_group_name_H-M   'P 1'
_cell_length_a   7.98430794
_cell_length_b   7.98430794
_cell_length_c   7.98430794
_cell_angle_alpha   105.21352393
_cell_angle_beta   105.21352393
_cell_angle_gamma   105.21352393
_symmetry_Int_Tables_number   1
_chemical_formula_structural   Sr7Hf(BO3)6
_chemical_formula_sum   'Sr7 Hf1 B6 O18'
_cell_volume   442.93232506
_cell_formula_units_Z   1
loop_
 _symmetry_equiv_pos_site_id
 _symmetry_equiv_pos_as_xyz
  1  'x, y, z'
loop_
 _atom_site_type_symbol
 _atom_site_label
 _atom_site_symmetry_multiplicity
 _atom_site_fract_x
 _atom_site_fract_y
 _atom_site_fract_z
 _atom_site_occupancy
  Sr  Sr0  1  0.76314160  0.63302706  0.13292960  1.0
  Sr  Sr1  1  1.36697294  -0.13292960  0.23685840  1.0
  Sr  Sr2  1  0.86707040  0.23685840  0.36697294  1.0
  Sr  Sr3  1  1.23685840  0.36697294  -0.13292960  1.0
  Sr  Sr4  1  0.63302706  1.13292960  -0.23685840  1.0
  Sr  Sr5  1  1.13292960  0.76314160  -0.36697294  1.0
  Sr  Sr6  1  0.50000000  0.50000000  0.50000000  1.0
  Hf  Hf7  1  0.00000000  0.00000000  0.00000000  1.0
  B  B8  1  1.54560268  0.79540866  -0.10739422  1.0
  B  B9  1  1.20459134  0.10739422  -0.54560268  1.0
  B  B10  1  1.10739422  -0.54560268  0.20459134  1.0
  B  B11  1  0.45439732  0.20459134  0.10739422  1.0
  B  B12  1  0.79540866  0.89260578  0.54560268  1.0
  B  B13  1  0.89260578  1.54560268  -0.20459134  1.0
  O  O14  1  0.72831749  0.92713537  -0.00623348  1.0
  O  O15  1  1.07286463  0.00623348  -0.72831749  1.0
  O  O16  1  1.00623348  -0.72831749  0.07286463  1.0
  O  O17  1  0.27168251  0.07286463  0.00623348  1.0
  O  O18  1  0.92713537  0.99376652  -0.27168251  1.0
  O  O19  1  0.99376652  0.72831749  -0.07286463  1.0
  O  O20  1  1.46373435  0.77981894  -0.28724606  1.0
  O  O21  1  1.22018106  0.28724606  -0.46373435  1.0
  O  O22  1  1.28724606  -0.46373435  0.22018106  1.0
  O  O23  1  0.53626565  0.22018106  0.28724606  1.0
  O  O24  1  0.77981894  0.71275394  0.46373435  1.0
  O  O25  1  0.71275394  1.46373435  -0.22018106  1.0
  O  O26  1  0.53694162  0.30599135  0.01726728  1.0
  O  O27  1  0.69400865  0.98273272  0.46305838  1.0
  O  O28  1  0.98273272  1.46305838  -0.30599135  1.0
  O  O29  1  1.46305838  0.69400865  -0.01726728  1.0
  O  O30  1  1.30599135  0.01726728  -0.46305838  1.0
  O  O31  1  1.01726728  -0.46305838  0.30599135  1.0
