# generated using pymatgen
data_Te7Pd20
_symmetry_space_group_name_H-M   'P 1'
_cell_length_a   7.91724067
_cell_length_b   7.91724067
_cell_length_c   7.91724067
_cell_angle_alpha   99.05490501
_cell_angle_beta   99.05490501
_cell_angle_gamma   99.05490501
_symmetry_Int_Tables_number   1
_chemical_formula_structural   Te7Pd20
_chemical_formula_sum   'Te7 Pd20'
_cell_volume   475.46509735
_cell_formula_units_Z   1
loop_
 _symmetry_equiv_pos_site_id
 _symmetry_equiv_pos_as_xyz
  1  'x, y, z'
loop_
 _atom_site_type_symbol
 _atom_site_label
 _atom_site_symmetry_multiplicity
 _atom_site_fract_x
 _atom_site_fract_y
 _atom_site_fract_z
 _atom_site_occupancy
  Te  Te0  1  1.45493731  0.88135243  -0.27735805  1.0
  Te  Te1  1  1.11864757  0.27735805  -0.45493731  1.0
  Te  Te2  1  1.27735805  -0.45493731  0.11864757  1.0
  Te  Te3  1  0.54506269  0.11864757  0.27735805  1.0
  Te  Te4  1  0.88135243  0.72264195  0.45493731  1.0
  Te  Te5  1  0.72264195  1.45493731  -0.11864757  1.0
  Te  Te6  1  0.00000000  0.00000000  0.00000000  1.0
  Pd  Pd7  1  0.67712033  0.45954258  0.22027767  1.0
  Pd  Pd8  1  1.54045742  -0.22027767  0.32287967  1.0
  Pd  Pd9  1  0.77972233  0.32287967  0.54045742  1.0
  Pd  Pd10  1  1.32287967  0.54045742  -0.22027767  1.0
  Pd  Pd11  1  0.45954258  1.22027767  -0.32287967  1.0
  Pd  Pd12  1  1.22027767  0.67712033  -0.54045742  1.0
  Pd  Pd13  1  1.66677082  0.77924254  -0.00677785  1.0
  Pd  Pd14  1  0.22075746  1.00677785  -0.66677082  1.0
  Pd  Pd15  1  1.00677785  0.33322918  -0.77924254  1.0
  Pd  Pd16  1  0.33322918  0.22075746  0.00677785  1.0
  Pd  Pd17  1  1.77924254  -0.00677785  0.66677082  1.0
  Pd  Pd18  1  0.99322215  0.66677082  0.77924254  1.0
  Pd  Pd19  1  0.68437115  1.14328479  -0.01277191  1.0
  Pd  Pd20  1  0.85671521  0.01277191  0.31562885  1.0
  Pd  Pd21  1  1.01277191  0.31562885  -0.14328479  1.0
  Pd  Pd22  1  1.31562885  -0.14328479  0.01277191  1.0
  Pd  Pd23  1  1.14328479  0.98722809  -0.31562885  1.0
  Pd  Pd24  1  0.98722809  0.68437115  0.14328479  1.0
  Pd  Pd25  1  0.62072341  0.62072341  0.62072341  1.0
  Pd  Pd26  1  0.37927659  0.37927659  0.37927659  1.0
