# generated using pymatgen
data_TeO2
_symmetry_space_group_name_H-M   'P 1'
_cell_length_a   5.48834134
_cell_length_b   5.83701095
_cell_length_c   12.09025603
_cell_angle_alpha   90.00000000
_cell_angle_beta   90.00000000
_cell_angle_gamma   90.00000000
_symmetry_Int_Tables_number   1
_chemical_formula_structural   TeO2
_chemical_formula_sum   'Te8 O16'
_cell_volume   387.31749929
_cell_formula_units_Z   8
loop_
 _symmetry_equiv_pos_site_id
 _symmetry_equiv_pos_as_xyz
  1  'x, y, z'
loop_
 _atom_site_type_symbol
 _atom_site_label
 _atom_site_symmetry_multiplicity
 _atom_site_fract_x
 _atom_site_fract_y
 _atom_site_fract_z
 _atom_site_occupancy
  Te  Te0  1  0.47759650  0.62781915  0.61949668  1.0
  Te  Te1  1  0.47759650  0.87218085  0.11949668  1.0
  Te  Te2  1  0.97759650  0.62781915  0.88050332  1.0
  Te  Te3  1  0.97759650  0.87218085  0.38050332  1.0
  Te  Te4  1  0.52240350  0.12781915  0.88050332  1.0
  Te  Te5  1  0.52240350  0.37218085  0.38050332  1.0
  Te  Te6  1  0.02240350  0.12781915  0.61949668  1.0
  Te  Te7  1  0.02240350  0.37218085  0.11949668  1.0
  O  O8  1  0.28841557  0.92340065  0.67523225  1.0
  O  O9  1  0.28841557  0.57659935  0.17523225  1.0
  O  O10  1  0.78841557  0.92340065  0.82476775  1.0
  O  O11  1  0.78841557  0.57659935  0.32476775  1.0
  O  O12  1  0.71158443  0.42340065  0.82476775  1.0
  O  O13  1  0.71158443  0.07659935  0.32476775  1.0
  O  O14  1  0.21158443  0.42340065  0.67523225  1.0
  O  O15  1  0.21158443  0.07659935  0.17523225  1.0
  O  O16  1  0.35002301  0.83825760  0.96634766  1.0
  O  O17  1  0.35002301  0.66174240  0.46634766  1.0
  O  O18  1  0.85002301  0.83825760  0.53365234  1.0
  O  O19  1  0.85002301  0.66174240  0.03365234  1.0
  O  O20  1  0.64997699  0.33825760  0.53365234  1.0
  O  O21  1  0.64997699  0.16174240  0.03365234  1.0
  O  O22  1  0.14997699  0.33825760  0.96634766  1.0
  O  O23  1  0.14997699  0.16174240  0.46634766  1.0
