# generated using pymatgen
data_Cs6Na4Tl13
_symmetry_space_group_name_H-M   'P 1'
_cell_length_a   10.52238012
_cell_length_b   10.52238012
_cell_length_c   10.52238012
_cell_angle_alpha   109.47122063
_cell_angle_beta   109.47122063
_cell_angle_gamma   109.47122063
_symmetry_Int_Tables_number   1
_chemical_formula_structural   Cs6Na4Tl13
_chemical_formula_sum   'Cs6 Na4 Tl13'
_cell_volume   896.85052968
_cell_formula_units_Z   1
loop_
 _symmetry_equiv_pos_site_id
 _symmetry_equiv_pos_as_xyz
  1  'x, y, z'
loop_
 _atom_site_type_symbol
 _atom_site_label
 _atom_site_symmetry_multiplicity
 _atom_site_fract_x
 _atom_site_fract_y
 _atom_site_fract_z
 _atom_site_occupancy
  Cs  Cs0  1  0.82742591  0.32742591  0.50000000  1.0
  Cs  Cs1  1  0.50000000  0.17257409  0.67257409  1.0
  Cs  Cs2  1  0.50000000  0.82742591  0.32742591  1.0
  Cs  Cs3  1  0.32742591  0.50000000  0.82742591  1.0
  Cs  Cs4  1  0.67257409  0.50000000  0.17257409  1.0
  Cs  Cs5  1  0.17257409  0.67257409  0.50000000  1.0
  Na  Na6  1  0.50000000  1.00000000  1.00000000  1.0
  Na  Na7  1  0.50000000  0.50000000  0.50000000  1.0
  Na  Na8  1  1.00000000  1.00000000  0.50000000  1.0
  Na  Na9  1  1.00000000  0.50000000  1.00000000  1.0
  Tl  Tl10  1  0.86039603  1.23389033  1.09428636  1.0
  Tl  Tl11  1  0.86039603  0.76610967  0.62650569  1.0
  Tl  Tl12  1  0.13960397  0.23389033  0.37349431  1.0
  Tl  Tl13  1  0.13960397  0.76610967  0.90571364  1.0
  Tl  Tl14  1  0.62650569  0.86039603  0.76610967  1.0
  Tl  Tl15  1  1.09428636  0.86039603  1.23389033  1.0
  Tl  Tl16  1  0.76610967  0.90571364  0.13960397  1.0
  Tl  Tl17  1  0.76610967  0.62650569  0.86039603  1.0
  Tl  Tl18  1  0.90571364  0.13960397  0.76610967  1.0
  Tl  Tl19  1  0.37349431  0.13960397  0.23389033  1.0
  Tl  Tl20  1  0.23389033  0.37349431  0.13960397  1.0
  Tl  Tl21  1  1.23389033  1.09428636  0.86039603  1.0
  Tl  Tl22  1  0.00000000  0.00000000  0.00000000  1.0
