# generated using pymatgen
data_CSNCl
_symmetry_space_group_name_H-M   'P 1'
_cell_length_a   7.64397813
_cell_length_b   14.40557164
_cell_length_c   7.09148176
_cell_angle_alpha   90.00000000
_cell_angle_beta   113.74835961
_cell_angle_gamma   90.00000000
_symmetry_Int_Tables_number   1
_chemical_formula_structural   CSNCl
_chemical_formula_sum   'C8 S8 N8 Cl8'
_cell_volume   714.76174770
_cell_formula_units_Z   8
loop_
 _symmetry_equiv_pos_site_id
 _symmetry_equiv_pos_as_xyz
  1  'x, y, z'
loop_
 _atom_site_type_symbol
 _atom_site_label
 _atom_site_symmetry_multiplicity
 _atom_site_fract_x
 _atom_site_fract_y
 _atom_site_fract_z
 _atom_site_occupancy
  C  C0  1  0.70645223  0.87615132  0.54504685  1.0
  C  C1  1  0.70645223  0.62384868  0.04504685  1.0
  C  C2  1  0.29354777  0.37615132  0.95495315  1.0
  C  C3  1  0.29354777  0.12384868  0.45495315  1.0
  C  C4  1  0.65240181  0.94533403  0.67485901  1.0
  C  C5  1  0.65240181  0.55466597  0.17485901  1.0
  C  C6  1  0.34759819  0.44533403  0.82514099  1.0
  C  C7  1  0.34759819  0.05466597  0.32514099  1.0
  S  S8  1  0.39538802  0.93023604  0.62402332  1.0
  S  S9  1  0.39538802  0.56976396  0.12402332  1.0
  S  S10  1  0.60461198  0.43023604  0.87597668  1.0
  S  S11  1  0.60461198  0.06976396  0.37597668  1.0
  S  S12  1  0.37106907  0.62812022  0.73294193  1.0
  S  S13  1  0.37106907  0.87187978  0.23294193  1.0
  S  S14  1  0.62893093  0.12812022  0.76705807  1.0
  S  S15  1  0.62893093  0.37187978  0.26705807  1.0
  N  N16  1  0.59240453  0.65596166  0.87105703  1.0
  N  N17  1  0.59240453  0.84403834  0.37105703  1.0
  N  N18  1  0.40759547  0.15596166  0.62894297  1.0
  N  N19  1  0.40759547  0.34403834  0.12894297  1.0
  N  N20  1  0.30449388  0.54210939  0.86519841  1.0
  N  N21  1  0.30449388  0.95789061  0.36519841  1.0
  N  N22  1  0.69550612  0.04210939  0.63480159  1.0
  N  N23  1  0.69550612  0.45789061  0.13480159  1.0
  Cl  Cl24  1  0.94175604  0.83624592  0.64522935  1.0
  Cl  Cl25  1  0.94175604  0.66375408  0.14522935  1.0
  Cl  Cl26  1  0.05824396  0.33624592  0.85477065  1.0
  Cl  Cl27  1  0.05824396  0.16375408  0.35477065  1.0
  Cl  Cl28  1  0.76789305  0.92140397  0.94398696  1.0
  Cl  Cl29  1  0.76789305  0.57859603  0.44398696  1.0
  Cl  Cl30  1  0.23210695  0.42140397  0.55601304  1.0
  Cl  Cl31  1  0.23210695  0.07859603  0.05601304  1.0
