# generated using pymatgen
data_RbW3I7
_symmetry_space_group_name_H-M   'P 1'
_cell_length_a   10.75987090
_cell_length_b   10.75987090
_cell_length_c   16.98999953
_cell_angle_alpha   90.00000000
_cell_angle_beta   90.00000000
_cell_angle_gamma   120.00000000
_symmetry_Int_Tables_number   1
_chemical_formula_structural   RbW3I7
_chemical_formula_sum   'Rb4 W12 I28'
_cell_volume   1703.48423970
_cell_formula_units_Z   4
loop_
 _symmetry_equiv_pos_site_id
 _symmetry_equiv_pos_as_xyz
  1  'x, y, z'
loop_
 _atom_site_type_symbol
 _atom_site_label
 _atom_site_symmetry_multiplicity
 _atom_site_fract_x
 _atom_site_fract_y
 _atom_site_fract_z
 _atom_site_occupancy
  Rb  Rb0  1  0.33333333  0.66666667  0.75000000  1.0
  Rb  Rb1  1  0.66666667  0.33333333  0.25000000  1.0
  Rb  Rb2  1  0.00000000  0.00000000  0.00000000  1.0
  Rb  Rb3  1  0.00000000  0.00000000  0.50000000  1.0
  W  W4  1  0.81118763  0.33486633  0.81392031  1.0
  W  W5  1  0.52367870  0.18881237  0.81392031  1.0
  W  W6  1  0.66513367  0.47632130  0.81392031  1.0
  W  W7  1  0.18881237  0.52367870  0.31392031  1.0
  W  W8  1  0.33486633  0.81118763  0.31392031  1.0
  W  W9  1  0.47632130  0.66513367  0.31392031  1.0
  W  W10  1  0.18881237  0.66513367  0.18607969  1.0
  W  W11  1  0.47632130  0.81118763  0.18607969  1.0
  W  W12  1  0.33486633  0.52367870  0.18607969  1.0
  W  W13  1  0.81118763  0.47632130  0.68607969  1.0
  W  W14  1  0.66513367  0.18881237  0.68607969  1.0
  W  W15  1  0.52367870  0.33486633  0.68607969  1.0
  I  I16  1  0.66666667  0.33333333  0.95269403  1.0
  I  I17  1  0.33333333  0.66666667  0.45269403  1.0
  I  I18  1  0.33333333  0.66666667  0.04730597  1.0
  I  I19  1  0.66666667  0.33333333  0.54730597  1.0
  I  I20  1  0.67206353  0.03146030  0.81977540  1.0
  I  I21  1  0.35939677  0.32793647  0.81977540  1.0
  I  I22  1  0.96853970  0.64060323  0.81977540  1.0
  I  I23  1  0.32793647  0.35939677  0.31977540  1.0
  I  I24  1  0.03146030  0.67206353  0.31977540  1.0
  I  I25  1  0.64060323  0.96853970  0.31977540  1.0
  I  I26  1  0.32793647  0.96853970  0.18022460  1.0
  I  I27  1  0.64060323  0.67206353  0.18022460  1.0
  I  I28  1  0.03146030  0.35939677  0.18022460  1.0
  I  I29  1  0.67206353  0.64060323  0.68022460  1.0
  I  I30  1  0.96853970  0.32793647  0.68022460  1.0
  I  I31  1  0.35939677  0.03146030  0.68022460  1.0
  I  I32  1  0.03622175  0.34362882  0.90945019  1.0
  I  I33  1  0.30740707  0.96377825  0.90945019  1.0
  I  I34  1  0.65637118  0.69259293  0.90945019  1.0
  I  I35  1  0.96377825  0.30740707  0.40945019  1.0
  I  I36  1  0.34362882  0.03622175  0.40945019  1.0
  I  I37  1  0.69259293  0.65637118  0.40945019  1.0
  I  I38  1  0.96377825  0.65637118  0.09054981  1.0
  I  I39  1  0.69259293  0.03622175  0.09054981  1.0
  I  I40  1  0.34362882  0.30740707  0.09054981  1.0
  I  I41  1  0.03622175  0.69259293  0.59054981  1.0
  I  I42  1  0.65637118  0.96377825  0.59054981  1.0
  I  I43  1  0.30740707  0.34362882  0.59054981  1.0
