# generated using pymatgen
data_Ti2C
_symmetry_space_group_name_H-M   'P 1'
_cell_length_a   6.10556197
_cell_length_b   6.10556197
_cell_length_c   6.10556197
_cell_angle_alpha   60.00000000
_cell_angle_beta   60.00000000
_cell_angle_gamma   60.00000000
_symmetry_Int_Tables_number   1
_chemical_formula_structural   Ti2C
_chemical_formula_sum   'Ti8 C4'
_cell_volume   160.93923508
_cell_formula_units_Z   4
loop_
 _symmetry_equiv_pos_site_id
 _symmetry_equiv_pos_as_xyz
  1  'x, y, z'
loop_
 _atom_site_type_symbol
 _atom_site_label
 _atom_site_symmetry_multiplicity
 _atom_site_fract_x
 _atom_site_fract_y
 _atom_site_fract_z
 _atom_site_occupancy
  Ti  Ti0  1  1.38122366  0.38122366  -0.14367098  1.0
  Ti  Ti1  1  1.38122366  -0.14367098  0.38122366  1.0
  Ti  Ti2  1  0.85632902  0.38122366  0.38122366  1.0
  Ti  Ti3  1  1.38122366  0.38122366  0.38122366  1.0
  Ti  Ti4  1  0.86877634  -0.13122366  0.39367098  1.0
  Ti  Ti5  1  0.86877634  -0.60632902  0.86877634  1.0
  Ti  Ti6  1  0.39367098  0.86877634  0.86877634  1.0
  Ti  Ti7  1  0.86877634  0.86877634  0.86877634  1.0
  C  C8  1  0.62500000  0.62500000  1.12500000  1.0
  C  C9  1  0.62500000  1.12500000  0.62500000  1.0
  C  C10  1  1.12500000  0.62500000  0.62500000  1.0
  C  C11  1  0.62500000  0.62500000  0.62500000  1.0
