# generated using pymatgen
data_Bi5IO7
_symmetry_space_group_name_H-M   'P 1'
_cell_length_a   9.81990349
_cell_length_b   9.81990349
_cell_length_c   13.27007903
_cell_angle_alpha   76.35132293
_cell_angle_beta   103.64867707
_cell_angle_gamma   155.10593288
_symmetry_Int_Tables_number   1
_chemical_formula_structural   Bi5IO7
_chemical_formula_sum   'Bi10 I2 O14'
_cell_volume   522.69074288
_cell_formula_units_Z   2
loop_
 _symmetry_equiv_pos_site_id
 _symmetry_equiv_pos_as_xyz
  1  'x, y, z'
loop_
 _atom_site_type_symbol
 _atom_site_label
 _atom_site_symmetry_multiplicity
 _atom_site_fract_x
 _atom_site_fract_y
 _atom_site_fract_z
 _atom_site_occupancy
  Bi  Bi0  1  0.20737273  -0.20737273  0.36988319  1.0
  Bi  Bi1  1  0.79262727  0.20737273  0.63011681  1.0
  Bi  Bi2  1  0.53748060  0.46251940  0.37005808  1.0
  Bi  Bi3  1  0.46251940  -0.46251940  0.62994192  1.0
  Bi  Bi4  1  0.61551134  0.38448866  0.12798905  1.0
  Bi  Bi5  1  0.38448866  -0.38448866  0.87201095  1.0
  Bi  Bi6  1  0.87653765  0.12346235  0.40433217  1.0
  Bi  Bi7  1  0.12346235  -0.12346235  0.59566783  1.0
  Bi  Bi8  1  0.27114769  -0.27114769  0.13287752  1.0
  Bi  Bi9  1  0.72885231  0.27114769  0.86712248  1.0
  I  I10  1  0.06300411  -0.06300411  0.86444377  1.0
  I  I11  1  0.93699589  0.06300411  0.13555623  1.0
  O  O12  1  0.58048392  0.41951608  0.53574330  1.0
  O  O13  1  0.41951608  -0.41951608  0.46425670  1.0
  O  O14  1  0.83954702  0.16045298  0.83517020  1.0
  O  O15  1  0.16045298  -0.16045298  0.16482980  1.0
  O  O16  1  0.72324696  0.27675304  0.10294422  1.0
  O  O17  1  0.27675304  -0.27675304  0.89705578  1.0
  O  O18  1  0.77396922  0.22603078  0.44078821  1.0
  O  O19  1  0.22603078  -0.22603078  0.55921179  1.0
  O  O20  1  0.36677636  -0.36677636  0.70182679  1.0
  O  O21  1  0.63322364  0.36677636  0.29817321  1.0
  O  O22  1  0.07819632  -0.07819632  0.41765405  1.0
  O  O23  1  0.92180368  0.07819632  0.58234595  1.0
  O  O24  1  0.69579900  0.30420100  0.70361803  1.0
  O  O25  1  0.30420100  -0.30420100  0.29638197  1.0
