# generated using pymatgen
data_VIr
_symmetry_space_group_name_H-M   'P 1'
_cell_length_a   6.62621158
_cell_length_b   6.62621158
_cell_length_c   11.08554269
_cell_angle_alpha   90.00000000
_cell_angle_beta   90.00000000
_cell_angle_gamma   114.16015691
_symmetry_Int_Tables_number   1
_chemical_formula_structural   VIr
_chemical_formula_sum   'V16 Ir16'
_cell_volume   444.09429230
_cell_formula_units_Z   16
loop_
 _symmetry_equiv_pos_site_id
 _symmetry_equiv_pos_as_xyz
  1  'x, y, z'
loop_
 _atom_site_type_symbol
 _atom_site_label
 _atom_site_symmetry_multiplicity
 _atom_site_fract_x
 _atom_site_fract_y
 _atom_site_fract_z
 _atom_site_occupancy
  V  V0  1  -0.35854105  1.35854105  0.86659059  1.0
  V  V1  1  0.35854105  0.64145895  0.13340941  1.0
  V  V2  1  -0.35854105  1.35854105  0.63340941  1.0
  V  V3  1  0.35854105  0.64145895  0.36659059  1.0
  V  V4  1  0.36838300  0.63161700  0.88292935  1.0
  V  V5  1  -0.36838300  1.36838300  0.11707065  1.0
  V  V6  1  0.36838300  0.63161700  0.61707065  1.0
  V  V7  1  -0.36838300  1.36838300  0.38292935  1.0
  V  V8  1  -0.12315721  1.12315721  0.86837348  1.0
  V  V9  1  0.12315721  0.87684279  0.13162652  1.0
  V  V10  1  -0.12315721  1.12315721  0.63162652  1.0
  V  V11  1  0.12315721  0.87684279  0.36837348  1.0
  V  V12  1  0.10536052  0.89463948  0.88323495  1.0
  V  V13  1  -0.10536052  1.10536052  0.11676505  1.0
  V  V14  1  0.10536052  0.89463948  0.61676505  1.0
  V  V15  1  -0.10536052  1.10536052  0.38323495  1.0
  Ir  Ir16  1  0.50000000  1.00000000  0.00000000  1.0
  Ir  Ir17  1  -0.00000000  1.50000000  0.00000000  1.0
  Ir  Ir18  1  0.50000000  1.00000000  0.50000000  1.0
  Ir  Ir19  1  -0.00000000  1.50000000  0.50000000  1.0
  Ir  Ir20  1  0.73191751  0.73191751  0.00000000  1.0
  Ir  Ir21  1  0.73191751  0.73191751  0.50000000  1.0
  Ir  Ir22  1  0.26808249  0.26808249  0.00000000  1.0
  Ir  Ir23  1  0.26808249  0.26808249  0.50000000  1.0
  Ir  Ir24  1  0.47389865  0.98220476  0.75000000  1.0
  Ir  Ir25  1  -0.01779524  1.47389865  0.25000000  1.0
  Ir  Ir26  1  -0.47389865  1.01779524  0.25000000  1.0
  Ir  Ir27  1  0.01779524  0.52610135  0.75000000  1.0
  Ir  Ir28  1  0.72986702  0.73450034  0.75000000  1.0
  Ir  Ir29  1  -0.26549966  1.72986702  0.25000000  1.0
  Ir  Ir30  1  -0.72986702  1.26549966  0.25000000  1.0
  Ir  Ir31  1  0.26549966  0.27013298  0.75000000  1.0
