# generated using pymatgen
data_Eu3RuO7
_symmetry_space_group_name_H-M   'P 1'
_cell_length_a   6.55650048
_cell_length_b   6.55650048
_cell_length_c   7.55813361
_cell_angle_alpha   90.00000000
_cell_angle_beta   90.00000000
_cell_angle_gamma   68.87038563
_symmetry_Int_Tables_number   1
_chemical_formula_structural   Eu3RuO7
_chemical_formula_sum   'Eu6 Ru2 O14'
_cell_volume   303.06242219
_cell_formula_units_Z   2
loop_
 _symmetry_equiv_pos_site_id
 _symmetry_equiv_pos_as_xyz
  1  'x, y, z'
loop_
 _atom_site_type_symbol
 _atom_site_label
 _atom_site_symmetry_multiplicity
 _atom_site_fract_x
 _atom_site_fract_y
 _atom_site_fract_z
 _atom_site_occupancy
  Eu  Eu0  1  0.00000000  0.00000000  0.50000000  1.0
  Eu  Eu1  1  0.00000000  0.00000000  0.00000000  1.0
  Eu  Eu2  1  0.06903048  0.47717774  0.25000000  1.0
  Eu  Eu3  1  -0.52282226  1.06903048  0.75000000  1.0
  Eu  Eu4  1  0.52282226  0.93096952  0.25000000  1.0
  Eu  Eu5  1  -0.06903048  1.52282226  0.75000000  1.0
  Ru  Ru6  1  0.50000000  0.50000000  0.50000000  1.0
  Ru  Ru7  1  0.50000000  0.50000000  0.00000000  1.0
  O  O8  1  -0.18942099  1.44011882  0.46242326  1.0
  O  O9  1  -0.18942099  1.44011882  0.03757674  1.0
  O  O10  1  0.44011882  0.81057901  0.96242326  1.0
  O  O11  1  0.44011882  0.81057901  0.53757674  1.0
  O  O12  1  -0.44011882  1.18942099  0.46242326  1.0
  O  O13  1  -0.44011882  1.18942099  0.03757674  1.0
  O  O14  1  0.18942099  0.55988118  0.96242326  1.0
  O  O15  1  0.18942099  0.55988118  0.53757674  1.0
  O  O16  1  0.41893592  0.58106408  0.25000000  1.0
  O  O17  1  -0.41893592  1.41893592  0.75000000  1.0
  O  O18  1  -0.10759236  1.84340114  0.25000000  1.0
  O  O19  1  0.84340114  0.89240764  0.75000000  1.0
  O  O20  1  -0.84340114  1.10759236  0.25000000  1.0
  O  O21  1  0.10759236  0.15659886  0.75000000  1.0
