# generated using pymatgen
data_Sr2LiCBr3N2
_symmetry_space_group_name_H-M   'P 1'
_cell_length_a   10.41978019
_cell_length_b   10.41978019
_cell_length_c   10.41978019
_cell_angle_alpha   60.00000000
_cell_angle_beta   60.00000000
_cell_angle_gamma   60.00000000
_symmetry_Int_Tables_number   1
_chemical_formula_structural   Sr2LiCBr3N2
_chemical_formula_sum   'Sr8 Li4 C4 Br12 N8'
_cell_volume   799.94600572
_cell_formula_units_Z   4
loop_
 _symmetry_equiv_pos_site_id
 _symmetry_equiv_pos_as_xyz
  1  'x, y, z'
loop_
 _atom_site_type_symbol
 _atom_site_label
 _atom_site_symmetry_multiplicity
 _atom_site_fract_x
 _atom_site_fract_y
 _atom_site_fract_z
 _atom_site_occupancy
  Sr  Sr0  1  1.40362537  0.40362537  -0.21087610  1.0
  Sr  Sr1  1  0.40362537  0.40362537  0.40362537  1.0
  Sr  Sr2  1  0.78912390  0.40362537  0.40362537  1.0
  Sr  Sr3  1  0.40362537  -0.21087610  0.40362537  1.0
  Sr  Sr4  1  0.84637463  0.84637463  -0.53912390  1.0
  Sr  Sr5  1  -0.15362537  0.84637463  0.84637463  1.0
  Sr  Sr6  1  -0.53912390  0.84637463  0.84637463  1.0
  Sr  Sr7  1  0.84637463  0.46087610  -0.15362537  1.0
  Li  Li8  1  0.62500000  0.12500000  0.12500000  1.0
  Li  Li9  1  0.12500000  0.62500000  1.12500000  1.0
  Li  Li10  1  0.12500000  0.12500000  0.62500000  1.0
  Li  Li11  1  1.12500000  0.12500000  0.12500000  1.0
  C  C12  1  0.62500000  0.12500000  0.62500000  1.0
  C  C13  1  1.12500000  0.62500000  -0.37500000  1.0
  C  C14  1  0.62500000  -0.37500000  0.62500000  1.0
  C  C15  1  -0.37500000  0.62500000  1.12500000  1.0
  Br  Br16  1  0.44495939  0.44495939  0.05504061  1.0
  Br  Br17  1  0.05504061  0.05504061  0.44495939  1.0
  Br  Br18  1  0.44495939  0.05504061  0.44495939  1.0
  Br  Br19  1  1.05504061  0.44495939  0.05504061  1.0
  Br  Br20  1  0.05504061  0.44495939  0.44495939  1.0
  Br  Br21  1  0.44495939  0.05504061  0.05504061  1.0
  Br  Br22  1  0.80504061  -0.19495939  0.19495939  1.0
  Br  Br23  1  1.19495939  0.19495939  -0.19495939  1.0
  Br  Br24  1  0.80504061  0.19495939  -0.19495939  1.0
  Br  Br25  1  0.19495939  -0.19495939  0.19495939  1.0
  Br  Br26  1  0.19495939  0.80504061  0.80504061  1.0
  Br  Br27  1  0.80504061  0.19495939  0.19495939  1.0
  N  N28  1  0.57669955  0.26990135  0.57669955  1.0
  N  N29  1  0.26990135  0.57669955  0.57669955  1.0
  N  N30  1  0.57669955  0.57669955  0.57669955  1.0
  N  N31  1  0.57669955  0.57669955  0.26990135  1.0
  N  N32  1  -0.32669955  0.98009865  0.67330045  1.0
  N  N33  1  -0.01990135  0.67330045  0.67330045  1.0
  N  N34  1  -0.32669955  0.67330045  0.67330045  1.0
  N  N35  1  -0.32669955  0.67330045  0.98009865  1.0
