# generated using pymatgen
data_LaCd2Cu9
_symmetry_space_group_name_H-M   'P 1'
_cell_length_a   8.53639999
_cell_length_b   8.53639999
_cell_length_c   5.05112881
_cell_angle_alpha   90.00000000
_cell_angle_beta   90.00000000
_cell_angle_gamma   90.00000000
_symmetry_Int_Tables_number   1
_chemical_formula_structural   LaCd2Cu9
_chemical_formula_sum   'La2 Cd4 Cu18'
_cell_volume   368.07638663
_cell_formula_units_Z   2
loop_
 _symmetry_equiv_pos_site_id
 _symmetry_equiv_pos_as_xyz
  1  'x, y, z'
loop_
 _atom_site_type_symbol
 _atom_site_label
 _atom_site_symmetry_multiplicity
 _atom_site_fract_x
 _atom_site_fract_y
 _atom_site_fract_z
 _atom_site_occupancy
  La  La0  1  0.50000000  0.50000000  0.00000000  1.0
  La  La1  1  0.00000000  0.00000000  0.00000000  1.0
  Cd  Cd2  1  0.88050011  0.61949989  0.00000000  1.0
  Cd  Cd3  1  0.38050011  0.88050011  0.00000000  1.0
  Cd  Cd4  1  0.11949989  0.38050011  0.00000000  1.0
  Cd  Cd5  1  0.61949989  0.11949989  0.00000000  1.0
  Cu  Cu6  1  0.32135556  0.17864444  0.75083115  1.0
  Cu  Cu7  1  0.32135556  0.17864444  0.24916885  1.0
  Cu  Cu8  1  0.82135556  0.32135556  0.75083115  1.0
  Cu  Cu9  1  0.82135556  0.32135556  0.24916885  1.0
  Cu  Cu10  1  0.67864444  0.82135556  0.75083115  1.0
  Cu  Cu11  1  0.67864444  0.82135556  0.24916885  1.0
  Cu  Cu12  1  0.17864444  0.67864444  0.75083115  1.0
  Cu  Cu13  1  0.17864444  0.67864444  0.24916885  1.0
  Cu  Cu14  1  0.43622444  0.70911900  0.50000000  1.0
  Cu  Cu15  1  0.93622444  0.79088100  0.50000000  1.0
  Cu  Cu16  1  0.29088100  0.43622444  0.50000000  1.0
  Cu  Cu17  1  0.79088100  0.06377556  0.50000000  1.0
  Cu  Cu18  1  0.56377556  0.29088100  0.50000000  1.0
  Cu  Cu19  1  0.06377556  0.20911900  0.50000000  1.0
  Cu  Cu20  1  0.70911900  0.56377556  0.50000000  1.0
  Cu  Cu21  1  0.20911900  0.93622444  0.50000000  1.0
  Cu  Cu22  1  0.50000000  0.00000000  0.50000000  1.0
  Cu  Cu23  1  0.00000000  0.50000000  0.50000000  1.0
