# generated using pymatgen
data_Nb4GaSe8
_symmetry_space_group_name_H-M   'P 1'
_cell_length_a   7.44765246
_cell_length_b   7.44765246
_cell_length_c   7.44765246
_cell_angle_alpha   60.00000000
_cell_angle_beta   60.00000000
_cell_angle_gamma   60.00000000
_symmetry_Int_Tables_number   1
_chemical_formula_structural   Nb4GaSe8
_chemical_formula_sum   'Nb4 Ga1 Se8'
_cell_volume   292.10783685
_cell_formula_units_Z   1
loop_
 _symmetry_equiv_pos_site_id
 _symmetry_equiv_pos_as_xyz
  1  'x, y, z'
loop_
 _atom_site_type_symbol
 _atom_site_label
 _atom_site_symmetry_multiplicity
 _atom_site_fract_x
 _atom_site_fract_y
 _atom_site_fract_z
 _atom_site_occupancy
  Nb  Nb0  1  -0.39733463  0.60266537  0.60266537  1.0
  Nb  Nb1  1  1.19200389  0.60266537  -0.39733463  1.0
  Nb  Nb2  1  -0.39733463  0.60266537  1.19200389  1.0
  Nb  Nb3  1  0.60266537  1.19200389  -0.39733463  1.0
  Ga  Ga4  1  0.00000000  0.00000000  0.00000000  1.0
  Se  Se5  1  0.86466384  0.86466384  -0.13533616  1.0
  Se  Se6  1  0.40600848  0.86466384  -0.13533616  1.0
  Se  Se7  1  0.86466384  0.86466384  -0.59399152  1.0
  Se  Se8  1  0.86466384  0.40600848  -0.13533616  1.0
  Se  Se9  1  0.36543465  1.36543465  0.36543465  1.0
  Se  Se10  1  -0.09630395  0.36543465  0.36543465  1.0
  Se  Se11  1  0.36543465  1.36543465  -0.09630395  1.0
  Se  Se12  1  0.36543465  -0.09630395  0.36543465  1.0
