# generated using pymatgen
data_Ti3H2O7
_symmetry_space_group_name_H-M   'P 1'
_cell_length_a   8.35553300
_cell_length_b   8.35553300
_cell_length_c   9.51641627
_cell_angle_alpha   80.58425691
_cell_angle_beta   99.41574309
_cell_angle_gamma   154.00767279
_symmetry_Int_Tables_number   1
_chemical_formula_structural   Ti3H2O7
_chemical_formula_sum   'Ti6 H4 O14'
_cell_volume   287.03523306
_cell_formula_units_Z   2
loop_
 _symmetry_equiv_pos_site_id
 _symmetry_equiv_pos_as_xyz
  1  'x, y, z'
loop_
 _atom_site_type_symbol
 _atom_site_label
 _atom_site_symmetry_multiplicity
 _atom_site_fract_x
 _atom_site_fract_y
 _atom_site_fract_z
 _atom_site_occupancy
  Ti  Ti0  1  0.87467417  0.12532583  0.65558057  1.0
  Ti  Ti1  1  0.12532583  -0.12532583  0.34441943  1.0
  Ti  Ti2  1  0.82474329  0.17525671  -0.01139396  1.0
  Ti  Ti3  1  0.17525671  -0.17525671  1.01139396  1.0
  Ti  Ti4  1  0.77104321  0.22895679  0.28629464  1.0
  Ti  Ti5  1  0.22895679  -0.22895679  0.71370536  1.0
  H  H6  1  0.97754216  0.02245784  0.90274159  1.0
  H  H7  1  0.02245784  -0.02245784  0.09725841  1.0
  H  H8  1  0.95970528  0.04029472  0.29742985  1.0
  H  H9  1  0.04029472  -0.04029472  0.70257015  1.0
  O  O10  1  0.98222925  0.01777075  0.65116900  1.0
  O  O11  1  0.01777075  -0.01777075  0.34883100  1.0
  O  O12  1  0.91724708  0.08275292  0.89001223  1.0
  O  O13  1  0.08275292  -0.08275292  0.10998777  1.0
  O  O14  1  0.86475745  0.13524255  0.17326806  1.0
  O  O15  1  0.13524255  -0.13524255  0.82673194  1.0
  O  O16  1  0.82923513  0.17076487  0.45854017  1.0
  O  O17  1  0.17076487  -0.17076487  0.54145983  1.0
  O  O18  1  0.75980897  0.24019103  0.75342249  1.0
  O  O19  1  0.24019103  -0.24019103  0.24657751  1.0
  O  O20  1  0.34495145  -0.34495145  0.67247602  1.0
  O  O21  1  0.65504855  0.34495145  0.32752398  1.0
  O  O22  1  0.29297505  -0.29297505  0.95747059  1.0
  O  O23  1  0.70702495  0.29297505  0.04252941  1.0
