# generated using pymatgen
data_Gd2ZrS5
_symmetry_space_group_name_H-M   'P 1'
_cell_length_a   11.60574053
_cell_length_b   7.84419284
_cell_length_c   7.30936081
_cell_angle_alpha   90.00000000
_cell_angle_beta   90.00000000
_cell_angle_gamma   90.00000000
_symmetry_Int_Tables_number   1
_chemical_formula_structural   Gd2ZrS5
_chemical_formula_sum   'Gd8 Zr4 S20'
_cell_volume   665.42715342
_cell_formula_units_Z   4
loop_
 _symmetry_equiv_pos_site_id
 _symmetry_equiv_pos_as_xyz
  1  'x, y, z'
loop_
 _atom_site_type_symbol
 _atom_site_label
 _atom_site_symmetry_multiplicity
 _atom_site_fract_x
 _atom_site_fract_y
 _atom_site_fract_z
 _atom_site_occupancy
  Gd  Gd0  1  0.67839967  0.49790799  0.02448476  1.0
  Gd  Gd1  1  0.67839967  0.00209201  0.02448476  1.0
  Gd  Gd2  1  0.17839967  0.49790799  0.47551524  1.0
  Gd  Gd3  1  0.17839967  0.00209201  0.47551524  1.0
  Gd  Gd4  1  0.32160033  0.99790799  0.97551524  1.0
  Gd  Gd5  1  0.32160033  0.50209201  0.97551524  1.0
  Gd  Gd6  1  0.82160033  0.99790799  0.52448476  1.0
  Gd  Gd7  1  0.82160033  0.50209201  0.52448476  1.0
  Zr  Zr8  1  0.99265375  0.25000000  0.07778958  1.0
  Zr  Zr9  1  0.49265375  0.25000000  0.42221042  1.0
  Zr  Zr10  1  0.00734625  0.75000000  0.92221042  1.0
  Zr  Zr11  1  0.50734625  0.75000000  0.57778958  1.0
  S  S12  1  0.90817266  0.96284374  0.16151861  1.0
  S  S13  1  0.90817266  0.53715626  0.16151861  1.0
  S  S14  1  0.40817266  0.96284374  0.33848139  1.0
  S  S15  1  0.40817266  0.53715626  0.33848139  1.0
  S  S16  1  0.09182734  0.46284374  0.83848139  1.0
  S  S17  1  0.09182734  0.03715626  0.83848139  1.0
  S  S18  1  0.59182734  0.46284374  0.66151861  1.0
  S  S19  1  0.59182734  0.03715626  0.66151861  1.0
  S  S20  1  0.99628105  0.25000000  0.44778042  1.0
  S  S21  1  0.49628105  0.25000000  0.05221958  1.0
  S  S22  1  0.00371895  0.75000000  0.55221958  1.0
  S  S23  1  0.50371895  0.75000000  0.94778042  1.0
  S  S24  1  0.81743656  0.25000000  0.83485159  1.0
  S  S25  1  0.31743656  0.25000000  0.66514841  1.0
  S  S26  1  0.18256344  0.75000000  0.16514841  1.0
  S  S27  1  0.68256344  0.75000000  0.33485159  1.0
  S  S28  1  0.70747727  0.25000000  0.31222825  1.0
  S  S29  1  0.20747727  0.25000000  0.18777175  1.0
  S  S30  1  0.29252273  0.75000000  0.68777175  1.0
  S  S31  1  0.79252273  0.75000000  0.81222825  1.0
