# generated using pymatgen
data_V2Cu3O11
_symmetry_space_group_name_H-M   'P 1'
_cell_length_a   6.17779000
_cell_length_b   6.17779000
_cell_length_c   7.43426962
_cell_angle_alpha   81.92958618
_cell_angle_beta   98.07041382
_cell_angle_gamma   124.92343876
_symmetry_Int_Tables_number   1
_chemical_formula_structural   V2Cu3O11
_chemical_formula_sum   'V2 Cu3 O11'
_cell_volume   229.70057370
_cell_formula_units_Z   1
loop_
 _symmetry_equiv_pos_site_id
 _symmetry_equiv_pos_as_xyz
  1  'x, y, z'
loop_
 _atom_site_type_symbol
 _atom_site_label
 _atom_site_symmetry_multiplicity
 _atom_site_fract_x
 _atom_site_fract_y
 _atom_site_fract_z
 _atom_site_occupancy
  Cu  Cu0  1  -0.00000000  -0.00000000  0.00000000  1.0
  Cu  Cu1  1  0.50000000  -0.00000000  0.00000000  1.0
  Cu  Cu2  1  1.00000000  0.50000000  0.00000000  1.0
  O  O3  1  0.66540887  0.33459113  0.86113294  1.0
  O  O4  1  0.33459113  -0.33459113  0.13886706  1.0
  O  O5  1  0.50000000  0.50000000  0.50000000  1.0
  O  O6  1  0.94463350  0.05536650  0.47363595  1.0
  O  O7  1  0.05536650  -0.05536650  0.52636405  1.0
  O  O8  1  0.15010152  -0.15010152  0.90921660  1.0
  O  O9  1  0.84989848  0.15010152  0.09078340  1.0
  O  O10  1  0.66914071  -0.20093735  0.81028736  1.0
  O  O11  1  1.20093735  0.33085929  0.81028736  1.0
  O  O12  1  0.79906265  0.66914071  0.18971264  1.0
  O  O13  1  0.33085929  0.20093735  0.18971264  1.0
  V  V14  1  0.50588525  0.49411475  0.74228816  1.0
  V  V15  1  0.49411475  -0.49411475  0.25771184  1.0
