# generated using pymatgen
data_Ti(FeGe)6
_symmetry_space_group_name_H-M   'P 1'
_cell_length_a   4.99019571
_cell_length_b   4.99019571
_cell_length_c   8.02315425
_cell_angle_alpha   90.00000000
_cell_angle_beta   90.00000000
_cell_angle_gamma   120.00000000
_symmetry_Int_Tables_number   1
_chemical_formula_structural   Ti(FeGe)6
_chemical_formula_sum   'Ti1 Fe6 Ge6'
_cell_volume   173.02582539
_cell_formula_units_Z   1
loop_
 _symmetry_equiv_pos_site_id
 _symmetry_equiv_pos_as_xyz
  1  'x, y, z'
loop_
 _atom_site_type_symbol
 _atom_site_label
 _atom_site_symmetry_multiplicity
 _atom_site_fract_x
 _atom_site_fract_y
 _atom_site_fract_z
 _atom_site_occupancy
  Ti  Ti0  1  0.00000000  0.00000000  0.00000000  1.0
  Fe  Fe1  1  0.50000000  0.00000000  0.24849393  1.0
  Fe  Fe2  1  0.50000000  0.50000000  0.24849393  1.0
  Fe  Fe3  1  0.00000000  0.50000000  0.24849393  1.0
  Fe  Fe4  1  0.00000000  0.50000000  0.75150607  1.0
  Fe  Fe5  1  0.50000000  0.00000000  0.75150607  1.0
  Fe  Fe6  1  0.50000000  0.50000000  0.75150607  1.0
  Ge  Ge7  1  0.33333333  0.66666667  0.50000000  1.0
  Ge  Ge8  1  0.66666667  0.33333333  0.50000000  1.0
  Ge  Ge9  1  0.33333333  0.66666667  0.00000000  1.0
  Ge  Ge10  1  0.66666667  0.33333333  0.00000000  1.0
  Ge  Ge11  1  0.00000000  0.00000000  0.33685013  1.0
  Ge  Ge12  1  0.00000000  0.00000000  0.66314987  1.0
