# generated using pymatgen
data_P2Pd3S8
_symmetry_space_group_name_H-M   'P 1'
_cell_length_a   7.20960400
_cell_length_b   7.20960400
_cell_length_c   7.53343891
_cell_angle_alpha   90.00000000
_cell_angle_beta   90.00000000
_cell_angle_gamma   120.00000000
_symmetry_Int_Tables_number   1
_chemical_formula_structural   P2Pd3S8
_chemical_formula_sum   'P2 Pd3 S8'
_cell_volume   339.11478458
_cell_formula_units_Z   1
loop_
 _symmetry_equiv_pos_site_id
 _symmetry_equiv_pos_as_xyz
  1  'x, y, z'
loop_
 _atom_site_type_symbol
 _atom_site_label
 _atom_site_symmetry_multiplicity
 _atom_site_fract_x
 _atom_site_fract_y
 _atom_site_fract_z
 _atom_site_occupancy
  P  P0  1  0.33333333  0.66666667  0.31574303  1.0
  P  P1  1  0.66666667  0.33333333  0.68425697  1.0
  Pd  Pd2  1  0.50000000  0.50000000  0.00000000  1.0
  Pd  Pd3  1  0.50000000  0.00000000  0.00000000  1.0
  Pd  Pd4  1  -0.00000000  0.50000000  0.00000000  1.0
  S  S5  1  0.62819409  0.81409705  0.17188262  1.0
  S  S6  1  0.81409705  0.62819409  0.82811738  1.0
  S  S7  1  0.81409705  0.18590295  0.82811738  1.0
  S  S8  1  0.18590295  0.81409705  0.17188262  1.0
  S  S9  1  0.18590295  0.37180591  0.17188262  1.0
  S  S10  1  0.37180591  0.18590295  0.82811738  1.0
  S  S11  1  0.33333333  0.66666667  0.57051872  1.0
  S  S12  1  0.66666667  0.33333333  0.42948128  1.0
