# generated using pymatgen
data_Hf5Si4
_symmetry_space_group_name_H-M   'P 1'
_cell_length_a   7.06839461
_cell_length_b   7.06839461
_cell_length_c   12.87617455
_cell_angle_alpha   90.00000000
_cell_angle_beta   90.00000000
_cell_angle_gamma   90.00000000
_symmetry_Int_Tables_number   1
_chemical_formula_structural   Hf5Si4
_chemical_formula_sum   'Hf20 Si16'
_cell_volume   643.32203887
_cell_formula_units_Z   4
loop_
 _symmetry_equiv_pos_site_id
 _symmetry_equiv_pos_as_xyz
  1  'x, y, z'
loop_
 _atom_site_type_symbol
 _atom_site_label
 _atom_site_symmetry_multiplicity
 _atom_site_fract_x
 _atom_site_fract_y
 _atom_site_fract_z
 _atom_site_occupancy
  Hf  Hf0  1  0.49954154  0.64675616  0.12374921  1.0
  Hf  Hf1  1  0.99954154  0.85324384  0.62625079  1.0
  Hf  Hf2  1  0.35324384  0.50045846  0.37625079  1.0
  Hf  Hf3  1  0.85324384  0.99954154  0.37374921  1.0
  Hf  Hf4  1  0.50045846  0.35324384  0.62374921  1.0
  Hf  Hf5  1  0.00045846  0.14675616  0.12625079  1.0
  Hf  Hf6  1  0.64675616  0.49954154  0.87625079  1.0
  Hf  Hf7  1  0.14675616  0.00045846  0.87374921  1.0
  Hf  Hf8  1  0.99739791  0.65315485  0.03294412  1.0
  Hf  Hf9  1  0.49739791  0.84684515  0.71705588  1.0
  Hf  Hf10  1  0.34684515  0.00260209  0.46705588  1.0
  Hf  Hf11  1  0.84684515  0.49739791  0.28294412  1.0
  Hf  Hf12  1  0.00260209  0.34684515  0.53294412  1.0
  Hf  Hf13  1  0.50260209  0.15315485  0.21705588  1.0
  Hf  Hf14  1  0.65315485  0.99739791  0.96705588  1.0
  Hf  Hf15  1  0.15315485  0.50260209  0.78294412  1.0
  Hf  Hf16  1  0.17428134  0.82571866  0.25000000  1.0
  Hf  Hf17  1  0.67428134  0.67428134  0.50000000  1.0
  Hf  Hf18  1  0.82571866  0.17428134  0.75000000  1.0
  Hf  Hf19  1  0.32571866  0.32571866  0.00000000  1.0
  Si  Si20  1  0.35380725  0.70421812  0.92704322  1.0
  Si  Si21  1  0.85380725  0.79578188  0.82295678  1.0
  Si  Si22  1  0.29578188  0.64619275  0.57295678  1.0
  Si  Si23  1  0.79578188  0.85380725  0.17704322  1.0
  Si  Si24  1  0.64619275  0.29578188  0.42704322  1.0
  Si  Si25  1  0.14619275  0.20421812  0.32295678  1.0
  Si  Si26  1  0.70421812  0.35380725  0.07295678  1.0
  Si  Si27  1  0.20421812  0.14619275  0.67704322  1.0
  Si  Si28  1  0.30288872  0.95285745  0.06385940  1.0
  Si  Si29  1  0.80288872  0.54714255  0.68614060  1.0
  Si  Si30  1  0.04714255  0.69711128  0.43614060  1.0
  Si  Si31  1  0.54714255  0.80288872  0.31385940  1.0
  Si  Si32  1  0.69711128  0.04714255  0.56385940  1.0
  Si  Si33  1  0.19711128  0.45285745  0.18614060  1.0
  Si  Si34  1  0.95285745  0.30288872  0.93614060  1.0
  Si  Si35  1  0.45285745  0.19711128  0.81385940  1.0
