# generated using pymatgen
data_Ba3Lu4O9
_symmetry_space_group_name_H-M   'P 1'
_cell_length_a   9.07747469
_cell_length_b   9.07747469
_cell_length_c   9.07747469
_cell_angle_alpha   38.97341894
_cell_angle_beta   38.97341894
_cell_angle_gamma   38.97341894
_symmetry_Int_Tables_number   1
_chemical_formula_structural   Ba3Lu4O9
_chemical_formula_sum   'Ba3 Lu4 O9'
_cell_volume   266.09171905
_cell_formula_units_Z   1
loop_
 _symmetry_equiv_pos_site_id
 _symmetry_equiv_pos_as_xyz
  1  'x, y, z'
loop_
 _atom_site_type_symbol
 _atom_site_label
 _atom_site_symmetry_multiplicity
 _atom_site_fract_x
 _atom_site_fract_y
 _atom_site_fract_z
 _atom_site_occupancy
  Ba  Ba0  1  -0.00248938  -0.00248938  -0.00248938  1.0
  Ba  Ba1  1  0.57446590  0.57446590  -0.42553410  1.0
  Ba  Ba2  1  0.16008149  0.16008149  0.16008149  1.0
  Lu  Lu3  1  0.86103911  -0.13896089  -0.13896089  1.0
  Lu  Lu4  1  0.73610758  -0.26389242  -0.26389242  1.0
  Lu  Lu5  1  0.42266815  0.42266815  -0.57733185  1.0
  Lu  Lu6  1  0.29761465  0.29761465  0.29761465  1.0
  O  O7  1  0.58295817  0.45113222  -0.95773584  1.0
  O  O8  1  0.04226416  0.58295817  -0.54886778  1.0
  O  O9  1  0.45113222  0.04226416  -0.41704183  1.0
  O  O10  1  0.57553184  -0.29113729  0.12185328  1.0
  O  O11  1  1.12185328  -0.42446816  -0.29113729  1.0
  O  O12  1  0.70886271  0.12185328  -0.42446816  1.0
  O  O13  1  1.03394332  -0.42241684  0.12538363  1.0
  O  O14  1  1.12538363  0.03394332  -0.42241684  1.0
  O  O15  1  0.57758316  0.12538363  0.03394332  1.0
