# generated using pymatgen
data_K3ScSi2O7
_symmetry_space_group_name_H-M   'P 1'
_cell_length_a   5.67146385
_cell_length_b   5.67146385
_cell_length_c   13.84573553
_cell_angle_alpha   90.00000000
_cell_angle_beta   90.00000000
_cell_angle_gamma   120.00000000
_symmetry_Int_Tables_number   1
_chemical_formula_structural   K3ScSi2O7
_chemical_formula_sum   'K6 Sc2 Si4 O14'
_cell_volume   385.68877554
_cell_formula_units_Z   2
loop_
 _symmetry_equiv_pos_site_id
 _symmetry_equiv_pos_as_xyz
  1  'x, y, z'
loop_
 _atom_site_type_symbol
 _atom_site_label
 _atom_site_symmetry_multiplicity
 _atom_site_fract_x
 _atom_site_fract_y
 _atom_site_fract_z
 _atom_site_occupancy
  K  K0  1  0.33333333  0.66666667  0.90825846  1.0
  K  K1  1  0.33333333  0.66666667  0.59174154  1.0
  K  K2  1  0.66666667  0.33333333  0.40825846  1.0
  K  K3  1  0.66666667  0.33333333  0.09174154  1.0
  K  K4  1  0.00000000  0.00000000  0.25000000  1.0
  K  K5  1  0.00000000  0.00000000  0.75000000  1.0
  Sc  Sc6  1  0.00000000  0.00000000  0.50000000  1.0
  Sc  Sc7  1  0.00000000  0.00000000  0.00000000  1.0
  Si  Si8  1  0.33333333  0.66666667  0.37091507  1.0
  Si  Si9  1  0.33333333  0.66666667  0.12908493  1.0
  Si  Si10  1  0.66666667  0.33333333  0.87091507  1.0
  Si  Si11  1  0.66666667  0.33333333  0.62908493  1.0
  O  O12  1  0.17483480  0.82516520  0.40773995  1.0
  O  O13  1  0.17483480  0.82516520  0.09226005  1.0
  O  O14  1  0.17483480  0.34966961  0.40773995  1.0
  O  O15  1  0.17483480  0.34966961  0.09226005  1.0
  O  O16  1  0.82516520  0.17483480  0.90773995  1.0
  O  O17  1  0.82516520  0.17483480  0.59226005  1.0
  O  O18  1  0.82516520  0.65033039  0.90773995  1.0
  O  O19  1  0.82516520  0.65033039  0.59226005  1.0
  O  O20  1  0.65033039  0.82516520  0.40773995  1.0
  O  O21  1  0.65033039  0.82516520  0.09226005  1.0
  O  O22  1  0.34966961  0.17483480  0.90773995  1.0
  O  O23  1  0.34966961  0.17483480  0.59226005  1.0
  O  O24  1  0.33333333  0.66666667  0.25000000  1.0
  O  O25  1  0.66666667  0.33333333  0.75000000  1.0
