# generated using pymatgen
data_As2O3
_symmetry_space_group_name_H-M   'P 1'
_cell_length_a   5.81721357
_cell_length_b   12.65038598
_cell_length_c   5.24659755
_cell_angle_alpha   90.00000000
_cell_angle_beta   90.00000000
_cell_angle_gamma   90.00000000
_symmetry_Int_Tables_number   1
_chemical_formula_structural   As2O3
_chemical_formula_sum   'As8 O12'
_cell_volume   386.09709808
_cell_formula_units_Z   4
loop_
 _symmetry_equiv_pos_site_id
 _symmetry_equiv_pos_as_xyz
  1  'x, y, z'
loop_
 _atom_site_type_symbol
 _atom_site_label
 _atom_site_symmetry_multiplicity
 _atom_site_fract_x
 _atom_site_fract_y
 _atom_site_fract_z
 _atom_site_occupancy
  As  As0  1  0.64673198  0.11982279  -0.22497718  1.0
  As  As1  1  0.35326802  0.88017721  -0.22497718  1.0
  As  As2  1  0.35326802  0.11982279  0.27502282  1.0
  As  As3  1  0.64673198  0.88017721  0.27502282  1.0
  As  As4  1  0.85328046  0.38018244  0.27454778  1.0
  As  As5  1  0.14671954  0.61981756  0.27454778  1.0
  As  As6  1  0.14671954  0.38018244  0.77454778  1.0
  As  As7  1  0.85328046  0.61981756  0.77454778  1.0
  O  O8  1  0.50000000  0.00000000  0.14422049  1.0
  O  O9  1  0.50000000  0.00000000  0.64422049  1.0
  O  O10  1  0.00000000  0.50000000  0.64371015  1.0
  O  O11  1  0.00000000  0.50000000  1.14371015  1.0
  O  O12  1  0.08813857  0.31654402  0.46270900  1.0
  O  O13  1  0.91186143  0.68345598  0.46270900  1.0
  O  O14  1  0.91186143  0.31654402  0.96270900  1.0
  O  O15  1  0.08813857  0.68345598  0.96270900  1.0
  O  O16  1  0.41193439  0.18348167  -0.03674493  1.0
  O  O17  1  0.58806561  0.81651833  -0.03674493  1.0
  O  O18  1  0.58806561  0.18348167  0.46325507  1.0
  O  O19  1  0.41193439  0.81651833  0.46325507  1.0
