# generated using pymatgen
data_LaSbIr
_symmetry_space_group_name_H-M   'P 1'
_cell_length_a   7.55696103
_cell_length_b   4.65487676
_cell_length_c   8.04323517
_cell_angle_alpha   90.00000000
_cell_angle_beta   90.00000000
_cell_angle_gamma   90.00000000
_symmetry_Int_Tables_number   1
_chemical_formula_structural   LaSbIr
_chemical_formula_sum   'La4 Sb4 Ir4'
_cell_volume   282.93464960
_cell_formula_units_Z   4
loop_
 _symmetry_equiv_pos_site_id
 _symmetry_equiv_pos_as_xyz
  1  'x, y, z'
loop_
 _atom_site_type_symbol
 _atom_site_label
 _atom_site_symmetry_multiplicity
 _atom_site_fract_x
 _atom_site_fract_y
 _atom_site_fract_z
 _atom_site_occupancy
  La  La0  1  0.98265690  0.75000000  0.69129059  1.0
  La  La1  1  0.48265690  0.75000000  0.80870941  1.0
  La  La2  1  0.01734310  0.25000000  0.30870941  1.0
  La  La3  1  0.51734310  0.25000000  0.19129059  1.0
  Sb  Sb4  1  0.82579864  0.75000000  0.08535630  1.0
  Sb  Sb5  1  0.32579864  0.75000000  0.41464370  1.0
  Sb  Sb6  1  0.17420136  0.25000000  0.91464370  1.0
  Sb  Sb7  1  0.67420136  0.25000000  0.58535630  1.0
  Ir  Ir8  1  0.70241958  0.75000000  0.40788654  1.0
  Ir  Ir9  1  0.20241958  0.75000000  0.09211346  1.0
  Ir  Ir10  1  0.29758042  0.25000000  0.59211346  1.0
  Ir  Ir11  1  0.79758042  0.25000000  0.90788654  1.0
