# generated using pymatgen
data_RbCOF3
_symmetry_space_group_name_H-M   'P 1'
_cell_length_a   5.80423464
_cell_length_b   7.55832190
_cell_length_c   9.23324374
_cell_angle_alpha   90.00000000
_cell_angle_beta   88.87802229
_cell_angle_gamma   90.00000000
_symmetry_Int_Tables_number   1
_chemical_formula_structural   RbCOF3
_chemical_formula_sum   'Rb4 C4 O4 F12'
_cell_volume   404.98726983
_cell_formula_units_Z   4
loop_
 _symmetry_equiv_pos_site_id
 _symmetry_equiv_pos_as_xyz
  1  'x, y, z'
loop_
 _atom_site_type_symbol
 _atom_site_label
 _atom_site_symmetry_multiplicity
 _atom_site_fract_x
 _atom_site_fract_y
 _atom_site_fract_z
 _atom_site_occupancy
  Rb  Rb0  1  0.73056725  0.34008905  0.82228532  1.0
  Rb  Rb1  1  0.73056725  0.15991095  0.32228532  1.0
  Rb  Rb2  1  0.26943275  0.84008905  0.67771468  1.0
  Rb  Rb3  1  0.26943275  0.65991095  0.17771468  1.0
  C  C4  1  0.73472026  0.79161112  0.93085769  1.0
  C  C5  1  0.73472026  0.70838888  0.43085769  1.0
  C  C6  1  0.26527974  0.29161112  0.56914231  1.0
  C  C7  1  0.26527974  0.20838888  0.06914231  1.0
  O  O8  1  0.56035138  0.70285856  0.91278632  1.0
  O  O9  1  0.56035138  0.79714144  0.41278632  1.0
  O  O10  1  0.43964862  0.20285856  0.58721368  1.0
  O  O11  1  0.43964862  0.29714144  0.08721368  1.0
  F  F12  1  0.95453993  0.69658732  0.91741769  1.0
  F  F13  1  0.95453993  0.80341268  0.41741769  1.0
  F  F14  1  0.04546007  0.19658732  0.58258231  1.0
  F  F15  1  0.04546007  0.30341268  0.08258231  1.0
  F  F16  1  0.75945740  0.62418640  0.56779361  1.0
  F  F17  1  0.75945740  0.87581360  0.06779361  1.0
  F  F18  1  0.24054260  0.12418640  0.93220639  1.0
  F  F19  1  0.24054260  0.37581360  0.43220639  1.0
  F  F20  1  0.77472775  0.93489507  0.83054265  1.0
  F  F21  1  0.77472775  0.56510493  0.33054265  1.0
  F  F22  1  0.22527225  0.43489507  0.66945735  1.0
  F  F23  1  0.22527225  0.06510493  0.16945735  1.0
