# generated using pymatgen
data_Sr(CoSn4)2
_symmetry_space_group_name_H-M   'P 1'
_cell_length_a   9.20848776
_cell_length_b   9.20848776
_cell_length_c   13.99576451
_cell_angle_alpha   90.00000000
_cell_angle_beta   90.00000000
_cell_angle_gamma   112.74384491
_symmetry_Int_Tables_number   1
_chemical_formula_structural   Sr(CoSn4)2
_chemical_formula_sum   'Sr4 Co8 Sn32'
_cell_volume   1094.50662257
_cell_formula_units_Z   4
loop_
 _symmetry_equiv_pos_site_id
 _symmetry_equiv_pos_as_xyz
  1  'x, y, z'
loop_
 _atom_site_type_symbol
 _atom_site_label
 _atom_site_symmetry_multiplicity
 _atom_site_fract_x
 _atom_site_fract_y
 _atom_site_fract_z
 _atom_site_occupancy
  Sr  Sr0  1  -0.38322423  1.28260706  -0.00000000  1.0
  Sr  Sr1  1  0.28260706  0.61677577  0.50000000  1.0
  Sr  Sr2  1  -0.28260706  1.38322423  0.50000000  1.0
  Sr  Sr3  1  0.38322423  0.71739294  -0.00000000  1.0
  Co  Co4  1  0.07112163  0.77932364  0.82941431  1.0
  Co  Co5  1  0.07112163  0.77932364  0.17058569  1.0
  Co  Co6  1  -0.22067636  1.07112163  0.32941431  1.0
  Co  Co7  1  -0.22067636  1.07112163  0.67058569  1.0
  Co  Co8  1  0.22067636  0.92887837  0.32941431  1.0
  Co  Co9  1  0.22067636  0.92887837  0.67058569  1.0
  Co  Co10  1  -0.07112163  1.22067636  0.82941431  1.0
  Co  Co11  1  -0.07112163  1.22067636  0.17058569  1.0
  Sn  Sn12  1  -0.04295262  1.65629465  0.66311304  1.0
  Sn  Sn13  1  -0.04295262  1.65629465  0.33688696  1.0
  Sn  Sn14  1  0.65629465  0.95704738  0.16311304  1.0
  Sn  Sn15  1  0.65629465  0.95704738  0.83688696  1.0
  Sn  Sn16  1  -0.65629465  1.04295262  0.16311304  1.0
  Sn  Sn17  1  -0.65629465  1.04295262  0.83688696  1.0
  Sn  Sn18  1  0.04295262  0.34370535  0.66311304  1.0
  Sn  Sn19  1  0.04295262  0.34370535  0.33688696  1.0
  Sn  Sn20  1  -0.22552882  1.68721087  0.88708072  1.0
  Sn  Sn21  1  -0.22552882  1.68721087  0.11291928  1.0
  Sn  Sn22  1  0.68721087  0.77447118  0.38708072  1.0
  Sn  Sn23  1  0.68721087  0.77447118  0.61291928  1.0
  Sn  Sn24  1  -0.68721087  1.22552882  0.38708072  1.0
  Sn  Sn25  1  -0.68721087  1.22552882  0.61291928  1.0
  Sn  Sn26  1  0.22552882  0.31278913  0.88708072  1.0
  Sn  Sn27  1  0.22552882  0.31278913  0.11291928  1.0
  Sn  Sn28  1  0.08694746  0.89477171  -0.00000000  1.0
  Sn  Sn29  1  -0.10522829  1.08694746  0.50000000  1.0
  Sn  Sn30  1  0.10522829  0.91305254  0.50000000  1.0
  Sn  Sn31  1  -0.08694746  1.10522829  -0.00000000  1.0
  Sn  Sn32  1  0.00000000  1.50000000  0.89381305  1.0
  Sn  Sn33  1  0.00000000  1.50000000  0.10618695  1.0
  Sn  Sn34  1  0.50000000  1.00000000  0.39381305  1.0
  Sn  Sn35  1  0.50000000  1.00000000  0.60618695  1.0
  Sn  Sn36  1  0.29338882  0.70661118  0.75000000  1.0
  Sn  Sn37  1  0.29338882  0.70661118  0.25000000  1.0
  Sn  Sn38  1  -0.29338882  1.29338882  0.25000000  1.0
  Sn  Sn39  1  -0.29338882  1.29338882  0.75000000  1.0
  Sn  Sn40  1  0.50000000  0.50000000  0.75000000  1.0
  Sn  Sn41  1  0.50000000  0.50000000  0.25000000  1.0
  Sn  Sn42  1  0.00000000  0.00000000  0.75000000  1.0
  Sn  Sn43  1  0.00000000  0.00000000  0.25000000  1.0
