# generated using pymatgen
data_AlV4N3
_symmetry_space_group_name_H-M   'P 1'
_cell_length_a   2.92596450
_cell_length_b   2.92596450
_cell_length_c   22.37570146
_cell_angle_alpha   90.00000000
_cell_angle_beta   90.00000000
_cell_angle_gamma   120.00000000
_symmetry_Int_Tables_number   1
_chemical_formula_structural   AlV4N3
_chemical_formula_sum   'Al2 V8 N6'
_cell_volume   165.89962137
_cell_formula_units_Z   2
loop_
 _symmetry_equiv_pos_site_id
 _symmetry_equiv_pos_as_xyz
  1  'x, y, z'
loop_
 _atom_site_type_symbol
 _atom_site_label
 _atom_site_symmetry_multiplicity
 _atom_site_fract_x
 _atom_site_fract_y
 _atom_site_fract_z
 _atom_site_occupancy
  Al  Al0  1  0.33333333  0.66666667  0.25000000  1.0
  Al  Al1  1  0.66666667  0.33333333  0.75000000  1.0
  V  V2  1  0.33333333  0.66666667  0.44439869  1.0
  V  V3  1  0.66666667  0.33333333  0.55560131  1.0
  V  V4  1  0.66666667  0.33333333  0.94439869  1.0
  V  V5  1  0.33333333  0.66666667  0.05560131  1.0
  V  V6  1  0.00000000  0.00000000  0.34879408  1.0
  V  V7  1  0.00000000  0.00000000  0.65120592  1.0
  V  V8  1  0.00000000  0.00000000  0.84879408  1.0
  V  V9  1  0.00000000  0.00000000  0.15120592  1.0
  N  N10  1  0.00000000  0.00000000  0.50000000  1.0
  N  N11  1  0.00000000  0.00000000  0.00000000  1.0
  N  N12  1  0.66666667  0.33333333  0.39289701  1.0
  N  N13  1  0.33333333  0.66666667  0.60710299  1.0
  N  N14  1  0.33333333  0.66666667  0.89289701  1.0
  N  N15  1  0.66666667  0.33333333  0.10710299  1.0
