# generated using pymatgen
data_TaFeAs
_symmetry_space_group_name_H-M   'P 1'
_cell_length_a   6.29668518
_cell_length_b   3.75782269
_cell_length_c   7.11434442
_cell_angle_alpha   90.00000000
_cell_angle_beta   90.00000000
_cell_angle_gamma   90.00000000
_symmetry_Int_Tables_number   1
_chemical_formula_structural   TaFeAs
_chemical_formula_sum   'Ta4 Fe4 As4'
_cell_volume   168.33838276
_cell_formula_units_Z   4
loop_
 _symmetry_equiv_pos_site_id
 _symmetry_equiv_pos_as_xyz
  1  'x, y, z'
loop_
 _atom_site_type_symbol
 _atom_site_label
 _atom_site_symmetry_multiplicity
 _atom_site_fract_x
 _atom_site_fract_y
 _atom_site_fract_z
 _atom_site_occupancy
  Ta  Ta0  1  0.97909654  0.75000000  0.67918908  1.0
  Ta  Ta1  1  0.47909654  0.75000000  0.82081092  1.0
  Ta  Ta2  1  0.02090346  0.25000000  0.32081092  1.0
  Ta  Ta3  1  0.52090346  0.25000000  0.17918908  1.0
  Fe  Fe4  1  0.85812571  0.75000000  0.06349093  1.0
  Fe  Fe5  1  0.35812571  0.75000000  0.43650907  1.0
  Fe  Fe6  1  0.14187429  0.25000000  0.93650907  1.0
  Fe  Fe7  1  0.64187429  0.25000000  0.56349093  1.0
  As  As8  1  0.72729179  0.75000000  0.37992853  1.0
  As  As9  1  0.22729179  0.75000000  0.12007147  1.0
  As  As10  1  0.27270821  0.25000000  0.62007147  1.0
  As  As11  1  0.77270821  0.25000000  0.87992853  1.0
