# generated using pymatgen
data_Mg2Te3O8
_symmetry_space_group_name_H-M   'P 1'
_cell_length_a   6.95484680
_cell_length_b   6.95484680
_cell_length_c   11.72342827
_cell_angle_alpha   82.23823735
_cell_angle_beta   97.76176265
_cell_angle_gamma   134.79156322
_symmetry_Int_Tables_number   1
_chemical_formula_structural   Mg2Te3O8
_chemical_formula_sum   'Mg4 Te6 O16'
_cell_volume   398.09914921
_cell_formula_units_Z   2
loop_
 _symmetry_equiv_pos_site_id
 _symmetry_equiv_pos_as_xyz
  1  'x, y, z'
loop_
 _atom_site_type_symbol
 _atom_site_label
 _atom_site_symmetry_multiplicity
 _atom_site_fract_x
 _atom_site_fract_y
 _atom_site_fract_z
 _atom_site_occupancy
  Mg  Mg0  1  0.42140067  -0.04639470  0.85222952  1.0
  Mg  Mg1  1  1.04639470  0.57859933  0.35222952  1.0
  Mg  Mg2  1  0.95360530  0.42140067  0.64777048  1.0
  Mg  Mg3  1  0.57859933  0.04639470  0.14777048  1.0
  Te  Te4  1  0.67576120  -0.05203599  0.44568385  1.0
  Te  Te5  1  1.05203599  0.32423880  0.94568385  1.0
  Te  Te6  1  0.94796401  0.67576120  0.05431615  1.0
  Te  Te7  1  0.32423880  0.05203599  0.55431615  1.0
  Te  Te8  1  0.83521353  0.83521353  0.75000000  1.0
  Te  Te9  1  0.16478647  0.16478647  0.25000000  1.0
  O  O10  1  0.74324932  -0.02873925  0.86620600  1.0
  O  O11  1  1.02873925  0.25675068  0.36620600  1.0
  O  O12  1  0.97126075  0.74324932  0.63379400  1.0
  O  O13  1  0.25675068  0.02873925  0.13379400  1.0
  O  O14  1  0.72712042  0.26154901  0.47332903  1.0
  O  O15  1  0.73845099  0.27287958  0.97332903  1.0
  O  O16  1  1.26154901  0.72712042  0.02667097  1.0
  O  O17  1  0.27287958  -0.26154901  0.52667097  1.0
  O  O18  1  0.55591569  0.15958894  0.69573213  1.0
  O  O19  1  0.84041106  0.44408431  0.19573213  1.0
  O  O20  1  1.15958894  0.55591569  0.80426787  1.0
  O  O21  1  0.44408431  -0.15958894  0.30426787  1.0
  O  O22  1  0.14084669  -0.02613073  0.85944447  1.0
  O  O23  1  1.02613073  0.85915331  0.35944447  1.0
  O  O24  1  0.97386927  0.14084669  0.64055553  1.0
  O  O25  1  0.85915331  0.02613073  0.14055553  1.0
