# generated using pymatgen
data_SiC
_symmetry_space_group_name_H-M   'P 1'
_cell_length_a   32.96307504
_cell_length_b   32.96307504
_cell_length_c   32.96307504
_cell_angle_alpha   5.38315413
_cell_angle_beta   5.38315413
_cell_angle_gamma   5.38315413
_symmetry_Int_Tables_number   1
_chemical_formula_structural   SiC
_chemical_formula_sum   'Si13 C13'
_cell_volume   273.20160514
_cell_formula_units_Z   13
loop_
 _symmetry_equiv_pos_site_id
 _symmetry_equiv_pos_as_xyz
  1  'x, y, z'
loop_
 _atom_site_type_symbol
 _atom_site_label
 _atom_site_symmetry_multiplicity
 _atom_site_fract_x
 _atom_site_fract_y
 _atom_site_fract_z
 _atom_site_occupancy
  Si  Si0  1  -0.00000753  -0.00000753  -0.00000753  1.0
  Si  Si1  1  0.35897730  0.35897730  -0.64102270  1.0
  Si  Si2  1  0.71792496  -0.28207504  -0.28207504  1.0
  Si  Si3  1  0.07691561  0.07691561  0.07691561  1.0
  Si  Si4  1  0.76923639  -0.23076361  -0.23076361  1.0
  Si  Si5  1  0.46151740  0.46151740  -0.53848260  1.0
  Si  Si6  1  0.15384267  0.15384267  0.15384267  1.0
  Si  Si7  1  0.51282796  0.51282796  -0.48717204  1.0
  Si  Si8  1  0.87177591  -0.12822409  -0.12822409  1.0
  Si  Si9  1  0.23076896  0.23076896  0.23076896  1.0
  Si  Si10  1  0.92309212  -0.07690788  -0.07690788  1.0
  Si  Si11  1  0.61538027  0.61538027  -0.38461973  1.0
  Si  Si12  1  0.30766549  0.30766549  0.30766549  1.0
  C  C13  1  0.01927469  0.01927469  0.01927469  1.0
  C  C14  1  0.37820239  0.37820239  -0.62179761  1.0
  C  C15  1  0.73715112  -0.26284888  -0.26284888  1.0
  C  C16  1  0.09619762  0.09619762  0.09619762  1.0
  C  C17  1  0.78846351  -0.21153649  -0.21153649  1.0
  C  C18  1  0.48074230  0.48074230  -0.51925770  1.0
  C  C19  1  0.17312322  0.17312322  0.17312322  1.0
  C  C20  1  0.53205280  0.53205280  -0.46794720  1.0
  C  C21  1  0.89099865  -0.10900135  -0.10900135  1.0
  C  C22  1  0.25004951  0.25004951  0.25004951  1.0
  C  C23  1  0.94231481  -0.05768519  -0.05768519  1.0
  C  C24  1  0.63461181  0.63461181  -0.36538819  1.0
  C  C25  1  0.32689006  0.32689006  0.32689006  1.0
