# generated using pymatgen
data_CsLi3Cl4
_symmetry_space_group_name_H-M   'P 1'
_cell_length_a   16.19460865
_cell_length_b   16.19460865
_cell_length_c   5.33115396
_cell_angle_alpha   90.00000000
_cell_angle_beta   90.00000000
_cell_angle_gamma   164.17399145
_symmetry_Int_Tables_number   1
_chemical_formula_structural   CsLi3Cl4
_chemical_formula_sum   'Cs2 Li6 Cl8'
_cell_volume   381.30662939
_cell_formula_units_Z   2
loop_
 _symmetry_equiv_pos_site_id
 _symmetry_equiv_pos_as_xyz
  1  'x, y, z'
loop_
 _atom_site_type_symbol
 _atom_site_label
 _atom_site_symmetry_multiplicity
 _atom_site_fract_x
 _atom_site_fract_y
 _atom_site_fract_z
 _atom_site_occupancy
  Cs  Cs0  1  -0.65371154  0.65371154  0.75000000  1.0
  Cs  Cs1  1  -0.34628846  1.34628846  0.25000000  1.0
  Li  Li2  1  -0.77415041  0.77415041  0.75000000  1.0
  Li  Li3  1  -0.22584959  1.22584959  0.25000000  1.0
  Li  Li4  1  -0.53290107  0.53290107  0.75000000  1.0
  Li  Li5  1  -0.46709893  1.46709893  0.25000000  1.0
  Li  Li6  1  -0.92602399  0.92602399  0.75000000  1.0
  Li  Li7  1  -0.07397601  1.07397601  0.25000000  1.0
  Cl  Cl8  1  -0.06566413  1.06566413  0.75000000  1.0
  Cl  Cl9  1  -0.93433587  0.93433587  0.25000000  1.0
  Cl  Cl10  1  -0.24204813  1.24204813  0.75000000  1.0
  Cl  Cl11  1  -0.75795187  0.75795187  0.25000000  1.0
  Cl  Cl12  1  -0.84909911  0.84909911  0.75000000  1.0
  Cl  Cl13  1  -0.15090089  1.15090089  0.25000000  1.0
  Cl  Cl14  1  -0.45848613  1.45848613  0.75000000  1.0
  Cl  Cl15  1  -0.54151387  0.54151387  0.25000000  1.0
