# generated using pymatgen
data_KAuS5
_symmetry_space_group_name_H-M   'P 1'
_cell_length_a   10.60569244
_cell_length_b   10.60569244
_cell_length_c   10.60569244
_cell_angle_alpha   130.19820145
_cell_angle_beta   117.19068593
_cell_angle_gamma   84.12335604
_symmetry_Int_Tables_number   1
_chemical_formula_structural   KAuS5
_chemical_formula_sum   'K4 Au4 S20'
_cell_volume   777.26020072
_cell_formula_units_Z   4
loop_
 _symmetry_equiv_pos_site_id
 _symmetry_equiv_pos_as_xyz
  1  'x, y, z'
loop_
 _atom_site_type_symbol
 _atom_site_label
 _atom_site_symmetry_multiplicity
 _atom_site_fract_x
 _atom_site_fract_y
 _atom_site_fract_z
 _atom_site_occupancy
  K  K0  1  0.50000000  0.50000000  -0.00000000  1.0
  K  K1  1  1.00000000  1.00000000  1.00000000  1.0
  K  K2  1  1.25000000  0.75000000  0.50000000  1.0
  K  K3  1  0.75000000  0.25000000  0.50000000  1.0
  Au  Au4  1  1.11458403  1.25000000  0.86458403  1.0
  Au  Au5  1  0.61458403  0.75000000  0.86458403  1.0
  Au  Au6  1  0.88541597  0.75000000  1.13541597  1.0
  Au  Au7  1  1.38541597  1.25000000  1.13541597  1.0
  S  S8  1  1.21268743  1.15623507  0.67120997  1.0
  S  S9  1  0.51497490  0.45852254  0.67120997  1.0
  S  S10  1  0.98502510  0.65623507  0.94354764  1.0
  S  S11  1  1.28731257  0.95852254  0.94354764  1.0
  S  S12  1  0.71268743  1.04147746  1.05645236  1.0
  S  S13  1  1.01497490  1.34376493  1.05645236  1.0
  S  S14  1  1.48502510  1.54147746  1.32879003  1.0
  S  S15  1  0.78731257  0.84376493  1.32879003  1.0
  S  S16  1  1.07729946  1.18627033  1.47941817  1.0
  S  S17  1  1.29314785  1.40211872  1.47941817  1.0
  S  S18  1  1.20685215  0.68627033  1.10897087  1.0
  S  S19  1  1.42270054  0.90211872  1.10897087  1.0
  S  S20  1  0.57729946  1.09788128  0.89102913  1.0
  S  S21  1  0.79314785  1.31372967  0.89102913  1.0
  S  S22  1  0.70685215  0.59788128  0.52058183  1.0
  S  S23  1  0.92270054  0.81372967  0.52058183  1.0
  S  S24  1  1.16380341  1.42631428  1.59011770  1.0
  S  S25  1  1.33619659  0.92631428  1.26251087  1.0
  S  S26  1  0.66380341  1.07368572  0.73748913  1.0
  S  S27  1  0.83619659  0.57368572  0.40988230  1.0
