# generated using pymatgen
data_IrC4
_symmetry_space_group_name_H-M   'P 1'
_cell_length_a   4.88304954
_cell_length_b   4.88304954
_cell_length_c   5.90406304
_cell_angle_alpha   90.00000000
_cell_angle_beta   90.00000000
_cell_angle_gamma   120.00000000
_symmetry_Int_Tables_number   1
_chemical_formula_structural   IrC4
_chemical_formula_sum   'Ir3 C12'
_cell_volume   121.91689095
_cell_formula_units_Z   3
loop_
 _symmetry_equiv_pos_site_id
 _symmetry_equiv_pos_as_xyz
  1  'x, y, z'
loop_
 _atom_site_type_symbol
 _atom_site_label
 _atom_site_symmetry_multiplicity
 _atom_site_fract_x
 _atom_site_fract_y
 _atom_site_fract_z
 _atom_site_occupancy
  Ir  Ir0  1  0.32021935  -0.00000000  0.33333333  1.0
  Ir  Ir1  1  0.67978065  0.67978065  -0.00000000  1.0
  Ir  Ir2  1  0.00000000  0.32021935  0.66666667  1.0
  C  C3  1  0.15419318  -0.00000000  0.83333333  1.0
  C  C4  1  0.84580682  0.84580682  0.50000000  1.0
  C  C5  1  -0.00000000  0.15419318  0.16666667  1.0
  C  C6  1  0.57962962  -0.00000000  0.83333333  1.0
  C  C7  1  0.42037038  0.42037038  0.50000000  1.0
  C  C8  1  -0.00000000  0.57962962  0.16666667  1.0
  C  C9  1  0.28646583  0.84357371  0.68809630  1.0
  C  C10  1  0.55710789  0.71353417  0.35476297  1.0
  C  C11  1  0.15642629  0.44289211  1.02142963  1.0
  C  C12  1  0.71353417  0.55710789  0.64523703  1.0
  C  C13  1  0.84357371  0.28646583  0.31190370  1.0
  C  C14  1  0.44289211  0.15642629  -0.02142963  1.0
