# generated using pymatgen
data_BaY2Si3O10
_symmetry_space_group_name_H-M   'P 1'
_cell_length_a   5.46819899
_cell_length_b   12.33965997
_cell_length_c   6.91262242
_cell_angle_alpha   90.00000000
_cell_angle_beta   106.37683050
_cell_angle_gamma   90.00000000
_symmetry_Int_Tables_number   1
_chemical_formula_structural   BaY2Si3O10
_chemical_formula_sum   'Ba2 Y4 Si6 O20'
_cell_volume   447.51001554
_cell_formula_units_Z   2
loop_
 _symmetry_equiv_pos_site_id
 _symmetry_equiv_pos_as_xyz
  1  'x, y, z'
loop_
 _atom_site_type_symbol
 _atom_site_label
 _atom_site_symmetry_multiplicity
 _atom_site_fract_x
 _atom_site_fract_y
 _atom_site_fract_z
 _atom_site_occupancy
  Ba  Ba0  1  0.23778902  0.25000000  0.98761323  1.0
  Ba  Ba1  1  0.76221098  0.75000000  0.01238677  1.0
  Y  Y2  1  0.84183085  0.40106221  0.31655545  1.0
  Y  Y3  1  0.84183085  0.09893779  0.31655545  1.0
  Y  Y4  1  0.15816915  0.90106221  0.68344455  1.0
  Y  Y5  1  0.15816915  0.59893779  0.68344455  1.0
  Si  Si6  1  0.69580449  0.43938800  0.78741177  1.0
  Si  Si7  1  0.69580449  0.06061200  0.78741177  1.0
  Si  Si8  1  0.30419551  0.93938800  0.21258823  1.0
  Si  Si9  1  0.30419551  0.56061200  0.21258823  1.0
  Si  Si10  1  0.41977556  0.25000000  0.51432726  1.0
  Si  Si11  1  0.58022444  0.75000000  0.48567274  1.0
  O  O12  1  0.12588191  0.25000000  0.36853619  1.0
  O  O13  1  0.87411809  0.75000000  0.63146381  1.0
  O  O14  1  0.84076493  0.37899836  0.99842825  1.0
  O  O15  1  0.84076493  0.12100164  0.99842825  1.0
  O  O16  1  0.15923507  0.87899836  0.00157175  1.0
  O  O17  1  0.15923507  0.62100164  0.00157175  1.0
  O  O18  1  0.56257558  0.94563785  0.80964052  1.0
  O  O19  1  0.56257558  0.55436215  0.80964052  1.0
  O  O20  1  0.43742442  0.44563785  0.19035948  1.0
  O  O21  1  0.43742442  0.05436215  0.19035948  1.0
  O  O22  1  0.45452876  0.35661658  0.66494143  1.0
  O  O23  1  0.45452876  0.14338342  0.66494143  1.0
  O  O24  1  0.54547124  0.85661658  0.33505857  1.0
  O  O25  1  0.54547124  0.64338342  0.33505857  1.0
  O  O26  1  0.89442992  0.45166943  0.64666714  1.0
  O  O27  1  0.89442992  0.04833057  0.64666714  1.0
  O  O28  1  0.10557008  0.95166943  0.35333286  1.0
  O  O29  1  0.10557008  0.54833057  0.35333286  1.0
  O  O30  1  0.62867479  0.25000000  0.38576725  1.0
  O  O31  1  0.37132521  0.75000000  0.61423275  1.0
