# generated using pymatgen
data_Ti5SnSb2
_symmetry_space_group_name_H-M   'P 1'
_cell_length_a   7.93829580
_cell_length_b   7.93829580
_cell_length_c   7.93829580
_cell_angle_alpha   96.73240848
_cell_angle_beta   96.73240848
_cell_angle_gamma   139.95461324
_symmetry_Int_Tables_number   1
_chemical_formula_structural   Ti5SnSb2
_chemical_formula_sum   'Ti10 Sn2 Sb4'
_cell_volume   302.40026300
_cell_formula_units_Z   2
loop_
 _symmetry_equiv_pos_site_id
 _symmetry_equiv_pos_as_xyz
  1  'x, y, z'
loop_
 _atom_site_type_symbol
 _atom_site_label
 _atom_site_symmetry_multiplicity
 _atom_site_fract_x
 _atom_site_fract_y
 _atom_site_fract_z
 _atom_site_occupancy
  Ti  Ti0  1  0.75000000  1.25000000  0.50000000  1.0
  Ti  Ti1  1  0.25000000  0.75000000  0.50000000  1.0
  Ti  Ti2  1  0.07745201  0.22914170  0.30659371  1.0
  Ti  Ti3  1  0.92254799  0.77085830  1.69340629  1.0
  Ti  Ti4  1  0.57745201  1.27085830  0.84831031  1.0
  Ti  Ti5  1  1.42254799  0.72914170  1.15168969  1.0
  Ti  Ti6  1  0.77085830  1.07745201  0.84831031  1.0
  Ti  Ti7  1  1.22914170  0.92254799  1.15168969  1.0
  Ti  Ti8  1  0.72914170  0.57745201  1.30659371  1.0
  Ti  Ti9  1  0.27085830  0.42254799  0.69340629  1.0
  Sn  Sn10  1  0.75000000  0.75000000  -0.00000000  1.0
  Sn  Sn11  1  0.25000000  0.25000000  0.00000000  1.0
  Sb  Sb12  1  0.16376374  0.66376374  0.82752748  1.0
  Sb  Sb13  1  0.83623626  0.33623626  1.17247252  1.0
  Sb  Sb14  1  0.66376374  0.83623626  0.50000000  1.0
  Sb  Sb15  1  1.33623626  1.16376374  1.50000000  1.0
