# generated using pymatgen
data_CsCrP2O7
_symmetry_space_group_name_H-M   'P 1'
_cell_length_a   7.78901072
_cell_length_b   10.00403825
_cell_length_c   8.43545362
_cell_angle_alpha   90.00000000
_cell_angle_beta   105.27740738
_cell_angle_gamma   90.00000000
_symmetry_Int_Tables_number   1
_chemical_formula_structural   CsCrP2O7
_chemical_formula_sum   'Cs4 Cr4 P8 O28'
_cell_volume   634.07551720
_cell_formula_units_Z   4
loop_
 _symmetry_equiv_pos_site_id
 _symmetry_equiv_pos_as_xyz
  1  'x, y, z'
loop_
 _atom_site_type_symbol
 _atom_site_label
 _atom_site_symmetry_multiplicity
 _atom_site_fract_x
 _atom_site_fract_y
 _atom_site_fract_z
 _atom_site_occupancy
  Cs  Cs0  1  0.80150509  0.79566859  0.45894968  1.0
  Cs  Cs1  1  0.80150509  0.70433141  0.95894968  1.0
  Cs  Cs2  1  0.19849491  0.29566859  0.04105032  1.0
  Cs  Cs3  1  0.19849491  0.20433141  0.54105032  1.0
  Cr  Cr4  1  0.75825555  0.39805304  0.24172291  1.0
  Cr  Cr5  1  0.75825555  0.10194696  0.74172291  1.0
  Cr  Cr6  1  0.24174445  0.89805304  0.25827709  1.0
  Cr  Cr7  1  0.24174445  0.60194696  0.75827709  1.0
  P  P8  1  0.87294102  0.09641066  0.16693566  1.0
  P  P9  1  0.87294102  0.40358934  0.66693566  1.0
  P  P10  1  0.12705898  0.59641066  0.33306434  1.0
  P  P11  1  0.12705898  0.90358934  0.83306434  1.0
  P  P12  1  0.57863451  0.12541321  0.31758937  1.0
  P  P13  1  0.57863451  0.37458679  0.81758937  1.0
  P  P14  1  0.42136549  0.62541321  0.18241063  1.0
  P  P15  1  0.42136549  0.87458679  0.68241063  1.0
  O  O16  1  0.97782299  0.50619573  0.23255706  1.0
  O  O17  1  0.97782299  0.99380427  0.73255706  1.0
  O  O18  1  0.02217701  0.00619573  0.26744294  1.0
  O  O19  1  0.02217701  0.49380427  0.76744294  1.0
  O  O20  1  0.90777600  0.24025113  0.23566922  1.0
  O  O21  1  0.90777600  0.25974887  0.73566922  1.0
  O  O22  1  0.09222400  0.74025113  0.26433078  1.0
  O  O23  1  0.09222400  0.75974887  0.76433078  1.0
  O  O24  1  0.84509023  0.41385686  0.48260297  1.0
  O  O25  1  0.84509023  0.08614314  0.98260297  1.0
  O  O26  1  0.15490977  0.91385686  0.01739703  1.0
  O  O27  1  0.15490977  0.58614314  0.51739703  1.0
  O  O28  1  0.68145620  0.10105334  0.49581408  1.0
  O  O29  1  0.68145620  0.39894666  0.99581408  1.0
  O  O30  1  0.31854380  0.60105334  0.00418592  1.0
  O  O31  1  0.31854380  0.89894666  0.50418592  1.0
  O  O32  1  0.68923241  0.04475351  0.20601035  1.0
  O  O33  1  0.68923241  0.45524649  0.70601035  1.0
  O  O34  1  0.31076759  0.54475351  0.29398965  1.0
  O  O35  1  0.31076759  0.95524649  0.79398965  1.0
  O  O36  1  0.56735954  0.27370582  0.26308296  1.0
  O  O37  1  0.56735954  0.22629418  0.76308296  1.0
  O  O38  1  0.43264046  0.77370582  0.23691704  1.0
  O  O39  1  0.43264046  0.72629418  0.73691704  1.0
  O  O40  1  0.39060319  0.06569943  0.26670856  1.0
  O  O41  1  0.39060319  0.43430057  0.76670856  1.0
  O  O42  1  0.60939681  0.56569943  0.23329144  1.0
  O  O43  1  0.60939681  0.93430057  0.73329144  1.0
