# generated using pymatgen
data_K2BaMnV2O8
_symmetry_space_group_name_H-M   'P 1'
_cell_length_a   5.74792028
_cell_length_b   5.74792028
_cell_length_c   7.42037940
_cell_angle_alpha   90.00000000
_cell_angle_beta   90.00000000
_cell_angle_gamma   120.00000000
_symmetry_Int_Tables_number   1
_chemical_formula_structural   K2BaMnV2O8
_chemical_formula_sum   'K2 Ba1 Mn1 V2 O8'
_cell_volume   212.31379576
_cell_formula_units_Z   1
loop_
 _symmetry_equiv_pos_site_id
 _symmetry_equiv_pos_as_xyz
  1  'x, y, z'
loop_
 _atom_site_type_symbol
 _atom_site_label
 _atom_site_symmetry_multiplicity
 _atom_site_fract_x
 _atom_site_fract_y
 _atom_site_fract_z
 _atom_site_occupancy
  K  K0  1  0.33333333  0.66666667  0.65943451  1.0
  K  K1  1  0.66666667  0.33333333  0.34056549  1.0
  Ba  Ba2  1  0.00000000  0.00000000  0.00000000  1.0
  Mn  Mn3  1  0.00000000  0.00000000  0.50000000  1.0
  V  V4  1  0.33333333  0.66666667  0.23419921  1.0
  V  V5  1  0.66666667  0.33333333  0.76580079  1.0
  O  O6  1  0.66191078  0.83095539  0.31500164  1.0
  O  O7  1  0.83095539  0.66191078  0.68499836  1.0
  O  O8  1  0.83095539  0.16904461  0.68499836  1.0
  O  O9  1  0.16904461  0.83095539  0.31500164  1.0
  O  O10  1  0.16904461  0.33808922  0.31500164  1.0
  O  O11  1  0.33808922  0.16904461  0.68499836  1.0
  O  O12  1  0.33333333  0.66666667  0.00715600  1.0
  O  O13  1  0.66666667  0.33333333  0.99284400  1.0
