# generated using pymatgen
data_CdSe2O9
_symmetry_space_group_name_H-M   'P 1'
_cell_length_a   9.30172063
_cell_length_b   5.28709820
_cell_length_c   15.85297846
_cell_angle_alpha   90.00000000
_cell_angle_beta   109.45854088
_cell_angle_gamma   90.00000000
_symmetry_Int_Tables_number   1
_chemical_formula_structural   CdSe2O9
_chemical_formula_sum   'Cd4 Se8 O36'
_cell_volume   735.10477842
_cell_formula_units_Z   4
loop_
 _symmetry_equiv_pos_site_id
 _symmetry_equiv_pos_as_xyz
  1  'x, y, z'
loop_
 _atom_site_type_symbol
 _atom_site_label
 _atom_site_symmetry_multiplicity
 _atom_site_fract_x
 _atom_site_fract_y
 _atom_site_fract_z
 _atom_site_occupancy
  O  O0  1  0.90398330  0.41474301  0.44220430  1.0
  O  O1  1  0.90398330  0.08525699  0.94220430  1.0
  O  O2  1  0.09601670  0.91474301  0.05779570  1.0
  O  O3  1  0.09601670  0.58525699  0.55779570  1.0
  O  O4  1  0.70779607  0.90819890  0.42948283  1.0
  O  O5  1  0.70779607  0.59180110  0.92948283  1.0
  O  O6  1  0.29220393  0.40819890  0.07051717  1.0
  O  O7  1  0.29220393  0.09180110  0.57051717  1.0
  O  O8  1  0.55945637  0.45269900  0.42604591  1.0
  O  O9  1  0.55945637  0.04730100  0.92604591  1.0
  O  O10  1  0.44054363  0.95269900  0.07395409  1.0
  O  O11  1  0.44054363  0.54730100  0.57395409  1.0
  O  O12  1  0.27782385  0.13184153  0.27526477  1.0
  O  O13  1  0.27782385  0.36815847  0.77526477  1.0
  O  O14  1  0.72217615  0.63184153  0.22473523  1.0
  O  O15  1  0.72217615  0.86815847  0.72473523  1.0
  O  O16  1  0.84898072  0.28995447  0.27218651  1.0
  O  O17  1  0.84898072  0.21004553  0.77218651  1.0
  O  O18  1  0.15101928  0.78995447  0.22781349  1.0
  O  O19  1  0.15101928  0.71004553  0.72781349  1.0
  O  O20  1  0.47763974  0.20517468  0.22913166  1.0
  O  O21  1  0.47763974  0.29482532  0.72913166  1.0
  O  O22  1  0.52236026  0.70517468  0.27086834  1.0
  O  O23  1  0.52236026  0.79482532  0.77086834  1.0
  O  O24  1  0.85437327  0.92555172  0.12044149  1.0
  O  O25  1  0.85437327  0.57444828  0.62044149  1.0
  O  O26  1  0.14562673  0.42555172  0.37955851  1.0
  O  O27  1  0.14562673  0.07444828  0.87955851  1.0
  O  O28  1  0.60241204  0.39224663  0.10755686  1.0
  O  O29  1  0.60241204  0.10775337  0.60755686  1.0
  O  O30  1  0.39758796  0.89224663  0.39244314  1.0
  O  O31  1  0.39758796  0.60775337  0.89244314  1.0
  O  O32  1  0.97870146  0.46697108  0.10497787  1.0
  O  O33  1  0.97870146  0.03302892  0.60497787  1.0
  O  O34  1  0.02129854  0.96697108  0.39502213  1.0
  O  O35  1  0.02129854  0.53302892  0.89502213  1.0
  Cd  Cd36  1  0.75822838  0.26058246  0.02786343  1.0
  Cd  Cd37  1  0.75822838  0.23941754  0.52786343  1.0
  Cd  Cd38  1  0.24177162  0.76058246  0.47213657  1.0
  Cd  Cd39  1  0.24177162  0.73941754  0.97213657  1.0
  Se  Se40  1  0.98638908  0.27130390  0.37268676  1.0
  Se  Se41  1  0.98638908  0.22869610  0.87268676  1.0
  Se  Se42  1  0.01361092  0.77130390  0.12731324  1.0
  Se  Se43  1  0.01361092  0.72869610  0.62731324  1.0
  Se  Se44  1  0.44832656  0.23942384  0.11749165  1.0
  Se  Se45  1  0.44832656  0.26057616  0.61749165  1.0
  Se  Se46  1  0.55167344  0.73942384  0.38250835  1.0
  Se  Se47  1  0.55167344  0.76057616  0.88250835  1.0
