# generated using pymatgen
data_Gd2Mn3Cu9P7
_symmetry_space_group_name_H-M   'P 1'
_cell_length_a   9.51730312
_cell_length_b   9.51730312
_cell_length_c   3.79106012
_cell_angle_alpha   90.00000000
_cell_angle_beta   90.00000000
_cell_angle_gamma   120.00000000
_symmetry_Int_Tables_number   1
_chemical_formula_structural   Gd2Mn3Cu9P7
_chemical_formula_sum   'Gd2 Mn3 Cu9 P7'
_cell_volume   297.38503250
_cell_formula_units_Z   1
loop_
 _symmetry_equiv_pos_site_id
 _symmetry_equiv_pos_as_xyz
  1  'x, y, z'
loop_
 _atom_site_type_symbol
 _atom_site_label
 _atom_site_symmetry_multiplicity
 _atom_site_fract_x
 _atom_site_fract_y
 _atom_site_fract_z
 _atom_site_occupancy
  Gd  Gd0  1  -0.00000000  -0.00000000  0.50000000  1.0
  Gd  Gd1  1  0.66666667  0.33333333  -0.00000000  1.0
  Mn  Mn2  1  0.25123240  0.45407090  0.50000000  1.0
  Mn  Mn3  1  0.20283850  0.74876760  0.50000000  1.0
  Mn  Mn4  1  0.54592910  0.79716150  0.50000000  1.0
  Cu  Cu5  1  0.71877440  0.62711611  0.50000000  1.0
  Cu  Cu6  1  0.90834171  0.28122560  0.50000000  1.0
  Cu  Cu7  1  0.37288389  0.09165829  0.50000000  1.0
  Cu  Cu8  1  0.49736581  0.55235937  0.00000000  1.0
  Cu  Cu9  1  0.05499356  0.50263419  0.00000000  1.0
  Cu  Cu10  1  0.44764063  0.94500644  -0.00000000  1.0
  Cu  Cu11  1  0.28639407  0.23849132  0.00000000  1.0
  Cu  Cu12  1  0.95209724  0.71360593  0.00000000  1.0
  Cu  Cu13  1  0.76150868  0.04790276  0.00000000  1.0
  P  P14  1  0.45554311  0.37458159  0.50000000  1.0
  P  P15  1  0.91903848  0.54445689  0.50000000  1.0
  P  P16  1  0.62541841  0.08096152  0.50000000  1.0
  P  P17  1  0.04910303  0.25416788  0.00000000  1.0
  P  P18  1  0.20506486  0.95089697  0.00000000  1.0
  P  P19  1  0.74583212  0.79493514  0.00000000  1.0
  P  P20  1  0.33333333  0.66666667  0.00000000  1.0
