# generated using pymatgen
data_Rb4Sn2Au7
_symmetry_space_group_name_H-M   'P 1'
_cell_length_a   10.64965013
_cell_length_b   10.64965013
_cell_length_c   10.64965013
_cell_angle_alpha   38.02540546
_cell_angle_beta   38.02540546
_cell_angle_gamma   38.02540546
_symmetry_Int_Tables_number   1
_chemical_formula_structural   Rb4Sn2Au7
_chemical_formula_sum   'Rb4 Sn2 Au7'
_cell_volume   411.44104620
_cell_formula_units_Z   1
loop_
 _symmetry_equiv_pos_site_id
 _symmetry_equiv_pos_as_xyz
  1  'x, y, z'
loop_
 _atom_site_type_symbol
 _atom_site_label
 _atom_site_symmetry_multiplicity
 _atom_site_fract_x
 _atom_site_fract_y
 _atom_site_fract_z
 _atom_site_occupancy
  Rb  Rb0  1  0.81251448  0.81251448  0.81251448  1.0
  Rb  Rb1  1  1.18748552  1.18748552  0.18748552  1.0
  Rb  Rb2  1  0.68370265  0.68370265  0.68370265  1.0
  Rb  Rb3  1  1.31629735  1.31629735  0.31629735  1.0
  Sn  Sn4  1  1.55013092  0.55013092  0.55013092  1.0
  Sn  Sn5  1  1.44986908  0.44986908  0.44986908  1.0
  Au  Au6  1  1.21216237  1.21216237  -0.19321155  1.0
  Au  Au7  1  1.21216237  0.80678845  0.21216237  1.0
  Au  Au8  1  1.19321155  0.78783763  0.78783763  1.0
  Au  Au9  1  1.78783763  0.19321155  0.78783763  1.0
  Au  Au10  1  1.78783763  0.78783763  0.19321155  1.0
  Au  Au11  1  0.80678845  1.21216237  0.21216237  1.0
  Au  Au12  1  0.00000000  0.00000000  0.00000000  1.0
