# generated using pymatgen
data_LaGePt
_symmetry_space_group_name_H-M   'P 1'
_cell_length_a   8.15642176
_cell_length_b   8.15642176
_cell_length_c   8.15642176
_cell_angle_alpha   149.44405063
_cell_angle_beta   149.44405063
_cell_angle_gamma   43.75809323
_symmetry_Int_Tables_number   1
_chemical_formula_structural   LaGePt
_chemical_formula_sum   'La2 Ge2 Pt2'
_cell_volume   139.85010316
_cell_formula_units_Z   2
loop_
 _symmetry_equiv_pos_site_id
 _symmetry_equiv_pos_as_xyz
  1  'x, y, z'
loop_
 _atom_site_type_symbol
 _atom_site_label
 _atom_site_symmetry_multiplicity
 _atom_site_fract_x
 _atom_site_fract_y
 _atom_site_fract_z
 _atom_site_occupancy
  La  La0  1  0.58070336  0.58070336  1.00000000  1.0
  La  La1  1  0.33070336  0.83070336  0.50000000  1.0
  Ge  Ge2  1  0.00023262  0.00023262  0.00000000  1.0
  Ge  Ge3  1  0.75023262  0.25023262  0.50000000  1.0
  Pt  Pt4  1  0.16606402  0.16606402  0.00000000  1.0
  Pt  Pt5  1  0.91606402  0.41606402  0.50000000  1.0
