# generated using pymatgen
data_Si3N4
_symmetry_space_group_name_H-M   'P 1'
_cell_length_a   9.52364012
_cell_length_b   5.57636254
_cell_length_c   4.57594114
_cell_angle_alpha   90.00000000
_cell_angle_beta   90.00000000
_cell_angle_gamma   90.00000000
_symmetry_Int_Tables_number   1
_chemical_formula_structural   Si3N4
_chemical_formula_sum   'Si12 N16'
_cell_volume   243.01574167
_cell_formula_units_Z   4
loop_
 _symmetry_equiv_pos_site_id
 _symmetry_equiv_pos_as_xyz
  1  'x, y, z'
loop_
 _atom_site_type_symbol
 _atom_site_label
 _atom_site_symmetry_multiplicity
 _atom_site_fract_x
 _atom_site_fract_y
 _atom_site_fract_z
 _atom_site_occupancy
  Si  Si0  1  0.77429314  0.25000000  0.50976640  1.0
  Si  Si1  1  0.27429314  0.25000000  0.99023360  1.0
  Si  Si2  1  0.22570686  0.75000000  0.49023360  1.0
  Si  Si3  1  0.72570686  0.75000000  0.00976640  1.0
  Si  Si4  1  0.59293916  0.25000000  0.06046137  1.0
  Si  Si5  1  0.09293916  0.25000000  0.43953863  1.0
  Si  Si6  1  0.40706084  0.75000000  0.93953863  1.0
  Si  Si7  1  0.90706084  0.75000000  0.56046137  1.0
  Si  Si8  1  -0.00000000  0.50000000  0.00000000  1.0
  Si  Si9  1  0.00000000  -0.00000000  0.00000000  1.0
  Si  Si10  1  0.50000000  0.50000000  0.50000000  1.0
  Si  Si11  1  0.50000000  0.00000000  0.50000000  1.0
  N  N12  1  0.66288373  0.49535486  0.24331001  1.0
  N  N13  1  0.66288373  0.00464514  0.24331001  1.0
  N  N14  1  0.16288373  0.49535486  0.25668999  1.0
  N  N15  1  0.16288373  0.00464514  0.25668999  1.0
  N  N16  1  0.33711627  0.99535486  0.75668999  1.0
  N  N17  1  0.33711627  0.50464514  0.75668999  1.0
  N  N18  1  0.83711627  0.99535486  0.74331001  1.0
  N  N19  1  0.83711627  0.50464514  0.74331001  1.0
  N  N20  1  0.92899702  0.25000000  0.25726212  1.0
  N  N21  1  0.42899702  0.25000000  0.24273788  1.0
  N  N22  1  0.07100298  0.75000000  0.74273788  1.0
  N  N23  1  0.57100298  0.75000000  0.75726212  1.0
  N  N24  1  0.59174769  0.25000000  0.68784773  1.0
  N  N25  1  0.09174769  0.25000000  0.81215227  1.0
  N  N26  1  0.40825231  0.75000000  0.31215227  1.0
  N  N27  1  0.90825231  0.75000000  0.18784773  1.0
