# generated using pymatgen
data_Ce(PRu)2
_symmetry_space_group_name_H-M   'P 1'
_cell_length_a   5.67230528
_cell_length_b   5.67230528
_cell_length_c   5.67230528
_cell_angle_alpha   137.98838167
_cell_angle_beta   137.98838167
_cell_angle_gamma   60.92079305
_symmetry_Int_Tables_number   1
_chemical_formula_structural   Ce(PRu)2
_chemical_formula_sum   'Ce1 P2 Ru2'
_cell_volume   80.85810543
_cell_formula_units_Z   1
loop_
 _symmetry_equiv_pos_site_id
 _symmetry_equiv_pos_as_xyz
  1  'x, y, z'
loop_
 _atom_site_type_symbol
 _atom_site_label
 _atom_site_symmetry_multiplicity
 _atom_site_fract_x
 _atom_site_fract_y
 _atom_site_fract_z
 _atom_site_occupancy
  Ce  Ce0  1  0.00000000  0.00000000  0.00000000  1.0
  P  P1  1  0.62600423  0.62600423  1.00000000  1.0
  P  P2  1  0.37399577  0.37399577  -0.00000000  1.0
  Ru  Ru3  1  0.25000000  0.75000000  0.50000000  1.0
  Ru  Ru4  1  0.75000000  0.25000000  0.50000000  1.0
