# generated using pymatgen
data_CdBiSe2I
_symmetry_space_group_name_H-M   'P 1'
_cell_length_a   7.31392029
_cell_length_b   7.31392029
_cell_length_c   10.30215509
_cell_angle_alpha   88.86633773
_cell_angle_beta   91.13366227
_cell_angle_gamma   146.21866323
_symmetry_Int_Tables_number   1
_chemical_formula_structural   CdBiSe2I
_chemical_formula_sum   'Cd2 Bi2 Se4 I2'
_cell_volume   306.35848770
_cell_formula_units_Z   2
loop_
 _symmetry_equiv_pos_site_id
 _symmetry_equiv_pos_as_xyz
  1  'x, y, z'
loop_
 _atom_site_type_symbol
 _atom_site_label
 _atom_site_symmetry_multiplicity
 _atom_site_fract_x
 _atom_site_fract_y
 _atom_site_fract_z
 _atom_site_occupancy
  Cd  Cd0  1  -0.00000000  0.00000000  0.50000000  1.0
  Cd  Cd1  1  0.00000000  0.00000000  0.00000000  1.0
  Bi  Bi2  1  0.71463603  0.28536397  0.31696122  1.0
  Bi  Bi3  1  0.28536397  -0.28536397  0.68303878  1.0
  Se  Se4  1  0.91883787  0.08116213  0.73758561  1.0
  Se  Se5  1  0.08116213  -0.08116213  0.26241439  1.0
  Se  Se6  1  0.64335073  0.35664927  0.56173284  1.0
  Se  Se7  1  0.35664927  -0.35664927  0.43826716  1.0
  I  I8  1  0.63774972  0.36225028  0.92813634  1.0
  I  I9  1  0.36225028  -0.36225028  0.07186366  1.0
