# generated using pymatgen
data_C
_symmetry_space_group_name_H-M   'P 1'
_cell_length_a   3.34175026
_cell_length_b   3.34175026
_cell_length_c   3.34175026
_cell_angle_alpha   98.11258487
_cell_angle_beta   98.11258487
_cell_angle_gamma   135.87006669
_symmetry_Int_Tables_number   1
_chemical_formula_structural   C
_chemical_formula_sum   C4
_cell_volume   24.08115890
_cell_formula_units_Z   4
loop_
 _symmetry_equiv_pos_site_id
 _symmetry_equiv_pos_as_xyz
  1  'x, y, z'
loop_
 _atom_site_type_symbol
 _atom_site_label
 _atom_site_symmetry_multiplicity
 _atom_site_fract_x
 _atom_site_fract_y
 _atom_site_fract_z
 _atom_site_occupancy
  C  C0  1  0.31973208  0.31973208  0.63946415  1.0
  C  C1  1  0.68026792  0.68026792  0.36053585  1.0
  C  C2  1  1.31973208  0.68026792  1.00000000  1.0
  C  C3  1  0.68026792  0.31973208  1.00000000  1.0
