# generated using pymatgen
data_CoH4SeO5
_symmetry_space_group_name_H-M   'P 1'
_cell_length_a   6.52884888
_cell_length_b   8.73099655
_cell_length_c   9.45001103
_cell_angle_alpha   90.00000000
_cell_angle_beta   125.38968865
_cell_angle_gamma   90.00000000
_symmetry_Int_Tables_number   1
_chemical_formula_structural   CoH4SeO5
_chemical_formula_sum   'Co4 H16 Se4 O20'
_cell_volume   439.15111046
_cell_formula_units_Z   4
loop_
 _symmetry_equiv_pos_site_id
 _symmetry_equiv_pos_as_xyz
  1  'x, y, z'
loop_
 _atom_site_type_symbol
 _atom_site_label
 _atom_site_symmetry_multiplicity
 _atom_site_fract_x
 _atom_site_fract_y
 _atom_site_fract_z
 _atom_site_occupancy
  H  H0  1  0.91790646  0.13483478  0.35327090  1.0
  H  H1  1  0.91790646  0.36516522  0.85327090  1.0
  H  H2  1  0.08209354  0.63483478  0.14672910  1.0
  H  H3  1  0.08209354  0.86516522  0.64672910  1.0
  H  H4  1  0.70076167  0.07653907  0.37455004  1.0
  H  H5  1  0.70076167  0.42346093  0.87455004  1.0
  H  H6  1  0.29923833  0.57653907  0.12544996  1.0
  H  H7  1  0.29923833  0.92346093  0.62544996  1.0
  H  H8  1  0.57072045  0.35578696  0.12622405  1.0
  H  H9  1  0.57072045  0.14421304  0.62622405  1.0
  H  H10  1  0.42927955  0.85578696  0.37377595  1.0
  H  H11  1  0.42927955  0.64421304  0.87377595  1.0
  H  H12  1  0.30399517  0.02126266  0.29988304  1.0
  H  H13  1  0.30399517  0.47873734  0.79988304  1.0
  H  H14  1  0.69600483  0.52126266  0.20011696  1.0
  H  H15  1  0.69600483  0.97873734  0.70011696  1.0
  Co  Co16  1  0.83503255  0.37115050  0.47860567  1.0
  Co  Co17  1  0.83503255  0.12884950  0.97860567  1.0
  Co  Co18  1  0.16496745  0.87115050  0.02139433  1.0
  Co  Co19  1  0.16496745  0.62884950  0.52139433  1.0
  O  O20  1  0.91059759  0.66719387  0.23427850  1.0
  O  O21  1  0.91059759  0.83280613  0.73427850  1.0
  O  O22  1  0.08940241  0.16719387  0.26572150  1.0
  O  O23  1  0.08940241  0.33280613  0.76572150  1.0
  O  O24  1  0.84596026  0.14532059  0.42125998  1.0
  O  O25  1  0.84596026  0.35467941  0.92125998  1.0
  O  O26  1  0.15403974  0.64532059  0.07874002  1.0
  O  O27  1  0.15403974  0.85467941  0.57874002  1.0
  O  O28  1  0.59080265  0.44109048  0.20449406  1.0
  O  O29  1  0.59080265  0.05890952  0.70449406  1.0
  O  O30  1  0.40919735  0.94109048  0.29550594  1.0
  O  O31  1  0.40919735  0.55890952  0.79550594  1.0
  O  O32  1  0.54441110  0.29376656  0.49627541  1.0
  O  O33  1  0.54441110  0.20623344  0.99627541  1.0
  O  O34  1  0.45558889  0.79376656  0.00372459  1.0
  O  O35  1  0.45558890  0.70623344  0.50372459  1.0
  O  O36  1  0.85145163  0.90411563  0.02733790  1.0
  O  O37  1  0.85145163  0.59588437  0.52733790  1.0
  O  O38  1  0.14854837  0.40411563  0.47266210  1.0
  O  O39  1  0.14854837  0.09588437  0.97266210  1.0
  Se  Se40  1  0.76110323  0.84321166  0.16229358  1.0
  Se  Se41  1  0.76110323  0.65678834  0.66229358  1.0
  Se  Se42  1  0.23889677  0.34321166  0.33770642  1.0
  Se  Se43  1  0.23889677  0.15678834  0.83770642  1.0
