# generated using pymatgen
data_Ba2ScIrO6
_symmetry_space_group_name_H-M   'P 1'
_cell_length_a   5.80603047
_cell_length_b   5.80612161
_cell_length_c   10.05653300
_cell_angle_alpha   90.00000000
_cell_angle_beta   125.26298979
_cell_angle_gamma   90.00000000
_symmetry_Int_Tables_number   1
_chemical_formula_structural   Ba2ScIrO6
_chemical_formula_sum   'Ba4 Sc2 Ir2 O12'
_cell_volume   276.80606105
_cell_formula_units_Z   2
loop_
 _symmetry_equiv_pos_site_id
 _symmetry_equiv_pos_as_xyz
  1  'x, y, z'
loop_
 _atom_site_type_symbol
 _atom_site_label
 _atom_site_symmetry_multiplicity
 _atom_site_fract_x
 _atom_site_fract_y
 _atom_site_fract_z
 _atom_site_occupancy
  Ba  Ba0  1  0.74999502  0.00000948  0.24999089  1.0
  Ba  Ba1  1  0.74999502  0.49999052  0.74999089  1.0
  Ba  Ba2  1  0.25000498  0.50000948  0.25000911  1.0
  Ba  Ba3  1  0.25000498  -0.00000948  0.75000911  1.0
  Sc  Sc4  1  0.50000000  0.50000000  0.00000000  1.0
  Sc  Sc5  1  0.50000000  0.00000000  0.50000000  1.0
  Ir  Ir6  1  -0.00000000  0.50000000  0.50000000  1.0
  Ir  Ir7  1  0.00000000  0.00000000  0.00000000  1.0
  O  O8  1  0.75744034  0.25729934  0.49997726  1.0
  O  O9  1  0.75744034  0.24270066  0.99997726  1.0
  O  O10  1  0.24255966  0.75729934  0.00002274  1.0
  O  O11  1  0.24255966  0.74270066  0.50002274  1.0
  O  O12  1  0.75748566  0.49993611  0.25737865  1.0
  O  O13  1  0.75748566  0.00006389  0.75737865  1.0
  O  O14  1  0.24251434  0.99993611  0.24262135  1.0
  O  O15  1  0.24251434  0.50006389  0.74262135  1.0
  O  O16  1  0.75728362  0.74255703  0.49994948  1.0
  O  O17  1  0.75728362  0.75744297  -0.00005052  1.0
  O  O18  1  0.24271638  0.24255703  1.00005052  1.0
  O  O19  1  0.24271638  0.25744297  0.50005052  1.0
