# generated using pymatgen
data_SrNi5P3
_symmetry_space_group_name_H-M   'P 1'
_cell_length_a   6.16092263
_cell_length_b   6.16092263
_cell_length_c   11.63315541
_cell_angle_alpha   90.00000000
_cell_angle_beta   90.00000000
_cell_angle_gamma   145.84966855
_symmetry_Int_Tables_number   1
_chemical_formula_structural   SrNi5P3
_chemical_formula_sum   'Sr2 Ni10 P6'
_cell_volume   247.87646251
_cell_formula_units_Z   2
loop_
 _symmetry_equiv_pos_site_id
 _symmetry_equiv_pos_as_xyz
  1  'x, y, z'
loop_
 _atom_site_type_symbol
 _atom_site_label
 _atom_site_symmetry_multiplicity
 _atom_site_fract_x
 _atom_site_fract_y
 _atom_site_fract_z
 _atom_site_occupancy
  Sr  Sr0  1  -0.16185048  0.16185048  0.75000000  1.0
  Sr  Sr1  1  0.16185048  0.83814952  0.25000000  1.0
  Ni  Ni2  1  0.00000000  0.00000000  0.00000000  1.0
  Ni  Ni3  1  0.00000000  0.00000000  0.50000000  1.0
  Ni  Ni4  1  0.19787113  0.80212887  0.93193010  1.0
  Ni  Ni5  1  0.19787113  0.80212887  0.56806990  1.0
  Ni  Ni6  1  -0.19787113  0.19787113  0.43193010  1.0
  Ni  Ni7  1  -0.19787113  0.19787113  0.06806990  1.0
  Ni  Ni8  1  -0.44987927  0.44987927  0.85492027  1.0
  Ni  Ni9  1  -0.44987927  0.44987927  0.64507973  1.0
  Ni  Ni10  1  0.44987927  0.55012073  0.35492027  1.0
  Ni  Ni11  1  0.44987927  0.55012073  0.14507973  1.0
  P  P12  1  0.38131267  0.61868733  0.96293324  1.0
  P  P13  1  0.38131267  0.61868733  0.53706676  1.0
  P  P14  1  -0.38131267  0.38131267  0.46293324  1.0
  P  P15  1  -0.38131267  0.38131267  0.03706676  1.0
  P  P16  1  0.11520593  0.88479407  0.75000000  1.0
  P  P17  1  -0.11520593  0.11520593  0.25000000  1.0
