# generated using pymatgen
data_VH7(CO2)4
_symmetry_space_group_name_H-M   'P 1'
_cell_length_a   8.19732831
_cell_length_b   7.75810632
_cell_length_c   7.78897704
_cell_angle_alpha   116.03980788
_cell_angle_beta   108.39605805
_cell_angle_gamma   93.44579638
_symmetry_Int_Tables_number   1
_chemical_formula_structural   VH7(CO2)4
_chemical_formula_sum   'V2 H14 C8 O16'
_cell_volume   410.69623002
_cell_formula_units_Z   2
loop_
 _symmetry_equiv_pos_site_id
 _symmetry_equiv_pos_as_xyz
  1  'x, y, z'
loop_
 _atom_site_type_symbol
 _atom_site_label
 _atom_site_symmetry_multiplicity
 _atom_site_fract_x
 _atom_site_fract_y
 _atom_site_fract_z
 _atom_site_occupancy
  V  V0  1  0.60184157  0.68121978  0.69022598  1.0
  V  V1  1  0.39815843  0.31878022  0.30977402  1.0
  H  H2  1  0.85670138  0.95988810  0.74112886  1.0
  H  H3  1  0.14329862  0.04011190  0.25887114  1.0
  H  H4  1  0.76984094  0.86651225  0.10606186  1.0
  H  H5  1  0.23015906  0.13348775  0.89393814  1.0
  H  H6  1  0.64506732  0.58374784  0.34877269  1.0
  H  H7  1  0.35493268  0.41625216  0.65122731  1.0
  H  H8  1  0.70434016  0.37858778  1.01477633  1.0
  H  H9  1  0.29565984  0.62141222  -0.01477633  1.0
  H  H10  1  0.57864714  0.31941031  0.78496792  1.0
  H  H11  1  0.42135286  0.68058969  0.21503208  1.0
  H  H12  1  0.43762132  0.22185731  0.95023912  1.0
  H  H13  1  0.56237868  0.77814269  0.04976088  1.0
  H  H14  1  0.70052761  0.06812002  0.80481910  1.0
  H  H15  1  0.29947239  0.93187998  0.19518090  1.0
  C  C16  1  0.23801351  0.74704192  0.56982271  1.0
  C  C17  1  0.76198649  0.25295808  0.43017729  1.0
  C  C18  1  0.97172295  0.63774609  0.37798253  1.0
  C  C19  1  0.02827705  0.36225391  0.62201747  1.0
  C  C20  1  0.86545045  0.43295686  0.62165032  1.0
  C  C21  1  0.13454955  0.56704314  0.37834968  1.0
  C  C22  1  0.92196352  0.17992044  0.42439819  1.0
  C  C23  1  0.07803648  0.82007956  0.57560181  1.0
  O  O24  1  0.04722333  0.96939568  0.70307334  1.0
  O  O25  1  0.95277667  0.03060432  0.29692666  1.0
  O  O26  1  0.74459563  0.94350378  0.76378931  1.0
  O  O27  1  0.25540437  0.05649622  0.23621069  1.0
  O  O28  1  0.39846840  0.81287804  0.69270559  1.0
  O  O29  1  0.60153160  0.18712196  0.30729441  1.0
  O  O30  1  0.65713332  0.76959124  0.99395773  1.0
  O  O31  1  0.34286668  0.23040876  0.00604227  1.0
  O  O32  1  0.83284082  0.59251958  0.73394107  1.0
  O  O33  1  0.16715918  0.40748042  0.26605893  1.0
  O  O34  1  0.81086144  0.56801856  0.26558369  1.0
  O  O35  1  0.18913856  0.43198144  0.73441631  1.0
  O  O36  1  0.54036492  0.57981241  0.38852173  1.0
  O  O37  1  0.45963508  0.42018759  0.61147827  1.0
  O  O38  1  0.61924954  0.26663368  0.88183425  1.0
  O  O39  1  0.38075046  0.73336632  0.11816575  1.0
