# generated using pymatgen
data_La3TaO7
_symmetry_space_group_name_H-M   'P 1'
_cell_length_a   6.80963391
_cell_length_b   6.80963391
_cell_length_c   3.96659932
_cell_angle_alpha   90.00000000
_cell_angle_beta   90.00000000
_cell_angle_gamma   110.62932704
_symmetry_Int_Tables_number   1
_chemical_formula_structural   La3TaO7
_chemical_formula_sum   'La3 Ta1 O7'
_cell_volume   172.14155190
_cell_formula_units_Z   1
loop_
 _symmetry_equiv_pos_site_id
 _symmetry_equiv_pos_as_xyz
  1  'x, y, z'
loop_
 _atom_site_type_symbol
 _atom_site_label
 _atom_site_symmetry_multiplicity
 _atom_site_fract_x
 _atom_site_fract_y
 _atom_site_fract_z
 _atom_site_occupancy
  La  La0  1  0.00000000  0.00000000  0.00000000  1.0
  La  La1  1  -0.50000000  1.00000000  0.50000000  1.0
  La  La2  1  -0.00000000  0.50000000  0.50000000  1.0
  Ta  Ta3  1  0.50000000  0.50000000  0.00000000  1.0
  O  O4  1  0.50000000  0.50000000  0.50000000  1.0
  O  O5  1  -0.56717768  1.18629622  -0.00000000  1.0
  O  O6  1  -0.18629622  1.56717768  0.00000000  1.0
  O  O7  1  0.56717768  0.81370378  -0.00000000  1.0
  O  O8  1  0.18629622  0.43282232  0.00000000  1.0
  O  O9  1  0.13059864  0.86940136  0.50000000  1.0
  O  O10  1  -0.13059864  1.13059864  0.50000000  1.0
