# generated using pymatgen
data_As3W2
_symmetry_space_group_name_H-M   'P 1'
_cell_length_a   6.91312793
_cell_length_b   6.91312793
_cell_length_c   9.65058633
_cell_angle_alpha   56.46832135
_cell_angle_beta   123.53167865
_cell_angle_gamma   152.32482997
_symmetry_Int_Tables_number   1
_chemical_formula_structural   As3W2
_chemical_formula_sum   'As6 W4'
_cell_volume   176.17040488
_cell_formula_units_Z   2
loop_
 _symmetry_equiv_pos_site_id
 _symmetry_equiv_pos_as_xyz
  1  'x, y, z'
loop_
 _atom_site_type_symbol
 _atom_site_label
 _atom_site_symmetry_multiplicity
 _atom_site_fract_x
 _atom_site_fract_y
 _atom_site_fract_z
 _atom_site_occupancy
  As  As0  1  0.89394215  -0.89394215  0.36908263  1.0
  As  As1  1  0.10605785  -0.10605785  0.63091737  1.0
  As  As2  1  0.87651454  0.12348546  0.95351000  1.0
  As  As3  1  1.12348546  -0.12348546  0.04649000  1.0
  As  As4  1  1.41654422  -0.41654422  0.68734479  1.0
  As  As5  1  0.58345578  0.41654422  0.31265521  1.0
  W  W6  1  0.75277815  0.24722185  0.62748398  1.0
  W  W7  1  1.24722185  -0.24722185  0.37251602  1.0
  W  W8  1  0.65340697  0.34659303  0.87240693  1.0
  W  W9  1  1.34659303  -0.34659303  0.12759307  1.0
