# generated using pymatgen
data_In3Sb5O12
_symmetry_space_group_name_H-M   'P 1'
_cell_length_a   9.30555255
_cell_length_b   9.30555255
_cell_length_c   9.30555255
_cell_angle_alpha   109.47259186
_cell_angle_beta   109.47259186
_cell_angle_gamma   109.47259186
_symmetry_Int_Tables_number   1
_chemical_formula_structural   In3Sb5O12
_chemical_formula_sum   'In6 Sb10 O24'
_cell_volume   620.27254234
_cell_formula_units_Z   2
loop_
 _symmetry_equiv_pos_site_id
 _symmetry_equiv_pos_as_xyz
  1  'x, y, z'
loop_
 _atom_site_type_symbol
 _atom_site_label
 _atom_site_symmetry_multiplicity
 _atom_site_fract_x
 _atom_site_fract_y
 _atom_site_fract_z
 _atom_site_occupancy
  In  In0  1  0.74775978  -0.00228475  0.24769067  1.0
  In  In1  1  0.99771525  0.74775978  0.24769067  1.0
  In  In2  1  0.74775978  0.24769067  -0.00228475  1.0
  In  In3  1  1.24769067  1.74775978  -0.00228475  1.0
  In  In4  1  1.24769067  0.99771525  0.74775978  1.0
  In  In5  1  0.99771525  1.24769067  -0.25224022  1.0
  Sb  Sb6  1  0.01354022  0.01354022  0.01354022  1.0
  Sb  Sb7  1  0.78240548  0.78240548  0.49761964  1.0
  Sb  Sb8  1  0.78240548  1.49761964  -0.21759452  1.0
  Sb  Sb9  1  0.49761964  -0.21759452  -0.21759452  1.0
  Sb  Sb10  1  0.49769763  0.49769763  -0.01816308  1.0
  Sb  Sb11  1  0.49769763  0.98183692  -0.50230237  1.0
  Sb  Sb12  1  0.98183692  0.49769763  0.49769763  1.0
  Sb  Sb13  1  1.21306476  1.21306476  0.49778130  1.0
  Sb  Sb14  1  1.21306476  1.49778130  0.21306476  1.0
  Sb  Sb15  1  0.49778130  0.21306476  0.21306476  1.0
  O  O16  1  0.69981984  0.69981984  0.22295419  1.0
  O  O17  1  0.69981984  1.22295419  -0.30018016  1.0
  O  O18  1  1.22295419  0.69981984  0.69981984  1.0
  O  O19  1  0.99184265  0.99184265  0.29033233  1.0
  O  O20  1  0.99184265  1.29033233  -0.00815735  1.0
  O  O21  1  0.29033233  -0.00815735  -0.00815735  1.0
  O  O22  1  0.97440573  0.97440573  0.77238012  1.0
  O  O23  1  0.97440573  1.77238012  -0.02559427  1.0
  O  O24  1  0.77238012  -0.02559427  -0.02559427  1.0
  O  O25  1  0.19913266  0.19913266  -0.29489518  1.0
  O  O26  1  0.19913266  0.70510482  -0.80086734  1.0
  O  O27  1  0.70510482  0.19913266  0.19913266  1.0
  O  O28  1  0.49772907  1.02103773  -0.70427403  1.0
  O  O29  1  1.02103773  0.49772907  0.29572597  1.0
  O  O30  1  0.49772907  0.29572597  0.02103773  1.0
  O  O31  1  1.29572597  1.49772907  0.02103773  1.0
  O  O32  1  1.29572597  1.02103773  0.49772907  1.0
  O  O33  1  1.02103773  0.29572597  0.49772907  1.0
  O  O34  1  0.49768681  -0.20370383  0.00366502  1.0
  O  O35  1  0.79629617  0.49768681  0.00366502  1.0
  O  O36  1  0.49768681  0.00366502  -0.20370383  1.0
  O  O37  1  1.00366502  1.49768681  -0.20370383  1.0
  O  O38  1  1.00366502  0.79629617  0.49768681  1.0
  O  O39  1  0.79629617  1.00366502  -0.50231319  1.0
