# generated using pymatgen
data_Cu3TePbO7
_symmetry_space_group_name_H-M   'P 1'
_cell_length_a   10.96621436
_cell_length_b   6.47253611
_cell_length_c   8.82387774
_cell_angle_alpha   90.00000000
_cell_angle_beta   90.00000000
_cell_angle_gamma   90.00000000
_symmetry_Int_Tables_number   1
_chemical_formula_structural   Cu3TePbO7
_chemical_formula_sum   'Cu12 Te4 Pb4 O28'
_cell_volume   626.31194542
_cell_formula_units_Z   4
loop_
 _symmetry_equiv_pos_site_id
 _symmetry_equiv_pos_as_xyz
  1  'x, y, z'
loop_
 _atom_site_type_symbol
 _atom_site_label
 _atom_site_symmetry_multiplicity
 _atom_site_fract_x
 _atom_site_fract_y
 _atom_site_fract_z
 _atom_site_occupancy
  O  O0  1  0.49406462  0.97472621  0.70281541  1.0
  O  O1  1  0.49406462  0.52527379  0.70281541  1.0
  O  O2  1  0.99406462  0.97472621  0.79718459  1.0
  O  O3  1  0.99406462  0.52527379  0.79718459  1.0
  O  O4  1  0.50593538  0.47472621  0.29718459  1.0
  O  O5  1  0.50593538  0.02527379  0.29718459  1.0
  O  O6  1  0.00593538  0.47472621  0.20281541  1.0
  O  O7  1  0.00593538  0.02527379  0.20281541  1.0
  O  O8  1  0.29671486  0.96042104  0.93081210  1.0
  O  O9  1  0.29671486  0.53957896  0.93081210  1.0
  O  O10  1  0.79671486  0.96042104  0.56918790  1.0
  O  O11  1  0.79671486  0.53957896  0.56918790  1.0
  O  O12  1  0.70328514  0.46042104  0.06918790  1.0
  O  O13  1  0.70328514  0.03957896  0.06918790  1.0
  O  O14  1  0.20328514  0.46042104  0.43081210  1.0
  O  O15  1  0.20328514  0.03957896  0.43081210  1.0
  O  O16  1  0.30476139  0.75000000  0.20378220  1.0
  O  O17  1  0.80476139  0.75000000  0.29621780  1.0
  O  O18  1  0.69523861  0.25000000  0.79621780  1.0
  O  O19  1  0.19523861  0.25000000  0.70378220  1.0
  O  O20  1  0.26478509  0.75000000  0.63546713  1.0
  O  O21  1  0.76478509  0.75000000  0.86453287  1.0
  O  O22  1  0.73521491  0.25000000  0.36453287  1.0
  O  O23  1  0.23521491  0.25000000  0.13546713  1.0
  O  O24  1  0.02579336  0.75000000  0.54693675  1.0
  O  O25  1  0.52579336  0.75000000  0.95306325  1.0
  O  O26  1  0.97420664  0.25000000  0.45306325  1.0
  O  O27  1  0.47420664  0.25000000  0.04693675  1.0
  Cu  Cu28  1  0.38992301  0.99107352  0.12570907  1.0
  Cu  Cu29  1  0.38992301  0.50892648  0.12570907  1.0
  Cu  Cu30  1  0.88992301  0.99107352  0.37429093  1.0
  Cu  Cu31  1  0.88992301  0.50892648  0.37429093  1.0
  Cu  Cu32  1  0.61007699  0.49107352  0.87429093  1.0
  Cu  Cu33  1  0.61007699  0.00892648  0.87429093  1.0
  Cu  Cu34  1  0.11007699  0.49107352  0.62570907  1.0
  Cu  Cu35  1  0.11007699  0.00892648  0.62570907  1.0
  Cu  Cu36  1  0.25628773  0.75000000  0.40929673  1.0
  Cu  Cu37  1  0.75628773  0.75000000  0.09070327  1.0
  Cu  Cu38  1  0.74371227  0.25000000  0.59070327  1.0
  Cu  Cu39  1  0.24371227  0.25000000  0.90929673  1.0
  Te  Te40  1  0.38957402  0.75000000  0.79494405  1.0
  Te  Te41  1  0.88957402  0.75000000  0.70505595  1.0
  Te  Te42  1  0.61042598  0.25000000  0.20505595  1.0
  Te  Te43  1  0.11042598  0.25000000  0.29494405  1.0
  Pb  Pb44  1  0.11436974  0.75000000  0.04270716  1.0
  Pb  Pb45  1  0.61436974  0.75000000  0.45729284  1.0
  Pb  Pb46  1  0.88563026  0.25000000  0.95729284  1.0
  Pb  Pb47  1  0.38563026  0.25000000  0.54270716  1.0
