# generated using pymatgen
data_ReBi3O8
_symmetry_space_group_name_H-M   'P 1'
_cell_length_a   10.18831183
_cell_length_b   10.18831183
_cell_length_c   10.18831183
_cell_angle_alpha   109.47122063
_cell_angle_beta   109.47122063
_cell_angle_gamma   109.47122063
_symmetry_Int_Tables_number   1
_chemical_formula_structural   ReBi3O8
_chemical_formula_sum   'Re4 Bi12 O32'
_cell_volume   814.11319795
_cell_formula_units_Z   4
loop_
 _symmetry_equiv_pos_site_id
 _symmetry_equiv_pos_as_xyz
  1  'x, y, z'
loop_
 _atom_site_type_symbol
 _atom_site_label
 _atom_site_symmetry_multiplicity
 _atom_site_fract_x
 _atom_site_fract_y
 _atom_site_fract_z
 _atom_site_occupancy
  Re  Re0  1  1.26870019  1.26870019  1.26870019  1.0
  Re  Re1  1  1.50000000  1.00000000  1.23129981  1.0
  Re  Re2  1  1.00000000  1.23129981  1.50000000  1.0
  Re  Re3  1  1.23129981  0.50000000  1.00000000  1.0
  Bi  Bi4  1  0.98292985  0.96265629  0.75025943  1.0
  Bi  Bi5  1  0.71239687  1.23267043  0.74974057  1.0
  Bi  Bi6  1  0.75025943  0.98292985  0.96265629  1.0
  Bi  Bi7  1  0.52027356  0.78760313  0.53734371  1.0
  Bi  Bi8  1  0.96265629  0.75025943  0.98292985  1.0
  Bi  Bi9  1  1.26732957  0.97972644  1.51707015  1.0
  Bi  Bi10  1  0.78760313  0.53734371  0.52027356  1.0
  Bi  Bi11  1  0.51707015  1.26732957  0.97972644  1.0
  Bi  Bi12  1  0.97972644  1.51707015  1.26732957  1.0
  Bi  Bi13  1  0.74974057  0.71239687  0.23267043  1.0
  Bi  Bi14  1  0.23267043  0.74974057  0.71239687  1.0
  Bi  Bi15  1  0.53734371  0.52027356  0.78760313  1.0
  O  O16  1  1.31547502  1.19617553  1.11999388  1.0
  O  O17  1  1.57618165  1.19548114  1.38000612  1.0
  O  O18  1  1.11999388  1.31547502  1.19617553  1.0
  O  O19  1  0.61929948  0.92381835  0.30382447  1.0
  O  O20  1  1.19617553  1.11999388  1.31547502  1.0
  O  O21  1  1.30451886  0.88070052  1.18452498  1.0
  O  O22  1  0.92381835  1.30382447  0.61929948  1.0
  O  O23  1  1.18452498  1.30451886  1.88070052  1.0
  O  O24  1  1.88070052  1.18452498  1.30451886  1.0
  O  O25  1  0.38000612  0.57618165  0.19548114  1.0
  O  O26  1  1.19548114  1.38000612  1.57618165  1.0
  O  O27  1  0.30382447  0.61929948  0.92381835  1.0
  O  O28  1  0.97077334  0.72077334  0.25000000  1.0
  O  O29  1  0.25000000  0.97077334  0.72077334  1.0
  O  O30  1  0.75000000  0.52922666  0.77922666  1.0
  O  O31  1  0.72077334  1.25000000  0.97077334  1.0
  O  O32  1  0.77922666  0.75000000  0.52922666  1.0
  O  O33  1  0.52922666  0.77922666  0.75000000  1.0
  O  O34  1  1.73089847  1.48089847  1.25000000  1.0
  O  O35  1  0.25000000  0.73089847  0.48089847  1.0
  O  O36  1  0.75000000  0.76910153  0.01910153  1.0
  O  O37  1  1.48089847  1.25000000  1.73089847  1.0
  O  O38  1  0.01910153  0.75000000  0.76910153  1.0
  O  O39  1  0.76910153  1.01910153  0.75000000  1.0
  O  O40  1  1.44130755  1.44130755  1.44130755  1.0
  O  O41  1  1.50000000  1.00000000  1.05869245  1.0
  O  O42  1  1.00000000  1.05869245  1.50000000  1.0
  O  O43  1  1.05869245  0.50000000  1.00000000  1.0
  O  O44  1  0.94190038  0.94190038  0.94190038  1.0
  O  O45  1  0.50000000  1.00000000  0.55809962  1.0
  O  O46  1  1.00000000  0.55809962  1.50000000  1.0
  O  O47  1  0.55809962  1.50000000  1.00000000  1.0
