# generated using pymatgen
data_OsOF5
_symmetry_space_group_name_H-M   'P 1'
_cell_length_a   10.13766964
_cell_length_b   9.27675835
_cell_length_c   5.39714759
_cell_angle_alpha   90.00000000
_cell_angle_beta   90.00000000
_cell_angle_gamma   90.00000000
_symmetry_Int_Tables_number   1
_chemical_formula_structural   OsOF5
_chemical_formula_sum   'Os4 O4 F20'
_cell_volume   507.57318829
_cell_formula_units_Z   4
loop_
 _symmetry_equiv_pos_site_id
 _symmetry_equiv_pos_as_xyz
  1  'x, y, z'
loop_
 _atom_site_type_symbol
 _atom_site_label
 _atom_site_symmetry_multiplicity
 _atom_site_fract_x
 _atom_site_fract_y
 _atom_site_fract_z
 _atom_site_occupancy
  Os  Os0  1  0.88046072  0.25000000  0.43963755  1.0
  Os  Os1  1  0.38046072  0.25000000  0.06036245  1.0
  Os  Os2  1  0.11953928  0.75000000  0.56036245  1.0
  Os  Os3  1  0.61953928  0.75000000  0.93963755  1.0
  O  O4  1  0.97837424  0.25000000  0.69165079  1.0
  O  O5  1  0.47837424  0.25000000  0.80834921  1.0
  O  O6  1  0.02162576  0.75000000  0.30834921  1.0
  O  O7  1  0.52162576  0.75000000  0.19165079  1.0
  F  F8  1  0.97656917  0.39257970  0.27214697  1.0
  F  F9  1  0.97656917  0.10742030  0.27214697  1.0
  F  F10  1  0.47656917  0.39257970  0.22785303  1.0
  F  F11  1  0.47656917  0.10742030  0.22785303  1.0
  F  F12  1  0.02343083  0.89257970  0.72785303  1.0
  F  F13  1  0.02343083  0.60742030  0.72785303  1.0
  F  F14  1  0.52343083  0.89257970  0.77214697  1.0
  F  F15  1  0.52343083  0.60742030  0.77214697  1.0
  F  F16  1  0.76493962  0.39165847  0.55660990  1.0
  F  F17  1  0.76493962  0.10834153  0.55660990  1.0
  F  F18  1  0.26493962  0.39165847  0.94339010  1.0
  F  F19  1  0.26493962  0.10834153  0.94339010  1.0
  F  F20  1  0.23506038  0.89165847  0.44339010  1.0
  F  F21  1  0.23506038  0.60834153  0.44339010  1.0
  F  F22  1  0.73506038  0.89165847  0.05660990  1.0
  F  F23  1  0.73506038  0.60834153  0.05660990  1.0
  F  F24  1  0.77312982  0.25000000  0.15259159  1.0
  F  F25  1  0.27312982  0.25000000  0.34740841  1.0
  F  F26  1  0.22687018  0.75000000  0.84740841  1.0
  F  F27  1  0.72687018  0.75000000  0.65259159  1.0
