# generated using pymatgen
data_H3C2N6O
_symmetry_space_group_name_H-M   'P 1'
_cell_length_a   12.48944107
_cell_length_b   4.91994054
_cell_length_c   11.99453212
_cell_angle_alpha   90.00000000
_cell_angle_beta   128.87198766
_cell_angle_gamma   90.00000000
_symmetry_Int_Tables_number   1
_chemical_formula_structural   H3C2N6O
_chemical_formula_sum   'H12 C8 N24 O4'
_cell_volume   573.81608495
_cell_formula_units_Z   4
loop_
 _symmetry_equiv_pos_site_id
 _symmetry_equiv_pos_as_xyz
  1  'x, y, z'
loop_
 _atom_site_type_symbol
 _atom_site_label
 _atom_site_symmetry_multiplicity
 _atom_site_fract_x
 _atom_site_fract_y
 _atom_site_fract_z
 _atom_site_occupancy
  H  H0  1  0.96406491  0.17196951  0.35038944  1.0
  H  H1  1  0.96406491  0.32803049  0.85038944  1.0
  H  H2  1  0.03593509  0.67196951  0.14961056  1.0
  H  H3  1  0.03593509  0.82803049  0.64961056  1.0
  H  H4  1  0.84872684  0.08842619  0.18550274  1.0
  H  H5  1  0.84872684  0.41157381  0.68550274  1.0
  H  H6  1  0.15127316  0.58842619  0.31449726  1.0
  H  H7  1  0.15127316  0.91157381  0.81449726  1.0
  H  H8  1  0.81845186  0.88456224  0.32021350  1.0
  H  H9  1  0.81845186  0.61543776  0.82021350  1.0
  H  H10  1  0.18154814  0.38456224  0.17978650  1.0
  H  H11  1  0.18154814  0.11543776  0.67978650  1.0
  C  C12  1  0.68615641  0.54028770  0.29145724  1.0
  C  C13  1  0.68615641  -0.04028770  0.79145724  1.0
  C  C14  1  0.31384359  1.04028770  0.20854276  1.0
  C  C15  1  0.31384359  0.45971230  0.70854276  1.0
  C  C16  1  0.58568010  0.51719088  0.13608168  1.0
  C  C17  1  0.58568010  -0.01719088  0.63608168  1.0
  C  C18  1  0.41431990  1.01719088  0.36391832  1.0
  C  C19  1  0.41431990  0.48280912  0.86391832  1.0
  N  N20  1  0.86213085  0.81646012  0.99944359  1.0
  N  N21  1  0.86213085  0.68353988  0.49944359  1.0
  N  N22  1  0.13786915  0.31646012  0.50055641  1.0
  N  N23  1  0.13786915  0.18353988  0.00055641  1.0
  N  N24  1  0.78860947  0.72486606  0.35972602  1.0
  N  N25  1  0.78860947  0.77513394  0.85972602  1.0
  N  N26  1  0.21139053  0.22486606  0.14027398  1.0
  N  N27  1  0.21139053  0.27513394  0.64027398  1.0
  N  N28  1  0.80510462  0.47916222  0.51531016  1.0
  N  N29  1  0.80510462  0.02083778  1.01531016  1.0
  N  N30  1  0.19489538  0.97916222  -0.01531016  1.0
  N  N31  1  0.19489538  0.52083778  0.48468984  1.0
  N  N32  1  0.69554066  0.38509313  0.38869988  1.0
  N  N33  1  0.69554066  0.11490687  0.88869988  1.0
  N  N34  1  0.30445934  0.88509313  0.11130012  1.0
  N  N35  1  0.30445934  0.61490687  0.61130012  1.0
  N  N36  1  0.49284252  0.31409182  0.08040466  1.0
  N  N37  1  0.49284252  0.18590818  0.58040466  1.0
  N  N38  1  0.50715748  0.81409182  0.41959534  1.0
  N  N39  1  0.50715748  0.68590818  0.91959534  1.0
  N  N40  1  0.40472206  0.20259069  0.44018806  1.0
  N  N41  1  0.40472206  0.29740931  0.94018806  1.0
  N  N42  1  0.59527794  0.70259069  0.05981194  1.0
  N  N43  1  0.59527794  0.79740931  0.55981194  1.0
  O  O44  1  0.86720815  0.11486965  0.27874876  1.0
  O  O45  1  0.86720815  0.38513035  0.77874876  1.0
  O  O46  1  0.13279185  0.61486965  0.22125124  1.0
  O  O47  1  0.13279185  0.88513035  0.72125124  1.0
