# generated using pymatgen
data_LiPO4
_symmetry_space_group_name_H-M   'P 1'
_cell_length_a   6.86465980
_cell_length_b   7.33687576
_cell_length_c   7.21135757
_cell_angle_alpha   90.00000000
_cell_angle_beta   90.00000000
_cell_angle_gamma   90.00000000
_symmetry_Int_Tables_number   1
_chemical_formula_structural   LiPO4
_chemical_formula_sum   'Li4 P4 O16'
_cell_volume   363.20114980
_cell_formula_units_Z   4
loop_
 _symmetry_equiv_pos_site_id
 _symmetry_equiv_pos_as_xyz
  1  'x, y, z'
loop_
 _atom_site_type_symbol
 _atom_site_label
 _atom_site_symmetry_multiplicity
 _atom_site_fract_x
 _atom_site_fract_y
 _atom_site_fract_z
 _atom_site_occupancy
  Li  Li0  1  0.49994179  0.74998167  0.01101486  1.0
  Li  Li1  1  -0.00005821  0.75001833  0.01101486  1.0
  Li  Li2  1  0.50005821  0.25001833  0.51101486  1.0
  Li  Li3  1  1.00005821  0.24998167  0.51101486  1.0
  P  P4  1  0.75021699  0.57565085  0.33258968  1.0
  P  P5  1  0.25021699  0.92434915  0.33258968  1.0
  P  P6  1  0.24978301  0.42434915  0.83258968  1.0
  P  P7  1  0.74978301  0.07565085  0.83258968  1.0
  O  O8  1  0.56171278  0.96411926  0.86054143  1.0
  O  O9  1  0.06171278  0.53588074  0.86054143  1.0
  O  O10  1  0.43828722  0.03588074  0.36054143  1.0
  O  O11  1  0.93828722  0.46411926  0.36054143  1.0
  O  O12  1  0.56212478  0.46431475  0.36106059  1.0
  O  O13  1  0.06212478  1.03568525  0.36106059  1.0
  O  O14  1  0.43787522  0.53568525  0.86106059  1.0
  O  O15  1  0.93787522  -0.03568525  0.86106059  1.0
  O  O16  1  0.75001371  0.68431430  0.15017154  1.0
  O  O17  1  0.25001371  0.81568570  0.15017154  1.0
  O  O18  1  0.24998629  0.31568570  0.65017154  1.0
  O  O19  1  0.74998629  0.18431430  0.65017154  1.0
  O  O20  1  0.75068900  0.71205025  0.49942190  1.0
  O  O21  1  0.25068900  0.78794975  0.49942190  1.0
  O  O22  1  0.24931100  0.28794975  -0.00057810  1.0
  O  O23  1  0.74931100  0.21205025  -0.00057810  1.0
