# generated using pymatgen
data_Fe2B(PO4)3
_symmetry_space_group_name_H-M   'P 1'
_cell_length_a   8.17401414
_cell_length_b   8.17401414
_cell_length_c   7.54009965
_cell_angle_alpha   90.00000000
_cell_angle_beta   90.00000000
_cell_angle_gamma   120.00000000
_symmetry_Int_Tables_number   1
_chemical_formula_structural   Fe2B(PO4)3
_chemical_formula_sum   'Fe4 B2 P6 O24'
_cell_volume   436.29324218
_cell_formula_units_Z   2
loop_
 _symmetry_equiv_pos_site_id
 _symmetry_equiv_pos_as_xyz
  1  'x, y, z'
loop_
 _atom_site_type_symbol
 _atom_site_label
 _atom_site_symmetry_multiplicity
 _atom_site_fract_x
 _atom_site_fract_y
 _atom_site_fract_z
 _atom_site_occupancy
  Fe  Fe0  1  0.33333333  0.66666667  0.45451463  1.0
  Fe  Fe1  1  0.33333333  0.66666667  0.04548537  1.0
  Fe  Fe2  1  0.66666667  0.33333333  0.95451463  1.0
  Fe  Fe3  1  0.66666667  0.33333333  0.54548537  1.0
  O  O4  1  0.13460381  0.94740486  0.25000000  1.0
  O  O5  1  0.94740486  0.81280105  0.75000000  1.0
  O  O6  1  0.81280105  0.86539619  0.25000000  1.0
  O  O7  1  0.05259514  0.18719895  0.25000000  1.0
  O  O8  1  0.86539619  0.05259514  0.75000000  1.0
  O  O9  1  0.18719895  0.13460381  0.75000000  1.0
  O  O10  1  0.39307430  0.87333942  0.25000000  1.0
  O  O11  1  0.87333942  0.48026513  0.75000000  1.0
  O  O12  1  0.48026513  0.60692570  0.25000000  1.0
  O  O13  1  0.12666058  0.51973487  0.25000000  1.0
  O  O14  1  0.60692570  0.12666058  0.75000000  1.0
  O  O15  1  0.51973487  0.39307430  0.75000000  1.0
  O  O16  1  0.72678428  0.56421110  0.41982541  1.0
  O  O17  1  0.72678428  0.56421110  0.08017459  1.0
  O  O18  1  0.56421110  0.83742682  0.91982541  1.0
  O  O19  1  0.56421110  0.83742682  0.58017459  1.0
  O  O20  1  0.83742682  0.27321572  0.41982541  1.0
  O  O21  1  0.83742682  0.27321572  0.08017459  1.0
  O  O22  1  0.43578890  0.16257318  0.41982541  1.0
  O  O23  1  0.43578890  0.16257318  0.08017459  1.0
  O  O24  1  0.27321572  0.43578890  0.91982541  1.0
  O  O25  1  0.27321572  0.43578890  0.58017459  1.0
  O  O26  1  0.16257318  0.72678428  0.91982541  1.0
  O  O27  1  0.16257318  0.72678428  0.58017459  1.0
  P  P28  1  0.68393648  0.63937001  0.25000000  1.0
  P  P29  1  0.63937001  0.95543353  0.75000000  1.0
  P  P30  1  0.95543353  0.31606352  0.25000000  1.0
  P  P31  1  0.36062999  0.04456647  0.25000000  1.0
  P  P32  1  0.31606352  0.36062999  0.75000000  1.0
  P  P33  1  0.04456647  0.68393648  0.75000000  1.0
  B  B34  1  0.00000000  0.00000000  0.25000000  1.0
  B  B35  1  -0.00000000  -0.00000000  0.75000000  1.0
