# generated using pymatgen
data_S(IO3)2
_symmetry_space_group_name_H-M   'P 1'
_cell_length_a   8.05608364
_cell_length_b   8.05608364
_cell_length_c   10.68359985
_cell_angle_alpha   61.33659037
_cell_angle_beta   118.66340963
_cell_angle_gamma   145.52640372
_symmetry_Int_Tables_number   1
_chemical_formula_structural   S(IO3)2
_chemical_formula_sum   'S2 I4 O12'
_cell_volume   339.38143539
_cell_formula_units_Z   2
loop_
 _symmetry_equiv_pos_site_id
 _symmetry_equiv_pos_as_xyz
  1  'x, y, z'
loop_
 _atom_site_type_symbol
 _atom_site_label
 _atom_site_symmetry_multiplicity
 _atom_site_fract_x
 _atom_site_fract_y
 _atom_site_fract_z
 _atom_site_occupancy
  S  S0  1  0.67473826  0.67473826  0.25000000  1.0
  S  S1  1  0.32526174  0.32526174  0.75000000  1.0
  I  I2  1  0.33790858  0.01716415  0.24829327  1.0
  I  I3  1  0.98283585  -0.33790858  0.74829327  1.0
  I  I4  1  1.01716415  0.33790858  0.25170673  1.0
  I  I5  1  1.66209142  -0.01716415  0.75170673  1.0
  O  O6  1  1.83195049  -0.12650523  0.34812431  1.0
  O  O7  1  1.12650523  -0.83195049  0.84812431  1.0
  O  O8  1  0.87349477  0.83195049  0.15187569  1.0
  O  O9  1  0.16804951  0.12650523  0.65187569  1.0
  O  O10  1  0.71514814  0.14925098  0.34904825  1.0
  O  O11  1  0.85074902  -0.71514814  0.84904825  1.0
  O  O12  1  1.14925098  0.71514814  0.15095175  1.0
  O  O13  1  1.28485186  -0.14925098  0.65095175  1.0
  O  O14  1  0.58490096  0.40658951  0.34794009  1.0
  O  O15  1  0.59341049  0.41509904  0.84794009  1.0
  O  O16  1  1.40658951  -0.41509904  0.15205991  1.0
  O  O17  1  1.41509904  -0.40658951  0.65205991  1.0
