# generated using pymatgen
data_Tb2(Al3Ir)3
_symmetry_space_group_name_H-M   'P 1'
_cell_length_a   7.55980799
_cell_length_b   7.55980799
_cell_length_c   9.46565466
_cell_angle_alpha   90.00000000
_cell_angle_beta   90.00000000
_cell_angle_gamma   60.48972968
_symmetry_Int_Tables_number   1
_chemical_formula_structural   Tb2(Al3Ir)3
_chemical_formula_sum   'Tb4 Al18 Ir6'
_cell_volume   470.78748387
_cell_formula_units_Z   2
loop_
 _symmetry_equiv_pos_site_id
 _symmetry_equiv_pos_as_xyz
  1  'x, y, z'
loop_
 _atom_site_type_symbol
 _atom_site_label
 _atom_site_symmetry_multiplicity
 _atom_site_fract_x
 _atom_site_fract_y
 _atom_site_fract_z
 _atom_site_occupancy
  Tb  Tb0  1  -0.00469631  1.32854371  0.25000000  1.0
  Tb  Tb1  1  0.32854371  0.99530369  0.75000000  1.0
  Tb  Tb2  1  -0.32854371  1.00469631  0.25000000  1.0
  Tb  Tb3  1  0.00469631  0.67145629  0.75000000  1.0
  Al  Al4  1  0.00119133  1.66457494  0.42546722  1.0
  Al  Al5  1  0.00119133  1.66457494  0.07453278  1.0
  Al  Al6  1  0.66457494  1.00119133  0.92546722  1.0
  Al  Al7  1  0.66457494  1.00119133  0.57453278  1.0
  Al  Al8  1  -0.66457494  0.99880867  0.42546722  1.0
  Al  Al9  1  -0.66457494  0.99880867  0.07453278  1.0
  Al  Al10  1  -0.00119133  0.33542506  0.92546722  1.0
  Al  Al11  1  -0.00119133  0.33542506  0.57453278  1.0
  Al  Al12  1  0.33990929  0.45123847  0.25000000  1.0
  Al  Al13  1  -0.54876153  1.33990929  0.75000000  1.0
  Al  Al14  1  0.54876153  0.66009071  0.25000000  1.0
  Al  Al15  1  -0.33990929  1.54876153  0.75000000  1.0
  Al  Al16  1  0.33335933  0.66664067  0.94846372  1.0
  Al  Al17  1  0.33335933  0.66664067  0.55153628  1.0
  Al  Al18  1  -0.33335933  1.33335933  0.44846372  1.0
  Al  Al19  1  -0.33335933  1.33335933  0.05153628  1.0
  Al  Al20  1  0.12916247  0.87083753  0.25000000  1.0
  Al  Al21  1  -0.12916247  1.12916247  0.75000000  1.0
  Ir  Ir22  1  0.67176717  0.67176717  0.50000000  1.0
  Ir  Ir23  1  0.67176717  0.67176717  0.00000000  1.0
  Ir  Ir24  1  0.32823283  0.32823283  0.50000000  1.0
  Ir  Ir25  1  0.32823283  0.32823283  0.00000000  1.0
  Ir  Ir26  1  0.00000000  0.00000000  0.50000000  1.0
  Ir  Ir27  1  0.00000000  0.00000000  0.00000000  1.0
