# generated using pymatgen
data_Nb2(Ni7B2)3
_symmetry_space_group_name_H-M   'P 1'
_cell_length_a   7.44998012
_cell_length_b   7.44998012
_cell_length_c   7.44998012
_cell_angle_alpha   60.00000000
_cell_angle_beta   60.00000000
_cell_angle_gamma   60.00000000
_symmetry_Int_Tables_number   1
_chemical_formula_structural   Nb2(Ni7B2)3
_chemical_formula_sum   'Nb2 Ni21 B6'
_cell_volume   292.38180608
_cell_formula_units_Z   1
loop_
 _symmetry_equiv_pos_site_id
 _symmetry_equiv_pos_as_xyz
  1  'x, y, z'
loop_
 _atom_site_type_symbol
 _atom_site_label
 _atom_site_symmetry_multiplicity
 _atom_site_fract_x
 _atom_site_fract_y
 _atom_site_fract_z
 _atom_site_occupancy
  Nb  Nb0  1  0.75000000  0.75000000  -0.25000000  1.0
  Nb  Nb1  1  1.25000000  0.25000000  0.25000000  1.0
  Ni  Ni2  1  1.65957833  -0.00000000  0.00000000  1.0
  Ni  Ni3  1  1.00000000  0.34042167  -0.34042167  1.0
  Ni  Ni4  1  1.00000000  0.65957833  -0.65957833  1.0
  Ni  Ni5  1  1.34042167  0.00000000  -0.00000000  1.0
  Ni  Ni6  1  -0.00000000  1.65957833  0.00000000  1.0
  Ni  Ni7  1  0.34042167  1.00000000  -0.34042167  1.0
  Ni  Ni8  1  -0.00000000  0.00000000  0.65957833  1.0
  Ni  Ni9  1  0.34042167  -0.34042167  1.00000000  1.0
  Ni  Ni10  1  0.65957833  1.00000000  -0.65957833  1.0
  Ni  Ni11  1  0.00000000  1.34042167  -0.00000000  1.0
  Ni  Ni12  1  0.65957833  -0.65957833  1.00000000  1.0
  Ni  Ni13  1  -0.00000000  0.00000000  0.34042167  1.0
  Ni  Ni14  1  0.61573150  0.61573150  -0.38426850  1.0
  Ni  Ni15  1  0.38426850  1.38426850  -0.15280549  1.0
  Ni  Ni16  1  1.38426850  -0.15280549  0.38426850  1.0
  Ni  Ni17  1  1.15280549  0.61573150  0.61573150  1.0
  Ni  Ni18  1  -0.15280549  1.38426850  0.38426850  1.0
  Ni  Ni19  1  0.61573150  1.15280549  -0.38426850  1.0
  Ni  Ni20  1  0.61573150  0.61573150  1.15280549  1.0
  Ni  Ni21  1  1.38426850  0.38426850  0.38426850  1.0
  Ni  Ni22  1  0.00000000  0.00000000  0.00000000  1.0
  B  B23  1  -0.73257201  0.73257201  0.73257201  1.0
  B  B24  1  -0.26742799  0.26742799  0.73257201  1.0
  B  B25  1  0.73257201  0.73257201  -0.73257201  1.0
  B  B26  1  0.26742799  1.26742799  -0.26742799  1.0
  B  B27  1  0.26742799  -0.26742799  1.26742799  1.0
  B  B28  1  -0.26742799  0.26742799  0.26742799  1.0
