# generated using pymatgen
data_Ba(PO3)2
_symmetry_space_group_name_H-M   'P 1'
_cell_length_a   7.69882340
_cell_length_b   6.97664026
_cell_length_c   12.01539033
_cell_angle_alpha   90.00000000
_cell_angle_beta   124.92188588
_cell_angle_gamma   90.00000000
_symmetry_Int_Tables_number   1
_chemical_formula_structural   Ba(PO3)2
_chemical_formula_sum   'Ba4 P8 O24'
_cell_volume   529.16008587
_cell_formula_units_Z   4
loop_
 _symmetry_equiv_pos_site_id
 _symmetry_equiv_pos_as_xyz
  1  'x, y, z'
loop_
 _atom_site_type_symbol
 _atom_site_label
 _atom_site_symmetry_multiplicity
 _atom_site_fract_x
 _atom_site_fract_y
 _atom_site_fract_z
 _atom_site_occupancy
  Ba  Ba0  1  0.67722022  0.89953058  0.32612241  1.0
  Ba  Ba1  1  0.67722022  0.60046942  0.82612241  1.0
  Ba  Ba2  1  0.32277978  0.39953058  0.17387759  1.0
  Ba  Ba3  1  0.32277978  0.10046942  0.67387759  1.0
  P  P4  1  0.95414808  0.39263307  0.33720897  1.0
  P  P5  1  0.95414808  0.10736693  0.83720897  1.0
  P  P6  1  0.04585192  0.89263307  0.16279103  1.0
  P  P7  1  0.04585192  0.60736693  0.66279103  1.0
  P  P8  1  0.71083270  0.20390870  0.08048004  1.0
  P  P9  1  0.71083270  0.29609130  0.58048004  1.0
  P  P10  1  0.28916730  0.70390870  0.41951996  1.0
  P  P11  1  0.28916730  0.79609130  0.91951996  1.0
  O  O12  1  0.99605921  0.20867527  0.41501750  1.0
  O  O13  1  0.99605921  0.29132473  0.91501750  1.0
  O  O14  1  0.00394079  0.70867527  0.08498250  1.0
  O  O15  1  0.00394079  0.79132473  0.58498250  1.0
  O  O16  1  0.91098535  0.33926431  0.18856886  1.0
  O  O17  1  0.91098535  0.16073569  0.68856886  1.0
  O  O18  1  0.08901465  0.83926431  0.31143114  1.0
  O  O19  1  0.08901465  0.66073569  0.81143114  1.0
  O  O20  1  0.82015544  0.99731596  0.09727581  1.0
  O  O21  1  0.82015544  0.50268404  0.59727581  1.0
  O  O22  1  0.17984456  0.49731596  0.40272419  1.0
  O  O23  1  0.17984456  0.00268404  0.90272419  1.0
  O  O24  1  0.78545216  0.97081334  0.81439252  1.0
  O  O25  1  0.78545216  0.52918666  0.31439252  1.0
  O  O26  1  0.21454784  0.47081334  0.68560748  1.0
  O  O27  1  0.21454784  0.02918666  0.18560748  1.0
  O  O28  1  0.61401260  0.21911728  0.43990303  1.0
  O  O29  1  0.61401260  0.28088272  0.93990303  1.0
  O  O30  1  0.38598740  0.71911728  0.06009697  1.0
  O  O31  1  0.38598740  0.78088272  0.56009697  1.0
  O  O32  1  0.57304263  0.17589200  0.13175504  1.0
  O  O33  1  0.57304263  0.32410800  0.63175504  1.0
  O  O34  1  0.42695737  0.67589200  0.36824496  1.0
  O  O35  1  0.42695737  0.82410800  0.86824496  1.0
