# generated using pymatgen
data_La9B3C6I5
_symmetry_space_group_name_H-M   'P 1'
_cell_length_a   3.97396225
_cell_length_b   33.89296950
_cell_length_c   8.31164877
_cell_angle_alpha   90.00000000
_cell_angle_beta   90.00000000
_cell_angle_gamma   90.00000000
_symmetry_Int_Tables_number   1
_chemical_formula_structural   La9B3C6I5
_chemical_formula_sum   'La18 B6 C12 I10'
_cell_volume   1119.49083154
_cell_formula_units_Z   2
loop_
 _symmetry_equiv_pos_site_id
 _symmetry_equiv_pos_as_xyz
  1  'x, y, z'
loop_
 _atom_site_type_symbol
 _atom_site_label
 _atom_site_symmetry_multiplicity
 _atom_site_fract_x
 _atom_site_fract_y
 _atom_site_fract_z
 _atom_site_occupancy
  La  La0  1  0.50000000  0.55590491  0.04874472  1.0
  La  La1  1  0.50000000  0.44409509  0.04874472  1.0
  La  La2  1  0.00000000  0.05590491  0.95125528  1.0
  La  La3  1  0.00000000  0.94409509  0.95125528  1.0
  La  La4  1  0.50000000  0.24095870  0.81616760  1.0
  La  La5  1  0.50000000  0.75904130  0.81616760  1.0
  La  La6  1  0.00000000  0.74095870  0.18383240  1.0
  La  La7  1  0.00000000  0.25904130  0.18383240  1.0
  La  La8  1  0.50000000  0.15483296  0.07913950  1.0
  La  La9  1  0.50000000  0.84516704  0.07913950  1.0
  La  La10  1  0.00000000  0.65483296  0.92086050  1.0
  La  La11  1  0.00000000  0.34516704  0.92086050  1.0
  La  La12  1  0.50000000  0.11492138  0.66683625  1.0
  La  La13  1  0.50000000  0.88507862  0.66683625  1.0
  La  La14  1  0.00000000  0.61492138  0.33316375  1.0
  La  La15  1  0.00000000  0.38507862  0.33316375  1.0
  La  La16  1  0.50000000  0.50000000  0.42767720  1.0
  La  La17  1  0.00000000  0.00000000  0.57232280  1.0
  B  B18  1  0.50000000  0.66973396  0.12764004  1.0
  B  B19  1  0.50000000  0.33026604  0.12764004  1.0
  B  B20  1  0.00000000  0.16973396  0.87235996  1.0
  B  B21  1  0.00000000  0.83026604  0.87235996  1.0
  B  B22  1  0.50000000  0.00000000  0.78428098  1.0
  B  B23  1  0.00000000  0.50000000  0.21571902  1.0
  C  C24  1  0.50000000  0.70629558  0.02918525  1.0
  C  C25  1  0.50000000  0.29370442  0.02918525  1.0
  C  C26  1  0.00000000  0.20629558  0.97081475  1.0
  C  C27  1  0.00000000  0.79370442  0.97081475  1.0
  C  C28  1  0.50000000  0.62598994  0.13029581  1.0
  C  C29  1  0.50000000  0.37401006  0.13029581  1.0
  C  C30  1  0.00000000  0.12598994  0.86970419  1.0
  C  C31  1  0.00000000  0.87401006  0.86970419  1.0
  C  C32  1  0.50000000  0.04266351  0.74154238  1.0
  C  C33  1  0.50000000  0.95733649  0.74154238  1.0
  C  C34  1  0.00000000  0.54266351  0.25845762  1.0
  C  C35  1  0.00000000  0.45733649  0.25845762  1.0
  I  I36  1  0.50000000  0.59734901  0.66676755  1.0
  I  I37  1  0.50000000  0.40265099  0.66676755  1.0
  I  I38  1  0.00000000  0.09734901  0.33323245  1.0
  I  I39  1  0.00000000  0.90265099  0.33323245  1.0
  I  I40  1  0.50000000  0.20143363  0.42963932  1.0
  I  I41  1  0.50000000  0.79856637  0.42963932  1.0
  I  I42  1  0.00000000  0.70143363  0.57036068  1.0
  I  I43  1  0.00000000  0.29856637  0.57036068  1.0
  I  I44  1  0.50000000  0.00000000  0.21414045  1.0
  I  I45  1  0.00000000  0.50000000  0.78585955  1.0
