# generated using pymatgen
data_CsP(HO2)2
_symmetry_space_group_name_H-M   'P 1'
_cell_length_a   4.96375832
_cell_length_b   6.45715305
_cell_length_c   15.45902460
_cell_angle_alpha   90.00000000
_cell_angle_beta   92.24185892
_cell_angle_gamma   90.00000000
_symmetry_Int_Tables_number   1
_chemical_formula_structural   CsP(HO2)2
_chemical_formula_sum   'Cs4 P4 H8 O16'
_cell_volume   495.10950320
_cell_formula_units_Z   4
loop_
 _symmetry_equiv_pos_site_id
 _symmetry_equiv_pos_as_xyz
  1  'x, y, z'
loop_
 _atom_site_type_symbol
 _atom_site_label
 _atom_site_symmetry_multiplicity
 _atom_site_fract_x
 _atom_site_fract_y
 _atom_site_fract_z
 _atom_site_occupancy
  Cs  Cs0  1  0.91061578  0.50555065  0.13375305  1.0
  Cs  Cs1  1  0.08938422  0.00555065  0.86624695  1.0
  Cs  Cs2  1  0.41065941  0.50727972  0.63373848  1.0
  Cs  Cs3  1  0.58934059  0.00727972  0.36626152  1.0
  P  P4  1  0.91798859  0.99489788  0.61753412  1.0
  P  P5  1  0.08201141  0.49489788  0.38246588  1.0
  P  P6  1  0.58203447  0.51796132  0.88244978  1.0
  P  P7  1  0.41796553  0.01796132  0.11755022  1.0
  H  H8  1  0.97646741  0.24146004  0.51372214  1.0
  H  H9  1  0.02353259  0.74146004  0.48627786  1.0
  H  H10  1  0.50622558  1.00059122  0.67363475  1.0
  H  H11  1  0.49377442  0.50059122  0.32636525  1.0
  H  H12  1  1.00618902  0.01227795  0.17363306  1.0
  H  H13  1  -0.00618902  0.51227795  0.82636694  1.0
  H  H14  1  0.52348870  0.27142712  0.98626309  1.0
  H  H15  1  0.47651130  0.77142712  0.01373691  1.0
  O  O16  1  0.70504847  0.00357972  0.69241278  1.0
  O  O17  1  0.29495153  0.50357972  0.30758722  1.0
  O  O18  1  0.85917958  0.80669948  0.55918505  1.0
  O  O19  1  0.14082042  0.30669948  0.44081495  1.0
  O  O20  1  0.30489930  0.51336392  0.83685062  1.0
  O  O21  1  0.69510070  0.01336392  0.16314938  1.0
  O  O22  1  0.85672947  0.20565059  0.56569968  1.0
  O  O23  1  0.14327053  0.70565059  0.43430032  1.0
  O  O24  1  0.79499447  0.50925378  0.80757860  1.0
  O  O25  1  0.20500553  0.00925378  0.19242140  1.0
  O  O26  1  0.64322861  0.30718529  0.93428778  1.0
  O  O27  1  0.35677139  0.80718529  0.06571222  1.0
  O  O28  1  0.80487287  0.49956673  0.33687253  1.0
  O  O29  1  0.19512713  -0.00043327  0.66312747  1.0
  O  O30  1  0.64088599  0.70615459  0.94079270  1.0
  O  O31  1  0.35911401  0.20615459  0.05920730  1.0
