# generated using pymatgen
data_VH12(ClO2)3
_symmetry_space_group_name_H-M   'P 1'
_cell_length_a   6.52554708
_cell_length_b   6.42611781
_cell_length_c   11.92924327
_cell_angle_alpha   90.00000000
_cell_angle_beta   97.63654879
_cell_angle_gamma   90.00000000
_symmetry_Int_Tables_number   1
_chemical_formula_structural   VH12(ClO2)3
_chemical_formula_sum   'V2 H24 Cl6 O12'
_cell_volume   495.80346008
_cell_formula_units_Z   2
loop_
 _symmetry_equiv_pos_site_id
 _symmetry_equiv_pos_as_xyz
  1  'x, y, z'
loop_
 _atom_site_type_symbol
 _atom_site_label
 _atom_site_symmetry_multiplicity
 _atom_site_fract_x
 _atom_site_fract_y
 _atom_site_fract_z
 _atom_site_occupancy
  V  V0  1  0.00000000  0.50000000  0.50000000  1.0
  V  V1  1  0.00000000  0.00000000  0.00000000  1.0
  H  H2  1  0.98063332  0.86309992  0.38255513  1.0
  H  H3  1  0.98063332  0.63690008  0.88255513  1.0
  H  H4  1  0.01936668  0.36309992  0.11744487  1.0
  H  H5  1  0.01936668  0.13690008  0.61744487  1.0
  H  H6  1  0.78625901  0.90446093  0.16967038  1.0
  H  H7  1  0.78625901  0.59553907  0.66967038  1.0
  H  H8  1  0.21374099  0.40446093  0.33032962  1.0
  H  H9  1  0.21374099  0.09553907  0.83032962  1.0
  H  H10  1  0.79156829  0.14232228  0.30662651  1.0
  H  H11  1  0.79156829  0.35767772  0.80662651  1.0
  H  H12  1  0.20843171  0.64232228  0.19337349  1.0
  H  H13  1  0.20843171  0.85767772  0.69337349  1.0
  H  H14  1  0.78678796  0.34420058  0.04570824  1.0
  H  H15  1  0.78678796  0.15579942  0.54570824  1.0
  H  H16  1  0.21321204  0.84420058  0.45429176  1.0
  H  H17  1  0.21321204  0.65579942  0.95429176  1.0
  H  H18  1  0.66474512  0.94991790  0.33447278  1.0
  H  H19  1  0.66474512  0.55008210  0.83447278  1.0
  H  H20  1  0.33525488  0.44991790  0.16552722  1.0
  H  H21  1  0.33525488  0.05008210  0.66552722  1.0
  H  H22  1  0.31642578  0.26973900  0.44049907  1.0
  H  H23  1  0.31642578  0.23026100  0.94049907  1.0
  H  H24  1  0.68357422  0.76973900  0.05950093  1.0
  H  H25  1  0.68357422  0.73026100  0.55950093  1.0
  Cl  Cl26  1  0.73811776  0.46418194  0.34235555  1.0
  Cl  Cl27  1  0.73811776  0.03581806  0.84235555  1.0
  Cl  Cl28  1  0.26188224  0.96418194  0.15764445  1.0
  Cl  Cl29  1  0.26188224  0.53581806  0.65764445  1.0
  Cl  Cl30  1  0.50000000  0.50000000  0.00000000  1.0
  Cl  Cl31  1  0.50000000  0.00000000  0.50000000  1.0
  O  O32  1  0.92342001  0.27591876  0.06380723  1.0
  O  O33  1  0.92342001  0.22408124  0.56380723  1.0
  O  O34  1  0.07657999  0.77591876  0.43619277  1.0
  O  O35  1  0.07657999  0.72408124  0.93619277  1.0
  O  O36  1  0.80079172  0.85964486  0.09009290  1.0
  O  O37  1  0.80079172  0.64035514  0.59009290  1.0
  O  O38  1  0.19920828  0.35964486  0.40990710  1.0
  O  O39  1  0.19920828  0.14035514  0.90990710  1.0
  O  O40  1  0.78872852  0.98785111  0.30031799  1.0
  O  O41  1  0.78872852  0.51214889  0.80031799  1.0
  O  O42  1  0.21127148  0.48785111  0.19968201  1.0
  O  O43  1  0.21127148  0.01214889  0.69968201  1.0
