# generated using pymatgen
data_Ca2CuAs2(H2O5)2
_symmetry_space_group_name_H-M   'P 1'
_cell_length_a   6.01091370
_cell_length_b   12.96874685
_cell_length_c   5.89399750
_cell_angle_alpha   90.00000000
_cell_angle_beta   111.02589779
_cell_angle_gamma   90.00000000
_symmetry_Int_Tables_number   1
_chemical_formula_structural   Ca2CuAs2(H2O5)2
_chemical_formula_sum   'Ca4 Cu2 As4 H8 O20'
_cell_volume   428.86913007
_cell_formula_units_Z   2
loop_
 _symmetry_equiv_pos_site_id
 _symmetry_equiv_pos_as_xyz
  1  'x, y, z'
loop_
 _atom_site_type_symbol
 _atom_site_label
 _atom_site_symmetry_multiplicity
 _atom_site_fract_x
 _atom_site_fract_y
 _atom_site_fract_z
 _atom_site_occupancy
  Ca  Ca0  1  0.43146678  0.87715832  0.79433817  1.0
  Ca  Ca1  1  0.43146678  0.62284168  0.29433817  1.0
  Ca  Ca2  1  0.56853322  0.37715832  0.70566183  1.0
  Ca  Ca3  1  0.56853322  0.12284168  0.20566183  1.0
  Cu  Cu4  1  0.00000000  0.00000000  0.00000000  1.0
  Cu  Cu5  1  0.00000000  0.50000000  0.50000000  1.0
  As  As6  1  0.76555010  0.62266955  0.96228855  1.0
  As  As7  1  0.76555010  0.87733045  0.46228855  1.0
  As  As8  1  0.23444990  0.12266955  0.53771145  1.0
  As  As9  1  0.23444990  0.37733045  0.03771145  1.0
  H  H10  1  0.91514715  0.20458103  0.98241044  1.0
  H  H11  1  0.91514715  0.29541897  0.48241044  1.0
  H  H12  1  0.08485285  0.70458103  0.51758956  1.0
  H  H13  1  0.08485285  0.79541897  0.01758956  1.0
  H  H14  1  0.29076317  0.64407667  0.71692159  1.0
  H  H15  1  0.29076317  0.85592333  0.21692159  1.0
  H  H16  1  0.70923683  0.14407667  0.78307841  1.0
  H  H17  1  0.70923683  0.35592333  0.28307841  1.0
  O  O18  1  0.04101360  0.82125366  0.53054032  1.0
  O  O19  1  0.04101360  0.67874634  0.03054032  1.0
  O  O20  1  0.95898640  0.32125366  0.96945968  1.0
  O  O21  1  0.95898640  0.17874634  0.46945968  1.0
  O  O22  1  0.82463288  0.36444769  0.45307573  1.0
  O  O23  1  0.82463288  0.13555231  0.95307573  1.0
  O  O24  1  0.17536712  0.86444769  0.04692427  1.0
  O  O25  1  0.17536712  0.63555231  0.54692427  1.0
  O  O26  1  0.75366974  0.95942945  0.69679293  1.0
  O  O27  1  0.75366974  0.54057055  0.19679293  1.0
  O  O28  1  0.24633026  0.45942945  0.80320707  1.0
  O  O29  1  0.24633026  0.04057055  0.30320707  1.0
  O  O30  1  0.68836103  0.55283987  0.69411721  1.0
  O  O31  1  0.68836103  0.94716013  0.19411721  1.0
  O  O32  1  0.31163897  0.05283987  0.80588279  1.0
  O  O33  1  0.31163897  0.44716013  0.30588279  1.0
  O  O34  1  0.53402209  0.70638467  0.95121838  1.0
  O  O35  1  0.53402209  0.79361533  0.45121838  1.0
  O  O36  1  0.46597791  0.20638467  0.54878162  1.0
  O  O37  1  0.46597791  0.29361533  0.04878162  1.0
