# generated using pymatgen
data_YAgS2
_symmetry_space_group_name_H-M   'P 1'
_cell_length_a   7.64132958
_cell_length_b   7.64128902
_cell_length_c   12.67280303
_cell_angle_alpha   90.00000000
_cell_angle_beta   89.99455083
_cell_angle_gamma   90.00000000
_symmetry_Int_Tables_number   1
_chemical_formula_structural   YAgS2
_chemical_formula_sum   'Y8 Ag8 S16'
_cell_volume   739.95999528
_cell_formula_units_Z   8
loop_
 _symmetry_equiv_pos_site_id
 _symmetry_equiv_pos_as_xyz
  1  'x, y, z'
loop_
 _atom_site_type_symbol
 _atom_site_label
 _atom_site_symmetry_multiplicity
 _atom_site_fract_x
 _atom_site_fract_y
 _atom_site_fract_z
 _atom_site_occupancy
  Y  Y0  1  0.99962271  0.78036308  0.24695908  1.0
  Y  Y1  1  0.00037729  0.28036308  0.75304092  1.0
  Y  Y2  1  0.75146810  0.52907253  0.49703395  1.0
  Y  Y3  1  0.24853190  0.02907253  0.50296605  1.0
  Y  Y4  1  0.74846885  0.02887038  0.99706995  1.0
  Y  Y5  1  0.25153115  0.52887038  0.00293005  1.0
  Y  Y6  1  0.50028247  0.77772699  0.74695105  1.0
  Y  Y7  1  0.49971753  0.27772699  0.25304895  1.0
  Ag  Ag8  1  0.99080947  0.79601521  0.68126443  1.0
  Ag  Ag9  1  0.00919053  0.29601521  0.31873557  1.0
  Ag  Ag10  1  0.76934776  0.54143437  0.93185178  1.0
  Ag  Ag11  1  0.23065224  0.04143437  0.06814822  1.0
  Ag  Ag12  1  0.73200565  0.01789175  0.43158986  1.0
  Ag  Ag13  1  0.26799435  0.51789175  0.56841014  1.0
  Ag  Ag14  1  0.49202089  0.26327230  0.81901079  1.0
  Ag  Ag15  1  0.50797911  0.76327230  0.18098921  1.0
  S  S16  1  0.97893138  0.30073060  0.97089273  1.0
  S  S17  1  0.02106862  0.80073060  0.02910727  1.0
  S  S18  1  0.97341080  0.80576084  0.46482881  1.0
  S  S19  1  0.02658920  0.30576084  0.53517119  1.0
  S  S20  1  0.77750402  0.55602604  0.71504322  1.0
  S  S21  1  0.22249598  0.05602604  0.28495678  1.0
  S  S22  1  0.77130190  0.50790296  0.27929571  1.0
  S  S23  1  0.22869810  0.00790296  0.72070429  1.0
  S  S24  1  0.72877356  0.05014718  0.77929405  1.0
  S  S25  1  0.27122644  0.55014718  0.22070595  1.0
  S  S26  1  0.52657942  0.75228469  0.96485440  1.0
  S  S27  1  0.47342058  0.25228469  0.03514560  1.0
  S  S28  1  0.47884805  0.75720195  0.52914627  1.0
  S  S29  1  0.52115195  0.25720195  0.47085373  1.0
  S  S30  1  0.27750789  0.50209912  0.78498889  1.0
  S  S31  1  0.72249211  0.00209912  0.21501111  1.0
