# generated using pymatgen
data_BeP2(HO)4
_symmetry_space_group_name_H-M   'P 1'
_cell_length_a   5.10228362
_cell_length_b   5.10228362
_cell_length_c   20.68335503
_cell_angle_alpha   90.00000000
_cell_angle_beta   90.00000000
_cell_angle_gamma   90.00000000
_symmetry_Int_Tables_number   1
_chemical_formula_structural   BeP2(HO)4
_chemical_formula_sum   'Be4 P8 H16 O16'
_cell_volume   538.45594889
_cell_formula_units_Z   4
loop_
 _symmetry_equiv_pos_site_id
 _symmetry_equiv_pos_as_xyz
  1  'x, y, z'
loop_
 _atom_site_type_symbol
 _atom_site_label
 _atom_site_symmetry_multiplicity
 _atom_site_fract_x
 _atom_site_fract_y
 _atom_site_fract_z
 _atom_site_occupancy
  Be  Be0  1  0.49805112  0.50194888  0.25000000  1.0
  Be  Be1  1  0.99805112  0.99805112  0.50000000  1.0
  Be  Be2  1  0.50194888  0.49805112  0.75000000  1.0
  Be  Be3  1  0.00194888  0.00194888  0.00000000  1.0
  P  P4  1  0.48881352  0.93355687  0.06984942  1.0
  P  P5  1  0.98881352  0.56644313  0.68015058  1.0
  P  P6  1  0.06644313  0.51118648  0.43015058  1.0
  P  P7  1  0.56644313  0.98881352  0.31984942  1.0
  P  P8  1  0.51118648  0.06644313  0.56984942  1.0
  P  P9  1  0.01118648  0.43355687  0.18015058  1.0
  P  P10  1  0.93355687  0.48881352  0.93015058  1.0
  P  P11  1  0.43355687  0.01118648  0.81984942  1.0
  H  H12  1  0.48451735  0.65735523  0.06229392  1.0
  H  H13  1  0.98451735  0.84264477  0.68770608  1.0
  H  H14  1  0.34264477  0.51548265  0.43770608  1.0
  H  H15  1  0.84264477  0.98451735  0.31229392  1.0
  H  H16  1  0.51548265  0.34264477  0.56229392  1.0
  H  H17  1  0.01548265  0.15735523  0.18770608  1.0
  H  H18  1  0.65735523  0.48451735  0.93770608  1.0
  H  H19  1  0.15735523  0.01548265  0.81229392  1.0
  H  H20  1  0.47689660  0.95285404  0.88585552  1.0
  H  H21  1  0.97689660  0.54714596  0.86414448  1.0
  H  H22  1  0.04714596  0.52310340  0.61414448  1.0
  H  H23  1  0.54714596  0.97689660  0.13585552  1.0
  H  H24  1  0.52310340  0.04714596  0.38585552  1.0
  H  H25  1  0.02310340  0.45285404  0.36414448  1.0
  H  H26  1  0.95285404  0.47689660  0.11414448  1.0
  H  H27  1  0.45285404  0.02310340  0.63585552  1.0
  O  O28  1  0.28515639  0.54572489  0.19168113  1.0
  O  O29  1  0.78515639  0.95427511  0.55831887  1.0
  O  O30  1  0.45427511  0.71484361  0.30831887  1.0
  O  O31  1  0.95427511  0.78515639  0.44168113  1.0
  O  O32  1  0.71484361  0.45427511  0.69168113  1.0
  O  O33  1  0.21484361  0.04572489  0.05831887  1.0
  O  O34  1  0.54572489  0.28515639  0.80831887  1.0
  O  O35  1  0.04572489  0.21484361  0.94168113  1.0
  O  O36  1  0.04869486  0.70777073  0.97182971  1.0
  O  O37  1  0.54869486  0.79222927  0.77817029  1.0
  O  O38  1  0.29222927  0.95130514  0.52817029  1.0
  O  O39  1  0.79222927  0.54869486  0.22182971  1.0
  O  O40  1  0.95130514  0.29222927  0.47182971  1.0
  O  O41  1  0.45130514  0.20777073  0.27817029  1.0
  O  O42  1  0.70777073  0.04869486  0.02817029  1.0
  O  O43  1  0.20777073  0.45130514  0.72182971  1.0
