# generated using pymatgen
data_BaHgO2
_symmetry_space_group_name_H-M   'P 1'
_cell_length_a   6.95341027
_cell_length_b   6.95341027
_cell_length_c   12.59169584
_cell_angle_alpha   90.00000000
_cell_angle_beta   90.00000000
_cell_angle_gamma   120.00000000
_symmetry_Int_Tables_number   1
_chemical_formula_structural   BaHgO2
_chemical_formula_sum   'Ba6 Hg6 O12'
_cell_volume   527.24268754
_cell_formula_units_Z   6
loop_
 _symmetry_equiv_pos_site_id
 _symmetry_equiv_pos_as_xyz
  1  'x, y, z'
loop_
 _atom_site_type_symbol
 _atom_site_label
 _atom_site_symmetry_multiplicity
 _atom_site_fract_x
 _atom_site_fract_y
 _atom_site_fract_z
 _atom_site_occupancy
  Ba  Ba0  1  0.33333333  0.66666667  0.53285873  1.0
  Ba  Ba1  1  0.33333333  0.66666667  0.96714127  1.0
  Ba  Ba2  1  0.66666667  0.33333333  0.46714127  1.0
  Ba  Ba3  1  0.66666667  0.33333333  0.03285873  1.0
  Ba  Ba4  1  0.00000000  0.00000000  -0.00000000  1.0
  Ba  Ba5  1  -0.00000000  -0.00000000  0.50000000  1.0
  Hg  Hg6  1  0.17499916  0.82500084  0.25000000  1.0
  Hg  Hg7  1  0.17499916  0.34999833  0.25000000  1.0
  Hg  Hg8  1  0.82500084  0.17499916  0.75000000  1.0
  Hg  Hg9  1  0.82500084  0.65000167  0.75000000  1.0
  Hg  Hg10  1  0.65000167  0.82500084  0.25000000  1.0
  Hg  Hg11  1  0.34999833  0.17499916  0.75000000  1.0
  O  O12  1  0.31120843  0.96077173  0.11004915  1.0
  O  O13  1  0.31120843  0.35043670  0.38995085  1.0
  O  O14  1  0.96077173  0.31120843  0.88995085  1.0
  O  O15  1  0.96077173  0.64956330  0.61004915  1.0
  O  O16  1  0.64956330  0.96077173  0.38995085  1.0
  O  O17  1  0.64956330  0.68879157  0.11004915  1.0
  O  O18  1  0.03922827  0.68879157  0.38995085  1.0
  O  O19  1  0.03922827  0.35043670  0.11004915  1.0
  O  O20  1  0.68879157  0.64956330  0.88995085  1.0
  O  O21  1  0.68879157  0.03922827  0.61004915  1.0
  O  O22  1  0.35043670  0.31120843  0.61004915  1.0
  O  O23  1  0.35043670  0.03922827  0.88995085  1.0
