# generated using pymatgen
data_KNa(BH4)2
_symmetry_space_group_name_H-M   'P 1'
_cell_length_a   4.70833454
_cell_length_b   4.70833454
_cell_length_c   7.32394777
_cell_angle_alpha   90.00000000
_cell_angle_beta   90.00000000
_cell_angle_gamma   120.00000000
_symmetry_Int_Tables_number   1
_chemical_formula_structural   KNa(BH4)2
_chemical_formula_sum   'K1 Na1 B2 H8'
_cell_volume   140.60815078
_cell_formula_units_Z   1
loop_
 _symmetry_equiv_pos_site_id
 _symmetry_equiv_pos_as_xyz
  1  'x, y, z'
loop_
 _atom_site_type_symbol
 _atom_site_label
 _atom_site_symmetry_multiplicity
 _atom_site_fract_x
 _atom_site_fract_y
 _atom_site_fract_z
 _atom_site_occupancy
  K  K0  1  0.00000000  0.00000000  0.15803165  1.0
  Na  Na1  1  0.33333333  0.66666667  0.68962457  1.0
  B  B2  1  0.66666667  0.33333333  0.85079945  1.0
  B  B3  1  0.33333333  0.66666667  0.33832714  1.0
  H  H4  1  0.66666667  0.33333333  0.01766644  1.0
  H  H5  1  0.80882623  0.19117377  0.79368964  1.0
  H  H6  1  0.38234755  0.19117377  0.79368964  1.0
  H  H7  1  0.80882623  0.61765245  0.79368964  1.0
  H  H8  1  0.47567292  0.52432708  0.39260315  1.0
  H  H9  1  0.04865415  0.52432708  0.39260315  1.0
  H  H10  1  0.47567292  0.95134585  0.39260315  1.0
  H  H11  1  0.33333333  0.66666667  0.17063236  1.0
