# generated using pymatgen
data_La3(AgSn)4
_symmetry_space_group_name_H-M   'P 1'
_cell_length_a   9.08087624
_cell_length_b   9.08087624
_cell_length_c   9.08087624
_cell_angle_alpha   149.55381072
_cell_angle_beta   131.30292960
_cell_angle_gamma   58.52372042
_symmetry_Int_Tables_number   1
_chemical_formula_structural   La3(AgSn)4
_chemical_formula_sum   'La3 Ag4 Sn4'
_cell_volume   282.88750872
_cell_formula_units_Z   1
loop_
 _symmetry_equiv_pos_site_id
 _symmetry_equiv_pos_as_xyz
  1  'x, y, z'
loop_
 _atom_site_type_symbol
 _atom_site_label
 _atom_site_symmetry_multiplicity
 _atom_site_fract_x
 _atom_site_fract_y
 _atom_site_fract_z
 _atom_site_occupancy
  La  La0  1  0.63061211  0.13061211  0.50000000  1.0
  La  La1  1  0.36938789  0.86938789  0.50000000  1.0
  La  La2  1  0.00000000  0.00000000  0.00000000  1.0
  Ag  Ag3  1  0.36086466  0.66867538  0.69218928  1.0
  Ag  Ag4  1  1.02351390  0.33132462  0.69218928  1.0
  Ag  Ag5  1  0.97648610  0.66867538  1.30781072  1.0
  Ag  Ag6  1  0.63913534  0.33132462  0.30781072  1.0
  Sn  Sn7  1  0.78334552  0.78334552  1.00000000  1.0
  Sn  Sn8  1  0.21665448  0.21665448  -0.00000000  1.0
  Sn  Sn9  1  0.30700055  0.50000000  0.80700055  1.0
  Sn  Sn10  1  0.69299945  0.50000000  1.19299945  1.0
