# generated using pymatgen
data_Na7In3Se8
_symmetry_space_group_name_H-M   'P 1'
_cell_length_a   6.83057870
_cell_length_b   13.68525358
_cell_length_c   10.60468138
_cell_angle_alpha   91.65146065
_cell_angle_beta   90.15547581
_cell_angle_gamma   89.62687829
_symmetry_Int_Tables_number   1
_chemical_formula_structural   Na7In3Se8
_chemical_formula_sum   'Na14 In6 Se16'
_cell_volume   990.87061446
_cell_formula_units_Z   2
loop_
 _symmetry_equiv_pos_site_id
 _symmetry_equiv_pos_as_xyz
  1  'x, y, z'
loop_
 _atom_site_type_symbol
 _atom_site_label
 _atom_site_symmetry_multiplicity
 _atom_site_fract_x
 _atom_site_fract_y
 _atom_site_fract_z
 _atom_site_occupancy
  Na  Na0  1  -0.85555711  -0.31896173  -0.87561575  1.0
  Na  Na1  1  -0.14444289  -0.68103827  -0.12438425  1.0
  Na  Na2  1  -0.74656584  -0.98519967  -0.63017015  1.0
  Na  Na3  1  -0.25343416  -0.01480033  -0.36982985  1.0
  Na  Na4  1  -0.71937869  -0.73326646  -0.88760649  1.0
  Na  Na5  1  -0.28062131  -0.26673354  -0.11239351  1.0
  Na  Na6  1  -0.52672457  -0.37738128  -0.64296549  1.0
  Na  Na7  1  -0.47327543  -0.62261872  -0.35703451  1.0
  Na  Na8  1  -0.51825806  -0.13253705  -0.87415141  1.0
  Na  Na9  1  -0.48174194  -0.86746295  -0.12584859  1.0
  Na  Na10  1  -0.28458482  -0.77309868  -0.60865108  1.0
  Na  Na11  1  -0.71541518  -0.22690132  -0.39134892  1.0
  Na  Na12  1  -0.22322980  -0.51692516  -0.85602886  1.0
  Na  Na13  1  -0.77677020  -0.48307484  -0.14397114  1.0
  In  In14  1  -0.87149267  -0.80471403  -0.34434254  1.0
  In  In15  1  -0.12850733  -0.19528597  -0.65565746  1.0
  In  In16  1  -0.86688859  -0.57511443  -0.60985373  1.0
  In  In17  1  -0.13311141  -0.42488557  -0.39014627  1.0
  In  In18  1  -0.13762458  -0.93498462  -0.88234265  1.0
  In  In19  1  -0.86237542  -0.06501538  -0.11765735  1.0
  Se  Se20  1  -0.75382738  -0.95222151  -0.91899351  1.0
  Se  Se21  1  -0.24617262  -0.04777849  -0.08100649  1.0
  Se  Se22  1  -0.75287009  -0.19413593  -0.65783504  1.0
  Se  Se23  1  -0.24712991  -0.80586407  -0.34216496  1.0
  Se  Se24  1  -0.74988027  -0.45272945  -0.42397271  1.0
  Se  Se25  1  -0.25011973  -0.54727055  -0.57602729  1.0
  Se  Se26  1  -0.74341262  -0.75633969  -0.57384284  1.0
  Se  Se27  1  -0.25658738  -0.24366031  -0.42615716  1.0
  Se  Se28  1  -0.75544417  -0.52326927  -0.83073080  1.0
  Se  Se29  1  -0.24455583  -0.47673073  -0.16926920  1.0
  Se  Se30  1  -0.73804451  -0.99056542  -0.33129023  1.0
  Se  Se31  1  -0.26195549  -0.00943458  -0.66870977  1.0
  Se  Se32  1  -0.72515778  -0.69660111  -0.16323444  1.0
  Se  Se33  1  -0.27484222  -0.30339889  -0.83676556  1.0
  Se  Se34  1  -0.26605288  -0.75767817  -0.88510377  1.0
  Se  Se35  1  -0.73394712  -0.24232183  -0.11489623  1.0
