# generated using pymatgen
data_NaNi4H9(CO5)3
_symmetry_space_group_name_H-M   'P 1'
_cell_length_a   10.44903737
_cell_length_b   10.44903737
_cell_length_c   6.14738532
_cell_angle_alpha   90.00000000
_cell_angle_beta   90.00000000
_cell_angle_gamma   120.00000000
_symmetry_Int_Tables_number   1
_chemical_formula_structural   NaNi4H9(CO5)3
_chemical_formula_sum   'Na2 Ni8 H18 C6 O30'
_cell_volume   581.26427593
_cell_formula_units_Z   2
loop_
 _symmetry_equiv_pos_site_id
 _symmetry_equiv_pos_as_xyz
  1  'x, y, z'
loop_
 _atom_site_type_symbol
 _atom_site_label
 _atom_site_symmetry_multiplicity
 _atom_site_fract_x
 _atom_site_fract_y
 _atom_site_fract_z
 _atom_site_occupancy
  Ni  Ni0  1  0.48616642  0.99946006  0.13178688  1.0
  Ni  Ni1  1  0.99946006  0.51329364  0.63178688  1.0
  Ni  Ni2  1  0.51329364  0.51383358  0.13178688  1.0
  Ni  Ni3  1  0.00053994  0.48670636  0.13178688  1.0
  Ni  Ni4  1  0.51383358  0.00053994  0.63178688  1.0
  Ni  Ni5  1  0.48670636  0.48616642  0.63178688  1.0
  Ni  Ni6  1  0.33333333  0.66666667  0.24841168  1.0
  Ni  Ni7  1  0.66666667  0.33333333  0.74841168  1.0
  Na  Na8  1  0.00000000  0.00000000  -0.01411622  1.0
  Na  Na9  1  0.00000000  0.00000000  0.48588378  1.0
  O  O10  1  0.11796600  0.92118270  0.23911376  1.0
  O  O11  1  0.92118270  0.80321670  0.73911376  1.0
  O  O12  1  0.80321670  0.88203400  0.23911376  1.0
  O  O13  1  0.07881730  0.19678330  0.23911376  1.0
  O  O14  1  0.88203400  0.07881730  0.73911376  1.0
  O  O15  1  0.19678330  0.11796600  0.73911376  1.0
  O  O16  1  0.73225334  0.59013679  0.20189416  1.0
  O  O17  1  0.59013679  0.85788346  0.70189416  1.0
  O  O18  1  0.85788346  0.26774666  0.20189416  1.0
  O  O19  1  0.40986321  0.14211654  0.20189416  1.0
  O  O20  1  0.26774666  0.40986321  0.70189416  1.0
  O  O21  1  0.14211654  0.73225334  0.70189416  1.0
  O  O22  1  0.38316326  0.86302609  0.39115487  1.0
  O  O23  1  0.86302609  0.47986283  0.89115487  1.0
  O  O24  1  0.47986283  0.61683674  0.39115487  1.0
  O  O25  1  0.13697391  0.52013717  0.39115487  1.0
  O  O26  1  0.61683674  0.13697391  0.89115487  1.0
  O  O27  1  0.52013717  0.38316326  0.89115487  1.0
  O  O28  1  0.90952014  0.57090169  0.37455328  1.0
  O  O29  1  0.57090169  0.66138155  0.87455328  1.0
  O  O30  1  0.66138155  0.09047986  0.37455328  1.0
  O  O31  1  0.42909831  0.33861845  0.37455328  1.0
  O  O32  1  0.09047986  0.42909831  0.87455328  1.0
  O  O33  1  0.33861845  0.90952014  0.87455328  1.0
  O  O34  1  0.18074820  0.70394244  0.05718511  1.0
  O  O35  1  0.70394244  0.52319424  0.55718511  1.0
  O  O36  1  0.52319424  0.81925180  0.05718511  1.0
  O  O37  1  0.29605756  0.47680576  0.05718511  1.0
  O  O38  1  0.81925180  0.29605756  0.55718511  1.0
  O  O39  1  0.47680576  0.18074820  0.55718511  1.0
  H  H40  1  0.22319702  0.99461968  0.21455039  1.0
  H  H41  1  0.99461968  0.77142266  0.71455039  1.0
  H  H42  1  0.77142266  0.77680298  0.21455039  1.0
  H  H43  1  0.00538032  0.22857734  0.21455039  1.0
  H  H44  1  0.77680298  0.00538032  0.71455039  1.0
  H  H45  1  0.22857734  0.22319702  0.71455039  1.0
  H  H46  1  0.11020608  0.82510412  0.21410405  1.0
  H  H47  1  0.82510412  0.71489804  0.71410405  1.0
  H  H48  1  0.71489804  0.88979392  0.21410405  1.0
  H  H49  1  0.17489588  0.28510196  0.21410405  1.0
  H  H50  1  0.88979392  0.17489588  0.71410405  1.0
  H  H51  1  0.28510196  0.11020608  0.71410405  1.0
  H  H52  1  0.28535952  0.84159359  0.44075731  1.0
  H  H53  1  0.84159359  0.55623407  0.94075731  1.0
  H  H54  1  0.55623407  0.71464048  0.44075731  1.0
  H  H55  1  0.15840641  0.44376593  0.44075731  1.0
  H  H56  1  0.71464048  0.15840641  0.94075731  1.0
  H  H57  1  0.44376593  0.28535952  0.94075731  1.0
  C  C58  1  0.77989033  0.55980355  0.37663504  1.0
  C  C59  1  0.55980355  0.77991322  0.87663504  1.0
  C  C60  1  0.77991322  0.22010967  0.37663504  1.0
  C  C61  1  0.44019645  0.22008678  0.37663504  1.0
  C  C62  1  0.22010967  0.44019645  0.87663504  1.0
  C  C63  1  0.22008678  0.77989033  0.87663504  1.0
