# generated using pymatgen
data_K2CoH2(SeO5)2
_symmetry_space_group_name_H-M   'P 1'
_cell_length_a   5.23442484
_cell_length_b   7.72115186
_cell_length_c   6.96110190
_cell_angle_alpha   104.57700519
_cell_angle_beta   106.85496076
_cell_angle_gamma   97.30879384
_symmetry_Int_Tables_number   1
_chemical_formula_structural   K2CoH2(SeO5)2
_chemical_formula_sum   'K2 Co1 H2 Se2 O10'
_cell_volume   254.42613321
_cell_formula_units_Z   1
loop_
 _symmetry_equiv_pos_site_id
 _symmetry_equiv_pos_as_xyz
  1  'x, y, z'
loop_
 _atom_site_type_symbol
 _atom_site_label
 _atom_site_symmetry_multiplicity
 _atom_site_fract_x
 _atom_site_fract_y
 _atom_site_fract_z
 _atom_site_occupancy
  K  K0  1  -0.30270528  -0.27936853  -0.68745980  1.0
  K  K1  1  -0.69729472  -0.72063147  -0.31254020  1.0
  Co  Co2  1  0.00000000  0.00000000  0.00000000  1.0
  H  H3  1  -0.92528165  -0.28956682  -0.01019805  1.0
  H  H4  1  -0.07471835  -0.71043318  -0.98980195  1.0
  Se  Se5  1  -0.34901977  -0.79010265  -0.74508381  1.0
  Se  Se6  1  -0.65098023  -0.20989735  -0.25491619  1.0
  O  O7  1  -0.35206404  -0.65145705  -0.89150810  1.0
  O  O8  1  -0.64793596  -0.34854295  -0.10849190  1.0
  O  O9  1  -0.28864066  -0.68125870  -0.49599742  1.0
  O  O10  1  -0.71135934  -0.31874130  -0.50400258  1.0
  O  O11  1  -0.62494447  -0.97034479  -0.82728498  1.0
  O  O12  1  -0.37505553  -0.02965521  -0.17271502  1.0
  O  O13  1  -0.08457203  -0.90296343  -0.74428852  1.0
  O  O14  1  -0.91542797  -0.09703657  -0.25571148  1.0
  O  O15  1  -0.05781410  -0.22380478  0.03559326  1.0
  O  O16  1  -0.94218590  -0.77619522  -1.03559326  1.0
