# generated using pymatgen
data_K2CoCl4
_symmetry_space_group_name_H-M   'P 1'
_cell_length_a   9.02146683
_cell_length_b   7.23387278
_cell_length_c   12.86680066
_cell_angle_alpha   90.00000000
_cell_angle_beta   90.00000000
_cell_angle_gamma   90.00000000
_symmetry_Int_Tables_number   1
_chemical_formula_structural   K2CoCl4
_chemical_formula_sum   'K8 Co4 Cl16'
_cell_volume   839.68925557
_cell_formula_units_Z   4
loop_
 _symmetry_equiv_pos_site_id
 _symmetry_equiv_pos_as_xyz
  1  'x, y, z'
loop_
 _atom_site_type_symbol
 _atom_site_label
 _atom_site_symmetry_multiplicity
 _atom_site_fract_x
 _atom_site_fract_y
 _atom_site_fract_z
 _atom_site_occupancy
  K  K0  1  0.87713349  0.75000000  0.43676422  1.0
  K  K1  1  0.37713349  0.75000000  0.06323578  1.0
  K  K2  1  0.12286651  0.25000000  0.56323578  1.0
  K  K3  1  0.62286651  0.25000000  0.93676422  1.0
  K  K4  1  0.51894378  0.75000000  0.67913181  1.0
  K  K5  1  0.01894378  0.75000000  0.82086819  1.0
  K  K6  1  0.48105622  0.25000000  0.32086819  1.0
  K  K7  1  0.98105622  0.25000000  0.17913181  1.0
  Co  Co8  1  0.78006940  0.75000000  0.07218964  1.0
  Co  Co9  1  0.28006940  0.75000000  0.42781036  1.0
  Co  Co10  1  0.21993060  0.25000000  0.92781036  1.0
  Co  Co11  1  0.71993060  0.25000000  0.57218964  1.0
  Cl  Cl12  1  0.67880155  1.00083023  0.14818867  1.0
  Cl  Cl13  1  0.67880155  0.49916977  0.14818867  1.0
  Cl  Cl14  1  0.17880155  1.00083023  0.35181133  1.0
  Cl  Cl15  1  0.17880155  0.49916977  0.35181133  1.0
  Cl  Cl16  1  0.32119845  0.50083023  0.85181133  1.0
  Cl  Cl17  1  0.32119845  -0.00083023  0.85181133  1.0
  Cl  Cl18  1  0.82119845  0.50083023  0.64818867  1.0
  Cl  Cl19  1  0.82119845  -0.00083023  0.64818867  1.0
  Cl  Cl20  1  1.02804766  0.75000000  0.07755905  1.0
  Cl  Cl21  1  0.52804766  0.75000000  0.42244095  1.0
  Cl  Cl22  1  -0.02804766  0.25000000  0.92244095  1.0
  Cl  Cl23  1  0.47195234  0.25000000  0.57755905  1.0
  Cl  Cl24  1  0.18942312  0.75000000  0.59232914  1.0
  Cl  Cl25  1  0.68942312  0.75000000  0.90767086  1.0
  Cl  Cl26  1  0.81057688  0.25000000  0.40767086  1.0
  Cl  Cl27  1  0.31057688  0.25000000  0.09232914  1.0
