# generated using pymatgen
data_La3Re2O9
_symmetry_space_group_name_H-M   'P 1'
_cell_length_a   11.22296246
_cell_length_b   6.93539314
_cell_length_c   5.70133355
_cell_angle_alpha   69.25457898
_cell_angle_beta   75.66581022
_cell_angle_gamma   77.48182048
_symmetry_Int_Tables_number   1
_chemical_formula_structural   La3Re2O9
_chemical_formula_sum   'La6 Re4 O18'
_cell_volume   397.97569227
_cell_formula_units_Z   2
loop_
 _symmetry_equiv_pos_site_id
 _symmetry_equiv_pos_as_xyz
  1  'x, y, z'
loop_
 _atom_site_type_symbol
 _atom_site_label
 _atom_site_symmetry_multiplicity
 _atom_site_fract_x
 _atom_site_fract_y
 _atom_site_fract_z
 _atom_site_occupancy
  La  La0  1  -0.73095422  -0.78083903  -0.99346305  1.0
  La  La1  1  -0.26904578  -0.21916097  -0.00653695  1.0
  La  La2  1  -0.11686961  -0.83939065  -0.77321967  1.0
  La  La3  1  -0.88313039  -0.16060935  -0.22678033  1.0
  La  La4  1  -0.62049494  -0.40564879  -0.71648349  1.0
  La  La5  1  -0.37950506  -0.59435121  -0.28351651  1.0
  Re  Re6  1  -0.43027214  -0.87694305  -0.64275345  1.0
  Re  Re7  1  -0.56972786  -0.12305695  -0.35724655  1.0
  Re  Re8  1  -0.90914317  -0.61083983  -0.48755984  1.0
  Re  Re9  1  -0.09085683  -0.38916017  -0.51244016  1.0
  O  O10  1  -0.28836353  -0.88347095  -0.93130380  1.0
  O  O11  1  -0.71163647  -0.11652905  -0.06869620  1.0
  O  O12  1  -0.53756870  -0.75351725  -0.88773032  1.0
  O  O13  1  -0.46243130  -0.24648275  -0.11226968  1.0
  O  O14  1  -0.80957518  -0.49537141  -0.81611441  1.0
  O  O15  1  -0.19042482  -0.50462859  -0.18388559  1.0
  O  O16  1  -0.41290357  -0.58402098  -0.69489609  1.0
  O  O17  1  -0.58709643  -0.41597902  -0.30510391  1.0
  O  O18  1  -0.92687561  -0.82918450  -0.60853612  1.0
  O  O19  1  -0.07312439  -0.17081550  -0.39146388  1.0
  O  O20  1  -0.31531237  -0.93619263  -0.41325563  1.0
  O  O21  1  -0.68468763  -0.06380737  -0.58674437  1.0
  O  O22  1  -0.57965703  -0.82282513  -0.37561211  1.0
  O  O23  1  -0.42034297  -0.17717487  -0.62438789  1.0
  O  O24  1  -0.81709202  -0.47937650  -0.35581512  1.0
  O  O25  1  -0.18290798  -0.52062350  -0.64418488  1.0
  O  O26  1  -0.93700375  -0.80984071  -0.14462886  1.0
  O  O27  1  -0.06299625  -0.19015929  -0.85537114  1.0
