# generated using pymatgen
data_Re(CO)5
_symmetry_space_group_name_H-M   'P 1'
_cell_length_a   10.12009317
_cell_length_b   10.12009317
_cell_length_c   15.54103079
_cell_angle_alpha   56.90409852
_cell_angle_beta   123.09590148
_cell_angle_gamma   135.84834567
_symmetry_Int_Tables_number   1
_chemical_formula_structural   Re(CO)5
_chemical_formula_sum   'Re4 C20 O20'
_cell_volume   895.76852634
_cell_formula_units_Z   4
loop_
 _symmetry_equiv_pos_site_id
 _symmetry_equiv_pos_as_xyz
  1  'x, y, z'
loop_
 _atom_site_type_symbol
 _atom_site_label
 _atom_site_symmetry_multiplicity
 _atom_site_fract_x
 _atom_site_fract_y
 _atom_site_fract_z
 _atom_site_occupancy
  Re  Re0  1  0.33610323  0.19576360  0.72604803  1.0
  Re  Re1  1  0.80423640  0.66389677  0.22604803  1.0
  Re  Re2  1  1.19576360  -0.66389677  0.77395197  1.0
  Re  Re3  1  1.66389677  -0.19576360  0.27395197  1.0
  C  C4  1  1.47630003  -0.46982597  0.83957912  1.0
  C  C5  1  1.46982597  -0.47630003  0.33957912  1.0
  C  C6  1  0.53017403  0.47630003  0.66042088  1.0
  C  C7  1  0.52369997  0.46982597  0.16042088  1.0
  C  C8  1  0.42099947  0.10097008  0.70155544  1.0
  C  C9  1  0.89902992  -0.42099947  0.20155544  1.0
  C  C10  1  1.10097008  0.42099947  0.79844456  1.0
  C  C11  1  1.57900053  -0.10097008  0.29844456  1.0
  C  C12  1  0.52555391  0.22658684  0.86982981  1.0
  C  C13  1  0.77341316  0.47444609  0.36982981  1.0
  C  C14  1  1.22658684  -0.47444609  0.63017019  1.0
  C  C15  1  1.47444609  -0.22658684  0.13017019  1.0
  C  C16  1  0.12894892  -0.07618799  0.79224558  1.0
  C  C17  1  1.07618799  0.87105108  0.29224558  1.0
  C  C18  1  0.92381201  -0.87105108  0.70775442  1.0
  C  C19  1  1.87105108  0.07618799  0.20775442  1.0
  C  C20  1  0.18329814  0.13649048  0.91463393  1.0
  C  C21  1  0.86350952  0.81670186  0.41463393  1.0
  C  C22  1  1.13649048  -0.81670186  0.58536607  1.0
  C  C23  1  1.81670186  -0.13649048  0.08536607  1.0
  O  O24  1  1.64078381  -0.36258547  0.62014664  1.0
  O  O25  1  1.36258547  -0.64078381  0.12014664  1.0
  O  O26  1  0.63741453  0.64078381  0.87985336  1.0
  O  O27  1  0.35921619  0.36258547  0.37985336  1.0
  O  O28  1  0.82065132  -0.02276764  1.00353889  1.0
  O  O29  1  1.02276764  -0.82065132  0.50353889  1.0
  O  O30  1  0.97723236  0.82065132  0.49646111  1.0
  O  O31  1  1.17934868  0.02276764  -0.00353889  1.0
  O  O32  1  1.76690684  0.00884482  0.67044711  1.0
  O  O33  1  0.99115518  -0.76690684  0.17044711  1.0
  O  O34  1  1.00884482  0.76690684  0.82955289  1.0
  O  O35  1  0.23309316  -0.00884482  0.32955289  1.0
  O  O36  1  0.47237533  0.04332064  0.68793544  1.0
  O  O37  1  0.95667936  -0.47237533  0.18793544  1.0
  O  O38  1  1.04332064  0.47237533  0.81206456  1.0
  O  O39  1  1.52762467  -0.04332064  0.31206456  1.0
  O  O40  1  0.63503276  0.24478183  0.95292409  1.0
  O  O41  1  0.75521817  0.36496724  0.45292409  1.0
  O  O42  1  1.24478183  -0.36496724  0.54707591  1.0
  O  O43  1  1.36496724  -0.24478183  0.04707591  1.0
