# generated using pymatgen
data_K6Si2O7
_symmetry_space_group_name_H-M   'P 1'
_cell_length_a   6.51651131
_cell_length_b   8.96392155
_cell_length_c   11.02674701
_cell_angle_alpha   90.00000000
_cell_angle_beta   124.70689426
_cell_angle_gamma   90.00000000
_symmetry_Int_Tables_number   1
_chemical_formula_structural   K6Si2O7
_chemical_formula_sum   'K12 Si4 O14'
_cell_volume   529.50776661
_cell_formula_units_Z   2
loop_
 _symmetry_equiv_pos_site_id
 _symmetry_equiv_pos_as_xyz
  1  'x, y, z'
loop_
 _atom_site_type_symbol
 _atom_site_label
 _atom_site_symmetry_multiplicity
 _atom_site_fract_x
 _atom_site_fract_y
 _atom_site_fract_z
 _atom_site_occupancy
  K  K0  1  0.89610067  0.71711518  0.27587968  1.0
  K  K1  1  0.89610067  0.78288482  0.77587968  1.0
  K  K2  1  0.10389933  0.21711518  0.22412032  1.0
  K  K3  1  0.10389933  0.28288482  0.72412032  1.0
  K  K4  1  0.70863607  0.02747147  0.45744436  1.0
  K  K5  1  0.70863607  0.47252853  0.95744436  1.0
  K  K6  1  0.29136393  0.52747147  0.04255564  1.0
  K  K7  1  0.29136393  0.97252853  0.54255564  1.0
  K  K8  1  0.46911914  0.14870656  0.08544639  1.0
  K  K9  1  0.46911914  0.35129344  0.58544639  1.0
  K  K10  1  0.53088086  0.64870656  0.41455361  1.0
  K  K11  1  0.53088086  0.85129344  0.91455361  1.0
  Si  Si12  1  0.82540030  0.36337087  0.37516188  1.0
  Si  Si13  1  0.82540030  0.13662913  0.87516188  1.0
  Si  Si14  1  0.17459970  0.86337087  0.12483812  1.0
  Si  Si15  1  0.17459970  0.63662913  0.62483812  1.0
  O  O16  1  0.75690950  0.41731244  0.21360286  1.0
  O  O17  1  0.75690950  0.08268756  0.71360286  1.0
  O  O18  1  0.24309050  0.91731244  0.28639714  1.0
  O  O19  1  0.24309050  0.58268756  0.78639714  1.0
  O  O20  1  0.57470986  0.34036653  0.37567132  1.0
  O  O21  1  0.57470986  0.15963347  0.87567132  1.0
  O  O22  1  0.42529014  0.84036653  0.12432868  1.0
  O  O23  1  0.42529014  0.65963347  0.62432868  1.0
  O  O24  1  -0.00000000  0.50000000  0.50000000  1.0
  O  O25  1  0.00000000  0.00000000  0.00000000  1.0
  O  O26  1  1.00554233  0.21437481  0.43537334  1.0
  O  O27  1  1.00554233  0.28562519  0.93537334  1.0
  O  O28  1  -0.00554233  0.71437481  0.06462666  1.0
  O  O29  1  -0.00554233  0.78562519  0.56462666  1.0
