# generated using pymatgen
data_KTlBr4
_symmetry_space_group_name_H-M   'P 1'
_cell_length_a   8.11163606
_cell_length_b   10.82803576
_cell_length_c   10.83577418
_cell_angle_alpha   90.00000000
_cell_angle_beta   90.00000000
_cell_angle_gamma   90.00000000
_symmetry_Int_Tables_number   1
_chemical_formula_structural   KTlBr4
_chemical_formula_sum   'K4 Tl4 Br16'
_cell_volume   951.73947845
_cell_formula_units_Z   4
loop_
 _symmetry_equiv_pos_site_id
 _symmetry_equiv_pos_as_xyz
  1  'x, y, z'
loop_
 _atom_site_type_symbol
 _atom_site_label
 _atom_site_symmetry_multiplicity
 _atom_site_fract_x
 _atom_site_fract_y
 _atom_site_fract_z
 _atom_site_occupancy
  K  K0  1  0.18154882  0.75000000  0.25000000  1.0
  K  K1  1  0.68154882  0.75000000  0.75000000  1.0
  K  K2  1  0.81845118  0.25000000  0.75000000  1.0
  K  K3  1  0.31845118  0.25000000  0.25000000  1.0
  Tl  Tl4  1  0.25000000  0.00000000  0.67607357  1.0
  Tl  Tl5  1  0.25000000  0.50000000  0.82392643  1.0
  Tl  Tl6  1  0.75000000  0.00000000  0.32392643  1.0
  Tl  Tl7  1  0.75000000  0.50000000  0.17607357  1.0
  Br  Br8  1  0.49068617  0.96123267  0.18212543  1.0
  Br  Br9  1  0.49068617  0.53876733  0.31787457  1.0
  Br  Br10  1  0.99068617  0.96123267  0.81787457  1.0
  Br  Br11  1  0.99068617  0.53876733  0.68212543  1.0
  Br  Br12  1  0.50931383  0.46123267  0.68212543  1.0
  Br  Br13  1  0.50931383  0.03876733  0.81787457  1.0
  Br  Br14  1  0.00931383  0.46123267  0.31787457  1.0
  Br  Br15  1  0.00931383  0.03876733  0.18212543  1.0
  Br  Br16  1  0.34984256  0.80919429  0.54656432  1.0
  Br  Br17  1  0.34984256  0.69080571  0.95343568  1.0
  Br  Br18  1  0.84984256  0.80919429  0.45343568  1.0
  Br  Br19  1  0.84984256  0.69080571  0.04656432  1.0
  Br  Br20  1  0.65015744  0.30919429  0.04656432  1.0
  Br  Br21  1  0.65015744  0.19080571  0.45343568  1.0
  Br  Br22  1  0.15015744  0.30919429  0.95343568  1.0
  Br  Br23  1  0.15015744  0.19080571  0.54656432  1.0
