# generated using pymatgen
data_CaH8(ClO2)2
_symmetry_space_group_name_H-M   'P 1'
_cell_length_a   8.82274124
_cell_length_b   6.53018585
_cell_length_c   6.53414525
_cell_angle_alpha   111.24864597
_cell_angle_beta   101.04008291
_cell_angle_gamma   92.85853460
_symmetry_Int_Tables_number   1
_chemical_formula_structural   CaH8(ClO2)2
_chemical_formula_sum   'Ca2 H16 Cl4 O8'
_cell_volume   341.43308386
_cell_formula_units_Z   2
loop_
 _symmetry_equiv_pos_site_id
 _symmetry_equiv_pos_as_xyz
  1  'x, y, z'
loop_
 _atom_site_type_symbol
 _atom_site_label
 _atom_site_symmetry_multiplicity
 _atom_site_fract_x
 _atom_site_fract_y
 _atom_site_fract_z
 _atom_site_occupancy
  Ca  Ca0  1  -0.27123697  -0.11510605  -0.97603694  1.0
  Ca  Ca1  1  -0.72876303  -0.88489395  -0.02396306  1.0
  H  H2  1  -0.07866814  -0.66891579  -0.78953664  1.0
  H  H3  1  -0.92133186  -0.33108421  -0.21046336  1.0
  H  H4  1  -0.01737567  -0.79319477  -0.63380727  1.0
  H  H5  1  -0.98262433  -0.20680523  -0.36619273  1.0
  H  H6  1  -0.32668360  -0.07218903  -0.43187994  1.0
  H  H7  1  -0.67331640  -0.92781097  -0.56812006  1.0
  H  H8  1  -0.18523125  -0.89428440  -0.27197798  1.0
  H  H9  1  -0.81476875  -0.10571560  -0.72802202  1.0
  H  H10  1  -0.31563721  -0.53823802  -0.40085221  1.0
  H  H11  1  -0.68436279  -0.46176198  -0.59914779  1.0
  H  H12  1  -0.16159960  -0.53317770  -0.23292601  1.0
  H  H13  1  -0.83840040  -0.46682230  -0.76707399  1.0
  H  H14  1  -0.41450790  -0.38752561  -0.74644042  1.0
  H  H15  1  -0.58549210  -0.61247439  -0.25355958  1.0
  H  H16  1  -0.52219515  -0.20280849  -0.74945953  1.0
  H  H17  1  -0.47780485  -0.79719151  -0.25054047  1.0
  Cl  Cl18  1  -0.04115359  -0.29157293  -0.72931851  1.0
  Cl  Cl19  1  -0.95884641  -0.70842707  -0.27068149  1.0
  Cl  Cl20  1  -0.41700802  -0.73151344  -0.76169169  1.0
  Cl  Cl21  1  -0.58299198  -0.26848656  -0.23830831  1.0
  O  O22  1  -0.06029236  -0.81745618  -0.79339200  1.0
  O  O23  1  -0.93970764  -0.18254382  -0.20660800  1.0
  O  O24  1  -0.28406190  -0.97207670  -0.27227465  1.0
  O  O25  1  -0.71593810  -0.02792330  -0.72772535  1.0
  O  O26  1  -0.25991056  -0.46808399  -0.24150870  1.0
  O  O27  1  -0.74008944  -0.53191601  -0.75849130  1.0
  O  O28  1  -0.41236867  -0.22934387  -0.72586615  1.0
  O  O29  1  -0.58763133  -0.77065613  -0.27413385  1.0
