# generated using pymatgen
data_La3CuS3O2
_symmetry_space_group_name_H-M   'P 1'
_cell_length_a   14.10811051
_cell_length_b   3.94956219
_cell_length_c   12.59749981
_cell_angle_alpha   90.00000000
_cell_angle_beta   90.00000000
_cell_angle_gamma   90.00000000
_symmetry_Int_Tables_number   1
_chemical_formula_structural   La3CuS3O2
_chemical_formula_sum   'La12 Cu4 S12 O8'
_cell_volume   701.94352134
_cell_formula_units_Z   4
loop_
 _symmetry_equiv_pos_site_id
 _symmetry_equiv_pos_as_xyz
  1  'x, y, z'
loop_
 _atom_site_type_symbol
 _atom_site_label
 _atom_site_symmetry_multiplicity
 _atom_site_fract_x
 _atom_site_fract_y
 _atom_site_fract_z
 _atom_site_occupancy
  La  La0  1  0.36826598  0.75000000  0.90435932  1.0
  La  La1  1  0.86826598  0.75000000  0.59564068  1.0
  La  La2  1  0.63173402  0.25000000  0.09564068  1.0
  La  La3  1  0.13173402  0.25000000  0.40435932  1.0
  La  La4  1  0.29178880  0.75000000  0.61218709  1.0
  La  La5  1  0.79178880  0.75000000  0.88781291  1.0
  La  La6  1  0.70821120  0.25000000  0.38781291  1.0
  La  La7  1  0.20821120  0.25000000  0.11218709  1.0
  La  La8  1  0.07738812  0.75000000  0.90015864  1.0
  La  La9  1  0.57738812  0.75000000  0.59984136  1.0
  La  La10  1  0.92261188  0.25000000  0.09984136  1.0
  La  La11  1  0.42261188  0.25000000  0.40015864  1.0
  Cu  Cu12  1  0.41491334  0.75000000  0.17128618  1.0
  Cu  Cu13  1  0.91491334  0.75000000  0.32871382  1.0
  Cu  Cu14  1  0.58508666  0.25000000  0.82871382  1.0
  Cu  Cu15  1  0.08508666  0.25000000  0.67128618  1.0
  S  S16  1  0.28219513  0.75000000  0.28729986  1.0
  S  S17  1  0.78219513  0.75000000  0.21270014  1.0
  S  S18  1  0.71780487  0.25000000  0.71270014  1.0
  S  S19  1  0.21780487  0.25000000  0.78729986  1.0
  S  S20  1  0.08701360  0.75000000  0.56767543  1.0
  S  S21  1  0.58701360  0.75000000  0.93232457  1.0
  S  S22  1  0.91298640  0.25000000  0.43232457  1.0
  S  S23  1  0.41298640  0.25000000  0.06767543  1.0
  S  S24  1  0.05630998  0.75000000  0.23682850  1.0
  S  S25  1  0.55630998  0.75000000  0.26317150  1.0
  S  S26  1  0.94369002  0.25000000  0.76317150  1.0
  S  S27  1  0.44369002  0.25000000  0.73682850  1.0
  O  O28  1  0.42659753  0.75000000  0.50664161  1.0
  O  O29  1  0.92659753  0.75000000  0.99335839  1.0
  O  O30  1  0.57340247  0.25000000  0.49335839  1.0
  O  O31  1  0.07340247  0.25000000  0.00664161  1.0
  O  O32  1  0.22886676  0.75000000  0.00609863  1.0
  O  O33  1  0.72886676  0.75000000  0.49390137  1.0
  O  O34  1  0.77113324  0.25000000  0.99390137  1.0
  O  O35  1  0.27113324  0.25000000  0.50609863  1.0
