# generated using pymatgen
data_K2RbYV2O8
_symmetry_space_group_name_H-M   'P 1'
_cell_length_a   5.99122615
_cell_length_b   5.99122615
_cell_length_c   7.76780150
_cell_angle_alpha   90.00000000
_cell_angle_beta   90.00000000
_cell_angle_gamma   120.00000000
_symmetry_Int_Tables_number   1
_chemical_formula_structural   K2RbYV2O8
_chemical_formula_sum   'K2 Rb1 Y1 V2 O8'
_cell_volume   241.46832926
_cell_formula_units_Z   1
loop_
 _symmetry_equiv_pos_site_id
 _symmetry_equiv_pos_as_xyz
  1  'x, y, z'
loop_
 _atom_site_type_symbol
 _atom_site_label
 _atom_site_symmetry_multiplicity
 _atom_site_fract_x
 _atom_site_fract_y
 _atom_site_fract_z
 _atom_site_occupancy
  K  K0  1  0.33333333  0.66666667  0.69855587  1.0
  K  K1  1  0.66666667  0.33333333  0.30144413  1.0
  Rb  Rb2  1  -0.00000000  -0.00000000  0.00000000  1.0
  Y  Y3  1  0.00000000  0.00000000  0.50000000  1.0
  V  V4  1  0.33333333  0.66666667  0.25050581  1.0
  V  V5  1  0.66666667  0.33333333  0.74949419  1.0
  O  O6  1  0.64911027  0.82455513  0.32801447  1.0
  O  O7  1  0.82455513  0.64911027  0.67198553  1.0
  O  O8  1  0.82455513  0.17544487  0.67198553  1.0
  O  O9  1  0.17544487  0.82455513  0.32801447  1.0
  O  O10  1  0.17544487  0.35088973  0.32801447  1.0
  O  O11  1  0.35088973  0.17544487  0.67198553  1.0
  O  O12  1  0.33333333  0.66666667  0.03647343  1.0
  O  O13  1  0.66666667  0.33333333  0.96352657  1.0
