# generated using pymatgen
data_Ca(CoO2)2
_symmetry_space_group_name_H-M   'P 1'
_cell_length_a   8.80639359
_cell_length_b   2.93597965
_cell_length_c   10.32950251
_cell_angle_alpha   90.00000000
_cell_angle_beta   90.00000000
_cell_angle_gamma   90.00000000
_symmetry_Int_Tables_number   1
_chemical_formula_structural   Ca(CoO2)2
_chemical_formula_sum   'Ca4 Co8 O16'
_cell_volume   267.07334024
_cell_formula_units_Z   4
loop_
 _symmetry_equiv_pos_site_id
 _symmetry_equiv_pos_as_xyz
  1  'x, y, z'
loop_
 _atom_site_type_symbol
 _atom_site_label
 _atom_site_symmetry_multiplicity
 _atom_site_fract_x
 _atom_site_fract_y
 _atom_site_fract_z
 _atom_site_occupancy
  Ca  Ca0  1  0.76211651  0.75000000  0.66370219  1.0
  Ca  Ca1  1  0.26211651  0.75000000  0.83629781  1.0
  Ca  Ca2  1  0.23788349  0.25000000  0.33629781  1.0
  Ca  Ca3  1  0.73788349  0.25000000  0.16370219  1.0
  Co  Co4  1  0.91483448  0.75000000  0.40232650  1.0
  Co  Co5  1  0.41483448  0.75000000  0.09767350  1.0
  Co  Co6  1  0.08516552  0.25000000  0.59767350  1.0
  Co  Co7  1  0.58516552  0.25000000  0.90232650  1.0
  Co  Co8  1  0.44387310  0.75000000  0.61186496  1.0
  Co  Co9  1  0.94387310  0.75000000  0.88813504  1.0
  Co  Co10  1  0.55612690  0.25000000  0.38813504  1.0
  Co  Co11  1  0.05612690  0.25000000  0.11186496  1.0
  O  O12  1  0.53411238  0.75000000  0.78790906  1.0
  O  O13  1  0.03411238  0.75000000  0.71209094  1.0
  O  O14  1  0.46588762  0.25000000  0.21209094  1.0
  O  O15  1  0.96588762  0.25000000  0.28790906  1.0
  O  O16  1  0.92004887  0.75000000  0.07174456  1.0
  O  O17  1  0.42004887  0.75000000  0.42825544  1.0
  O  O18  1  0.07995113  0.25000000  0.92825544  1.0
  O  O19  1  0.57995113  0.25000000  0.57174456  1.0
  O  O20  1  0.69674272  0.75000000  0.34401488  1.0
  O  O21  1  0.19674272  0.75000000  0.15598512  1.0
  O  O22  1  0.30325728  0.25000000  0.65598512  1.0
  O  O23  1  0.80325728  0.25000000  0.84401488  1.0
  O  O24  1  0.61383203  0.75000000  0.02292769  1.0
  O  O25  1  0.11383203  0.75000000  0.47707231  1.0
  O  O26  1  0.38616797  0.25000000  0.97707231  1.0
  O  O27  1  0.88616797  0.25000000  0.52292769  1.0
