# generated using pymatgen
data_AsH3CNOF9
_symmetry_space_group_name_H-M   'P 1'
_cell_length_a   9.28986837
_cell_length_b   8.80504500
_cell_length_c   5.40999325
_cell_angle_alpha   104.88471740
_cell_angle_beta   94.62004651
_cell_angle_gamma   91.98813985
_symmetry_Int_Tables_number   1
_chemical_formula_structural   AsH3CNOF9
_chemical_formula_sum   'As2 H6 C2 N2 O2 F18'
_cell_volume   425.58122211
_cell_formula_units_Z   2
loop_
 _symmetry_equiv_pos_site_id
 _symmetry_equiv_pos_as_xyz
  1  'x, y, z'
loop_
 _atom_site_type_symbol
 _atom_site_label
 _atom_site_symmetry_multiplicity
 _atom_site_fract_x
 _atom_site_fract_y
 _atom_site_fract_z
 _atom_site_occupancy
  As  As0  1  -0.65888879  -0.25637281  -0.98812503  1.0
  As  As1  1  -0.34111121  -0.74362719  -0.01187497  1.0
  H  H2  1  -0.62784841  -0.74767776  -0.66160049  1.0
  H  H3  1  -0.37215159  -0.25232224  -0.33839951  1.0
  H  H4  1  -0.68469427  -0.94826278  -0.52865241  1.0
  H  H5  1  -0.31530573  -0.05173722  -0.47134759  1.0
  H  H6  1  -0.69585822  -0.62740446  -0.40202418  1.0
  H  H7  1  -0.30414178  -0.37259554  -0.59797582  1.0
  C  C8  1  -0.85517276  -0.73167811  -0.70111314  1.0
  C  C9  1  -0.14482724  -0.26832189  -0.29888686  1.0
  N  N10  1  -0.71331813  -0.73544007  -0.54202081  1.0
  N  N11  1  -0.28668187  -0.26455993  -0.45797919  1.0
  O  O12  1  -0.72029216  -0.85314752  -0.41126056  1.0
  O  O13  1  -0.27970784  -0.14685248  -0.58873944  1.0
  F  F14  1  -0.51753002  -0.73657539  -0.88592713  1.0
  F  F15  1  -0.48246998  -0.26342461  -0.11407287  1.0
  F  F16  1  -0.88084258  -0.87023048  -0.87363102  1.0
  F  F17  1  -0.11915742  -0.12976952  -0.12636898  1.0
  F  F18  1  -0.82981656  -0.25087795  -0.86283143  1.0
  F  F19  1  -0.17018344  -0.74912205  -0.13716857  1.0
  F  F20  1  -0.83897696  -0.61553153  -0.81651700  1.0
  F  F21  1  -0.16102304  -0.38446847  -0.18348300  1.0
  F  F22  1  -0.28649748  -0.55623784  -0.78327884  1.0
  F  F23  1  -0.71350252  -0.44376216  -0.21672116  1.0
  F  F24  1  -0.27861317  -0.84485936  -0.78320734  1.0
  F  F25  1  -0.72138683  -0.15514064  -0.21679266  1.0
  F  F26  1  -0.58602713  -0.35727261  -0.76348734  1.0
  F  F27  1  -0.41397287  -0.64272739  -0.23651266  1.0
  F  F28  1  -0.96010799  -0.70377484  -0.54439840  1.0
  F  F29  1  -0.03989201  -0.29622516  -0.45560160  1.0
  F  F30  1  -0.40082968  -0.93050196  -0.23920318  1.0
  F  F31  1  -0.59917032  -0.06949804  -0.76079682  1.0
