# generated using pymatgen
data_KClO4
_symmetry_space_group_name_H-M   'P 1'
_cell_length_a   9.03904958
_cell_length_b   5.79508845
_cell_length_c   7.42393884
_cell_angle_alpha   90.00000000
_cell_angle_beta   90.00000000
_cell_angle_gamma   90.00000000
_symmetry_Int_Tables_number   1
_chemical_formula_structural   KClO4
_chemical_formula_sum   'K4 Cl4 O16'
_cell_volume   388.88144610
_cell_formula_units_Z   4
loop_
 _symmetry_equiv_pos_site_id
 _symmetry_equiv_pos_as_xyz
  1  'x, y, z'
loop_
 _atom_site_type_symbol
 _atom_site_label
 _atom_site_symmetry_multiplicity
 _atom_site_fract_x
 _atom_site_fract_y
 _atom_site_fract_z
 _atom_site_occupancy
  K  K0  1  0.31877017  0.75000000  0.16047475  1.0
  K  K1  1  0.81877017  0.75000000  0.33952525  1.0
  K  K2  1  0.68122983  0.25000000  0.83952525  1.0
  K  K3  1  0.18122983  0.25000000  0.66047475  1.0
  Cl  Cl4  1  0.43215377  0.75000000  0.68874171  1.0
  Cl  Cl5  1  0.93215377  0.75000000  0.81125829  1.0
  Cl  Cl6  1  0.56784623  0.25000000  0.31125829  1.0
  Cl  Cl7  1  0.06784623  0.25000000  0.18874171  1.0
  O  O8  1  0.07546489  0.75000000  0.90152453  1.0
  O  O9  1  0.57546489  0.75000000  0.59847547  1.0
  O  O10  1  0.92453511  0.25000000  0.09847547  1.0
  O  O11  1  0.42453511  0.25000000  0.40152453  1.0
  O  O12  1  0.31147324  0.75000000  0.55667878  1.0
  O  O13  1  0.81147324  0.75000000  0.94332122  1.0
  O  O14  1  0.68852676  0.25000000  0.44332122  1.0
  O  O15  1  0.18852676  0.25000000  0.05667878  1.0
  O  O16  1  0.41931094  0.95666701  0.80387403  1.0
  O  O17  1  0.41931094  0.54333299  0.80387403  1.0
  O  O18  1  0.91931094  0.95666701  0.69612597  1.0
  O  O19  1  0.91931094  0.54333299  0.69612597  1.0
  O  O20  1  0.58068906  0.45666701  0.19612597  1.0
  O  O21  1  0.58068906  0.04333299  0.19612597  1.0
  O  O22  1  0.08068906  0.45666701  0.30387403  1.0
  O  O23  1  0.08068906  0.04333299  0.30387403  1.0
