# generated using pymatgen
data_K2PH4Se3O2
_symmetry_space_group_name_H-M   'P 1'
_cell_length_a   8.83518212
_cell_length_b   8.83518212
_cell_length_c   11.95485636
_cell_angle_alpha   90.00000000
_cell_angle_beta   90.00000000
_cell_angle_gamma   95.09114160
_symmetry_Int_Tables_number   1
_chemical_formula_structural   K2PH4Se3O2
_chemical_formula_sum   'K8 P4 H16 Se12 O8'
_cell_volume   929.51971626
_cell_formula_units_Z   4
loop_
 _symmetry_equiv_pos_site_id
 _symmetry_equiv_pos_as_xyz
  1  'x, y, z'
loop_
 _atom_site_type_symbol
 _atom_site_label
 _atom_site_symmetry_multiplicity
 _atom_site_fract_x
 _atom_site_fract_y
 _atom_site_fract_z
 _atom_site_occupancy
  K  K0  1  -0.47550028  1.47550028  0.14182945  1.0
  K  K1  1  0.02449972  0.97550028  0.35817055  1.0
  K  K2  1  0.47550028  0.52449972  0.85817055  1.0
  K  K3  1  -0.02449972  1.02449972  0.64182945  1.0
  K  K4  1  -0.41730740  0.91730740  0.25000000  1.0
  K  K5  1  0.08269260  1.41730740  0.25000000  1.0
  K  K6  1  -0.08269260  0.58269260  0.75000000  1.0
  K  K7  1  0.41730740  1.08269260  0.75000000  1.0
  P  P8  1  -0.41927526  1.41927526  0.46015343  1.0
  P  P9  1  0.08072474  0.91927526  0.03984657  1.0
  P  P10  1  0.41927526  0.58072474  0.53984657  1.0
  P  P11  1  -0.08072474  1.08072474  0.96015343  1.0
  H  H12  1  -0.29756012  1.07851439  0.48541039  1.0
  H  H13  1  0.20243988  0.57851439  0.01458961  1.0
  H  H14  1  0.07851439  0.70243988  0.51458961  1.0
  H  H15  1  -0.42148561  1.20243988  0.98541039  1.0
  H  H16  1  -0.07851439  1.29756012  0.48541039  1.0
  H  H17  1  0.42148561  0.79756012  0.01458961  1.0
  H  H18  1  0.29756012  0.92148561  0.51458961  1.0
  H  H19  1  -0.20243988  1.42148561  0.98541039  1.0
  H  H20  1  -0.31646890  0.90241637  0.50130083  1.0
  H  H21  1  0.18353110  1.40241637  -0.00130083  1.0
  H  H22  1  -0.09758363  0.68353110  0.49869917  1.0
  H  H23  1  0.40241637  1.18353110  1.00130083  1.0
  H  H24  1  0.09758363  1.31646890  0.50130083  1.0
  H  H25  1  -0.40241637  0.81646890  -0.00130083  1.0
  H  H26  1  0.31646890  1.09758363  0.49869917  1.0
  H  H27  1  -0.18353110  0.59758363  1.00130083  1.0
  Se  Se28  1  0.43495778  1.25572326  0.35855386  1.0
  Se  Se29  1  -0.06504222  0.75572326  0.14144614  1.0
  Se  Se30  1  0.25572326  1.43495778  0.64144614  1.0
  Se  Se31  1  -0.24427674  0.93495778  0.85855386  1.0
  Se  Se32  1  -0.25572326  0.56504222  0.35855386  1.0
  Se  Se33  1  0.24427674  1.06504222  0.14144614  1.0
  Se  Se34  1  -0.43495778  0.74427674  0.64144614  1.0
  Se  Se35  1  0.06504222  1.24427674  0.85855386  1.0
  Se  Se36  1  -0.18965490  1.18965490  0.10261825  1.0
  Se  Se37  1  0.31034510  0.68965490  0.39738175  1.0
  Se  Se38  1  0.18965490  0.81034510  0.89738175  1.0
  Se  Se39  1  -0.31034510  1.31034510  0.60261825  1.0
  O  O40  1  -0.26125211  0.98375285  0.45585174  1.0
  O  O41  1  0.23874789  1.48375285  0.04414826  1.0
  O  O42  1  -0.01624715  0.73874789  0.54414826  1.0
  O  O43  1  0.48375285  1.23874789  0.95585174  1.0
  O  O44  1  0.01624715  1.26125211  0.45585174  1.0
  O  O45  1  -0.48375285  0.76125211  0.04414826  1.0
  O  O46  1  0.26125211  1.01624715  0.54414826  1.0
  O  O47  1  -0.23874789  0.51624715  0.95585174  1.0
