# generated using pymatgen
data_KTeIO9
_symmetry_space_group_name_H-M   'P 1'
_cell_length_a   9.12306729
_cell_length_b   13.76545732
_cell_length_c   6.51756485
_cell_angle_alpha   90.00000000
_cell_angle_beta   90.00000000
_cell_angle_gamma   90.00000000
_symmetry_Int_Tables_number   1
_chemical_formula_structural   KTeIO9
_chemical_formula_sum   'K4 Te4 I4 O36'
_cell_volume   818.49660618
_cell_formula_units_Z   4
loop_
 _symmetry_equiv_pos_site_id
 _symmetry_equiv_pos_as_xyz
  1  'x, y, z'
loop_
 _atom_site_type_symbol
 _atom_site_label
 _atom_site_symmetry_multiplicity
 _atom_site_fract_x
 _atom_site_fract_y
 _atom_site_fract_z
 _atom_site_occupancy
  K  K0  1  0.34567848  0.97100906  0.52492079  1.0
  K  K1  1  0.84567848  0.52899094  0.52492079  1.0
  K  K2  1  0.65432152  0.02899094  0.02492079  1.0
  K  K3  1  0.15432152  0.47100906  0.02492079  1.0
  Te  Te4  1  0.33226658  0.56997236  0.54422071  1.0
  Te  Te5  1  0.83226658  0.93002764  0.54422071  1.0
  Te  Te6  1  0.66773342  0.43002764  0.04422071  1.0
  Te  Te7  1  0.16773342  0.06997236  0.04422071  1.0
  I  I8  1  0.36292104  0.76494522  0.00006208  1.0
  I  I9  1  0.86292104  0.73505478  0.00006208  1.0
  I  I10  1  0.63707896  0.23505478  0.50006208  1.0
  I  I11  1  0.13707896  0.26494522  0.50006208  1.0
  O  O12  1  0.51910206  0.62213009  0.42377278  1.0
  O  O13  1  1.01910206  0.87786991  0.42377278  1.0
  O  O14  1  0.48089794  0.37786991  -0.07622722  1.0
  O  O15  1  -0.01910206  0.12213009  -0.07622722  1.0
  O  O16  1  0.43343540  0.82331575  0.75479402  1.0
  O  O17  1  0.93343540  0.67668425  0.75479402  1.0
  O  O18  1  0.56656460  0.17668425  0.25479402  1.0
  O  O19  1  0.06656460  0.32331575  0.25479402  1.0
  O  O20  1  0.43913135  0.86682260  0.17198626  1.0
  O  O21  1  0.93913135  0.63317740  0.17198626  1.0
  O  O22  1  0.56086865  0.13317740  0.67198626  1.0
  O  O23  1  0.06086865  0.36682260  0.67198626  1.0
  O  O24  1  0.41142272  0.52135959  0.81549087  1.0
  O  O25  1  0.91142272  0.97864041  0.81549087  1.0
  O  O26  1  0.58857728  0.47864041  0.31549087  1.0
  O  O27  1  0.08857728  0.02135959  0.31549087  1.0
  O  O28  1  0.22423994  0.12925433  0.77839102  1.0
  O  O29  1  0.72423994  0.37074567  0.77839102  1.0
  O  O30  1  0.77576006  0.87074567  0.27839102  1.0
  O  O31  1  0.27576006  0.62925433  0.27839102  1.0
  O  O32  1  0.28203060  0.69016140  0.70765093  1.0
  O  O33  1  0.78203060  0.80983860  0.70765093  1.0
  O  O34  1  0.71796940  0.30983860  0.20765093  1.0
  O  O35  1  0.21796940  0.19016140  0.20765093  1.0
  O  O36  1  0.16354584  0.80289587  0.02778972  1.0
  O  O37  1  0.66354584  0.69710413  0.02778972  1.0
  O  O38  1  0.83645416  0.19710413  0.52778972  1.0
  O  O39  1  0.33645416  0.30289587  0.52778972  1.0
  O  O40  1  0.14384738  0.94954434  0.86508202  1.0
  O  O41  1  0.64384738  0.55045566  0.86508202  1.0
  O  O42  1  0.85615262  0.05045566  0.36508202  1.0
  O  O43  1  0.35615262  0.44954434  0.36508202  1.0
  O  O44  1  0.13416709  0.52371145  0.61243880  1.0
  O  O45  1  0.63416709  0.97628855  0.61243880  1.0
  O  O46  1  0.86583291  0.47628855  0.11243880  1.0
  O  O47  1  0.36583291  0.02371145  0.11243880  1.0
