# generated using pymatgen
data_SiS2
_symmetry_space_group_name_H-M   'P 1'
_cell_length_a   7.12894521
_cell_length_b   8.12845782
_cell_length_c   5.93704371
_cell_angle_alpha   90.00000000
_cell_angle_beta   103.08744506
_cell_angle_gamma   90.00000000
_symmetry_Int_Tables_number   1
_chemical_formula_structural   SiS2
_chemical_formula_sum   'Si4 S8'
_cell_volume   335.09971208
_cell_formula_units_Z   4
loop_
 _symmetry_equiv_pos_site_id
 _symmetry_equiv_pos_as_xyz
  1  'x, y, z'
loop_
 _atom_site_type_symbol
 _atom_site_label
 _atom_site_symmetry_multiplicity
 _atom_site_fract_x
 _atom_site_fract_y
 _atom_site_fract_z
 _atom_site_occupancy
  Si  Si0  1  0.89542313  0.86442066  0.89499360  1.0
  Si  Si1  1  0.89542313  0.63557934  0.39499360  1.0
  Si  Si2  1  0.10457687  0.36442066  0.60500640  1.0
  Si  Si3  1  0.10457687  0.13557934  0.10500640  1.0
  S  S4  1  0.79908512  0.39875068  0.48752585  1.0
  S  S5  1  0.79908512  0.10124932  0.98752585  1.0
  S  S6  1  0.20091488  0.89875068  0.01247415  1.0
  S  S7  1  0.20091488  0.60124932  0.51247415  1.0
  S  S8  1  0.78049730  0.84960867  0.52651940  1.0
  S  S9  1  0.78049730  0.65039133  0.02651940  1.0
  S  S10  1  0.21950270  0.34960867  0.97348060  1.0
  S  S11  1  0.21950270  0.15039133  0.47348060  1.0
