# generated using pymatgen
data_Lu15C19
_symmetry_space_group_name_H-M   'P 1'
_cell_length_a   7.90775858
_cell_length_b   7.90775858
_cell_length_c   15.16527411
_cell_angle_alpha   90.00000000
_cell_angle_beta   90.00000000
_cell_angle_gamma   90.00000000
_symmetry_Int_Tables_number   1
_chemical_formula_structural   Lu15C19
_chemical_formula_sum   'Lu30 C38'
_cell_volume   948.32471266
_cell_formula_units_Z   2
loop_
 _symmetry_equiv_pos_site_id
 _symmetry_equiv_pos_as_xyz
  1  'x, y, z'
loop_
 _atom_site_type_symbol
 _atom_site_label
 _atom_site_symmetry_multiplicity
 _atom_site_fract_x
 _atom_site_fract_y
 _atom_site_fract_z
 _atom_site_occupancy
  Lu  Lu0  1  0.20326551  0.40647547  -0.00000325  1.0
  Lu  Lu1  1  0.29673449  0.90647547  0.50000325  1.0
  Lu  Lu2  1  0.59352453  0.20326551  1.00000325  1.0
  Lu  Lu3  1  0.90647547  0.70326551  0.49999675  1.0
  Lu  Lu4  1  0.79673449  0.59352453  -0.00000325  1.0
  Lu  Lu5  1  0.70326551  0.09352453  0.50000325  1.0
  Lu  Lu6  1  0.40647547  0.79673449  1.00000325  1.0
  Lu  Lu7  1  0.09352453  0.29673449  0.49999675  1.0
  Lu  Lu8  1  0.40132501  0.21546107  0.35131644  1.0
  Lu  Lu9  1  0.09867499  0.71546107  0.14868356  1.0
  Lu  Lu10  1  0.78453893  0.40132501  0.64868356  1.0
  Lu  Lu11  1  0.71546107  0.90132501  0.85131644  1.0
  Lu  Lu12  1  0.59867499  0.78453893  0.35131644  1.0
  Lu  Lu13  1  0.90132501  0.28453893  0.14868356  1.0
  Lu  Lu14  1  0.21546107  0.59867499  0.64868356  1.0
  Lu  Lu15  1  0.28453893  0.09867499  0.85131644  1.0
  Lu  Lu16  1  0.28453662  0.09867804  0.14869767  1.0
  Lu  Lu17  1  0.21546338  0.59867804  0.35130233  1.0
  Lu  Lu18  1  0.90132196  0.28453662  0.85130233  1.0
  Lu  Lu19  1  0.59867804  0.78453662  0.64869767  1.0
  Lu  Lu20  1  0.71546338  0.90132196  0.14869767  1.0
  Lu  Lu21  1  0.78453662  0.40132196  0.35130233  1.0
  Lu  Lu22  1  0.09867804  0.71546338  0.85130233  1.0
  Lu  Lu23  1  0.40132196  0.21546338  0.64869767  1.0
  Lu  Lu24  1  0.50000000  0.50000000  0.16878827  1.0
  Lu  Lu25  1  0.00000000  0.00000000  0.33121173  1.0
  Lu  Lu26  1  0.50000000  0.50000000  0.83121173  1.0
  Lu  Lu27  1  0.00000000  0.00000000  0.66878827  1.0
  Lu  Lu28  1  0.50000000  0.50000000  0.50000000  1.0
  Lu  Lu29  1  0.00000000  0.00000000  -0.00000000  1.0
  C  C30  1  0.19603974  0.40478912  0.16946820  1.0
  C  C31  1  0.30396026  0.90478912  0.33053180  1.0
  C  C32  1  0.59521088  0.19603974  0.83053180  1.0
  C  C33  1  0.90478912  0.69603974  0.66946820  1.0
  C  C34  1  0.80396026  0.59521088  0.16946820  1.0
  C  C35  1  0.69603974  0.09521088  0.33053180  1.0
  C  C36  1  0.40478912  0.80396026  0.83053180  1.0
  C  C37  1  0.09521088  0.30396026  0.66946820  1.0
  C  C38  1  0.09521958  0.30394695  0.33053067  1.0
  C  C39  1  0.40478042  0.80394695  0.16946933  1.0
  C  C40  1  0.69605305  0.09521958  0.66946933  1.0
  C  C41  1  0.80394695  0.59521958  0.83053067  1.0
  C  C42  1  0.90478042  0.69605305  0.33053067  1.0
  C  C43  1  0.59521958  0.19605305  0.16946933  1.0
  C  C44  1  0.30394695  0.90478042  0.66946933  1.0
  C  C45  1  0.19605305  0.40478042  0.83053067  1.0
  C  C46  1  0.15096666  0.34902903  0.24999793  1.0
  C  C47  1  0.34903334  0.84902903  0.25000207  1.0
  C  C48  1  0.65097097  0.15096666  0.75000207  1.0
  C  C49  1  0.84902903  0.65096666  0.74999793  1.0
  C  C50  1  0.84903334  0.65097097  0.24999793  1.0
  C  C51  1  0.65096666  0.15097097  0.25000207  1.0
  C  C52  1  0.34902903  0.84903334  0.75000207  1.0
  C  C53  1  0.15097097  0.34903334  0.74999793  1.0
  C  C54  1  0.39692327  0.19759829  0.50000674  1.0
  C  C55  1  0.10307673  0.69759829  -0.00000674  1.0
  C  C56  1  0.80240171  0.39692327  0.49999326  1.0
  C  C57  1  0.69759829  0.89692327  1.00000674  1.0
  C  C58  1  0.60307673  0.80240171  0.50000674  1.0
  C  C59  1  0.89692327  0.30240171  -0.00000674  1.0
  C  C60  1  0.19759829  0.60307673  0.49999326  1.0
  C  C61  1  0.30240171  0.10307673  1.00000674  1.0
  C  C62  1  0.50000000  0.50000000  0.33714643  1.0
  C  C63  1  0.00000000  0.00000000  0.16285357  1.0
  C  C64  1  0.50000000  0.50000000  0.66285357  1.0
  C  C65  1  0.00000000  0.00000000  0.83714643  1.0
  C  C66  1  0.50000000  0.50000000  -0.00000000  1.0
  C  C67  1  0.00000000  0.00000000  0.50000000  1.0
