# generated using pymatgen
data_CaTiGeO5
_symmetry_space_group_name_H-M   'P 1'
_cell_length_a   5.61404692
_cell_length_b   5.61404692
_cell_length_c   7.21869306
_cell_angle_alpha   75.77468353
_cell_angle_beta   104.22531647
_cell_angle_gamma   74.16216946
_symmetry_Int_Tables_number   1
_chemical_formula_structural   CaTiGeO5
_chemical_formula_sum   'Ca2 Ti2 Ge2 O10'
_cell_volume   199.87508797
_cell_formula_units_Z   2
loop_
 _symmetry_equiv_pos_site_id
 _symmetry_equiv_pos_as_xyz
  1  'x, y, z'
loop_
 _atom_site_type_symbol
 _atom_site_label
 _atom_site_symmetry_multiplicity
 _atom_site_fract_x
 _atom_site_fract_y
 _atom_site_fract_z
 _atom_site_occupancy
  Ca  Ca0  1  0.67682577  -0.32317423  0.25000000  1.0
  Ca  Ca1  1  1.32317423  0.32317423  0.75000000  1.0
  Ti  Ti2  1  0.00000000  -0.00000000  0.50000000  1.0
  Ti  Ti3  1  0.00000000  0.00000000  0.00000000  1.0
  Ge  Ge4  1  1.31962868  0.31962868  0.25000000  1.0
  Ge  Ge5  1  0.68037132  -0.31962868  0.75000000  1.0
  O  O6  1  1.63659551  0.25392716  0.41812151  1.0
  O  O7  1  0.74607284  -0.63659551  0.91812151  1.0
  O  O8  1  1.25392716  0.63659551  0.08187849  1.0
  O  O9  1  0.36340449  -0.25392716  0.58187849  1.0
  O  O10  1  1.31270290  0.10735455  0.10410481  1.0
  O  O11  1  0.89264545  -0.31270290  0.60410481  1.0
  O  O12  1  1.10735455  0.31270290  0.39589519  1.0
  O  O13  1  0.68729710  -0.10735455  0.89589519  1.0
  O  O14  1  0.93508523  -0.06491477  0.25000000  1.0
  O  O15  1  1.06491477  0.06491477  0.75000000  1.0
