# generated using pymatgen
data_KCN5O3
_symmetry_space_group_name_H-M   'P 1'
_cell_length_a   11.06895859
_cell_length_b   5.45134086
_cell_length_c   9.48502305
_cell_angle_alpha   90.00000000
_cell_angle_beta   96.16358647
_cell_angle_gamma   90.00000000
_symmetry_Int_Tables_number   1
_chemical_formula_structural   KCN5O3
_chemical_formula_sum   'K4 C4 N20 O12'
_cell_volume   569.02418451
_cell_formula_units_Z   4
loop_
 _symmetry_equiv_pos_site_id
 _symmetry_equiv_pos_as_xyz
  1  'x, y, z'
loop_
 _atom_site_type_symbol
 _atom_site_label
 _atom_site_symmetry_multiplicity
 _atom_site_fract_x
 _atom_site_fract_y
 _atom_site_fract_z
 _atom_site_occupancy
  K  K0  1  0.50000000  0.63296677  0.75000000  1.0
  K  K1  1  0.50000000  0.36703323  0.25000000  1.0
  K  K2  1  -0.00000000  0.97889284  0.75000000  1.0
  K  K3  1  0.00000000  0.02110716  0.25000000  1.0
  C  C4  1  0.74693323  0.68789732  0.51690515  1.0
  C  C5  1  0.74693323  0.31210268  0.01690515  1.0
  C  C6  1  0.25306677  0.68789732  0.98309485  1.0
  C  C7  1  0.25306677  0.31210268  0.48309485  1.0
  N  N8  1  0.82214178  0.85537955  0.47004792  1.0
  N  N9  1  0.82214178  0.14462045  0.97004792  1.0
  N  N10  1  0.17785822  0.85537955  0.02995208  1.0
  N  N11  1  0.17785822  0.14462045  0.52995208  1.0
  N  N12  1  0.78862849  0.48200103  0.60187472  1.0
  N  N13  1  0.78862849  0.51799897  0.10187472  1.0
  N  N14  1  0.21137151  0.48200103  0.89812528  1.0
  N  N15  1  0.21137151  0.51799897  0.39812528  1.0
  N  N16  1  0.74202252  0.99435960  0.89858625  1.0
  N  N17  1  0.74202252  0.00564040  0.39858625  1.0
  N  N18  1  0.25797748  0.99435960  0.60141375  1.0
  N  N19  1  0.25797748  0.00564040  0.10141375  1.0
  N  N20  1  0.62889748  0.73032764  0.47928010  1.0
  N  N21  1  0.62889748  0.26967236  0.97928010  1.0
  N  N22  1  0.37110252  0.73032764  0.02071990  1.0
  N  N23  1  0.37110252  0.26967236  0.52071990  1.0
  N  N24  1  0.62431157  0.93362304  0.40304950  1.0
  N  N25  1  0.62431157  0.06637696  0.90304950  1.0
  N  N26  1  0.37568843  0.93362304  0.09695050  1.0
  N  N27  1  0.37568843  0.06637696  0.59695050  1.0
  O  O28  1  0.89991509  0.45556339  0.62983237  1.0
  O  O29  1  0.89991509  0.54443661  0.12983237  1.0
  O  O30  1  0.10008491  0.45556339  0.87016763  1.0
  O  O31  1  0.10008491  0.54443661  0.37016763  1.0
  O  O32  1  0.77042940  0.80604208  0.83224760  1.0
  O  O33  1  0.77042940  0.19395792  0.33224760  1.0
  O  O34  1  0.22957060  0.80604208  0.66775240  1.0
  O  O35  1  0.22957060  0.19395792  0.16775240  1.0
  O  O36  1  0.71095429  0.34304043  0.64313677  1.0
  O  O37  1  0.71095429  0.65695957  0.14313677  1.0
  O  O38  1  0.28904571  0.34304043  0.85686323  1.0
  O  O39  1  0.28904571  0.65695957  0.35686323  1.0
