# generated using pymatgen
data_Nb2CoS4
_symmetry_space_group_name_H-M   'P 1'
_cell_length_a   13.12221139
_cell_length_b   3.20860787
_cell_length_c   12.87781042
_cell_angle_alpha   90.00000000
_cell_angle_beta   90.00000000
_cell_angle_gamma   90.00000000
_symmetry_Int_Tables_number   1
_chemical_formula_structural   Nb2CoS4
_chemical_formula_sum   'Nb8 Co4 S16'
_cell_volume   542.20772650
_cell_formula_units_Z   4
loop_
 _symmetry_equiv_pos_site_id
 _symmetry_equiv_pos_as_xyz
  1  'x, y, z'
loop_
 _atom_site_type_symbol
 _atom_site_label
 _atom_site_symmetry_multiplicity
 _atom_site_fract_x
 _atom_site_fract_y
 _atom_site_fract_z
 _atom_site_occupancy
  Nb  Nb0  1  -0.00068827  0.25000000  0.10022367  1.0
  Nb  Nb1  1  0.49931173  0.25000000  0.39977633  1.0
  Nb  Nb2  1  1.00068827  0.75000000  0.89977633  1.0
  Nb  Nb3  1  0.50068827  0.75000000  0.60022367  1.0
  Nb  Nb4  1  0.07262518  0.25000000  0.58019149  1.0
  Nb  Nb5  1  0.57262518  0.25000000  0.91980851  1.0
  Nb  Nb6  1  0.92737482  0.75000000  0.41980851  1.0
  Nb  Nb7  1  0.42737482  0.75000000  0.08019149  1.0
  S  S8  1  0.38764245  0.25000000  0.92829926  1.0
  S  S9  1  0.88764245  0.25000000  0.57170074  1.0
  S  S10  1  0.61235755  0.75000000  0.07170074  1.0
  S  S11  1  0.11235755  0.75000000  0.42829926  1.0
  S  S12  1  0.37931598  0.25000000  0.69409411  1.0
  S  S13  1  0.87931598  0.25000000  0.80590589  1.0
  S  S14  1  0.62068402  0.75000000  0.30590589  1.0
  S  S15  1  0.12068402  0.75000000  0.19409411  1.0
  S  S16  1  0.12785558  0.25000000  0.96270034  1.0
  S  S17  1  0.62785558  0.25000000  0.53729966  1.0
  S  S18  1  0.87214442  0.75000000  0.03729966  1.0
  S  S19  1  0.37214442  0.75000000  0.46270034  1.0
  S  S20  1  -0.10123976  0.25000000  0.28244035  1.0
  S  S21  1  0.39876024  0.25000000  0.21755965  1.0
  S  S22  1  1.10123976  0.75000000  0.71755965  1.0
  S  S23  1  0.60123976  0.75000000  0.78244035  1.0
  Co  Co24  1  0.06459866  0.25000000  0.30360399  1.0
  Co  Co25  1  0.56459866  0.25000000  0.19639601  1.0
  Co  Co26  1  0.93540134  0.75000000  0.69639601  1.0
  Co  Co27  1  0.43540134  0.75000000  0.80360399  1.0
