# generated using pymatgen
data_Ba3Mg(SiO4)2
_symmetry_space_group_name_H-M   'P 1'
_cell_length_a   5.67396331
_cell_length_b   5.67396331
_cell_length_c   7.34888871
_cell_angle_alpha   90.00000000
_cell_angle_beta   90.00000000
_cell_angle_gamma   120.00000000
_symmetry_Int_Tables_number   1
_chemical_formula_structural   Ba3Mg(SiO4)2
_chemical_formula_sum   'Ba3 Mg1 Si2 O8'
_cell_volume   204.89216364
_cell_formula_units_Z   1
loop_
 _symmetry_equiv_pos_site_id
 _symmetry_equiv_pos_as_xyz
  1  'x, y, z'
loop_
 _atom_site_type_symbol
 _atom_site_label
 _atom_site_symmetry_multiplicity
 _atom_site_fract_x
 _atom_site_fract_y
 _atom_site_fract_z
 _atom_site_occupancy
  Ba  Ba0  1  0.33333333  0.66666667  0.67362448  1.0
  Ba  Ba1  1  0.66666667  0.33333333  0.32637552  1.0
  Ba  Ba2  1  0.00000000  0.00000000  0.00000000  1.0
  Mg  Mg3  1  0.00000000  0.00000000  0.50000000  1.0
  Si  Si4  1  0.33333333  0.66666667  0.23858219  1.0
  Si  Si5  1  0.66666667  0.33333333  0.76141781  1.0
  O  O6  1  0.64912649  0.82456325  0.32303488  1.0
  O  O7  1  0.82456325  0.64912649  0.67696512  1.0
  O  O8  1  0.82456325  0.17543675  0.67696512  1.0
  O  O9  1  0.17543675  0.82456325  0.32303488  1.0
  O  O10  1  0.17543675  0.35087351  0.32303488  1.0
  O  O11  1  0.35087351  0.17543675  0.67696512  1.0
  O  O12  1  0.33333333  0.66666667  0.01854661  1.0
  O  O13  1  0.66666667  0.33333333  0.98145339  1.0
