# generated using pymatgen
data_CsFeP2O7
_symmetry_space_group_name_H-M   'P 1'
_cell_length_a   7.83346910
_cell_length_b   10.15117539
_cell_length_c   8.54566827
_cell_angle_alpha   90.00000000
_cell_angle_beta   105.02112521
_cell_angle_gamma   90.00000000
_symmetry_Int_Tables_number   1
_chemical_formula_structural   CsFeP2O7
_chemical_formula_sum   'Cs4 Fe4 P8 O28'
_cell_volume   656.32256665
_cell_formula_units_Z   4
loop_
 _symmetry_equiv_pos_site_id
 _symmetry_equiv_pos_as_xyz
  1  'x, y, z'
loop_
 _atom_site_type_symbol
 _atom_site_label
 _atom_site_symmetry_multiplicity
 _atom_site_fract_x
 _atom_site_fract_y
 _atom_site_fract_z
 _atom_site_occupancy
  Cs  Cs0  1  0.80209633  0.79675496  0.45973959  1.0
  Cs  Cs1  1  0.80209633  0.70324504  0.95973959  1.0
  Cs  Cs2  1  0.19790367  0.29675496  0.04026041  1.0
  Cs  Cs3  1  0.19790367  0.20324504  0.54026041  1.0
  Fe  Fe4  1  0.75893323  0.39934652  0.24292956  1.0
  Fe  Fe5  1  0.75893323  0.10065348  0.74292956  1.0
  Fe  Fe6  1  0.24106677  0.89934652  0.25707044  1.0
  Fe  Fe7  1  0.24106677  0.60065348  0.75707044  1.0
  O  O8  1  0.67982458  0.09968261  0.49444682  1.0
  O  O9  1  0.67982458  0.40031739  0.99444682  1.0
  O  O10  1  0.32017542  0.59968261  0.00555318  1.0
  O  O11  1  0.32017542  0.90031739  0.50555318  1.0
  O  O12  1  0.68681733  0.04652045  0.20630850  1.0
  O  O13  1  0.68681733  0.45347955  0.70630850  1.0
  O  O14  1  0.31318267  0.54652045  0.29369150  1.0
  O  O15  1  0.31318267  0.95347955  0.79369150  1.0
  O  O16  1  0.56866771  0.27159400  0.26779039  1.0
  O  O17  1  0.56866771  0.22840600  0.76779039  1.0
  O  O18  1  0.43133229  0.77159400  0.23220961  1.0
  O  O19  1  0.43133229  0.72840600  0.73220961  1.0
  O  O20  1  0.90772537  0.23677262  0.23050216  1.0
  O  O21  1  0.90772537  0.26322738  0.73050216  1.0
  O  O22  1  0.09227463  0.73677262  0.26949784  1.0
  O  O23  1  0.09227463  0.76322738  0.76949784  1.0
  O  O24  1  0.98422173  0.50261026  0.23493237  1.0
  O  O25  1  0.98422173  0.99738974  0.73493237  1.0
  O  O26  1  0.01577827  0.00261026  0.26506763  1.0
  O  O27  1  0.01577827  0.49738974  0.76506763  1.0
  O  O28  1  0.84162912  0.41767399  0.48428620  1.0
  O  O29  1  0.84162912  0.08232601  0.98428620  1.0
  O  O30  1  0.15837088  0.91767399  0.01571380  1.0
  O  O31  1  0.15837088  0.58232601  0.51571380  1.0
  O  O32  1  0.39189278  0.06530023  0.26972033  1.0
  O  O33  1  0.39189278  0.43469977  0.76972033  1.0
  O  O34  1  0.60810722  0.56530023  0.23027967  1.0
  O  O35  1  0.60810722  0.93469977  0.73027967  1.0
  P  P36  1  0.87060665  0.09445293  0.16685337  1.0
  P  P37  1  0.87060665  0.40554707  0.66685337  1.0
  P  P38  1  0.12939335  0.59445293  0.33314663  1.0
  P  P39  1  0.12939335  0.90554707  0.83314663  1.0
  P  P40  1  0.57847663  0.12516289  0.31875679  1.0
  P  P41  1  0.57847663  0.37483711  0.81875679  1.0
  P  P42  1  0.42152337  0.62516289  0.18124321  1.0
  P  P43  1  0.42152337  0.87483711  0.68124321  1.0
