# generated using pymatgen
data_AlH4(SeO4)2
_symmetry_space_group_name_H-M   'P 1'
_cell_length_a   7.58504259
_cell_length_b   6.78752827
_cell_length_c   9.07506778
_cell_angle_alpha   90.00000000
_cell_angle_beta   129.43048613
_cell_angle_gamma   90.00000000
_symmetry_Int_Tables_number   1
_chemical_formula_structural   AlH4(SeO4)2
_chemical_formula_sum   'Al2 H8 Se4 O16'
_cell_volume   360.87717913
_cell_formula_units_Z   2
loop_
 _symmetry_equiv_pos_site_id
 _symmetry_equiv_pos_as_xyz
  1  'x, y, z'
loop_
 _atom_site_type_symbol
 _atom_site_label
 _atom_site_symmetry_multiplicity
 _atom_site_fract_x
 _atom_site_fract_y
 _atom_site_fract_z
 _atom_site_occupancy
  O  O0  1  0.26879754  0.29360296  0.86585542  1.0
  O  O1  1  0.26879754  0.20639704  0.36585542  1.0
  O  O2  1  0.73120246  0.70639704  0.13414458  1.0
  O  O3  1  0.73120246  0.79360296  0.63414458  1.0
  O  O4  1  0.58793897  0.40766593  0.23502073  1.0
  O  O5  1  0.58793897  0.09233407  0.73502073  1.0
  O  O6  1  0.41206103  0.59233407  0.76497927  1.0
  O  O7  1  0.41206103  0.90766593  0.26497927  1.0
  O  O8  1  0.71360746  0.17328431  0.52135477  1.0
  O  O9  1  0.71360746  0.32671569  0.02135477  1.0
  O  O10  1  0.28639254  0.82671569  0.47864523  1.0
  O  O11  1  0.28639254  0.67328431  0.97864523  1.0
  O  O12  1  0.97655303  0.76043456  0.01638107  1.0
  O  O13  1  0.97655303  0.73956544  0.51638107  1.0
  O  O14  1  0.02344697  0.23956544  0.98361893  1.0
  O  O15  1  0.02344697  0.26043456  0.48361893  1.0
  Al  Al16  1  0.50000000  0.00000000  0.50000000  1.0
  Al  Al17  1  0.50000000  0.50000000  0.00000000  1.0
  Se  Se18  1  0.74530020  0.30300642  0.85158880  1.0
  Se  Se19  1  0.74530020  0.19699358  0.35158880  1.0
  Se  Se20  1  0.25469980  0.69699358  0.14841120  1.0
  Se  Se21  1  0.25469980  0.80300642  0.64841120  1.0
  H  H22  1  0.16785279  0.27094008  0.89937486  1.0
  H  H23  1  0.16785279  0.22905992  0.39937486  1.0
  H  H24  1  0.83214721  0.72905992  0.10062514  1.0
  H  H25  1  0.83214721  0.77094008  0.60062514  1.0
  H  H26  1  0.82708664  0.78578210  0.77582208  1.0
  H  H27  1  0.82708664  0.71421790  0.27582208  1.0
  H  H28  1  0.17291336  0.21421790  0.22417792  1.0
  H  H29  1  0.17291336  0.28578210  0.72417792  1.0
