# generated using pymatgen
data_Rb3FeCl5
_symmetry_space_group_name_H-M   'P 1'
_cell_length_a   9.64322842
_cell_length_b   9.64322842
_cell_length_c   9.64322842
_cell_angle_alpha   124.37408821
_cell_angle_beta   124.37408821
_cell_angle_gamma   82.57735164
_symmetry_Int_Tables_number   1
_chemical_formula_structural   Rb3FeCl5
_chemical_formula_sum   'Rb6 Fe2 Cl10'
_cell_volume   586.75935737
_cell_formula_units_Z   2
loop_
 _symmetry_equiv_pos_site_id
 _symmetry_equiv_pos_as_xyz
  1  'x, y, z'
loop_
 _atom_site_type_symbol
 _atom_site_label
 _atom_site_symmetry_multiplicity
 _atom_site_fract_x
 _atom_site_fract_y
 _atom_site_fract_z
 _atom_site_occupancy
  Rb  Rb0  1  0.83358370  0.33358370  1.16716739  1.0
  Rb  Rb1  1  0.66641630  0.83358370  1.50000000  1.0
  Rb  Rb2  1  0.33358370  0.16641630  0.50000000  1.0
  Rb  Rb3  1  0.16641630  0.66641630  0.83283261  1.0
  Rb  Rb4  1  0.75000000  0.75000000  1.00000000  1.0
  Rb  Rb5  1  0.25000000  0.25000000  -0.00000000  1.0
  Fe  Fe6  1  0.25000000  0.75000000  0.50000000  1.0
  Fe  Fe7  1  0.75000000  0.25000000  0.50000000  1.0
  Cl  Cl8  1  0.00000000  0.00000000  0.00000000  1.0
  Cl  Cl9  1  0.50000000  0.50000000  1.00000000  1.0
  Cl  Cl10  1  1.20592782  0.70592782  1.21670888  1.0
  Cl  Cl11  1  0.51078106  1.01078106  1.21670888  1.0
  Cl  Cl12  1  0.98921894  1.20592782  1.50000000  1.0
  Cl  Cl13  1  0.29407218  0.51078106  0.50000000  1.0
  Cl  Cl14  1  0.70592782  0.48921894  0.50000000  1.0
  Cl  Cl15  1  1.01078106  0.79407218  1.50000000  1.0
  Cl  Cl16  1  0.48921894  0.98921894  0.78329112  1.0
  Cl  Cl17  1  0.79407218  0.29407218  0.78329112  1.0
