# generated using pymatgen
data_GdAgAs2
_symmetry_space_group_name_H-M   'P 1'
_cell_length_a   20.94847759
_cell_length_b   4.01592821
_cell_length_c   4.02892170
_cell_angle_alpha   90.00000000
_cell_angle_beta   90.00000000
_cell_angle_gamma   90.00000000
_symmetry_Int_Tables_number   1
_chemical_formula_structural   GdAgAs2
_chemical_formula_sum   'Gd4 Ag4 As8'
_cell_volume   338.94344100
_cell_formula_units_Z   4
loop_
 _symmetry_equiv_pos_site_id
 _symmetry_equiv_pos_as_xyz
  1  'x, y, z'
loop_
 _atom_site_type_symbol
 _atom_site_label
 _atom_site_symmetry_multiplicity
 _atom_site_fract_x
 _atom_site_fract_y
 _atom_site_fract_z
 _atom_site_occupancy
  Gd  Gd0  1  0.38516068  0.75000000  0.23426516  1.0
  Gd  Gd1  1  0.88516068  0.75000000  0.26573484  1.0
  Gd  Gd2  1  0.61483932  0.25000000  0.76573484  1.0
  Gd  Gd3  1  0.11483932  0.25000000  0.73426516  1.0
  Ag  Ag4  1  0.25014177  0.75000000  0.73270042  1.0
  Ag  Ag5  1  0.75014177  0.75000000  0.76729958  1.0
  Ag  Ag6  1  0.74985823  0.25000000  0.26729958  1.0
  Ag  Ag7  1  0.24985823  0.25000000  0.23270042  1.0
  As  As8  1  0.49848250  0.75000000  0.70875710  1.0
  As  As9  1  0.99848250  0.75000000  0.79124290  1.0
  As  As10  1  0.50151750  0.25000000  0.29124290  1.0
  As  As11  1  0.00151750  0.25000000  0.20875710  1.0
  As  As12  1  0.15730254  0.75000000  0.23319753  1.0
  As  As13  1  0.65730254  0.75000000  0.26680247  1.0
  As  As14  1  0.84269746  0.25000000  0.76680247  1.0
  As  As15  1  0.34269746  0.25000000  0.73319753  1.0
