# generated using pymatgen
data_Cs3Al2F9
_symmetry_space_group_name_H-M   'P 1'
_cell_length_a   6.36161373
_cell_length_b   6.36161373
_cell_length_c   15.08156441
_cell_angle_alpha   90.00000000
_cell_angle_beta   90.00000000
_cell_angle_gamma   120.00000000
_symmetry_Int_Tables_number   1
_chemical_formula_structural   Cs3Al2F9
_chemical_formula_sum   'Cs6 Al4 F18'
_cell_volume   528.58108304
_cell_formula_units_Z   2
loop_
 _symmetry_equiv_pos_site_id
 _symmetry_equiv_pos_as_xyz
  1  'x, y, z'
loop_
 _atom_site_type_symbol
 _atom_site_label
 _atom_site_symmetry_multiplicity
 _atom_site_fract_x
 _atom_site_fract_y
 _atom_site_fract_z
 _atom_site_occupancy
  Cs  Cs0  1  0.33333333  0.66666667  0.43744166  1.0
  Cs  Cs1  1  0.33333333  0.66666667  0.06255834  1.0
  Cs  Cs2  1  0.66666667  0.33333333  0.93744166  1.0
  Cs  Cs3  1  0.66666667  0.33333333  0.56255834  1.0
  Cs  Cs4  1  0.33333333  0.66666667  0.75000000  1.0
  Cs  Cs5  1  0.66666667  0.33333333  0.25000000  1.0
  Al  Al6  1  -0.00000000  -0.00000000  0.34156728  1.0
  Al  Al7  1  0.00000000  0.00000000  0.15843272  1.0
  Al  Al8  1  -0.00000000  -0.00000000  0.84156728  1.0
  Al  Al9  1  -0.00000000  -0.00000000  0.65843272  1.0
  F  F10  1  0.14101903  0.85898097  0.89755683  1.0
  F  F11  1  0.14101903  0.85898097  0.60244317  1.0
  F  F12  1  0.14101903  0.28203807  0.89755683  1.0
  F  F13  1  0.14101903  0.28203807  0.60244317  1.0
  F  F14  1  0.85898097  0.14101903  0.39755683  1.0
  F  F15  1  0.85898097  0.14101903  0.10244317  1.0
  F  F16  1  0.85898097  0.71796193  0.39755683  1.0
  F  F17  1  0.85898097  0.71796193  0.10244317  1.0
  F  F18  1  0.71796193  0.85898097  0.89755683  1.0
  F  F19  1  0.71796193  0.85898097  0.60244317  1.0
  F  F20  1  0.28203807  0.14101903  0.39755683  1.0
  F  F21  1  0.28203807  0.14101903  0.10244317  1.0
  F  F22  1  0.12542720  0.87457280  0.25000000  1.0
  F  F23  1  0.12542720  0.25085439  0.25000000  1.0
  F  F24  1  0.87457280  0.12542720  0.75000000  1.0
  F  F25  1  0.87457280  0.74914561  0.75000000  1.0
  F  F26  1  0.74914561  0.87457280  0.25000000  1.0
  F  F27  1  0.25085439  0.12542720  0.75000000  1.0
