# generated using pymatgen
data_MoS2Cl3
_symmetry_space_group_name_H-M   'P 1'
_cell_length_a   6.24036216
_cell_length_b   7.85700559
_cell_length_c   14.71287477
_cell_angle_alpha   90.00000000
_cell_angle_beta   115.22026777
_cell_angle_gamma   90.00000000
_symmetry_Int_Tables_number   1
_chemical_formula_structural   MoS2Cl3
_chemical_formula_sum   'Mo4 S8 Cl12'
_cell_volume   652.61589467
_cell_formula_units_Z   4
loop_
 _symmetry_equiv_pos_site_id
 _symmetry_equiv_pos_as_xyz
  1  'x, y, z'
loop_
 _atom_site_type_symbol
 _atom_site_label
 _atom_site_symmetry_multiplicity
 _atom_site_fract_x
 _atom_site_fract_y
 _atom_site_fract_z
 _atom_site_occupancy
  Mo  Mo0  1  0.79743115  0.40901201  0.49488378  1.0
  Mo  Mo1  1  0.79743115  0.09098799  0.99488378  1.0
  Mo  Mo2  1  0.20256885  0.90901201  0.00511622  1.0
  Mo  Mo3  1  0.20256885  0.59098799  0.50511622  1.0
  S  S4  1  0.83433756  0.95191511  0.85406100  1.0
  S  S5  1  0.83433756  0.54808489  0.35406100  1.0
  S  S6  1  0.16566244  0.45191511  0.64593900  1.0
  S  S7  1  0.16566244  0.04808489  0.14593900  1.0
  S  S8  1  0.81374302  0.71319050  0.45394716  1.0
  S  S9  1  0.81374302  0.78680950  0.95394716  1.0
  S  S10  1  0.18625698  0.21319050  0.04605284  1.0
  S  S11  1  0.18625698  0.28680950  0.54605284  1.0
  Cl  Cl12  1  0.72619770  0.32392769  0.08122865  1.0
  Cl  Cl13  1  0.72619770  0.17607231  0.58122865  1.0
  Cl  Cl14  1  0.27380230  0.82392769  0.41877135  1.0
  Cl  Cl15  1  0.27380230  0.67607231  0.91877135  1.0
  Cl  Cl16  1  0.73070983  0.18658106  0.36669924  1.0
  Cl  Cl17  1  0.73070983  0.31341894  0.86669924  1.0
  Cl  Cl18  1  0.26929017  0.68658106  0.13330076  1.0
  Cl  Cl19  1  0.26929017  0.81341894  0.63330076  1.0
  Cl  Cl20  1  0.35330309  0.43032052  0.39097470  1.0
  Cl  Cl21  1  0.35330309  0.06967948  0.89097470  1.0
  Cl  Cl22  1  0.64669691  0.93032052  0.10902530  1.0
  Cl  Cl23  1  0.64669691  0.56967948  0.60902530  1.0
