# generated using pymatgen
data_La3(ReO5)2
_symmetry_space_group_name_H-M   'P 1'
_cell_length_a   5.58906694
_cell_length_b   5.58906694
_cell_length_c   7.23461569
_cell_angle_alpha   72.61708729
_cell_angle_beta   107.38291271
_cell_angle_gamma   90.63201115
_symmetry_Int_Tables_number   1
_chemical_formula_structural   La3(ReO5)2
_chemical_formula_sum   'La3 Re2 O10'
_cell_volume   205.06090269
_cell_formula_units_Z   1
loop_
 _symmetry_equiv_pos_site_id
 _symmetry_equiv_pos_as_xyz
  1  'x, y, z'
loop_
 _atom_site_type_symbol
 _atom_site_label
 _atom_site_symmetry_multiplicity
 _atom_site_fract_x
 _atom_site_fract_y
 _atom_site_fract_z
 _atom_site_occupancy
  La  La0  1  -0.00000000  0.00000000  0.50000000  1.0
  La  La1  1  0.74332679  0.74332679  0.00000000  1.0
  La  La2  1  0.25667321  0.25667321  0.00000000  1.0
  Re  Re3  1  0.63290107  0.36709893  0.67372374  1.0
  Re  Re4  1  1.36709893  -0.36709893  0.32627626  1.0
  O  O5  1  0.64806660  0.35193340  0.40811055  1.0
  O  O6  1  1.35193340  -0.35193340  0.59188945  1.0
  O  O7  1  0.66689241  0.33310759  0.96720629  1.0
  O  O8  1  1.33310759  -0.33310759  0.03279371  1.0
  O  O9  1  0.39597463  0.13058746  0.71175240  1.0
  O  O10  1  0.86941254  0.60402537  0.71175240  1.0
  O  O11  1  1.13058746  -0.60402537  0.28824760  1.0
  O  O12  1  1.60402537  -0.13058746  0.28824760  1.0
  O  O13  1  0.90350792  0.09649208  0.78050330  1.0
  O  O14  1  1.09649208  -0.09649208  0.21949670  1.0
