# generated using pymatgen
data_NbNiTe5
_symmetry_space_group_name_H-M   'P 1'
_cell_length_a   7.13091590
_cell_length_b   7.13091590
_cell_length_c   15.33901879
_cell_angle_alpha   90.00000000
_cell_angle_beta   90.00000000
_cell_angle_gamma   149.83651577
_symmetry_Int_Tables_number   1
_chemical_formula_structural   NbNiTe5
_chemical_formula_sum   'Nb2 Ni2 Te10'
_cell_volume   391.92006836
_cell_formula_units_Z   2
loop_
 _symmetry_equiv_pos_site_id
 _symmetry_equiv_pos_as_xyz
  1  'x, y, z'
loop_
 _atom_site_type_symbol
 _atom_site_label
 _atom_site_symmetry_multiplicity
 _atom_site_fract_x
 _atom_site_fract_y
 _atom_site_fract_z
 _atom_site_occupancy
  Nb  Nb0  1  0.49244630  0.50755370  0.75000000  1.0
  Nb  Nb1  1  -0.49244630  0.49244630  0.25000000  1.0
  Ni  Ni2  1  0.00000000  0.00000000  0.00000000  1.0
  Ni  Ni3  1  0.00000000  0.00000000  0.50000000  1.0
  Te  Te4  1  0.10026287  0.89973713  0.85539645  1.0
  Te  Te5  1  0.10026287  0.89973713  0.64460355  1.0
  Te  Te6  1  -0.10026287  0.10026287  0.35539645  1.0
  Te  Te7  1  -0.10026287  0.10026287  0.14460355  1.0
  Te  Te8  1  0.39975709  0.60024291  0.92235520  1.0
  Te  Te9  1  0.39975709  0.60024291  0.57764480  1.0
  Te  Te10  1  -0.39975709  0.39975709  0.42235520  1.0
  Te  Te11  1  -0.39975709  0.39975709  0.07764480  1.0
  Te  Te12  1  -0.16517538  0.16517538  0.75000000  1.0
  Te  Te13  1  0.16517538  0.83482462  0.25000000  1.0
