# generated using pymatgen
data_YCl
_symmetry_space_group_name_H-M   'P 1'
_cell_length_a   10.26443323
_cell_length_b   10.26443323
_cell_length_c   10.26443323
_cell_angle_alpha   21.11547848
_cell_angle_beta   21.11547848
_cell_angle_gamma   21.11547848
_symmetry_Int_Tables_number   1
_chemical_formula_structural   YCl
_chemical_formula_sum   'Y2 Cl2'
_cell_volume   122.92121385
_cell_formula_units_Z   2
loop_
 _symmetry_equiv_pos_site_id
 _symmetry_equiv_pos_as_xyz
  1  'x, y, z'
loop_
 _atom_site_type_symbol
 _atom_site_label
 _atom_site_symmetry_multiplicity
 _atom_site_fract_x
 _atom_site_fract_y
 _atom_site_fract_z
 _atom_site_occupancy
  Y  Y0  1  0.71310151  0.71310151  0.71310151  1.0
  Y  Y1  1  1.28689849  1.28689849  0.28689849  1.0
  Cl  Cl2  1  0.89640560  0.89640560  0.89640560  1.0
  Cl  Cl3  1  1.10359440  1.10359440  0.10359440  1.0
