# generated using pymatgen
data_Se(Br3O4)2
_symmetry_space_group_name_H-M   'P 1'
_cell_length_a   8.26389936
_cell_length_b   8.26389936
_cell_length_c   7.46366197
_cell_angle_alpha   88.67794567
_cell_angle_beta   91.32205433
_cell_angle_gamma   86.46324570
_symmetry_Int_Tables_number   1
_chemical_formula_structural   Se(Br3O4)2
_chemical_formula_sum   'Se1 Br6 O8'
_cell_volume   508.44917148
_cell_formula_units_Z   1
loop_
 _symmetry_equiv_pos_site_id
 _symmetry_equiv_pos_as_xyz
  1  'x, y, z'
loop_
 _atom_site_type_symbol
 _atom_site_label
 _atom_site_symmetry_multiplicity
 _atom_site_fract_x
 _atom_site_fract_y
 _atom_site_fract_z
 _atom_site_occupancy
  Se  Se0  1  0.00000000  -0.00000000  0.00000000  1.0
  Br  Br1  1  0.93086726  0.06913274  0.62281256  1.0
  Br  Br2  1  1.06913274  -0.06913274  0.37718744  1.0
  Br  Br3  1  0.77560282  0.22439718  0.93060157  1.0
  Br  Br4  1  1.22439718  -0.22439718  0.06939843  1.0
  Br  Br5  1  0.79114360  0.79114360  0.00000000  1.0
  Br  Br6  1  0.20885640  0.20885640  0.00000000  1.0
  O  O7  1  1.47276149  -0.12380569  0.58736933  1.0
  O  O8  1  1.12380569  -0.47276149  0.58736933  1.0
  O  O9  1  0.87619431  0.47276149  0.41263067  1.0
  O  O10  1  0.52723851  0.12380569  0.41263067  1.0
  O  O11  1  0.44662261  0.13498847  0.54707434  1.0
  O  O12  1  0.86501153  0.55337739  0.54707434  1.0
  O  O13  1  1.13498847  -0.55337739  0.45292566  1.0
  O  O14  1  1.55337739  -0.13498847  0.45292566  1.0
