# generated using pymatgen
data_SO6
_symmetry_space_group_name_H-M   'P 1'
_cell_length_a   7.97505336
_cell_length_b   7.97505336
_cell_length_c   13.58802272
_cell_angle_alpha   74.80757559
_cell_angle_beta   105.19242441
_cell_angle_gamma   127.18130527
_symmetry_Int_Tables_number   1
_chemical_formula_structural   SO6
_chemical_formula_sum   'S6 O36'
_cell_volume   658.41248624
_cell_formula_units_Z   6
loop_
 _symmetry_equiv_pos_site_id
 _symmetry_equiv_pos_as_xyz
  1  'x, y, z'
loop_
 _atom_site_type_symbol
 _atom_site_label
 _atom_site_symmetry_multiplicity
 _atom_site_fract_x
 _atom_site_fract_y
 _atom_site_fract_z
 _atom_site_occupancy
  S  S0  1  1.78107368  0.09505644  0.40217471  1.0
  S  S1  1  0.90494356  -0.78107368  0.90217471  1.0
  S  S2  1  1.09505644  0.78107368  0.09782529  1.0
  S  S3  1  0.21892632  -0.09505644  0.59782529  1.0
  S  S4  1  0.53015486  -0.46984514  0.25000000  1.0
  S  S5  1  1.46984514  0.46984514  0.75000000  1.0
  O  O6  1  1.56411723  0.41494943  0.53415944  1.0
  O  O7  1  0.58505057  -0.56411723  1.03415944  1.0
  O  O8  1  1.41494943  0.56411723  -0.03415944  1.0
  O  O9  1  0.43588277  -0.41494943  0.46584056  1.0
  O  O10  1  1.85133655  -0.04926005  0.11937676  1.0
  O  O11  1  1.04926005  -0.85133655  0.61937676  1.0
  O  O12  1  0.95073995  0.85133655  0.38062324  1.0
  O  O13  1  0.14866345  0.04926005  0.88062324  1.0
  O  O14  1  1.50019627  0.12993388  0.21237506  1.0
  O  O15  1  0.87006612  -0.50019627  0.71237506  1.0
  O  O16  1  1.12993388  0.50019627  0.28762494  1.0
  O  O17  1  0.49980373  -0.12993388  0.78762494  1.0
  O  O18  1  1.73361016  0.06392847  0.97000748  1.0
  O  O19  1  0.93607153  -0.73361016  0.47000748  1.0
  O  O20  1  1.06392847  0.73361016  0.52999252  1.0
  O  O21  1  0.26638984  -0.06392847  0.02999252  1.0
  O  O22  1  1.36812987  0.43018847  0.32343784  1.0
  O  O23  1  0.56981153  -0.36812987  0.82343784  1.0
  O  O24  1  1.43018847  0.36812987  0.17656216  1.0
  O  O25  1  0.63187013  -0.43018847  0.67656216  1.0
  O  O26  1  1.84202833  0.13628474  0.80210324  1.0
  O  O27  1  0.86371526  -0.84202833  0.30210324  1.0
  O  O28  1  1.13628474  0.84202833  0.69789676  1.0
  O  O29  1  0.15797167  -0.13628474  0.19789676  1.0
  O  O30  1  0.75771068  -0.10929594  0.45524436  1.0
  O  O31  1  1.10929594  0.24228932  0.95524436  1.0
  O  O32  1  0.89070406  -0.24228932  0.04475564  1.0
  O  O33  1  1.24228932  0.10929594  0.54475564  1.0
  O  O34  1  1.57255775  0.06463529  0.38592581  1.0
  O  O35  1  0.93536471  -0.57255775  0.88592581  1.0
  O  O36  1  1.06463529  0.57255775  0.11407419  1.0
  O  O37  1  0.42744225  -0.06463529  0.61407419  1.0
  O  O38  1  0.55824995  -0.27021339  0.19177021  1.0
  O  O39  1  1.27021339  0.44175005  0.69177021  1.0
  O  O40  1  0.72978661  -0.44175005  0.30822979  1.0
  O  O41  1  1.44175005  0.27021339  0.80822979  1.0
