# generated using pymatgen
data_H13RuC5SN2(ClO)3
_symmetry_space_group_name_H-M   'P 1'
_cell_length_a   7.97271519
_cell_length_b   10.18277787
_cell_length_c   10.02493515
_cell_angle_alpha   92.41388188
_cell_angle_beta   111.61773885
_cell_angle_gamma   93.95464281
_symmetry_Int_Tables_number   1
_chemical_formula_structural   H13RuC5SN2(ClO)3
_chemical_formula_sum   'H26 Ru2 C10 S2 N4 Cl6 O6'
_cell_volume   752.81786392
_cell_formula_units_Z   2
loop_
 _symmetry_equiv_pos_site_id
 _symmetry_equiv_pos_as_xyz
  1  'x, y, z'
loop_
 _atom_site_type_symbol
 _atom_site_label
 _atom_site_symmetry_multiplicity
 _atom_site_fract_x
 _atom_site_fract_y
 _atom_site_fract_z
 _atom_site_occupancy
  H  H0  1  -0.81209647  -0.11573855  -0.36960892  1.0
  H  H1  1  -0.18790353  -0.88426145  -0.63039108  1.0
  H  H2  1  -0.81496863  -0.20703009  -0.21869333  1.0
  H  H3  1  -0.18503137  -0.79296991  -0.78130667  1.0
  H  H4  1  -0.91894909  -0.28412000  -0.39836205  1.0
  H  H5  1  -0.08105091  -0.71588000  -0.60163795  1.0
  H  H6  1  -0.13924471  -0.92852780  -0.24309618  1.0
  H  H7  1  -0.86075529  -0.07147220  -0.75690382  1.0
  H  H8  1  -0.94123521  0.00013977  -0.12943722  1.0
  H  H9  1  -0.05876479  -1.00013977  -0.87056278  1.0
  H  H10  1  -0.93608282  -0.91823505  -0.28578422  1.0
  H  H11  1  -0.06391718  -0.08176495  -0.71421578  1.0
  H  H12  1  -0.27886966  -0.54985897  -0.16265097  1.0
  H  H13  1  -0.72113034  -0.45014103  -0.83734903  1.0
  H  H14  1  -0.34375686  -0.74967891  -0.11487208  1.0
  H  H15  1  -0.65624314  -0.25032109  -0.88512792  1.0
  H  H16  1  -0.52160282  -0.77236729  -0.04713680  1.0
  H  H17  1  -0.47839718  -0.22763271  -0.95286320  1.0
  H  H18  1  -0.56626688  -0.81335744  -0.23299414  1.0
  H  H19  1  -0.43373312  -0.18664256  -0.76700586  1.0
  H  H20  1  -0.80976657  -0.62859614  -0.31100791  1.0
  H  H21  1  -0.19023343  -0.37140386  -0.68899209  1.0
  H  H22  1  -0.76911170  -0.62689255  -0.12276868  1.0
  H  H23  1  -0.23088830  -0.37310745  -0.87723132  1.0
  H  H24  1  -0.73486823  -0.47769681  -0.20182466  1.0
  H  H25  1  -0.26513177  -0.52230319  -0.79817534  1.0
  Ru  Ru26  1  -0.28338953  -0.26993045  -0.27989023  1.0
  Ru  Ru27  1  -0.71661047  -0.73006955  -0.72010977  1.0
  C  C28  1  -0.41493552  -0.51898837  -0.18331821  1.0
  C  C29  1  -0.58506448  -0.48101163  -0.81668179  1.0
  C  C30  1  -0.88666774  -0.19072458  -0.33214330  1.0
  C  C31  1  -0.11333226  -0.80927542  -0.66785670  1.0
  C  C32  1  -0.01950545  -0.97671783  -0.23981467  1.0
  C  C33  1  -0.98049455  -0.02328217  -0.76018533  1.0
  C  C34  1  -0.48880941  -0.74414875  -0.13996249  1.0
  C  C35  1  -0.51119059  -0.25585125  -0.86003751  1.0
  C  C36  1  -0.72362865  -0.58399856  -0.20362722  1.0
  C  C37  1  -0.27637135  -0.41600144  -0.79637278  1.0
  S  S38  1  -0.09799526  -0.12657199  -0.35316590  1.0
  S  S39  1  -0.90200474  -0.87342801  -0.64683410  1.0
  N  N40  1  -0.46661358  -0.24366161  -0.43524501  1.0
  N  N41  1  -0.53338642  -0.75633839  -0.56475499  1.0
  N  N42  1  -0.53561866  -0.60997888  -0.17276311  1.0
  N  N43  1  -0.46438134  -0.39002112  -0.82723689  1.0
  Cl  Cl44  1  -0.19873123  -0.45315018  -0.39186648  1.0
  Cl  Cl45  1  -0.80126877  -0.54684982  -0.60813352  1.0
  Cl  Cl46  1  -0.36311388  -0.09651010  -0.14913755  1.0
  Cl  Cl47  1  -0.63688612  -0.90348990  -0.85086245  1.0
  Cl  Cl48  1  -0.03684587  -0.29565974  -0.06824689  1.0
  Cl  Cl49  1  -0.96315413  -0.70434026  -0.93175311  1.0
  O  O50  1  -0.18704094  -0.09344404  -0.50470268  1.0
  O  O51  1  -0.81295906  -0.90655596  -0.49529732  1.0
  O  O52  1  -0.45216323  -0.40196171  -0.21369824  1.0
  O  O53  1  -0.54783677  -0.59803829  -0.78630176  1.0
  O  O54  1  -0.58602750  -0.21951519  -0.53619853  1.0
  O  O55  1  -0.41397250  -0.78048481  -0.46380147  1.0
