# generated using pymatgen
data_Cs2SnN6
_symmetry_space_group_name_H-M   'P 1'
_cell_length_a   6.88507329
_cell_length_b   6.88507329
_cell_length_c   5.06806824
_cell_angle_alpha   90.00000000
_cell_angle_beta   90.00000000
_cell_angle_gamma   120.00000000
_symmetry_Int_Tables_number   1
_chemical_formula_structural   Cs2SnN6
_chemical_formula_sum   'Cs2 Sn1 N6'
_cell_volume   208.06077894
_cell_formula_units_Z   1
loop_
 _symmetry_equiv_pos_site_id
 _symmetry_equiv_pos_as_xyz
  1  'x, y, z'
loop_
 _atom_site_type_symbol
 _atom_site_label
 _atom_site_symmetry_multiplicity
 _atom_site_fract_x
 _atom_site_fract_y
 _atom_site_fract_z
 _atom_site_occupancy
  Cs  Cs0  1  0.33333333  0.66666667  0.28160416  1.0
  Cs  Cs1  1  0.66666667  0.33333333  0.71839584  1.0
  Sn  Sn2  1  -0.00000000  -0.00000000  -0.00000000  1.0
  N  N3  1  0.84903238  0.69787297  0.23894191  1.0
  N  N4  1  0.69787297  0.84884059  0.76105809  1.0
  N  N5  1  0.84884059  0.15096762  0.23894191  1.0
  N  N6  1  0.30212703  0.15115941  0.23894191  1.0
  N  N7  1  0.15096762  0.30212703  0.76105809  1.0
  N  N8  1  0.15115941  0.84903238  0.76105809  1.0
