# generated using pymatgen
data_Tb2B6Ru
_symmetry_space_group_name_H-M   'P 1'
_cell_length_a   9.13291124
_cell_length_b   11.49846859
_cell_length_c   3.65929793
_cell_angle_alpha   90.00000000
_cell_angle_beta   90.00000000
_cell_angle_gamma   90.00000000
_symmetry_Int_Tables_number   1
_chemical_formula_structural   Tb2B6Ru
_chemical_formula_sum   'Tb8 B24 Ru4'
_cell_volume   384.27931698
_cell_formula_units_Z   4
loop_
 _symmetry_equiv_pos_site_id
 _symmetry_equiv_pos_as_xyz
  1  'x, y, z'
loop_
 _atom_site_type_symbol
 _atom_site_label
 _atom_site_symmetry_multiplicity
 _atom_site_fract_x
 _atom_site_fract_y
 _atom_site_fract_z
 _atom_site_occupancy
  Tb  Tb0  1  0.17679941  0.91352179  0.50000000  1.0
  Tb  Tb1  1  0.67679941  0.58647821  0.50000000  1.0
  Tb  Tb2  1  0.82320059  0.08647821  0.50000000  1.0
  Tb  Tb3  1  0.32320059  0.41352179  0.50000000  1.0
  Tb  Tb4  1  0.05615847  0.62700544  0.50000000  1.0
  Tb  Tb5  1  0.55615847  0.87299456  0.50000000  1.0
  Tb  Tb6  1  0.94384153  0.37299456  0.50000000  1.0
  Tb  Tb7  1  0.44384153  0.12700544  0.50000000  1.0
  B  B8  1  0.44665769  0.56705849  0.00000000  1.0
  B  B9  1  0.94665769  0.93294151  0.00000000  1.0
  B  B10  1  0.55334231  0.43294151  0.00000000  1.0
  B  B11  1  0.05334231  0.06705849  0.00000000  1.0
  B  B12  1  0.39111083  0.96999586  0.00000000  1.0
  B  B13  1  0.89111083  0.53000414  0.00000000  1.0
  B  B14  1  0.60888917  0.03000414  0.00000000  1.0
  B  B15  1  0.10888917  0.46999586  0.00000000  1.0
  B  B16  1  0.36825238  0.81481828  0.00000000  1.0
  B  B17  1  0.86825238  0.68518172  0.00000000  1.0
  B  B18  1  0.63174762  0.18518172  0.00000000  1.0
  B  B19  1  0.13174762  0.31481828  0.00000000  1.0
  B  B20  1  0.25165950  0.58040438  0.00000000  1.0
  B  B21  1  0.75165950  0.91959562  0.00000000  1.0
  B  B22  1  0.74834050  0.41959562  0.00000000  1.0
  B  B23  1  0.24834050  0.08040438  0.00000000  1.0
  B  B24  1  0.20840767  0.73379969  0.00000000  1.0
  B  B25  1  0.70840767  0.76620031  0.00000000  1.0
  B  B26  1  0.79159233  0.26620031  0.00000000  1.0
  B  B27  1  0.29159233  0.23379969  0.00000000  1.0
  B  B28  1  0.01729084  0.78732668  0.00000000  1.0
  B  B29  1  0.51729084  0.71267332  0.00000000  1.0
  B  B30  1  0.98270916  0.21267332  0.00000000  1.0
  B  B31  1  0.48270916  0.28732668  0.00000000  1.0
  Ru  Ru32  1  0.36172947  0.67909695  0.50000000  1.0
  Ru  Ru33  1  0.86172947  0.82090305  0.50000000  1.0
  Ru  Ru34  1  0.63827053  0.32090305  0.50000000  1.0
  Ru  Ru35  1  0.13827053  0.17909695  0.50000000  1.0
