# generated using pymatgen
data_Cd2GeO4
_symmetry_space_group_name_H-M   'P 1'
_cell_length_a   11.39422513
_cell_length_b   6.67001866
_cell_length_c   5.27968822
_cell_angle_alpha   90.00000000
_cell_angle_beta   90.00000000
_cell_angle_gamma   90.00000000
_symmetry_Int_Tables_number   1
_chemical_formula_structural   Cd2GeO4
_chemical_formula_sum   'Cd8 Ge4 O16'
_cell_volume   401.25469084
_cell_formula_units_Z   4
loop_
 _symmetry_equiv_pos_site_id
 _symmetry_equiv_pos_as_xyz
  1  'x, y, z'
loop_
 _atom_site_type_symbol
 _atom_site_label
 _atom_site_symmetry_multiplicity
 _atom_site_fract_x
 _atom_site_fract_y
 _atom_site_fract_z
 _atom_site_occupancy
  Cd  Cd0  1  0.78038168  0.25000000  0.50987328  1.0
  Cd  Cd1  1  0.28038168  0.25000000  0.99012672  1.0
  Cd  Cd2  1  0.21961832  0.75000000  0.49012672  1.0
  Cd  Cd3  1  0.71961832  0.75000000  0.00987328  1.0
  Cd  Cd4  1  0.00000000  0.50000000  -0.00000000  1.0
  Cd  Cd5  1  0.00000000  0.00000000  0.00000000  1.0
  Cd  Cd6  1  0.50000000  0.50000000  0.50000000  1.0
  Cd  Cd7  1  0.50000000  -0.00000000  0.50000000  1.0
  Ge  Ge8  1  0.59808085  0.25000000  0.06643084  1.0
  Ge  Ge9  1  0.09808085  0.25000000  0.43356916  1.0
  Ge  Ge10  1  0.40191915  0.75000000  0.93356916  1.0
  Ge  Ge11  1  0.90191915  0.75000000  0.56643084  1.0
  O  O12  1  0.59708463  0.25000000  0.73227391  1.0
  O  O13  1  0.09708463  0.25000000  0.76772609  1.0
  O  O14  1  0.40291537  0.75000000  0.26772609  1.0
  O  O15  1  0.90291537  0.75000000  0.23227391  1.0
  O  O16  1  0.66496213  0.46097170  0.22019096  1.0
  O  O17  1  0.66496213  0.03902830  0.22019096  1.0
  O  O18  1  0.16496213  0.46097170  0.27980904  1.0
  O  O19  1  0.16496213  0.03902830  0.27980904  1.0
  O  O20  1  0.33503787  0.96097170  0.77980904  1.0
  O  O21  1  0.33503787  0.53902830  0.77980904  1.0
  O  O22  1  0.83503787  0.96097170  0.72019096  1.0
  O  O23  1  0.83503787  0.53902830  0.72019096  1.0
  O  O24  1  0.95335611  0.25000000  0.29004578  1.0
  O  O25  1  0.45335611  0.25000000  0.20995422  1.0
  O  O26  1  0.04664389  0.75000000  0.70995422  1.0
  O  O27  1  0.54664389  0.75000000  0.79004578  1.0
