# generated using pymatgen
data_Cs2Ni(PS3)2
_symmetry_space_group_name_H-M   'P 1'
_cell_length_a   5.97666239
_cell_length_b   13.03648943
_cell_length_c   9.54614926
_cell_angle_alpha   90.00000000
_cell_angle_beta   123.92688789
_cell_angle_gamma   90.00000000
_symmetry_Int_Tables_number   1
_chemical_formula_structural   Cs2Ni(PS3)2
_chemical_formula_sum   'Cs4 Ni2 P4 S12'
_cell_volume   617.15620550
_cell_formula_units_Z   2
loop_
 _symmetry_equiv_pos_site_id
 _symmetry_equiv_pos_as_xyz
  1  'x, y, z'
loop_
 _atom_site_type_symbol
 _atom_site_label
 _atom_site_symmetry_multiplicity
 _atom_site_fract_x
 _atom_site_fract_y
 _atom_site_fract_z
 _atom_site_occupancy
  Ni  Ni0  1  0.00000000  0.50000000  0.50000000  1.0
  Ni  Ni1  1  0.00000000  0.00000000  0.00000000  1.0
  Cs  Cs2  1  0.69955255  0.17204283  0.46728266  1.0
  Cs  Cs3  1  0.69955255  0.32795717  0.96728266  1.0
  Cs  Cs4  1  0.30044745  0.67204283  0.03271734  1.0
  Cs  Cs5  1  0.30044745  0.82795717  0.53271734  1.0
  S  S6  1  0.53689584  0.42780656  0.27189619  1.0
  S  S7  1  0.53689584  0.07219344  0.77189619  1.0
  S  S8  1  0.46310416  0.92780656  0.22810381  1.0
  S  S9  1  0.46310416  0.57219344  0.72810381  1.0
  S  S10  1  0.20323142  0.34637090  0.46013209  1.0
  S  S11  1  0.20323142  0.15362910  0.96013209  1.0
  S  S12  1  0.79676858  0.84637090  0.03986791  1.0
  S  S13  1  0.79676858  0.65362910  0.53986791  1.0
  S  S14  1  0.96764410  0.06719550  0.23017233  1.0
  S  S15  1  0.96764410  0.43280450  0.73017233  1.0
  S  S16  1  0.03235590  0.56719550  0.26982767  1.0
  S  S17  1  0.03235590  0.93280450  0.76982767  1.0
  P  P18  1  0.33736843  0.46242004  0.38165657  1.0
  P  P19  1  0.33736843  0.03757996  0.88165657  1.0
  P  P20  1  0.66263157  0.96242004  0.11834343  1.0
  P  P21  1  0.66263157  0.53757996  0.61834343  1.0
