# generated using pymatgen
data_H4CS(NO)3
_symmetry_space_group_name_H-M   'P 1'
_cell_length_a   7.01380435
_cell_length_b   7.01380435
_cell_length_c   11.91726837
_cell_angle_alpha   85.07985873
_cell_angle_beta   94.92014127
_cell_angle_gamma   98.62402579
_symmetry_Int_Tables_number   1
_chemical_formula_structural   H4CS(NO)3
_chemical_formula_sum   'H16 C4 S4 N12 O12'
_cell_volume   575.90348986
_cell_formula_units_Z   4
loop_
 _symmetry_equiv_pos_site_id
 _symmetry_equiv_pos_as_xyz
  1  'x, y, z'
loop_
 _atom_site_type_symbol
 _atom_site_label
 _atom_site_symmetry_multiplicity
 _atom_site_fract_x
 _atom_site_fract_y
 _atom_site_fract_z
 _atom_site_occupancy
  H  H0  1  0.77335578  -0.01543439  0.92987458  1.0
  H  H1  1  1.01543439  0.22664422  0.42987458  1.0
  H  H2  1  0.98456561  -0.22664422  0.57012542  1.0
  H  H3  1  1.22664422  0.01543439  0.07012542  1.0
  H  H4  1  1.72293822  0.04841969  0.21716439  1.0
  H  H5  1  0.95158031  -0.72293822  0.71716439  1.0
  H  H6  1  1.04841969  0.72293822  0.28283561  1.0
  H  H7  1  0.27706178  -0.04841969  0.78283561  1.0
  H  H8  1  1.74562297  0.16202637  0.08019355  1.0
  H  H9  1  0.83797363  -0.74562297  0.58019355  1.0
  H  H10  1  1.16202637  0.74562297  0.41980645  1.0
  H  H11  1  0.25437703  -0.16202637  0.91980645  1.0
  H  H12  1  1.26995426  0.23815840  0.44555737  1.0
  H  H13  1  0.76184160  -0.26995426  0.94555737  1.0
  H  H14  1  1.23815840  0.26995426  0.05444263  1.0
  H  H15  1  0.73004574  -0.23815840  0.55444263  1.0
  C  C16  1  0.73734882  -0.13082873  0.08983199  1.0
  C  C17  1  1.13082873  0.26265118  0.58983199  1.0
  C  C18  1  0.86917127  -0.26265118  0.41016801  1.0
  C  C19  1  1.26265118  0.13082873  0.91016801  1.0
  S  S20  1  0.64261488  -0.28914134  0.32674215  1.0
  S  S21  1  1.28914134  0.35738512  0.82674215  1.0
  S  S22  1  0.71085866  -0.35738512  0.17325785  1.0
  S  S23  1  1.35738512  0.28914134  0.67325785  1.0
  N  N24  1  0.75719669  -0.14225420  0.98120261  1.0
  N  N25  1  1.14225420  0.24280331  0.48120261  1.0
  N  N26  1  0.85774580  -0.24280331  0.51879739  1.0
  N  N27  1  1.24280331  0.14225420  0.01879739  1.0
  N  N28  1  1.73569646  0.03504002  0.13292434  1.0
  N  N29  1  0.96495998  -0.73569646  0.63292434  1.0
  N  N30  1  1.03504002  0.73569646  0.36707566  1.0
  N  N31  1  0.26430354  -0.03504002  0.86707566  1.0
  N  N32  1  1.61003732  0.20653418  0.39547436  1.0
  N  N33  1  0.79346582  -0.61003732  0.89547436  1.0
  N  N34  1  1.20653418  0.61003732  0.10452564  1.0
  N  N35  1  0.38996268  -0.20653418  0.60452564  1.0
  O  O36  1  1.76544082  0.18764946  0.35194116  1.0
  O  O37  1  0.81235054  -0.76544082  0.85194116  1.0
  O  O38  1  1.18764946  0.76544082  0.14805884  1.0
  O  O39  1  0.23455918  -0.18764946  0.64805884  1.0
  O  O40  1  1.61811309  0.24997282  0.49714264  1.0
  O  O41  1  0.75002718  -0.61811309  0.99714264  1.0
  O  O42  1  1.24997282  0.61811309  0.00285736  1.0
  O  O43  1  0.38188691  -0.24997282  0.50285736  1.0
  O  O44  1  1.45139969  0.18372802  0.33870406  1.0
  O  O45  1  0.81627198  -0.45139969  0.83870406  1.0
  O  O46  1  1.18372802  0.45139969  0.16129594  1.0
  O  O47  1  0.54860031  -0.18372802  0.66129594  1.0
