# generated using pymatgen
data_NaCuO
_symmetry_space_group_name_H-M   'P 1'
_cell_length_a   8.50431304
_cell_length_b   8.50431304
_cell_length_c   3.99947864
_cell_angle_alpha   90.00000000
_cell_angle_beta   90.00000000
_cell_angle_gamma   90.00000000
_symmetry_Int_Tables_number   1
_chemical_formula_structural   NaCuO
_chemical_formula_sum   'Na4 Cu4 O4'
_cell_volume   289.25565432
_cell_formula_units_Z   4
loop_
 _symmetry_equiv_pos_site_id
 _symmetry_equiv_pos_as_xyz
  1  'x, y, z'
loop_
 _atom_site_type_symbol
 _atom_site_label
 _atom_site_symmetry_multiplicity
 _atom_site_fract_x
 _atom_site_fract_y
 _atom_site_fract_z
 _atom_site_occupancy
  Na  Na0  1  0.83034177  0.50002284  0.00000000  1.0
  Na  Na1  1  0.50002284  0.16965823  0.00000000  1.0
  Na  Na2  1  0.16965823  0.49997716  0.00000000  1.0
  Na  Na3  1  0.49997716  0.83034177  0.00000000  1.0
  Cu  Cu4  1  0.84675368  0.84673510  0.00000000  1.0
  Cu  Cu5  1  0.84673510  0.15324632  0.00000000  1.0
  Cu  Cu6  1  0.15324632  0.15326490  0.00000000  1.0
  Cu  Cu7  1  0.15326490  0.84675368  0.00000000  1.0
  O  O8  1  0.00002007  0.69817391  0.00000000  1.0
  O  O9  1  0.69817391  -0.00002007  0.00000000  1.0
  O  O10  1  -0.00002007  0.30182609  0.00000000  1.0
  O  O11  1  0.30182609  0.00002007  0.00000000  1.0
