# generated using pymatgen
data_Bi3Te4
_symmetry_space_group_name_H-M   'P 1'
_cell_length_a   13.62937307
_cell_length_b   13.62937307
_cell_length_c   13.62937307
_cell_angle_alpha   19.53262493
_cell_angle_beta   19.53262493
_cell_angle_gamma   19.53262493
_symmetry_Int_Tables_number   1
_chemical_formula_structural   Bi3Te4
_chemical_formula_sum   'Bi3 Te4'
_cell_volume   247.47366821
_cell_formula_units_Z   1
loop_
 _symmetry_equiv_pos_site_id
 _symmetry_equiv_pos_as_xyz
  1  'x, y, z'
loop_
 _atom_site_type_symbol
 _atom_site_label
 _atom_site_symmetry_multiplicity
 _atom_site_fract_x
 _atom_site_fract_y
 _atom_site_fract_z
 _atom_site_occupancy
  Bi  Bi0  1  1.57218384  0.57218384  0.57218384  1.0
  Bi  Bi1  1  1.42781616  0.42781616  0.42781616  1.0
  Bi  Bi2  1  0.00000000  -0.00000000  0.00000000  1.0
  Te  Te3  1  0.86623843  0.86623843  0.86623843  1.0
  Te  Te4  1  1.13376157  1.13376157  0.13376157  1.0
  Te  Te5  1  0.71063743  0.71063743  0.71063743  1.0
  Te  Te6  1  1.28936257  1.28936257  0.28936257  1.0
