# generated using pymatgen
data_SbH2(NF2)3
_symmetry_space_group_name_H-M   'P 1'
_cell_length_a   6.12958407
_cell_length_b   5.44000664
_cell_length_c   10.53421754
_cell_angle_alpha   90.00000000
_cell_angle_beta   90.00000000
_cell_angle_gamma   90.00000000
_symmetry_Int_Tables_number   1
_chemical_formula_structural   SbH2(NF2)3
_chemical_formula_sum   'Sb2 H4 N6 F12'
_cell_volume   351.26325296
_cell_formula_units_Z   2
loop_
 _symmetry_equiv_pos_site_id
 _symmetry_equiv_pos_as_xyz
  1  'x, y, z'
loop_
 _atom_site_type_symbol
 _atom_site_label
 _atom_site_symmetry_multiplicity
 _atom_site_fract_x
 _atom_site_fract_y
 _atom_site_fract_z
 _atom_site_occupancy
  Sb  Sb0  1  0.00000000  0.61728123  0.38411838  1.0
  Sb  Sb1  1  0.00000000  0.38271877  0.88411838  1.0
  H  H2  1  0.64522196  0.78715923  0.73280176  1.0
  H  H3  1  0.64522196  0.21284077  0.23280176  1.0
  H  H4  1  0.35477804  0.78715923  0.73280176  1.0
  H  H5  1  0.35477804  0.21284077  0.23280176  1.0
  N  N6  1  0.50000000  0.88630676  0.72173902  1.0
  N  N7  1  0.50000000  0.11369324  0.22173902  1.0
  N  N8  1  0.50000000  0.94649207  0.13863909  1.0
  N  N9  1  0.50000000  0.05350793  0.63863909  1.0
  N  N10  1  0.50000000  0.78851511  0.07041798  1.0
  N  N11  1  0.50000000  0.21148489  0.57041798  1.0
  F  F12  1  0.77828914  0.47171865  0.27406426  1.0
  F  F13  1  0.77828914  0.52828135  0.77406426  1.0
  F  F14  1  0.22171086  0.47171865  0.27406426  1.0
  F  F15  1  0.22171086  0.52828135  0.77406426  1.0
  F  F16  1  0.77383921  0.76054780  0.48591886  1.0
  F  F17  1  0.77383921  0.23945220  0.98591886  1.0
  F  F18  1  0.22616079  0.76054780  0.48591886  1.0
  F  F19  1  0.22616079  0.23945220  0.98591886  1.0
  F  F20  1  0.00000000  0.89933872  0.27388134  1.0
  F  F21  1  0.00000000  0.10066128  0.77388134  1.0
  F  F22  1  0.00000000  0.67405517  -0.01466556  1.0
  F  F23  1  0.00000000  0.32594483  0.48533444  1.0
