# generated using pymatgen
data_Fe3O4
_symmetry_space_group_name_H-M   'P 1'
_cell_length_a   6.40146312
_cell_length_b   6.40146312
_cell_length_c   6.40146312
_cell_angle_alpha   60.00000000
_cell_angle_beta   60.00000000
_cell_angle_gamma   60.00000000
_symmetry_Int_Tables_number   1
_chemical_formula_structural   Fe3O4
_chemical_formula_sum   'Fe6 O8'
_cell_volume   185.49095896
_cell_formula_units_Z   2
loop_
 _symmetry_equiv_pos_site_id
 _symmetry_equiv_pos_as_xyz
  1  'x, y, z'
loop_
 _atom_site_type_symbol
 _atom_site_label
 _atom_site_symmetry_multiplicity
 _atom_site_fract_x
 _atom_site_fract_y
 _atom_site_fract_z
 _atom_site_occupancy
  O  O0  1  0.12977607  0.12977607  0.12977607  1.0
  O  O1  1  0.61067179  0.12977607  0.12977607  1.0
  O  O2  1  0.12977607  0.12977607  0.61067179  1.0
  O  O3  1  0.12977607  0.61067179  0.12977607  1.0
  O  O4  1  -0.39015722  0.60984278  0.60984278  1.0
  O  O5  1  1.17047166  0.60984278  -0.39015722  1.0
  O  O6  1  -0.39015722  0.60984278  1.17047166  1.0
  O  O7  1  0.60984278  1.17047166  -0.39015722  1.0
  Fe  Fe8  1  -0.00000000  0.00000000  -0.00000000  1.0
  Fe  Fe9  1  0.35473485  1.35473485  0.35473485  1.0
  Fe  Fe10  1  -0.06420456  0.35473485  0.35473485  1.0
  Fe  Fe11  1  0.35473485  1.35473485  -0.06420456  1.0
  Fe  Fe12  1  0.35473485  -0.06420456  0.35473485  1.0
  Fe  Fe13  1  -0.50000000  0.50000000  0.50000000  1.0
