# generated using pymatgen
data_Sr3Fe2O5
_symmetry_space_group_name_H-M   'P 1'
_cell_length_a   10.53819320
_cell_length_b   10.53819320
_cell_length_c   10.53819320
_cell_angle_alpha   160.38325735
_cell_angle_beta   158.67699026
_cell_angle_gamma   29.13150624
_symmetry_Int_Tables_number   1
_chemical_formula_structural   Sr3Fe2O5
_chemical_formula_sum   'Sr3 Fe2 O5'
_cell_volume   142.79354261
_cell_formula_units_Z   1
loop_
 _symmetry_equiv_pos_site_id
 _symmetry_equiv_pos_as_xyz
  1  'x, y, z'
loop_
 _atom_site_type_symbol
 _atom_site_label
 _atom_site_symmetry_multiplicity
 _atom_site_fract_x
 _atom_site_fract_y
 _atom_site_fract_z
 _atom_site_occupancy
  Sr  Sr0  1  0.68484189  0.68484189  1.00000000  1.0
  Sr  Sr1  1  0.31515811  0.31515811  0.00000000  1.0
  Sr  Sr2  1  0.50000000  0.50000000  1.00000000  1.0
  O  O3  1  0.80966612  0.80966612  1.00000000  1.0
  O  O4  1  0.19033388  0.19033388  -0.00000000  1.0
  O  O5  1  0.59498595  0.09498595  0.50000000  1.0
  O  O6  1  0.40501405  0.90501405  0.50000000  1.0
  O  O7  1  0.00000000  0.00000000  0.00000000  1.0
  Fe  Fe8  1  0.90478810  0.90478810  1.00000000  1.0
  Fe  Fe9  1  0.09521190  0.09521190  -0.00000000  1.0
