# generated using pymatgen
data_Nb(BO)2
_symmetry_space_group_name_H-M   'P 1'
_cell_length_a   7.52822786
_cell_length_b   7.52822786
_cell_length_c   7.52822786
_cell_angle_alpha   102.59736011
_cell_angle_beta   102.59736011
_cell_angle_gamma   124.31924179
_symmetry_Int_Tables_number   1
_chemical_formula_structural   Nb(BO)2
_chemical_formula_sum   'Nb4 B8 O8'
_cell_volume   311.59217945
_cell_formula_units_Z   4
loop_
 _symmetry_equiv_pos_site_id
 _symmetry_equiv_pos_as_xyz
  1  'x, y, z'
loop_
 _atom_site_type_symbol
 _atom_site_label
 _atom_site_symmetry_multiplicity
 _atom_site_fract_x
 _atom_site_fract_y
 _atom_site_fract_z
 _atom_site_occupancy
  Nb  Nb0  1  1.37500000  1.12500000  1.25000000  1.0
  Nb  Nb1  1  0.87500000  1.12500000  0.75000000  1.0
  Nb  Nb2  1  0.87500000  1.12500000  0.25000000  1.0
  Nb  Nb3  1  0.87500000  1.62500000  0.75000000  1.0
  B  B4  1  0.96022962  1.37410886  0.58612076  1.0
  B  B5  1  0.96201189  0.87589114  0.08612076  1.0
  B  B6  1  0.78798811  0.37410886  0.41387924  1.0
  B  B7  1  1.78977038  0.87589114  0.91387924  1.0
  B  B8  1  0.62589114  0.21201189  0.58612076  1.0
  B  B9  1  1.12410886  1.21022962  1.08612076  1.0
  B  B10  1  0.62589114  1.03977038  0.41387924  1.0
  B  B11  1  1.12410886  1.03798811  0.91387924  1.0
  O  O12  1  1.13920524  1.40848559  0.73071965  1.0
  O  O13  1  1.07223405  0.84151441  1.23071965  1.0
  O  O14  1  0.67776595  0.40848559  0.26928035  1.0
  O  O15  1  0.61079476  0.84151441  0.76928035  1.0
  O  O16  1  0.59151441  0.32223405  0.73071965  1.0
  O  O17  1  1.15848559  1.38920524  0.23071965  1.0
  O  O18  1  0.59151441  0.86079476  0.26928035  1.0
  O  O19  1  1.15848559  1.92776595  0.76928035  1.0
