# generated using pymatgen
data_K2Te2Pt
_symmetry_space_group_name_H-M   'P 1'
_cell_length_a   6.88274092
_cell_length_b   6.88274092
_cell_length_c   6.88274092
_cell_angle_alpha   145.85973954
_cell_angle_beta   109.16185537
_cell_angle_gamma   81.03076877
_symmetry_Int_Tables_number   1
_chemical_formula_structural   K2Te2Pt
_chemical_formula_sum   'K2 Te2 Pt1'
_cell_volume   168.67595351
_cell_formula_units_Z   1
loop_
 _symmetry_equiv_pos_site_id
 _symmetry_equiv_pos_as_xyz
  1  'x, y, z'
loop_
 _atom_site_type_symbol
 _atom_site_label
 _atom_site_symmetry_multiplicity
 _atom_site_fract_x
 _atom_site_fract_y
 _atom_site_fract_z
 _atom_site_occupancy
  K  K0  1  0.70745241  0.20745241  0.50000000  1.0
  K  K1  1  1.29254759  0.79254759  0.50000000  1.0
  Te  Te2  1  0.22154692  0.50000000  0.72154692  1.0
  Te  Te3  1  0.77845308  0.50000000  1.27845308  1.0
  Pt  Pt4  1  0.00000000  0.00000000  0.00000000  1.0
