# generated using pymatgen
data_CsPPbO4
_symmetry_space_group_name_H-M   'P 1'
_cell_length_a   9.84468648
_cell_length_b   5.75513722
_cell_length_c   9.68753451
_cell_angle_alpha   90.00000000
_cell_angle_beta   90.00000000
_cell_angle_gamma   90.00000000
_symmetry_Int_Tables_number   1
_chemical_formula_structural   CsPPbO4
_chemical_formula_sum   'Cs4 P4 Pb4 O16'
_cell_volume   548.87169564
_cell_formula_units_Z   4
loop_
 _symmetry_equiv_pos_site_id
 _symmetry_equiv_pos_as_xyz
  1  'x, y, z'
loop_
 _atom_site_type_symbol
 _atom_site_label
 _atom_site_symmetry_multiplicity
 _atom_site_fract_x
 _atom_site_fract_y
 _atom_site_fract_z
 _atom_site_occupancy
  Cs  Cs0  1  0.02232578  0.75000000  0.16248491  1.0
  Cs  Cs1  1  0.52232578  0.75000000  0.33751509  1.0
  Cs  Cs2  1  0.97767422  0.25000000  0.83751509  1.0
  Cs  Cs3  1  0.47767422  0.25000000  0.66248491  1.0
  P  P4  1  0.32393486  0.75000000  0.92306889  1.0
  P  P5  1  0.82393486  0.75000000  0.57693111  1.0
  P  P6  1  0.67606514  0.25000000  0.07693111  1.0
  P  P7  1  0.17606514  0.25000000  0.42306889  1.0
  Pb  Pb8  1  0.15719615  0.75000000  0.59060682  1.0
  Pb  Pb9  1  0.65719615  0.75000000  0.90939318  1.0
  Pb  Pb10  1  0.84280385  0.25000000  0.40939318  1.0
  Pb  Pb11  1  0.34280385  0.25000000  0.09060682  1.0
  O  O12  1  0.23361800  0.97237336  0.94706638  1.0
  O  O13  1  0.23361800  0.52762664  0.94706638  1.0
  O  O14  1  0.73361800  0.97237336  0.55293362  1.0
  O  O15  1  0.73361800  0.52762664  0.55293362  1.0
  O  O16  1  0.76638200  0.47237336  0.05293362  1.0
  O  O17  1  0.76638200  0.02762664  0.05293362  1.0
  O  O18  1  0.26638200  0.47237336  0.44706638  1.0
  O  O19  1  0.26638200  0.02762664  0.44706638  1.0
  O  O20  1  0.38559590  0.75000000  0.77583195  1.0
  O  O21  1  0.88559590  0.75000000  0.72416805  1.0
  O  O22  1  0.61440410  0.25000000  0.22416805  1.0
  O  O23  1  0.11440410  0.25000000  0.27583195  1.0
  O  O24  1  0.43989987  0.75000000  0.03601526  1.0
  O  O25  1  0.93989987  0.75000000  0.46398474  1.0
  O  O26  1  0.56010013  0.25000000  0.96398474  1.0
  O  O27  1  0.06010013  0.25000000  0.53601526  1.0
