# generated using pymatgen
data_Rb2TiO3
_symmetry_space_group_name_H-M   'P 1'
_cell_length_a   6.78261189
_cell_length_b   6.78261189
_cell_length_c   13.54160666
_cell_angle_alpha   90.00000000
_cell_angle_beta   90.00000000
_cell_angle_gamma   126.73346536
_symmetry_Int_Tables_number   1
_chemical_formula_structural   Rb2TiO3
_chemical_formula_sum   'Rb8 Ti4 O12'
_cell_volume   499.26117988
_cell_formula_units_Z   4
loop_
 _symmetry_equiv_pos_site_id
 _symmetry_equiv_pos_as_xyz
  1  'x, y, z'
loop_
 _atom_site_type_symbol
 _atom_site_label
 _atom_site_symmetry_multiplicity
 _atom_site_fract_x
 _atom_site_fract_y
 _atom_site_fract_z
 _atom_site_occupancy
  Rb  Rb0  1  0.05776582  0.94223418  0.63632679  1.0
  Rb  Rb1  1  -0.44223418  0.44223418  0.86367321  1.0
  Rb  Rb2  1  -0.05776582  0.05776582  0.36367321  1.0
  Rb  Rb3  1  0.44223418  0.55776582  0.13632679  1.0
  Rb  Rb4  1  0.36689249  0.63310751  0.57383039  1.0
  Rb  Rb5  1  -0.13310751  0.13310751  0.92616961  1.0
  Rb  Rb6  1  -0.36689249  0.36689249  0.42616961  1.0
  Rb  Rb7  1  0.13310751  0.86689249  0.07383039  1.0
  Ti  Ti8  1  0.24379473  0.75620527  0.82936041  1.0
  Ti  Ti9  1  -0.25620527  0.25620527  0.67063959  1.0
  Ti  Ti10  1  -0.24379473  0.24379473  0.17063959  1.0
  Ti  Ti11  1  0.25620527  0.74379473  0.32936041  1.0
  O  O12  1  0.10219765  0.89780235  0.86398819  1.0
  O  O13  1  -0.39780235  0.39780235  0.63601181  1.0
  O  O14  1  -0.10219765  0.10219765  0.13601181  1.0
  O  O15  1  0.39780235  0.60219765  0.36398819  1.0
  O  O16  1  0.33169044  0.66830956  0.93443624  1.0
  O  O17  1  -0.16830956  0.16830956  0.56556376  1.0
  O  O18  1  -0.33169044  0.33169044  0.06556376  1.0
  O  O19  1  0.16830956  0.83169044  0.43443624  1.0
  O  O20  1  0.02277523  0.47722477  0.75000000  1.0
  O  O21  1  0.52277523  0.97722477  0.75000000  1.0
  O  O22  1  0.47722477  1.02277523  0.25000000  1.0
  O  O23  1  -0.02277523  0.52277523  0.25000000  1.0
