# generated using pymatgen
data_Cs2PdCl4
_symmetry_space_group_name_H-M   'P 1'
_cell_length_a   7.60487824
_cell_length_b   7.60487824
_cell_length_c   9.44772736
_cell_angle_alpha   90.00000000
_cell_angle_beta   90.00000000
_cell_angle_gamma   89.94367614
_symmetry_Int_Tables_number   1
_chemical_formula_structural   Cs2PdCl4
_chemical_formula_sum   'Cs4 Pd2 Cl8'
_cell_volume   546.40123434
_cell_formula_units_Z   2
loop_
 _symmetry_equiv_pos_site_id
 _symmetry_equiv_pos_as_xyz
  1  'x, y, z'
loop_
 _atom_site_type_symbol
 _atom_site_label
 _atom_site_symmetry_multiplicity
 _atom_site_fract_x
 _atom_site_fract_y
 _atom_site_fract_z
 _atom_site_occupancy
  Cs  Cs0  1  0.00000458  1.49995852  0.25000000  1.0
  Cs  Cs1  1  0.49995852  1.00000458  0.75000000  1.0
  Cs  Cs2  1  -0.49995852  0.99999542  0.25000000  1.0
  Cs  Cs3  1  -0.00000458  0.50004148  0.75000000  1.0
  Pd  Pd4  1  0.00000000  0.00000000  0.50000000  1.0
  Pd  Pd5  1  0.00000000  0.00000000  0.00000000  1.0
  Cl  Cl6  1  0.21705447  0.78294553  0.49998321  1.0
  Cl  Cl7  1  0.21705447  0.78294553  0.00001679  1.0
  Cl  Cl8  1  -0.21705447  1.21705447  0.99998321  1.0
  Cl  Cl9  1  -0.21705447  1.21705447  0.50001679  1.0
  Cl  Cl10  1  0.78312337  0.78312337  0.50000000  1.0
  Cl  Cl11  1  0.78312337  0.78312337  0.00000000  1.0
  Cl  Cl12  1  0.21687663  0.21687663  0.50000000  1.0
  Cl  Cl13  1  0.21687663  0.21687663  0.00000000  1.0
