# generated using pymatgen
data_YAg3(PS4)2
_symmetry_space_group_name_H-M   'P 1'
_cell_length_a   9.84571481
_cell_length_b   9.84571481
_cell_length_c   9.47311324
_cell_angle_alpha   60.61928379
_cell_angle_beta   119.38071621
_cell_angle_gamma   123.28713347
_symmetry_Int_Tables_number   1
_chemical_formula_structural   YAg3(PS4)2
_chemical_formula_sum   'Y2 Ag6 P4 S16'
_cell_volume   637.27394570
_cell_formula_units_Z   2
loop_
 _symmetry_equiv_pos_site_id
 _symmetry_equiv_pos_as_xyz
  1  'x, y, z'
loop_
 _atom_site_type_symbol
 _atom_site_label
 _atom_site_symmetry_multiplicity
 _atom_site_fract_x
 _atom_site_fract_y
 _atom_site_fract_z
 _atom_site_occupancy
  Y  Y0  1  0.96532754  0.96532754  0.75000000  1.0
  Y  Y1  1  0.03467246  0.03467246  0.25000000  1.0
  Ag  Ag2  1  1.53866494  0.23498276  0.77560221  1.0
  Ag  Ag3  1  0.76501724  -0.53866494  0.27560221  1.0
  Ag  Ag4  1  1.23498276  -0.46133506  0.72439779  1.0
  Ag  Ag5  1  1.46133506  -0.23498276  0.22439779  1.0
  Ag  Ag6  1  0.57033007  0.57033007  0.75000000  1.0
  Ag  Ag7  1  0.42966993  0.42966993  0.25000000  1.0
  P  P8  1  1.66136833  -0.14404565  0.93203553  1.0
  P  P9  1  1.14404565  -0.66136833  0.43203553  1.0
  P  P10  1  0.85595435  -0.33863167  0.56796447  1.0
  P  P11  1  1.33863167  0.14404565  0.06796447  1.0
  S  S12  1  1.78204609  -0.13404781  0.41681988  1.0
  S  S13  1  1.13404781  -0.78204609  0.91681988  1.0
  S  S14  1  0.86595219  -0.21795391  0.08318012  1.0
  S  S15  1  1.21795391  0.13404781  0.58318012  1.0
  S  S16  1  1.42922996  -0.31979268  0.97722900  1.0
  S  S17  1  1.31979268  -0.42922996  0.47722900  1.0
  S  S18  1  0.68020732  -0.57077004  0.52277100  1.0
  S  S19  1  1.57077004  0.31979268  0.02277100  1.0
  S  S20  1  1.62967248  -0.10484683  0.68572751  1.0
  S  S21  1  1.10484683  -0.62967248  0.18572751  1.0
  S  S22  1  0.89515317  -0.37032752  0.81427249  1.0
  S  S23  1  1.37032752  0.10484683  0.31427249  1.0
  S  S24  1  1.74171500  0.07644709  0.97633222  1.0
  S  S25  1  0.92355291  -0.74171500  0.47633222  1.0
  S  S26  1  1.07644709  -0.25828500  0.52366778  1.0
  S  S27  1  1.25828500  -0.07644709  0.02366778  1.0
