# generated using pymatgen
data_Te
_symmetry_space_group_name_H-M   'P 1'
_cell_length_a   6.36846987
_cell_length_b   6.36846987
_cell_length_c   6.36846987
_cell_angle_alpha   60.00000000
_cell_angle_beta   60.00000000
_cell_angle_gamma   60.00000000
_symmetry_Int_Tables_number   1
_chemical_formula_structural   Te
_chemical_formula_sum   Te4
_cell_volume   182.63764496
_cell_formula_units_Z   4
loop_
 _symmetry_equiv_pos_site_id
 _symmetry_equiv_pos_as_xyz
  1  'x, y, z'
loop_
 _atom_site_type_symbol
 _atom_site_label
 _atom_site_symmetry_multiplicity
 _atom_site_fract_x
 _atom_site_fract_y
 _atom_site_fract_z
 _atom_site_occupancy
  Te  Te0  1  0.62500000  -0.37500000  1.12500000  1.0
  Te  Te1  1  0.62500000  0.12500000  0.62500000  1.0
  Te  Te2  1  0.62500000  -0.37500000  0.62500000  1.0
  Te  Te3  1  1.12500000  -0.37500000  0.62500000  1.0
