# generated using pymatgen
data_Sr2Br2Cl
_symmetry_space_group_name_H-M   'P 1'
_cell_length_a   14.54975823
_cell_length_b   14.54975823
_cell_length_c   8.27157426
_cell_angle_alpha   90.00000000
_cell_angle_beta   90.00000000
_cell_angle_gamma   90.00000000
_symmetry_Int_Tables_number   1
_chemical_formula_structural   Sr2Br2Cl
_chemical_formula_sum   'Sr16 Br16 Cl8'
_cell_volume   1751.05475444
_cell_formula_units_Z   8
loop_
 _symmetry_equiv_pos_site_id
 _symmetry_equiv_pos_as_xyz
  1  'x, y, z'
loop_
 _atom_site_type_symbol
 _atom_site_label
 _atom_site_symmetry_multiplicity
 _atom_site_fract_x
 _atom_site_fract_y
 _atom_site_fract_z
 _atom_site_occupancy
  Sr  Sr0  1  0.35972910  0.85958287  0.75055452  1.0
  Sr  Sr1  1  0.85972910  0.35958287  0.24944548  1.0
  Sr  Sr2  1  0.85958287  0.64027090  0.24944548  1.0
  Sr  Sr3  1  0.35958287  0.14027090  0.75055452  1.0
  Sr  Sr4  1  0.64027090  0.14041713  0.75055452  1.0
  Sr  Sr5  1  0.14027090  0.64041713  0.24944548  1.0
  Sr  Sr6  1  0.14041713  0.35972910  0.24944548  1.0
  Sr  Sr7  1  0.64041713  0.85972910  0.75055452  1.0
  Sr  Sr8  1  0.14044658  0.35977365  0.74932897  1.0
  Sr  Sr9  1  0.64044658  0.85977365  0.25067103  1.0
  Sr  Sr10  1  0.35977365  0.85955342  0.25067103  1.0
  Sr  Sr11  1  0.85977365  0.35955342  0.74932897  1.0
  Sr  Sr12  1  0.85955342  0.64022635  0.74932897  1.0
  Sr  Sr13  1  0.35955342  0.14022635  0.25067103  1.0
  Sr  Sr14  1  0.64022635  0.14044658  0.25067103  1.0
  Sr  Sr15  1  0.14022635  0.64044658  0.74932897  1.0
  Br  Br16  1  0.49988462  0.22361938  0.50084415  1.0
  Br  Br17  1  0.99988462  0.72361938  0.49915585  1.0
  Br  Br18  1  0.22361938  0.50011538  0.49915585  1.0
  Br  Br19  1  0.72361938  0.00011538  0.50084415  1.0
  Br  Br20  1  0.50011538  0.77638062  0.50084415  1.0
  Br  Br21  1  0.00011538  0.27638062  0.49915585  1.0
  Br  Br22  1  0.77638062  0.49988462  0.49915585  1.0
  Br  Br23  1  0.27638062  0.99988462  0.50084415  1.0
  Br  Br24  1  0.22330188  0.50011584  0.99916014  1.0
  Br  Br25  1  0.72330188  1.00011584  0.00083986  1.0
  Br  Br26  1  0.50011584  0.77669812  0.00083986  1.0
  Br  Br27  1  1.00011584  0.27669812  0.99916014  1.0
  Br  Br28  1  0.77669812  0.49988416  0.99916014  1.0
  Br  Br29  1  0.27669812  -0.00011584  0.00083986  1.0
  Br  Br30  1  0.49988416  0.22330188  0.00083986  1.0
  Br  Br31  1  -0.00011584  0.72330188  0.99916014  1.0
  Cl  Cl32  1  0.25000000  0.75000000  0.50000000  1.0
  Cl  Cl33  1  0.75000000  0.25000000  0.50000000  1.0
  Cl  Cl34  1  0.75000000  0.75000000  0.50000000  1.0
  Cl  Cl35  1  0.25000000  0.25000000  0.50000000  1.0
  Cl  Cl36  1  0.25000000  0.75000000  0.00000000  1.0
  Cl  Cl37  1  0.75000000  0.25000000  0.00000000  1.0
  Cl  Cl38  1  0.75000000  0.75000000  0.00000000  1.0
  Cl  Cl39  1  0.25000000  0.25000000  0.00000000  1.0
