# generated using pymatgen
data_CrBrO
_symmetry_space_group_name_H-M   'P 1'
_cell_length_a   3.30807655
_cell_length_b   3.87974919
_cell_length_c   9.04659550
_cell_angle_alpha   90.00000000
_cell_angle_beta   90.00000000
_cell_angle_gamma   90.00000000
_symmetry_Int_Tables_number   1
_chemical_formula_structural   CrBrO
_chemical_formula_sum   'Cr2 Br2 O2'
_cell_volume   116.10859602
_cell_formula_units_Z   2
loop_
 _symmetry_equiv_pos_site_id
 _symmetry_equiv_pos_as_xyz
  1  'x, y, z'
loop_
 _atom_site_type_symbol
 _atom_site_label
 _atom_site_symmetry_multiplicity
 _atom_site_fract_x
 _atom_site_fract_y
 _atom_site_fract_z
 _atom_site_occupancy
  Cr  Cr0  1  0.00000000  0.50000000  0.09261066  1.0
  Cr  Cr1  1  0.50000000  0.00000000  0.90738934  1.0
  Br  Br2  1  0.00000000  0.00000000  0.70246376  1.0
  Br  Br3  1  0.50000000  0.50000000  0.29753624  1.0
  O  O4  1  0.00000000  0.00000000  0.04332871  1.0
  O  O5  1  0.50000000  0.50000000  0.95667129  1.0
