# generated using pymatgen
data_PH3
_symmetry_space_group_name_H-M   'P 1'
_cell_length_a   5.07977834
_cell_length_b   5.07977834
_cell_length_c   5.07977834
_cell_angle_alpha   90.00000000
_cell_angle_beta   90.00000000
_cell_angle_gamma   90.00000000
_symmetry_Int_Tables_number   1
_chemical_formula_structural   PH3
_chemical_formula_sum   'P4 H12'
_cell_volume   131.07935215
_cell_formula_units_Z   4
loop_
 _symmetry_equiv_pos_site_id
 _symmetry_equiv_pos_as_xyz
  1  'x, y, z'
loop_
 _atom_site_type_symbol
 _atom_site_label
 _atom_site_symmetry_multiplicity
 _atom_site_fract_x
 _atom_site_fract_y
 _atom_site_fract_z
 _atom_site_occupancy
  P  P0  1  0.75000000  0.75000000  0.25000000  1.0
  P  P1  1  0.25000000  0.75000000  0.75000000  1.0
  P  P2  1  0.75000000  0.25000000  0.75000000  1.0
  P  P3  1  0.25000000  0.25000000  0.25000000  1.0
  H  H4  1  0.50000000  -0.00000000  0.40197737  1.0
  H  H5  1  0.00000000  0.59802263  0.50000000  1.0
  H  H6  1  0.59802263  0.50000000  0.00000000  1.0
  H  H7  1  -0.00000000  0.90197737  0.50000000  1.0
  H  H8  1  0.50000000  0.00000000  0.09802263  1.0
  H  H9  1  0.90197737  0.50000000  0.00000000  1.0
  H  H10  1  0.50000000  0.00000000  0.59802263  1.0
  H  H11  1  0.40197737  0.50000000  0.00000000  1.0
  H  H12  1  0.50000000  0.00000000  0.90197737  1.0
  H  H13  1  0.09802263  0.50000000  0.00000000  1.0
  H  H14  1  0.00000000  0.40197737  0.50000000  1.0
  H  H15  1  -0.00000000  0.09802263  0.50000000  1.0
