# generated using pymatgen
data_Sr5Mg19Ge12
_symmetry_space_group_name_H-M   'P 1'
_cell_length_a   14.70964040
_cell_length_b   14.70964040
_cell_length_c   4.41232931
_cell_angle_alpha   90.00000000
_cell_angle_beta   90.00000000
_cell_angle_gamma   120.00000000
_symmetry_Int_Tables_number   1
_chemical_formula_structural   Sr5Mg19Ge12
_chemical_formula_sum   'Sr5 Mg19 Ge12'
_cell_volume   826.80417684
_cell_formula_units_Z   1
loop_
 _symmetry_equiv_pos_site_id
 _symmetry_equiv_pos_as_xyz
  1  'x, y, z'
loop_
 _atom_site_type_symbol
 _atom_site_label
 _atom_site_symmetry_multiplicity
 _atom_site_fract_x
 _atom_site_fract_y
 _atom_site_fract_z
 _atom_site_occupancy
  Sr  Sr0  1  0.18450541  0.18450541  0.50000000  1.0
  Sr  Sr1  1  -0.00000000  0.81549459  0.50000000  1.0
  Sr  Sr2  1  0.81549459  0.00000000  0.50000000  1.0
  Sr  Sr3  1  0.33333333  0.66666667  0.00000000  1.0
  Sr  Sr4  1  0.66666667  0.33333333  0.00000000  1.0
  Mg  Mg5  1  0.12461511  0.64418535  0.50000000  1.0
  Mg  Mg6  1  0.64418535  0.12461511  0.50000000  1.0
  Mg  Mg7  1  0.51957024  0.87538489  0.50000000  1.0
  Mg  Mg8  1  0.35581465  0.48042976  0.50000000  1.0
  Mg  Mg9  1  0.87538489  0.51957024  0.50000000  1.0
  Mg  Mg10  1  0.48042976  0.35581465  0.50000000  1.0
  Mg  Mg11  1  0.20107457  0.82577497  0.00000000  1.0
  Mg  Mg12  1  0.82577497  0.20107457  0.00000000  1.0
  Mg  Mg13  1  0.62470040  0.79892543  0.00000000  1.0
  Mg  Mg14  1  0.17422503  0.37529960  0.00000000  1.0
  Mg  Mg15  1  0.79892543  0.62470040  0.00000000  1.0
  Mg  Mg16  1  0.37529960  0.17422503  0.00000000  1.0
  Mg  Mg17  1  0.71629470  0.71629470  0.50000000  1.0
  Mg  Mg18  1  0.00000000  0.28370530  0.50000000  1.0
  Mg  Mg19  1  0.28370530  0.00000000  0.50000000  1.0
  Mg  Mg20  1  0.55273150  0.55273150  0.00000000  1.0
  Mg  Mg21  1  -0.00000000  0.44726850  0.00000000  1.0
  Mg  Mg22  1  0.44726850  0.00000000  0.00000000  1.0
  Mg  Mg23  1  0.00000000  0.00000000  0.00000000  1.0
  Ge  Ge24  1  0.31630906  0.83205471  0.50000000  1.0
  Ge  Ge25  1  0.83205471  0.31630906  0.50000000  1.0
  Ge  Ge26  1  0.51574565  0.68369094  0.50000000  1.0
  Ge  Ge27  1  0.16794529  0.48425435  0.50000000  1.0
  Ge  Ge28  1  0.68369094  0.51574565  0.50000000  1.0
  Ge  Ge29  1  0.48425435  0.16794529  0.50000000  1.0
  Ge  Ge30  1  0.82483530  0.82483530  0.00000000  1.0
  Ge  Ge31  1  -0.00000000  0.17516470  0.00000000  1.0
  Ge  Ge32  1  0.17516470  0.00000000  0.00000000  1.0
  Ge  Ge33  1  0.36232778  0.36232778  0.00000000  1.0
  Ge  Ge34  1  0.00000000  0.63767222  0.00000000  1.0
  Ge  Ge35  1  0.63767222  0.00000000  0.00000000  1.0
