# generated using pymatgen
data_Rb2CaV2O7
_symmetry_space_group_name_H-M   'P 1'
_cell_length_a   10.44020074
_cell_length_b   6.07999235
_cell_length_c   15.26492453
_cell_angle_alpha   90.00000000
_cell_angle_beta   115.75847209
_cell_angle_gamma   90.00000000
_symmetry_Int_Tables_number   1
_chemical_formula_structural   Rb2CaV2O7
_chemical_formula_sum   'Rb8 Ca4 V8 O28'
_cell_volume   872.67970621
_cell_formula_units_Z   4
loop_
 _symmetry_equiv_pos_site_id
 _symmetry_equiv_pos_as_xyz
  1  'x, y, z'
loop_
 _atom_site_type_symbol
 _atom_site_label
 _atom_site_symmetry_multiplicity
 _atom_site_fract_x
 _atom_site_fract_y
 _atom_site_fract_z
 _atom_site_occupancy
  Rb  Rb0  1  0.97860421  0.73990633  0.33449039  1.0
  Rb  Rb1  1  0.97860421  0.76009367  0.83449039  1.0
  Rb  Rb2  1  0.02139579  0.23990633  0.16550961  1.0
  Rb  Rb3  1  0.02139579  0.26009367  0.66550961  1.0
  Rb  Rb4  1  0.50665014  0.22559732  0.37660074  1.0
  Rb  Rb5  1  0.50665014  0.27440268  0.87660074  1.0
  Rb  Rb6  1  0.49334986  0.72559732  0.12339926  1.0
  Rb  Rb7  1  0.49334986  0.77440268  0.62339926  1.0
  Ca  Ca8  1  0.22856365  0.25834976  0.47673363  1.0
  Ca  Ca9  1  0.22856365  0.24165024  0.97673363  1.0
  Ca  Ca10  1  0.77143635  0.75834976  0.02326637  1.0
  Ca  Ca11  1  0.77143635  0.74165024  0.52326637  1.0
  V  V12  1  0.82994039  0.23358306  0.37836044  1.0
  V  V13  1  0.82994039  0.26641694  0.87836044  1.0
  V  V14  1  0.17005961  0.73358306  0.12163956  1.0
  V  V15  1  0.17005961  0.76641694  0.62163956  1.0
  V  V16  1  0.65907428  0.23434346  0.14038229  1.0
  V  V17  1  0.65907428  0.26565654  0.64038229  1.0
  V  V18  1  0.34092572  0.73434346  0.35961771  1.0
  V  V19  1  0.34092572  0.76565654  0.85961771  1.0
  O  O20  1  0.98507813  0.23852822  0.36689669  1.0
  O  O21  1  0.98507813  0.26147178  0.86689669  1.0
  O  O22  1  0.01492187  0.73852822  0.13310331  1.0
  O  O23  1  0.01492187  0.76147178  0.63310331  1.0
  O  O24  1  0.82557100  0.42586912  0.45675462  1.0
  O  O25  1  0.82557100  0.07413088  0.95675462  1.0
  O  O26  1  0.17442900  0.92586912  0.04324538  1.0
  O  O27  1  0.17442900  0.57413088  0.54324538  1.0
  O  O28  1  0.80029954  0.97995329  0.41220399  1.0
  O  O29  1  0.80029954  0.52004671  0.91220399  1.0
  O  O30  1  0.19970046  0.47995329  0.08779601  1.0
  O  O31  1  0.19970046  0.02004671  0.58779601  1.0
  O  O32  1  0.74150515  0.99339021  0.14011753  1.0
  O  O33  1  0.74150515  0.50660979  0.64011753  1.0
  O  O34  1  0.25849485  0.49339021  0.35988247  1.0
  O  O35  1  0.25849485  0.00660979  0.85988247  1.0
  O  O36  1  0.72685494  0.44513011  0.10063279  1.0
  O  O37  1  0.72685494  0.05486989  0.60063279  1.0
  O  O38  1  0.27314506  0.94513011  0.39936721  1.0
  O  O39  1  0.27314506  0.55486989  0.89936721  1.0
  O  O40  1  0.68102899  0.30094392  0.26215084  1.0
  O  O41  1  0.68102899  0.19905608  0.76215084  1.0
  O  O42  1  0.31897101  0.80094392  0.23784916  1.0
  O  O43  1  0.31897101  0.69905608  0.73784916  1.0
  O  O44  1  0.48124443  0.21341283  0.07011336  1.0
  O  O45  1  0.48124443  0.28658717  0.57011336  1.0
  O  O46  1  0.51875557  0.71341283  0.42988664  1.0
  O  O47  1  0.51875557  0.78658717  0.92988664  1.0
