# generated using pymatgen
data_Sr5(AuO4)2
_symmetry_space_group_name_H-M   'P 1'
_cell_length_a   8.37843464
_cell_length_b   6.78350159
_cell_length_c   6.78292633
_cell_angle_alpha   76.28011559
_cell_angle_beta   51.86303625
_cell_angle_gamma   51.85684816
_symmetry_Int_Tables_number   1
_chemical_formula_structural   Sr5(AuO4)2
_chemical_formula_sum   'Sr5 Au2 O8'
_cell_volume   231.89747531
_cell_formula_units_Z   1
loop_
 _symmetry_equiv_pos_site_id
 _symmetry_equiv_pos_as_xyz
  1  'x, y, z'
loop_
 _atom_site_type_symbol
 _atom_site_label
 _atom_site_symmetry_multiplicity
 _atom_site_fract_x
 _atom_site_fract_y
 _atom_site_fract_z
 _atom_site_occupancy
  Sr  Sr0  1  0.97130868  0.52869132  0.97130868  1.0
  Sr  Sr1  1  0.52869132  0.97130868  0.52869132  1.0
  Sr  Sr2  1  0.52855234  0.52855234  0.97144766  1.0
  Sr  Sr3  1  0.97144766  0.97144766  0.52855234  1.0
  Sr  Sr4  1  1.25000000  0.25000000  0.25000000  1.0
  Au  Au5  1  -0.50000000  0.50000000  0.50000000  1.0
  Au  Au6  1  0.00000000  0.00000000  0.00000000  1.0
  O  O7  1  1.01007852  0.23386765  0.74595541  1.0
  O  O8  1  1.01009841  0.74595541  0.23386765  1.0
  O  O9  1  1.74595541  0.01009841  0.01007852  1.0
  O  O10  1  1.23386765  0.01007852  0.01009841  1.0
  O  O11  1  1.26612909  0.48992586  0.48989975  1.0
  O  O12  1  0.75404531  0.48989975  0.48992586  1.0
  O  O13  1  1.48989975  -0.24595469  0.26612909  1.0
  O  O14  1  1.48992586  0.26612909  -0.24595469  1.0
