# generated using pymatgen
data_Cd2H3ClO3
_symmetry_space_group_name_H-M   'P 1'
_cell_length_a   6.91198303
_cell_length_b   7.60117902
_cell_length_c   9.99401322
_cell_angle_alpha   90.00000000
_cell_angle_beta   90.00000000
_cell_angle_gamma   90.00000000
_symmetry_Int_Tables_number   1
_chemical_formula_structural   Cd2H3ClO3
_chemical_formula_sum   'Cd8 H12 Cl4 O12'
_cell_volume   525.07766327
_cell_formula_units_Z   4
loop_
 _symmetry_equiv_pos_site_id
 _symmetry_equiv_pos_as_xyz
  1  'x, y, z'
loop_
 _atom_site_type_symbol
 _atom_site_label
 _atom_site_symmetry_multiplicity
 _atom_site_fract_x
 _atom_site_fract_y
 _atom_site_fract_z
 _atom_site_occupancy
  Cd  Cd0  1  0.31901361  0.75000000  0.23392212  1.0
  Cd  Cd1  1  0.81901361  0.75000000  0.26607788  1.0
  Cd  Cd2  1  0.68098639  0.25000000  0.76607788  1.0
  Cd  Cd3  1  0.18098639  0.25000000  0.73392212  1.0
  Cd  Cd4  1  0.50000000  0.00000000  0.50000000  1.0
  Cd  Cd5  1  0.50000000  0.50000000  0.50000000  1.0
  Cd  Cd6  1  0.00000000  0.00000000  0.00000000  1.0
  Cd  Cd7  1  0.00000000  0.50000000  0.00000000  1.0
  H  H8  1  0.41606520  0.95466120  0.77826044  1.0
  H  H9  1  0.41606520  0.54533880  0.77826044  1.0
  H  H10  1  0.91606520  0.95466120  0.72173956  1.0
  H  H11  1  0.91606520  0.54533880  0.72173956  1.0
  H  H12  1  0.58393480  0.45466120  0.22173956  1.0
  H  H13  1  0.58393480  0.04533880  0.22173956  1.0
  H  H14  1  0.08393480  0.45466120  0.27826044  1.0
  H  H15  1  0.08393480  0.04533880  0.27826044  1.0
  H  H16  1  0.19596510  0.75000000  0.51239466  1.0
  H  H17  1  0.69596510  0.75000000  0.98760534  1.0
  H  H18  1  0.80403490  0.25000000  0.48760534  1.0
  H  H19  1  0.30403490  0.25000000  0.01239466  1.0
  Cl  Cl20  1  0.31195519  0.75000000  0.95735854  1.0
  Cl  Cl21  1  0.81195519  0.75000000  0.54264146  1.0
  Cl  Cl22  1  0.68804481  0.25000000  0.04264146  1.0
  Cl  Cl23  1  0.18804481  0.25000000  0.45735854  1.0
  O  O24  1  0.43463450  0.44497039  0.71866718  1.0
  O  O25  1  0.43463450  0.05502961  0.71866718  1.0
  O  O26  1  0.93463450  0.44497039  0.78133282  1.0
  O  O27  1  0.93463450  0.05502961  0.78133282  1.0
  O  O28  1  0.56536550  0.94497039  0.28133282  1.0
  O  O29  1  0.56536550  0.55502961  0.28133282  1.0
  O  O30  1  0.06536550  0.94497039  0.21866718  1.0
  O  O31  1  0.06536550  0.55502961  0.21866718  1.0
  O  O32  1  0.32429108  0.75000000  0.47200352  1.0
  O  O33  1  0.82429108  0.75000000  0.02799648  1.0
  O  O34  1  0.67570892  0.25000000  0.52799648  1.0
  O  O35  1  0.17570892  0.25000000  0.97200352  1.0
