# generated using pymatgen
data_SrZrN2
_symmetry_space_group_name_H-M   'P 1'
_cell_length_a   6.23954868
_cell_length_b   6.23954868
_cell_length_c   6.23954868
_cell_angle_alpha   31.43954459
_cell_angle_beta   31.43954459
_cell_angle_gamma   31.43954459
_symmetry_Int_Tables_number   1
_chemical_formula_structural   SrZrN2
_chemical_formula_sum   'Sr1 Zr1 N2'
_cell_volume   58.66873930
_cell_formula_units_Z   1
loop_
 _symmetry_equiv_pos_site_id
 _symmetry_equiv_pos_as_xyz
  1  'x, y, z'
loop_
 _atom_site_type_symbol
 _atom_site_label
 _atom_site_symmetry_multiplicity
 _atom_site_fract_x
 _atom_site_fract_y
 _atom_site_fract_z
 _atom_site_occupancy
  Sr  Sr0  1  0.00000000  0.00000000  0.00000000  1.0
  Zr  Zr1  1  1.50000000  0.50000000  0.50000000  1.0
  N  N2  1  0.76649486  0.76649486  0.76649486  1.0
  N  N3  1  1.23350514  1.23350514  0.23350514  1.0
