# generated using pymatgen
data_Fe3S4
_symmetry_space_group_name_H-M   'P 1'
_cell_length_a   6.70222003
_cell_length_b   6.70222003
_cell_length_c   6.70222003
_cell_angle_alpha   60.00000000
_cell_angle_beta   60.00000000
_cell_angle_gamma   60.00000000
_symmetry_Int_Tables_number   1
_chemical_formula_structural   Fe3S4
_chemical_formula_sum   'Fe6 S8'
_cell_volume   212.88303194
_cell_formula_units_Z   2
loop_
 _symmetry_equiv_pos_site_id
 _symmetry_equiv_pos_as_xyz
  1  'x, y, z'
loop_
 _atom_site_type_symbol
 _atom_site_label
 _atom_site_symmetry_multiplicity
 _atom_site_fract_x
 _atom_site_fract_y
 _atom_site_fract_z
 _atom_site_occupancy
  Fe  Fe0  1  0.62500000  1.12500000  0.12500000  1.0
  Fe  Fe1  1  0.12500000  1.62500000  0.12500000  1.0
  Fe  Fe2  1  0.12500000  0.12500000  1.62500000  1.0
  Fe  Fe3  1  0.12500000  0.12500000  0.12500000  1.0
  Fe  Fe4  1  0.50000000  -0.50000000  0.50000000  1.0
  Fe  Fe5  1  0.75000000  0.75000000  0.75000000  1.0
  S  S6  1  -0.10977562  1.36992521  0.36992521  1.0
  S  S7  1  0.36992521  0.89022438  0.36992521  1.0
  S  S8  1  0.36992521  1.36992521  -0.10977562  1.0
  S  S9  1  0.36992521  1.36992521  0.36992521  1.0
  S  S10  1  -0.64022438  0.88007479  0.88007479  1.0
  S  S11  1  0.88007479  -0.64022438  0.88007479  1.0
  S  S12  1  0.88007479  0.88007479  -0.64022438  1.0
  S  S13  1  0.88007479  0.88007479  0.88007479  1.0
