# generated using pymatgen
data_Sr6ZrCd(BO3)6
_symmetry_space_group_name_H-M   'P 1'
_cell_length_a   7.83526343
_cell_length_b   7.83526343
_cell_length_c   7.83526343
_cell_angle_alpha   104.90086426
_cell_angle_beta   104.90086426
_cell_angle_gamma   104.90086426
_symmetry_Int_Tables_number   1
_chemical_formula_structural   Sr6ZrCd(BO3)6
_chemical_formula_sum   'Sr6 Zr1 Cd1 B6 O18'
_cell_volume   421.43771780
_cell_formula_units_Z   1
loop_
 _symmetry_equiv_pos_site_id
 _symmetry_equiv_pos_as_xyz
  1  'x, y, z'
loop_
 _atom_site_type_symbol
 _atom_site_label
 _atom_site_symmetry_multiplicity
 _atom_site_fract_x
 _atom_site_fract_y
 _atom_site_fract_z
 _atom_site_occupancy
  Sr  Sr0  1  0.75757133  0.64529365  0.14563979  1.0
  Sr  Sr1  1  1.35470635  -0.14563979  0.24242867  1.0
  Sr  Sr2  1  0.85436021  0.24242867  0.35470635  1.0
  Sr  Sr3  1  1.24242867  0.35470635  -0.14563979  1.0
  Sr  Sr4  1  0.64529365  1.14563979  -0.24242867  1.0
  Sr  Sr5  1  1.14563979  0.75757133  -0.35470635  1.0
  Zr  Zr6  1  0.00000000  0.00000000  0.00000000  1.0
  Cd  Cd7  1  0.50000000  0.50000000  0.50000000  1.0
  B  B8  1  1.54242049  0.79271614  -0.12141785  1.0
  B  B9  1  1.20728386  0.12141785  -0.54242049  1.0
  B  B10  1  1.12141785  -0.54242049  0.20728386  1.0
  B  B11  1  0.45757951  0.20728386  0.12141785  1.0
  B  B12  1  0.79271614  0.87858215  0.54242049  1.0
  B  B13  1  0.87858215  1.54242049  -0.20728386  1.0
  O  O14  1  0.72272823  0.92664835  -0.00547019  1.0
  O  O15  1  1.07335165  0.00547019  -0.72272823  1.0
  O  O16  1  1.00547019  -0.72272823  0.07335165  1.0
  O  O17  1  0.27727177  0.07335165  0.00547019  1.0
  O  O18  1  0.92664835  0.99452981  -0.27727177  1.0
  O  O19  1  0.99452981  0.72272823  -0.07335165  1.0
  O  O20  1  1.47867106  0.77828171  -0.30698636  1.0
  O  O21  1  1.22171829  0.30698636  -0.47867106  1.0
  O  O22  1  1.30698636  -0.47867106  0.22171829  1.0
  O  O23  1  0.52132894  0.22171829  0.30698636  1.0
  O  O24  1  0.77828171  0.69301364  0.47867106  1.0
  O  O25  1  0.69301364  1.47867106  -0.22171829  1.0
  O  O26  1  0.56049672  0.30608478  0.03863712  1.0
  O  O27  1  0.69391522  0.96136288  0.43950328  1.0
  O  O28  1  0.96136288  1.43950328  -0.30608478  1.0
  O  O29  1  1.43950328  0.69391522  -0.03863712  1.0
  O  O30  1  1.30608478  0.03863712  -0.43950328  1.0
  O  O31  1  1.03863712  -0.43950328  0.30608478  1.0
