# generated using pymatgen
data_Ba2Re6S11
_symmetry_space_group_name_H-M   'P 1'
_cell_length_a   12.00494577
_cell_length_b   12.00494577
_cell_length_c   12.00494577
_cell_angle_alpha   45.50777843
_cell_angle_beta   45.50777843
_cell_angle_gamma   45.50777843
_symmetry_Int_Tables_number   1
_chemical_formula_structural   Ba2Re6S11
_chemical_formula_sum   'Ba4 Re12 S22'
_cell_volume   802.18907406
_cell_formula_units_Z   2
loop_
 _symmetry_equiv_pos_site_id
 _symmetry_equiv_pos_as_xyz
  1  'x, y, z'
loop_
 _atom_site_type_symbol
 _atom_site_label
 _atom_site_symmetry_multiplicity
 _atom_site_fract_x
 _atom_site_fract_y
 _atom_site_fract_z
 _atom_site_occupancy
  Ba  Ba0  1  0.81137741  0.81137741  -0.18862259  1.0
  Ba  Ba1  1  0.31137741  0.31137741  0.31137741  1.0
  Ba  Ba2  1  0.68862259  0.68862259  -0.31137741  1.0
  Ba  Ba3  1  0.18862259  0.18862259  0.18862259  1.0
  Re  Re4  1  0.79284144  0.11684142  -0.01111704  1.0
  Re  Re5  1  1.29284144  0.48888296  -0.38315858  1.0
  Re  Re6  1  0.51111704  0.38315858  -0.29284144  1.0
  Re  Re7  1  1.01111704  0.20715856  -0.11684142  1.0
  Re  Re8  1  0.88315858  0.01111704  0.20715856  1.0
  Re  Re9  1  0.38315858  0.70715856  -0.48888296  1.0
  Re  Re10  1  1.20715856  -0.11684142  0.01111704  1.0
  Re  Re11  1  0.70715856  0.51111704  -0.61684142  1.0
  Re  Re12  1  0.98888296  -0.20715856  0.11684142  1.0
  Re  Re13  1  0.48888296  0.61684142  0.29284144  1.0
  Re  Re14  1  0.61684142  1.29284144  -0.51111704  1.0
  Re  Re15  1  1.11684142  -0.01111704  -0.20715856  1.0
  S  S16  1  0.92709487  0.29016397  -0.30793781  1.0
  S  S17  1  1.42709487  0.19206219  -0.20983603  1.0
  S  S18  1  0.80793781  0.20983603  -0.42709487  1.0
  S  S19  1  1.30793781  0.07290513  -0.29016397  1.0
  S  S20  1  0.70983603  0.30793781  0.07290513  1.0
  S  S21  1  0.20983603  0.57290513  -0.19206219  1.0
  S  S22  1  1.07290513  -0.29016397  0.30793781  1.0
  S  S23  1  0.57290513  0.80793781  -0.79016397  1.0
  S  S24  1  0.69206219  -0.07290513  0.29016397  1.0
  S  S25  1  1.19206219  -0.20983603  0.42709487  1.0
  S  S26  1  0.79016397  0.42709487  0.19206219  1.0
  S  S27  1  1.29016397  -0.30793781  -0.07290513  1.0
  S  S28  1  0.48253548  0.75000000  0.01746452  1.0
  S  S29  1  0.98253548  -0.48253548  0.25000000  1.0
  S  S30  1  0.25000000  0.98253548  -0.48253548  1.0
  S  S31  1  0.75000000  1.01746452  -0.51746452  1.0
  S  S32  1  0.51746452  0.25000000  -0.01746452  1.0
  S  S33  1  1.01746452  0.48253548  -0.25000000  1.0
  S  S34  1  0.90904045  -0.09095955  -0.09095955  1.0
  S  S35  1  0.40904045  0.40904045  0.40904045  1.0
  S  S36  1  0.59095955  0.59095955  -0.40904045  1.0
  S  S37  1  1.09095955  0.09095955  0.09095955  1.0
