# generated using pymatgen
data_TeAsRu
_symmetry_space_group_name_H-M   'P 1'
_cell_length_a   6.40711890
_cell_length_b   6.38170416
_cell_length_c   6.52306822
_cell_angle_alpha   90.00000000
_cell_angle_beta   113.63220440
_cell_angle_gamma   90.00000000
_symmetry_Int_Tables_number   1
_chemical_formula_structural   TeAsRu
_chemical_formula_sum   'Te4 As4 Ru4'
_cell_volume   244.34984065
_cell_formula_units_Z   4
loop_
 _symmetry_equiv_pos_site_id
 _symmetry_equiv_pos_as_xyz
  1  'x, y, z'
loop_
 _atom_site_type_symbol
 _atom_site_label
 _atom_site_symmetry_multiplicity
 _atom_site_fract_x
 _atom_site_fract_y
 _atom_site_fract_z
 _atom_site_occupancy
  Te  Te0  1  0.83745187  0.12820167  0.18831139  1.0
  Te  Te1  1  0.83745187  0.37179833  0.68831139  1.0
  Te  Te2  1  0.16254813  0.62820167  0.31168861  1.0
  Te  Te3  1  0.16254813  0.87179833  0.81168861  1.0
  As  As4  1  0.63995690  0.86134197  0.38719862  1.0
  As  As5  1  0.63995690  0.63865803  0.88719862  1.0
  As  As6  1  0.36004310  0.36134197  0.11280138  1.0
  As  As7  1  0.36004310  0.13865803  0.61280138  1.0
  Ru  Ru8  1  0.76296930  0.50925148  0.28944297  1.0
  Ru  Ru9  1  0.76296930  -0.00925148  0.78944297  1.0
  Ru  Ru10  1  0.23703070  1.00925148  0.21055703  1.0
  Ru  Ru11  1  0.23703070  0.49074852  0.71055703  1.0
