# generated using pymatgen
data_CsS2N3O4
_symmetry_space_group_name_H-M   'P 1'
_cell_length_a   9.35741752
_cell_length_b   10.77264668
_cell_length_c   8.54121938
_cell_angle_alpha   90.00000000
_cell_angle_beta   109.90305504
_cell_angle_gamma   90.00000000
_symmetry_Int_Tables_number   1
_chemical_formula_structural   CsS2N3O4
_chemical_formula_sum   'Cs4 S8 N12 O16'
_cell_volume   809.56340711
_cell_formula_units_Z   4
loop_
 _symmetry_equiv_pos_site_id
 _symmetry_equiv_pos_as_xyz
  1  'x, y, z'
loop_
 _atom_site_type_symbol
 _atom_site_label
 _atom_site_symmetry_multiplicity
 _atom_site_fract_x
 _atom_site_fract_y
 _atom_site_fract_z
 _atom_site_occupancy
  Cs  Cs0  1  0.79404994  0.42487161  0.59738811  1.0
  Cs  Cs1  1  0.79404994  0.07512839  0.09738811  1.0
  Cs  Cs2  1  0.20595006  0.92487161  0.90261189  1.0
  Cs  Cs3  1  0.20595006  0.57512839  0.40261189  1.0
  S  S4  1  0.54586437  0.76116515  0.77131605  1.0
  S  S5  1  0.54586437  0.73883485  0.27131605  1.0
  S  S6  1  0.45413563  0.26116515  0.72868395  1.0
  S  S7  1  0.45413563  0.23883485  0.22868395  1.0
  S  S8  1  0.27429020  0.50858744  0.93715090  1.0
  S  S9  1  0.27429020  0.99141256  0.43715090  1.0
  S  S10  1  0.72570980  0.00858744  0.56284910  1.0
  S  S11  1  0.72570980  0.49141256  0.06284910  1.0
  N  N12  1  0.94993826  0.71901563  0.55939960  1.0
  N  N13  1  0.94993826  0.78098437  0.05939960  1.0
  N  N14  1  0.05006174  0.21901563  0.94060040  1.0
  N  N15  1  0.05006174  0.28098437  0.44060040  1.0
  N  N16  1  0.85728309  0.71820412  0.97013502  1.0
  N  N17  1  0.85728309  0.78179588  0.47013502  1.0
  N  N18  1  0.14271691  0.21820412  0.52986498  1.0
  N  N19  1  0.14271691  0.28179588  0.02986498  1.0
  N  N20  1  0.76030243  0.65094657  0.87977615  1.0
  N  N21  1  0.76030243  0.84905343  0.37977615  1.0
  N  N22  1  0.23969757  0.15094657  0.62022385  1.0
  N  N23  1  0.23969757  0.34905343  0.12022385  1.0
  O  O24  1  0.84477273  0.96713936  0.71664086  1.0
  O  O25  1  0.84477273  0.53286064  0.21664086  1.0
  O  O26  1  0.15522727  0.46713936  0.78335914  1.0
  O  O27  1  0.15522727  0.03286064  0.28335914  1.0
  O  O28  1  0.76744223  0.38563377  0.97816584  1.0
  O  O29  1  0.76744223  0.11436623  0.47816584  1.0
  O  O30  1  0.23255777  0.88563377  0.52183416  1.0
  O  O31  1  0.23255777  0.61436623  0.02183416  1.0
  O  O32  1  0.56093917  0.85104563  0.90671634  1.0
  O  O33  1  0.56093917  0.64895437  0.40671634  1.0
  O  O34  1  0.43906083  0.35104563  0.59328366  1.0
  O  O35  1  0.43906083  0.14895437  0.09328366  1.0
  O  O36  1  0.43547391  0.66078289  0.75923107  1.0
  O  O37  1  0.43547391  0.83921711  0.25923107  1.0
  O  O38  1  0.56452609  0.16078289  0.74076893  1.0
  O  O39  1  0.56452609  0.33921711  0.24076893  1.0
