# generated using pymatgen
data_K3BeF5
_symmetry_space_group_name_H-M   'P 1'
_cell_length_a   7.27180850
_cell_length_b   7.27180850
_cell_length_c   10.94533137
_cell_angle_alpha   90.00000000
_cell_angle_beta   90.00000000
_cell_angle_gamma   90.00000000
_symmetry_Int_Tables_number   1
_chemical_formula_structural   K3BeF5
_chemical_formula_sum   'K12 Be4 F20'
_cell_volume   578.78035386
_cell_formula_units_Z   4
loop_
 _symmetry_equiv_pos_site_id
 _symmetry_equiv_pos_as_xyz
  1  'x, y, z'
loop_
 _atom_site_type_symbol
 _atom_site_label
 _atom_site_symmetry_multiplicity
 _atom_site_fract_x
 _atom_site_fract_y
 _atom_site_fract_z
 _atom_site_occupancy
  K  K0  1  0.31789481  0.68210519  0.25000000  1.0
  K  K1  1  0.31789481  0.31789481  0.75000000  1.0
  K  K2  1  0.81789481  0.18210519  0.75000000  1.0
  K  K3  1  0.81789481  0.81789481  0.25000000  1.0
  K  K4  1  0.18210519  0.81789481  0.75000000  1.0
  K  K5  1  0.18210519  0.18210519  0.25000000  1.0
  K  K6  1  0.68210519  0.31789481  0.25000000  1.0
  K  K7  1  0.68210519  0.68210519  0.75000000  1.0
  K  K8  1  0.50000000  0.00000000  1.00028587  1.0
  K  K9  1  0.50000000  0.00000000  0.50028587  1.0
  K  K10  1  0.00000000  0.50000000  -0.00028587  1.0
  K  K11  1  0.00000000  0.50000000  0.49971413  1.0
  Be  Be12  1  0.00000000  0.00000000  0.00000000  1.0
  Be  Be13  1  0.00000000  0.00000000  0.50000000  1.0
  Be  Be14  1  0.50000000  0.50000000  0.00000000  1.0
  Be  Be15  1  0.50000000  0.50000000  0.50000000  1.0
  F  F16  1  0.62236901  0.62344157  0.08526787  1.0
  F  F17  1  0.62236901  0.37655843  0.58526787  1.0
  F  F18  1  0.12236901  0.12344157  0.91473213  1.0
  F  F19  1  0.12236901  0.87655843  0.41473213  1.0
  F  F20  1  0.12344157  0.12236901  0.58526787  1.0
  F  F21  1  0.12344157  0.87763099  0.08526787  1.0
  F  F22  1  0.62344157  0.62236901  0.41473213  1.0
  F  F23  1  0.62344157  0.37763099  0.91473213  1.0
  F  F24  1  0.87763099  0.12344157  0.41473213  1.0
  F  F25  1  0.87763099  0.87655843  0.91473213  1.0
  F  F26  1  0.37763099  0.62344157  0.58526787  1.0
  F  F27  1  0.37763099  0.37655843  0.08526787  1.0
  F  F28  1  0.37655843  0.62236901  0.91473213  1.0
  F  F29  1  0.37655843  0.37763099  0.41473213  1.0
  F  F30  1  0.87655843  0.12236901  0.08526787  1.0
  F  F31  1  0.87655843  0.87763099  0.58526787  1.0
  F  F32  1  0.50000000  0.00000000  0.25040531  1.0
  F  F33  1  0.50000000  0.00000000  0.75040531  1.0
  F  F34  1  0.00000000  0.50000000  0.74959469  1.0
  F  F35  1  0.00000000  0.50000000  0.24959469  1.0
