# generated using pymatgen
data_MnAsPd
_symmetry_space_group_name_H-M   'P 1'
_cell_length_a   6.67982192
_cell_length_b   6.67982192
_cell_length_c   3.75479476
_cell_angle_alpha   90.00000000
_cell_angle_beta   90.00000000
_cell_angle_gamma   120.00000000
_symmetry_Int_Tables_number   1
_chemical_formula_structural   MnAsPd
_chemical_formula_sum   'Mn3 As3 Pd3'
_cell_volume   145.09304812
_cell_formula_units_Z   3
loop_
 _symmetry_equiv_pos_site_id
 _symmetry_equiv_pos_as_xyz
  1  'x, y, z'
loop_
 _atom_site_type_symbol
 _atom_site_label
 _atom_site_symmetry_multiplicity
 _atom_site_fract_x
 _atom_site_fract_y
 _atom_site_fract_z
 _atom_site_occupancy
  Mn  Mn0  1  0.40582801  0.40582801  0.00000000  1.0
  Mn  Mn1  1  0.00000000  0.59417199  0.00000000  1.0
  Mn  Mn2  1  0.59417199  0.00000000  0.00000000  1.0
  As  As3  1  0.33333333  0.66666667  0.50000000  1.0
  As  As4  1  0.66666667  0.33333333  0.50000000  1.0
  As  As5  1  0.00000000  0.00000000  0.00000000  1.0
  Pd  Pd6  1  0.73758511  0.73758511  0.50000000  1.0
  Pd  Pd7  1  -0.00000000  0.26241489  0.50000000  1.0
  Pd  Pd8  1  0.26241489  0.00000000  0.50000000  1.0
