# generated using pymatgen
data_KSiH3
_symmetry_space_group_name_H-M   'P 1'
_cell_length_a   8.87995774
_cell_length_b   5.41549826
_cell_length_c   6.89394535
_cell_angle_alpha   90.00000000
_cell_angle_beta   90.00000000
_cell_angle_gamma   90.00000000
_symmetry_Int_Tables_number   1
_chemical_formula_structural   KSiH3
_chemical_formula_sum   'K4 Si4 H12'
_cell_volume   331.52566602
_cell_formula_units_Z   4
loop_
 _symmetry_equiv_pos_site_id
 _symmetry_equiv_pos_as_xyz
  1  'x, y, z'
loop_
 _atom_site_type_symbol
 _atom_site_label
 _atom_site_symmetry_multiplicity
 _atom_site_fract_x
 _atom_site_fract_y
 _atom_site_fract_z
 _atom_site_occupancy
  K  K0  1  0.31413300  0.75000000  0.15467874  1.0
  K  K1  1  0.81413300  0.75000000  0.34532126  1.0
  K  K2  1  0.68586700  0.25000000  0.84532126  1.0
  K  K3  1  0.18586700  0.25000000  0.65467874  1.0
  Si  Si4  1  0.45268098  0.75000000  0.65039016  1.0
  Si  Si5  1  0.95268098  0.75000000  0.84960984  1.0
  Si  Si6  1  0.54731902  0.25000000  0.34960984  1.0
  Si  Si7  1  0.04731902  0.25000000  0.15039016  1.0
  H  H8  1  0.41871703  0.95715745  0.80076536  1.0
  H  H9  1  0.41871703  0.54284255  0.80076536  1.0
  H  H10  1  0.91871703  0.95715745  0.69923464  1.0
  H  H11  1  0.91871703  0.54284255  0.69923464  1.0
  H  H12  1  0.58128297  0.45715745  0.19923464  1.0
  H  H13  1  0.58128297  0.04284255  0.19923464  1.0
  H  H14  1  0.08128297  0.45715745  0.30076536  1.0
  H  H15  1  0.08128297  0.04284255  0.30076536  1.0
  H  H16  1  0.12291466  0.75000000  0.80381307  1.0
  H  H17  1  0.62291466  0.75000000  0.69618693  1.0
  H  H18  1  0.87708534  0.25000000  0.19618693  1.0
  H  H19  1  0.37708534  0.25000000  0.30381307  1.0
