# generated using pymatgen
data_CuP10
_symmetry_space_group_name_H-M   'P 1'
_cell_length_a   12.35809377
_cell_length_b   7.26635261
_cell_length_c   12.90933230
_cell_angle_alpha   82.14669097
_cell_angle_beta   62.45702026
_cell_angle_gamma   81.89618907
_symmetry_Int_Tables_number   1
_chemical_formula_structural   CuP10
_chemical_formula_sum   'Cu4 P40'
_cell_volume   1014.21222240
_cell_formula_units_Z   4
loop_
 _symmetry_equiv_pos_site_id
 _symmetry_equiv_pos_as_xyz
  1  'x, y, z'
loop_
 _atom_site_type_symbol
 _atom_site_label
 _atom_site_symmetry_multiplicity
 _atom_site_fract_x
 _atom_site_fract_y
 _atom_site_fract_z
 _atom_site_occupancy
  Cu  Cu0  1  -0.81846529  -0.73248660  -0.74866097  1.0
  Cu  Cu1  1  -0.18153471  -0.26751340  -0.25133903  1.0
  Cu  Cu2  1  -0.88310775  -0.26959271  -0.53760717  1.0
  Cu  Cu3  1  -0.11689225  -0.73040729  -0.46239283  1.0
  P  P4  1  -0.37451079  -1.00082344  -0.75850664  1.0
  P  P5  1  -0.62548921  0.00082344  -0.24149336  1.0
  P  P6  1  -0.88024626  -0.98952771  -0.78633385  1.0
  P  P7  1  -0.11975374  -0.01047229  -0.21366615  1.0
  P  P8  1  -0.65387997  -0.96833907  -0.06194516  1.0
  P  P9  1  -0.34612003  -0.03166093  -0.93805484  1.0
  P  P10  1  -0.15567874  -0.98261719  -0.52453113  1.0
  P  P11  1  -0.84432126  -0.01738281  -0.47546887  1.0
  P  P12  1  -0.43206769  -0.96264771  -0.29296272  1.0
  P  P13  1  -0.56793231  -0.03735229  -0.70703728  1.0
  P  P14  1  -0.64946626  -0.98645610  -0.51963982  1.0
  P  P15  1  -0.35053374  -0.01354390  -0.48036018  1.0
  P  P16  1  -0.91694347  -0.97817208  -0.28402008  1.0
  P  P17  1  -0.08305653  -0.02182792  -0.71597992  1.0
  P  P18  1  -0.90745649  -0.76039917  -0.54789732  1.0
  P  P19  1  -0.09254351  -0.23960083  -0.45210268  1.0
  P  P20  1  -0.61373233  -0.76900094  -0.79233397  1.0
  P  P21  1  -0.38626767  -0.23099906  -0.20766603  1.0
  P  P22  1  -0.44285136  -0.76413492  -0.97393279  1.0
  P  P23  1  -0.55714864  -0.23586508  -0.02606721  1.0
  P  P24  1  -0.37229794  -0.68287942  -0.75603052  1.0
  P  P25  1  -0.62770206  -0.31712058  -0.24396948  1.0
  P  P26  1  -0.64901580  -0.67424172  -0.51803634  1.0
  P  P27  1  -0.35098420  -0.32575828  -0.48196366  1.0
  P  P28  1  -0.91582983  -0.66757978  -0.28397162  1.0
  P  P29  1  -0.08417017  -0.33242022  -0.71602838  1.0
  P  P30  1  -0.84345662  -0.57034954  -0.47541821  1.0
  P  P31  1  -0.15654338  -0.42965046  -0.52458179  1.0
  P  P32  1  -0.34177291  -0.57107199  -0.93510748  1.0
  P  P33  1  -0.65822709  -0.42892801  -0.06489252  1.0
  P  P34  1  -0.56471642  -0.57107050  -0.70529357  1.0
  P  P35  1  -0.43528358  -0.42892950  -0.29470643  1.0
  P  P36  1  -0.88150250  -0.42846805  -0.78688839  1.0
  P  P37  1  -0.11849750  -0.57153195  -0.21311161  1.0
  P  P38  1  -0.85295921  -0.32736553  -0.96893950  1.0
  P  P39  1  -0.14704079  -0.67263447  -0.03106050  1.0
  P  P40  1  -0.78971115  -0.24311771  -0.74083627  1.0
  P  P41  1  -0.21028885  -0.75688229  -0.25916373  1.0
  P  P42  1  -0.85007127  -0.01447575  -0.96887735  1.0
  P  P43  1  -0.14992873  -0.98552425  -0.03112265  1.0
