# generated using pymatgen
data_BaLiBO3
_symmetry_space_group_name_H-M   'P 1'
_cell_length_a   6.57909487
_cell_length_b   7.16299803
_cell_length_c   7.56079538
_cell_angle_alpha   90.00000000
_cell_angle_beta   118.46008704
_cell_angle_gamma   90.00000000
_symmetry_Int_Tables_number   1
_chemical_formula_structural   BaLiBO3
_chemical_formula_sum   'Ba4 Li4 B4 O12'
_cell_volume   313.25001237
_cell_formula_units_Z   4
loop_
 _symmetry_equiv_pos_site_id
 _symmetry_equiv_pos_as_xyz
  1  'x, y, z'
loop_
 _atom_site_type_symbol
 _atom_site_label
 _atom_site_symmetry_multiplicity
 _atom_site_fract_x
 _atom_site_fract_y
 _atom_site_fract_z
 _atom_site_occupancy
  Ba  Ba0  1  0.67421831  0.86012065  0.34062059  1.0
  Ba  Ba1  1  0.67421831  0.63987935  0.84062059  1.0
  Ba  Ba2  1  0.32578169  0.36012065  0.15937941  1.0
  Ba  Ba3  1  0.32578169  0.13987935  0.65937941  1.0
  Li  Li4  1  0.90548707  0.42747026  0.30334491  1.0
  Li  Li5  1  0.90548707  0.07252974  0.80334491  1.0
  Li  Li6  1  0.09451293  0.92747026  0.19665509  1.0
  Li  Li7  1  0.09451293  0.57252974  0.69665509  1.0
  B  B8  1  0.78781525  0.16187055  0.08096827  1.0
  B  B9  1  0.78781525  0.33812945  0.58096827  1.0
  B  B10  1  0.21218475  0.66187055  0.41903173  1.0
  B  B11  1  0.21218475  0.83812945  0.91903173  1.0
  O  O12  1  0.98401083  0.16022178  0.27054961  1.0
  O  O13  1  0.98401083  0.33977822  0.77054961  1.0
  O  O14  1  0.01598917  0.66022178  0.22945039  1.0
  O  O15  1  0.01598917  0.83977822  0.72945039  1.0
  O  O16  1  0.74319994  0.49382365  0.45816930  1.0
  O  O17  1  0.74319994  0.00617635  0.95816930  1.0
  O  O18  1  0.25680006  0.99382365  0.04183070  1.0
  O  O19  1  0.25680006  0.50617635  0.54183070  1.0
  O  O20  1  0.64310444  0.31599260  0.02251482  1.0
  O  O21  1  0.64310444  0.18400740  0.52251482  1.0
  O  O22  1  0.35689556  0.81599260  0.47748518  1.0
  O  O23  1  0.35689556  0.68400740  0.97748518  1.0
