# generated using pymatgen
data_Cs2Al2Sb2O7
_symmetry_space_group_name_H-M   'P 1'
_cell_length_a   5.79172722
_cell_length_b   5.79172722
_cell_length_c   9.18737177
_cell_angle_alpha   90.00000000
_cell_angle_beta   90.00000000
_cell_angle_gamma   120.00000000
_symmetry_Int_Tables_number   1
_chemical_formula_structural   Cs2Al2Sb2O7
_chemical_formula_sum   'Cs2 Al2 Sb2 O7'
_cell_volume   266.89357630
_cell_formula_units_Z   1
loop_
 _symmetry_equiv_pos_site_id
 _symmetry_equiv_pos_as_xyz
  1  'x, y, z'
loop_
 _atom_site_type_symbol
 _atom_site_label
 _atom_site_symmetry_multiplicity
 _atom_site_fract_x
 _atom_site_fract_y
 _atom_site_fract_z
 _atom_site_occupancy
  Cs  Cs0  1  0.33333333  0.66666667  0.60157797  1.0
  Cs  Cs1  1  0.66666667  0.33333333  0.39842203  1.0
  Al  Al2  1  -0.00000000  -0.00000000  0.18818196  1.0
  Al  Al3  1  -0.00000000  -0.00000000  0.81181804  1.0
  Sb  Sb4  1  0.33333333  0.66666667  0.14601555  1.0
  Sb  Sb5  1  0.66666667  0.33333333  0.85398445  1.0
  O  O6  1  0.66742055  0.83371028  0.26161686  1.0
  O  O7  1  0.83371028  0.66742055  0.73838314  1.0
  O  O8  1  0.83371028  0.16628972  0.73838314  1.0
  O  O9  1  0.16628972  0.83371028  0.26161686  1.0
  O  O10  1  0.16628972  0.33257945  0.26161686  1.0
  O  O11  1  0.33257945  0.16628972  0.73838314  1.0
  O  O12  1  -0.00000000  -0.00000000  0.00000000  1.0
