# generated using pymatgen
data_K3V(SO5)2
_symmetry_space_group_name_H-M   'P 1'
_cell_length_a   7.50679296
_cell_length_b   7.36963487
_cell_length_c   10.19023174
_cell_angle_alpha   90.00000000
_cell_angle_beta   103.93984267
_cell_angle_gamma   90.00000000
_symmetry_Int_Tables_number   1
_chemical_formula_structural   K3V(SO5)2
_chemical_formula_sum   'K6 V2 S4 O20'
_cell_volume   547.14448283
_cell_formula_units_Z   2
loop_
 _symmetry_equiv_pos_site_id
 _symmetry_equiv_pos_as_xyz
  1  'x, y, z'
loop_
 _atom_site_type_symbol
 _atom_site_label
 _atom_site_symmetry_multiplicity
 _atom_site_fract_x
 _atom_site_fract_y
 _atom_site_fract_z
 _atom_site_occupancy
  K  K0  1  0.98574992  0.16003184  0.26967509  1.0
  K  K1  1  0.01425008  0.66003184  0.73032491  1.0
  K  K2  1  0.57836721  0.42866198  0.40627484  1.0
  K  K3  1  0.42163279  0.92866198  0.59372516  1.0
  K  K4  1  0.29207855  0.22822187  0.95071503  1.0
  K  K5  1  0.70792145  0.72822187  0.04928497  1.0
  O  O6  1  0.95206230  0.29695493  0.74142670  1.0
  O  O7  1  0.04793770  0.79695493  0.25857330  1.0
  O  O8  1  0.92574439  0.13391404  0.99071343  1.0
  O  O9  1  0.07425561  0.63391404  0.00928657  1.0
  O  O10  1  0.88383846  0.16201646  0.51250897  1.0
  O  O11  1  0.11616155  0.66201646  0.48749103  1.0
  O  O12  1  0.86739555  0.53623961  0.30725936  1.0
  O  O13  1  0.13260445  0.03623961  0.69274064  1.0
  O  O14  1  0.81394088  0.00738942  0.71058854  1.0
  O  O15  1  0.18605912  0.50738942  0.28941146  1.0
  O  O16  1  0.67872734  0.40723442  0.87762131  1.0
  O  O17  1  0.32127266  0.90723442  0.12237869  1.0
  O  O18  1  0.62071691  0.61735216  0.68344745  1.0
  O  O19  1  0.37928309  0.11735216  0.31655255  1.0
  O  O20  1  0.58932385  0.03282933  0.87775186  1.0
  O  O21  1  0.41067615  0.53282933  0.12224814  1.0
  O  O22  1  0.52381499  0.29852878  0.65658319  1.0
  O  O23  1  0.47618501  0.79852878  0.34341681  1.0
  O  O24  1  0.36731623  0.51491122  0.77893428  1.0
  O  O25  1  0.63268377  0.01491122  0.22106572  1.0
  V  V26  1  0.75907723  0.16079572  0.85615727  1.0
  V  V27  1  0.24092277  0.66079572  0.14384273  1.0
  S  S28  1  0.95331863  0.12869315  0.65725203  1.0
  S  S29  1  0.04668137  0.62869315  0.34274797  1.0
  S  S30  1  0.53825386  0.46472507  0.74196327  1.0
  S  S31  1  0.46174614  0.96472507  0.25803673  1.0
