# generated using pymatgen
data_AgH8C4N8F
_symmetry_space_group_name_H-M   'P 1'
_cell_length_a   10.21526274
_cell_length_b   8.05476077
_cell_length_c   6.30312733
_cell_angle_alpha   90.87537500
_cell_angle_beta   102.23371865
_cell_angle_gamma   96.02305565
_symmetry_Int_Tables_number   1
_chemical_formula_structural   AgH8C4N8F
_chemical_formula_sum   'Ag2 H16 C8 N16 F2'
_cell_volume   503.67981536
_cell_formula_units_Z   2
loop_
 _symmetry_equiv_pos_site_id
 _symmetry_equiv_pos_as_xyz
  1  'x, y, z'
loop_
 _atom_site_type_symbol
 _atom_site_label
 _atom_site_symmetry_multiplicity
 _atom_site_fract_x
 _atom_site_fract_y
 _atom_site_fract_z
 _atom_site_occupancy
  Ag  Ag0  1  -0.91150472  -0.88138024  -0.63870888  1.0
  Ag  Ag1  1  -0.08849528  -0.11861976  -0.36129112  1.0
  H  H2  1  -0.41806740  -0.32496282  -0.91396478  1.0
  H  H3  1  -0.58193260  -0.67503718  -0.08603522  1.0
  H  H4  1  -0.73409758  -0.24343091  -0.85014331  1.0
  H  H5  1  -0.26590242  -0.75656909  -0.14985669  1.0
  H  H6  1  -0.53060499  -0.59397582  -0.81730355  1.0
  H  H7  1  -0.46939501  -0.40602418  -0.18269645  1.0
  H  H8  1  -0.62401056  -0.36794946  -0.69320900  1.0
  H  H9  1  -0.37598944  -0.63205054  -0.30679100  1.0
  H  H10  1  -0.62931316  -0.96396364  -0.57650767  1.0
  H  H11  1  -0.37068684  -0.03603636  -0.42349233  1.0
  H  H12  1  -0.56291885  -0.75684717  -0.52286306  1.0
  H  H13  1  -0.43708115  -0.24315283  -0.47713694  1.0
  H  H14  1  -0.70363889  -0.52443945  -0.41425021  1.0
  H  H15  1  -0.29636111  -0.47556055  -0.58574979  1.0
  H  H16  1  -0.87834084  -0.53499653  -0.41152903  1.0
  H  H17  1  -0.12165916  -0.46500347  -0.58847097  1.0
  C  C18  1  -0.98110890  -0.28135270  -0.89948089  1.0
  C  C19  1  -0.01889110  -0.71864730  -0.10051911  1.0
  C  C20  1  -0.61469492  -0.83829760  -0.84579193  1.0
  C  C21  1  -0.38530508  -0.16170240  -0.15420807  1.0
  C  C22  1  -0.82129048  -0.39006436  -0.64397186  1.0
  C  C23  1  -0.17870952  -0.60993564  -0.35602814  1.0
  C  C24  1  -0.74023329  -0.95838252  -0.17081358  1.0
  C  C25  1  -0.25976671  -0.04161748  -0.82918642  1.0
  N  N26  1  -0.31997448  -1.02747513  -1.02745807  1.0
  N  N27  1  -0.68002552  0.02747513  0.02745807  1.0
  N  N28  1  -0.98100088  -0.78193884  -0.93486759  1.0
  N  N29  1  -0.01899912  -0.21806116  -0.06513241  1.0
  N  N30  1  -0.57960262  -0.69117415  -0.92265092  1.0
  N  N31  1  -0.42039738  -0.30882585  -0.07734908  1.0
  N  N32  1  -0.71991811  -0.33244707  -0.73709080  1.0
  N  N33  1  -0.28008189  -0.66755293  -0.26290920  1.0
  N  N34  1  -0.94960603  -0.35317256  -0.71651309  1.0
  N  N35  1  -0.05039397  -0.64682744  -0.28348691  1.0
  N  N36  1  -0.58443564  -0.85946219  -0.63059911  1.0
  N  N37  1  -0.41556436  -0.14053781  -0.36940089  1.0
  N  N38  1  -0.79820773  -0.48740969  -0.47358960  1.0
  N  N39  1  -0.20179227  -0.51259031  -0.52641040  1.0
  N  N40  1  -0.80228494  -0.96262661  -0.35240133  1.0
  N  N41  1  -0.19771506  -0.03737339  -0.64759867  1.0
  F  F42  1  -0.45168593  -0.40130840  -0.67511565  1.0
  F  F43  1  -0.54831407  -0.59869160  -0.32488435  1.0
