# generated using pymatgen
data_Re6P13
_symmetry_space_group_name_H-M   'P 1'
_cell_length_a   9.51814656
_cell_length_b   9.51814656
_cell_length_c   9.51814656
_cell_angle_alpha   111.75384181
_cell_angle_beta   111.75384181
_cell_angle_gamma   111.75384181
_symmetry_Int_Tables_number   1
_chemical_formula_structural   Re6P13
_chemical_formula_sum   'Re12 P26'
_cell_volume   601.20583503
_cell_formula_units_Z   2
loop_
 _symmetry_equiv_pos_site_id
 _symmetry_equiv_pos_as_xyz
  1  'x, y, z'
loop_
 _atom_site_type_symbol
 _atom_site_label
 _atom_site_symmetry_multiplicity
 _atom_site_fract_x
 _atom_site_fract_y
 _atom_site_fract_z
 _atom_site_occupancy
  Re  Re0  1  0.83099350  0.40986072  0.32091431  1.0
  Re  Re1  1  0.67908569  1.16900650  -0.40986072  1.0
  Re  Re2  1  0.59013928  0.67908569  -0.83099350  1.0
  Re  Re3  1  1.16900650  0.59013928  0.67908569  1.0
  Re  Re4  1  1.32091431  0.83099350  0.40986072  1.0
  Re  Re5  1  0.40986072  0.32091431  -0.16900650  1.0
  Re  Re6  1  1.00225635  0.23042292  0.33452830  1.0
  Re  Re7  1  0.66547170  -0.00225635  -0.23042292  1.0
  Re  Re8  1  0.76957708  0.66547170  -0.00225635  1.0
  Re  Re9  1  0.99774365  0.76957708  0.66547170  1.0
  Re  Re10  1  0.33452830  1.00225635  -0.76957708  1.0
  Re  Re11  1  1.23042292  1.33452830  0.00225635  1.0
  P  P12  1  0.88761345  0.27353457  0.09676418  1.0
  P  P13  1  0.90323582  1.11238655  -0.27353457  1.0
  P  P14  1  0.72646543  -0.09676418  0.11238655  1.0
  P  P15  1  1.11238655  0.72646543  0.90323582  1.0
  P  P16  1  1.09676418  0.88761345  0.27353457  1.0
  P  P17  1  0.27353457  0.09676418  -0.11238655  1.0
  P  P18  1  0.70475696  0.49104190  0.11997607  1.0
  P  P19  1  0.88002393  0.29524304  0.50895810  1.0
  P  P20  1  0.50895810  0.88002393  -0.70475696  1.0
  P  P21  1  1.29524304  0.50895810  0.88002393  1.0
  P  P22  1  1.11997607  0.70475696  0.49104190  1.0
  P  P23  1  0.49104190  0.11997607  -0.29524304  1.0
  P  P24  1  1.30308758  0.49699888  0.53564349  1.0
  P  P25  1  1.46435651  0.69691242  0.50300112  1.0
  P  P26  1  0.50300112  0.46435651  -0.30308758  1.0
  P  P27  1  0.69691242  0.50300112  0.46435651  1.0
  P  P28  1  0.53564349  1.30308758  -0.50300112  1.0
  P  P29  1  0.49699888  0.53564349  -0.69691242  1.0
  P  P30  1  1.11175623  1.10423857  0.50053741  1.0
  P  P31  1  0.49946259  -0.11175623  -0.10423857  1.0
  P  P32  1  0.89576143  1.49946259  -0.11175623  1.0
  P  P33  1  0.88824377  0.89576143  -0.50053741  1.0
  P  P34  1  0.50053741  0.11175623  0.10423857  1.0
  P  P35  1  1.10423857  0.50053741  0.11175623  1.0
  P  P36  1  0.13168060  0.13168060  0.13168060  1.0
  P  P37  1  0.86831940  0.86831940  0.86831940  1.0
