# generated using pymatgen
data_KScS2
_symmetry_space_group_name_H-M   'P 1'
_cell_length_a   7.62005099
_cell_length_b   7.62005099
_cell_length_c   7.62005099
_cell_angle_alpha   29.20825569
_cell_angle_beta   29.20825569
_cell_angle_gamma   29.20825569
_symmetry_Int_Tables_number   1
_chemical_formula_structural   KScS2
_chemical_formula_sum   'K1 Sc1 S2'
_cell_volume   93.22035719
_cell_formula_units_Z   1
loop_
 _symmetry_equiv_pos_site_id
 _symmetry_equiv_pos_as_xyz
  1  'x, y, z'
loop_
 _atom_site_type_symbol
 _atom_site_label
 _atom_site_symmetry_multiplicity
 _atom_site_fract_x
 _atom_site_fract_y
 _atom_site_fract_z
 _atom_site_occupancy
  K  K0  1  0.00000000  0.00000000  0.00000000  1.0
  Sc  Sc1  1  1.50000000  0.50000000  0.50000000  1.0
  S  S2  1  0.76921472  0.76921472  0.76921472  1.0
  S  S3  1  1.23078528  1.23078528  0.23078528  1.0
