# generated using pymatgen
data_Y10Cd3Ru
_symmetry_space_group_name_H-M   'P 1'
_cell_length_a   9.65613984
_cell_length_b   9.65613984
_cell_length_c   9.81196872
_cell_angle_alpha   90.00000000
_cell_angle_beta   90.00000000
_cell_angle_gamma   120.00000000
_symmetry_Int_Tables_number   1
_chemical_formula_structural   Y10Cd3Ru
_chemical_formula_sum   'Y20 Cd6 Ru2'
_cell_volume   792.30770550
_cell_formula_units_Z   2
loop_
 _symmetry_equiv_pos_site_id
 _symmetry_equiv_pos_as_xyz
  1  'x, y, z'
loop_
 _atom_site_type_symbol
 _atom_site_label
 _atom_site_symmetry_multiplicity
 _atom_site_fract_x
 _atom_site_fract_y
 _atom_site_fract_z
 _atom_site_occupancy
  Y  Y0  1  0.20994185  0.79005815  0.43954969  1.0
  Y  Y1  1  0.20994185  0.79005815  0.06045031  1.0
  Y  Y2  1  0.20994185  0.41988370  0.43954969  1.0
  Y  Y3  1  0.20994185  0.41988370  0.06045031  1.0
  Y  Y4  1  0.79005815  0.20994185  0.93954969  1.0
  Y  Y5  1  0.79005815  0.20994185  0.56045031  1.0
  Y  Y6  1  0.79005815  0.58011630  0.93954969  1.0
  Y  Y7  1  0.79005815  0.58011630  0.56045031  1.0
  Y  Y8  1  0.58011630  0.79005815  0.43954969  1.0
  Y  Y9  1  0.58011630  0.79005815  0.06045031  1.0
  Y  Y10  1  0.41988370  0.20994185  0.93954969  1.0
  Y  Y11  1  0.41988370  0.20994185  0.56045031  1.0
  Y  Y12  1  0.54145586  0.45854414  0.25000000  1.0
  Y  Y13  1  0.54145586  0.08291173  0.25000000  1.0
  Y  Y14  1  0.45854414  0.54145586  0.75000000  1.0
  Y  Y15  1  0.45854414  0.91708827  0.75000000  1.0
  Y  Y16  1  0.91708827  0.45854414  0.25000000  1.0
  Y  Y17  1  0.08291173  0.54145586  0.75000000  1.0
  Y  Y18  1  0.00000000  0.00000000  0.50000000  1.0
  Y  Y19  1  0.00000000  0.00000000  0.00000000  1.0
  Cd  Cd20  1  0.88501315  0.11498685  0.25000000  1.0
  Cd  Cd21  1  0.88501315  0.77002629  0.25000000  1.0
  Cd  Cd22  1  0.11498685  0.88501315  0.75000000  1.0
  Cd  Cd23  1  0.11498685  0.22997371  0.75000000  1.0
  Cd  Cd24  1  0.22997371  0.11498685  0.25000000  1.0
  Cd  Cd25  1  0.77002629  0.88501315  0.75000000  1.0
  Ru  Ru26  1  0.33333333  0.66666667  0.25000000  1.0
  Ru  Ru27  1  0.66666667  0.33333333  0.75000000  1.0
