# generated using pymatgen
data_Gd3GaO6
_symmetry_space_group_name_H-M   'P 1'
_cell_length_a   7.26892210
_cell_length_b   7.26892210
_cell_length_c   5.51625901
_cell_angle_alpha   90.00000000
_cell_angle_beta   90.00000000
_cell_angle_gamma   102.84088159
_symmetry_Int_Tables_number   1
_chemical_formula_structural   Gd3GaO6
_chemical_formula_sum   'Gd6 Ga2 O12'
_cell_volume   284.17462656
_cell_formula_units_Z   2
loop_
 _symmetry_equiv_pos_site_id
 _symmetry_equiv_pos_as_xyz
  1  'x, y, z'
loop_
 _atom_site_type_symbol
 _atom_site_label
 _atom_site_symmetry_multiplicity
 _atom_site_fract_x
 _atom_site_fract_y
 _atom_site_fract_z
 _atom_site_occupancy
  Gd  Gd0  1  -0.08743217  1.70089469  0.46772023  1.0
  Gd  Gd1  1  0.70089469  0.91256783  0.96772023  1.0
  Gd  Gd2  1  -0.70089469  1.08743217  0.46772023  1.0
  Gd  Gd3  1  0.08743217  0.29910531  0.96772023  1.0
  Gd  Gd4  1  0.39706635  0.60293365  0.42229076  1.0
  Gd  Gd5  1  -0.39706635  1.39706635  0.92229076  1.0
  Ga  Ga6  1  0.19251102  0.80748898  0.00047578  1.0
  Ga  Ga7  1  -0.19251102  1.19251102  0.50047578  1.0
  O  O8  1  0.10640062  0.58038142  0.17468411  1.0
  O  O9  1  -0.41961858  1.10640062  0.67468411  1.0
  O  O10  1  0.41961858  0.89359938  0.17468411  1.0
  O  O11  1  -0.10640062  1.41961858  0.67468411  1.0
  O  O12  1  -0.32493034  1.64472928  0.19659045  1.0
  O  O13  1  0.64472928  0.67506966  0.69659045  1.0
  O  O14  1  -0.64472928  1.32493034  0.19659045  1.0
  O  O15  1  0.32493034  0.35527072  0.69659045  1.0
  O  O16  1  0.04033880  0.95966120  0.13891773  1.0
  O  O17  1  -0.04033880  1.04033880  0.63891773  1.0
  O  O18  1  0.21496256  0.78503744  0.66622615  1.0
  O  O19  1  -0.21496256  1.21496256  0.16622615  1.0
