# generated using pymatgen
data_Re2Cl5O4
_symmetry_space_group_name_H-M   'P 1'
_cell_length_a   6.32768744
_cell_length_b   6.52546706
_cell_length_c   8.41989098
_cell_angle_alpha   68.60189767
_cell_angle_beta   78.62038351
_cell_angle_gamma   84.78089789
_symmetry_Int_Tables_number   1
_chemical_formula_structural   Re2Cl5O4
_chemical_formula_sum   'Re2 Cl5 O4'
_cell_volume   317.26919990
_cell_formula_units_Z   1
loop_
 _symmetry_equiv_pos_site_id
 _symmetry_equiv_pos_as_xyz
  1  'x, y, z'
loop_
 _atom_site_type_symbol
 _atom_site_label
 _atom_site_symmetry_multiplicity
 _atom_site_fract_x
 _atom_site_fract_y
 _atom_site_fract_z
 _atom_site_occupancy
  Re  Re0  1  0.40923866  0.48663227  0.84010927  1.0
  Re  Re1  1  0.06531497  0.03079157  0.27260602  1.0
  O  O2  1  0.18346523  0.57511992  0.74958535  1.0
  O  O3  1  0.33560868  0.30466905  0.05038717  1.0
  O  O4  1  0.52808172  0.70893879  0.84420238  1.0
  O  O5  1  0.88878719  0.84884538  0.41892129  1.0
  Cl  Cl6  1  0.02232335  -0.01074379  0.02043354  1.0
  Cl  Cl7  1  0.20077615  0.17040132  0.44488685  1.0
  Cl  Cl8  1  0.37523419  0.82056290  0.26450641  1.0
  Cl  Cl9  1  0.63576512  0.32342260  0.68420067  1.0
  Cl  Cl10  1  0.85460476  0.34545998  0.19556107  1.0
