# generated using pymatgen
data_CaH4SeO6
_symmetry_space_group_name_H-M   'P 1'
_cell_length_a   8.46165176
_cell_length_b   8.46165176
_cell_length_c   5.86896746
_cell_angle_alpha   79.99683298
_cell_angle_beta   100.00316702
_cell_angle_gamma   46.43400061
_symmetry_Int_Tables_number   1
_chemical_formula_structural   CaH4SeO6
_chemical_formula_sum   'Ca2 H8 Se2 O12'
_cell_volume   273.32844879
_cell_formula_units_Z   2
loop_
 _symmetry_equiv_pos_site_id
 _symmetry_equiv_pos_as_xyz
  1  'x, y, z'
loop_
 _atom_site_type_symbol
 _atom_site_label
 _atom_site_symmetry_multiplicity
 _atom_site_fract_x
 _atom_site_fract_y
 _atom_site_fract_z
 _atom_site_occupancy
  Ca  Ca0  1  0.33095660  0.33095660  0.75000000  1.0
  Ca  Ca1  1  0.66904340  -0.33095660  0.25000000  1.0
  H  H2  1  0.26812296  -0.25470784  0.92584338  1.0
  H  H3  1  1.25470784  -0.26812296  0.42584338  1.0
  H  H4  1  0.74529216  -0.73187704  0.57415662  1.0
  H  H5  1  0.73187704  0.25470784  0.07415662  1.0
  H  H6  1  0.33987406  -0.16770011  0.75515846  1.0
  H  H7  1  1.16770011  -0.33987406  0.25515846  1.0
  H  H8  1  0.83229989  -0.66012594  0.74484154  1.0
  H  H9  1  0.66012594  0.16770011  0.24484154  1.0
  Se  Se10  1  0.83109223  -0.16890777  0.75000000  1.0
  Se  Se11  1  0.16890777  0.16890777  0.25000000  1.0
  O  O12  1  0.67060832  -0.12936118  0.91106879  1.0
  O  O13  1  1.12936118  -0.67060832  0.41106879  1.0
  O  O14  1  0.87063882  -0.32939168  0.58893121  1.0
  O  O15  1  0.32939168  0.12936118  0.08893121  1.0
  O  O16  1  0.67017581  0.11041850  0.56121609  1.0
  O  O17  1  0.88958150  -0.67017581  0.06121609  1.0
  O  O18  1  1.11041850  -0.32982419  0.93878391  1.0
  O  O19  1  0.32982419  -0.11041850  0.43878391  1.0
  O  O20  1  0.35925433  -0.22148003  0.93118937  1.0
  O  O21  1  1.22148003  -0.35925433  0.43118937  1.0
  O  O22  1  0.77851997  -0.64074567  0.56881063  1.0
  O  O23  1  0.64074567  0.22148003  0.06881063  1.0
