# generated using pymatgen
data_SiC
_symmetry_space_group_name_H-M   'P 1'
_cell_length_a   22.86565736
_cell_length_b   22.86565736
_cell_length_c   22.86565736
_cell_angle_alpha   7.76140923
_cell_angle_beta   7.76140923
_cell_angle_gamma   7.76140923
_symmetry_Int_Tables_number   1
_chemical_formula_structural   SiC
_chemical_formula_sum   'Si9 C9'
_cell_volume   189.11376607
_cell_formula_units_Z   9
loop_
 _symmetry_equiv_pos_site_id
 _symmetry_equiv_pos_as_xyz
  1  'x, y, z'
loop_
 _atom_site_type_symbol
 _atom_site_label
 _atom_site_symmetry_multiplicity
 _atom_site_fract_x
 _atom_site_fract_y
 _atom_site_fract_z
 _atom_site_occupancy
  Si  Si0  1  0.40739992  0.40739992  -0.59260008  1.0
  Si  Si1  1  0.55557601  0.55557601  -0.44442400  1.0
  Si  Si2  1  0.70369291  -0.29630709  -0.29630709  1.0
  Si  Si3  1  0.85187675  -0.14812325  -0.14812325  1.0
  Si  Si4  1  0.00004153  0.00004153  0.00004153  1.0
  Si  Si5  1  0.92595649  -0.07404351  -0.07404351  1.0
  Si  Si6  1  0.77778680  -0.22221320  -0.22221320  1.0
  Si  Si7  1  0.14816137  0.14816137  0.14816137  1.0
  Si  Si8  1  0.29632506  0.29632506  0.29632506  1.0
  C  C9  1  0.52772490  0.52772490  -0.47227510  1.0
  C  C10  1  0.67592483  -0.32407517  -0.32407517  1.0
  C  C11  1  0.75002275  -0.24997725  -0.24997725  1.0
  C  C12  1  0.97227140  -0.02772860  -0.02772860  1.0
  C  C13  1  0.82411261  -0.17588739  -0.17588739  1.0
  C  C14  1  0.89819086  -0.10180914  -0.10180914  1.0
  C  C15  1  0.12031012  0.12031012  0.12031012  1.0
  C  C16  1  0.26847199  0.26847199  0.26847199  1.0
  C  C17  1  0.37955370  0.37955370  -0.62044630  1.0
