# generated using pymatgen
data_Na2Cu3H8(CO2)8
_symmetry_space_group_name_H-M   'P 1'
_cell_length_a   7.86591111
_cell_length_b   7.97134353
_cell_length_c   9.51352808
_cell_angle_alpha   118.86514164
_cell_angle_beta   116.60188689
_cell_angle_gamma   81.70717789
_symmetry_Int_Tables_number   1
_chemical_formula_structural   Na2Cu3H8(CO2)8
_chemical_formula_sum   'Na2 Cu3 H8 C8 O16'
_cell_volume   465.12672250
_cell_formula_units_Z   1
loop_
 _symmetry_equiv_pos_site_id
 _symmetry_equiv_pos_as_xyz
  1  'x, y, z'
loop_
 _atom_site_type_symbol
 _atom_site_label
 _atom_site_symmetry_multiplicity
 _atom_site_fract_x
 _atom_site_fract_y
 _atom_site_fract_z
 _atom_site_occupancy
  C  C0  1  -0.74191961  -0.66461543  -0.82787555  1.0
  C  C1  1  -0.25808039  0.66461543  -0.17212445  1.0
  C  C2  1  -0.25034778  0.09211793  -0.73194472  1.0
  C  C3  1  -0.74965222  -0.09211793  -0.26805528  1.0
  C  C4  1  -0.84964719  0.34813486  -0.31246313  1.0
  C  C5  1  -0.15035281  -0.34813486  -0.68753687  1.0
  C  C6  1  -0.29781848  0.21347456  -0.15100278  1.0
  C  C7  1  -0.70218152  -0.21347456  -0.84899722  1.0
  O  O8  1  -0.78634458  -0.80404054  -0.81387268  1.0
  O  O9  1  -0.21365542  0.80404054  -0.18612732  1.0
  O  O10  1  -0.10215414  0.03121504  -0.75411127  1.0
  O  O11  1  -0.89784586  -0.03121504  -0.24588873  1.0
  O  O12  1  -0.78514170  0.23626042  -0.42372866  1.0
  O  O13  1  -0.21485830  -0.23626042  -0.57627134  1.0
  O  O14  1  -0.31770980  0.11727268  -0.30894249  1.0
  O  O15  1  -0.68229020  -0.11727268  -0.69105751  1.0
  O  O16  1  -0.29225596  0.10912180  -0.61204181  1.0
  O  O17  1  -0.70774404  -0.10912180  -0.38795819  1.0
  O  O18  1  -0.97427242  0.30947256  -0.28058900  1.0
  O  O19  1  -0.02572758  -0.30947256  -0.71941100  1.0
  O  O20  1  -0.59271521  -0.55516919  -0.71597094  1.0
  O  O21  1  -0.40728479  0.55516919  -0.28402906  1.0
  O  O22  1  -0.17834590  0.20002491  -0.01290807  1.0
  O  O23  1  -0.82165410  -0.20002491  -0.98709193  1.0
  H  H24  1  -0.35651352  0.13688528  -0.82923284  1.0
  H  H25  1  -0.64348648  -0.13688528  -0.17076716  1.0
  H  H26  1  -0.78967525  0.50041606  -0.23218053  1.0
  H  H27  1  -0.21032475  -0.50041606  -0.76781947  1.0
  H  H28  1  -0.39616328  0.32738215  -0.12460039  1.0
  H  H29  1  -0.60383672  -0.32738215  -0.87539961  1.0
  H  H30  1  -0.84212804  -0.64650800  -0.94547370  1.0
  H  H31  1  -0.15787196  0.64650800  -0.05452630  1.0
  Cu  Cu32  1  -0.10686869  0.04381541  -0.41840148  1.0
  Cu  Cu33  1  -0.89313131  -0.04381541  -0.58159852  1.0
  Cu  Cu34  1  0.00000000  0.00000000  0.00000000  1.0
  Na  Na35  1  -0.54437508  0.24609291  -0.51879189  1.0
  Na  Na36  1  -0.45562492  -0.24609291  -0.48120811  1.0
