# generated using pymatgen
data_Gd4CoS7
_symmetry_space_group_name_H-M   'P 1'
_cell_length_a   9.61909977
_cell_length_b   9.61909977
_cell_length_c   6.64174860
_cell_angle_alpha   90.00000000
_cell_angle_beta   90.00000000
_cell_angle_gamma   120.00000000
_symmetry_Int_Tables_number   1
_chemical_formula_structural   Gd4CoS7
_chemical_formula_sum   'Gd8 Co2 S14'
_cell_volume   532.20864292
_cell_formula_units_Z   2
loop_
 _symmetry_equiv_pos_site_id
 _symmetry_equiv_pos_as_xyz
  1  'x, y, z'
loop_
 _atom_site_type_symbol
 _atom_site_label
 _atom_site_symmetry_multiplicity
 _atom_site_fract_x
 _atom_site_fract_y
 _atom_site_fract_z
 _atom_site_occupancy
  Gd  Gd0  1  0.84596262  0.62817842  0.20641611  1.0
  Gd  Gd1  1  0.62817842  0.78221580  0.70641611  1.0
  Gd  Gd2  1  0.78221580  0.15403738  0.20641611  1.0
  Gd  Gd3  1  0.37182158  0.21778420  0.20641611  1.0
  Gd  Gd4  1  0.15403738  0.37182158  0.70641611  1.0
  Gd  Gd5  1  0.21778420  0.84596262  0.70641611  1.0
  Gd  Gd6  1  0.33333333  0.66666667  0.15978941  1.0
  Gd  Gd7  1  0.66666667  0.33333333  0.65978941  1.0
  Co  Co8  1  0.00000000  0.00000000  0.06224912  1.0
  Co  Co9  1  0.00000000  0.00000000  0.56224912  1.0
  S  S10  1  0.12250005  0.90557812  0.31811955  1.0
  S  S11  1  0.90557812  0.78307808  0.81811955  1.0
  S  S12  1  0.78307808  0.87749995  0.31811955  1.0
  S  S13  1  0.09442188  0.21692192  0.31811955  1.0
  S  S14  1  0.87749995  0.09442188  0.81811955  1.0
  S  S15  1  0.21692192  0.12250005  0.81811955  1.0
  S  S16  1  0.56165514  0.49112551  0.45066467  1.0
  S  S17  1  0.49112551  0.92947037  0.95066467  1.0
  S  S18  1  0.92947037  0.43834486  0.45066467  1.0
  S  S19  1  0.50887449  0.07052963  0.45066467  1.0
  S  S20  1  0.43834486  0.50887449  0.95066467  1.0
  S  S21  1  0.07052963  0.56165514  0.95066467  1.0
  S  S22  1  0.33333333  0.66666667  0.54836048  1.0
  S  S23  1  0.66666667  0.33333333  0.04836048  1.0
