# generated using pymatgen
data_NaGe
_symmetry_space_group_name_H-M   'P 1'
_cell_length_a   11.89622401
_cell_length_b   6.65700672
_cell_length_c   11.64836107
_cell_angle_alpha   90.00000000
_cell_angle_beta   116.02257873
_cell_angle_gamma   90.00000000
_symmetry_Int_Tables_number   1
_chemical_formula_structural   NaGe
_chemical_formula_sum   'Na16 Ge16'
_cell_volume   828.95246197
_cell_formula_units_Z   16
loop_
 _symmetry_equiv_pos_site_id
 _symmetry_equiv_pos_as_xyz
  1  'x, y, z'
loop_
 _atom_site_type_symbol
 _atom_site_label
 _atom_site_symmetry_multiplicity
 _atom_site_fract_x
 _atom_site_fract_y
 _atom_site_fract_z
 _atom_site_occupancy
  Na  Na0  1  0.90024578  0.30384194  0.89384205  1.0
  Na  Na1  1  0.90024578  0.19615806  0.39384205  1.0
  Na  Na2  1  0.09975422  0.80384194  0.60615795  1.0
  Na  Na3  1  0.09975422  0.69615806  0.10615795  1.0
  Na  Na4  1  0.89006436  0.82369474  0.76490333  1.0
  Na  Na5  1  0.89006436  0.67630526  0.26490333  1.0
  Na  Na6  1  0.10993564  0.32369474  0.73509667  1.0
  Na  Na7  1  0.10993564  0.17630526  0.23509667  1.0
  Na  Na8  1  0.59180366  0.56232584  0.73465811  1.0
  Na  Na9  1  0.59180366  0.93767416  0.23465811  1.0
  Na  Na10  1  0.40819634  0.06232584  0.76534189  1.0
  Na  Na11  1  0.40819634  0.43767416  0.26534189  1.0
  Na  Na12  1  0.35674423  0.64470124  0.95215457  1.0
  Na  Na13  1  0.35674423  0.85529876  0.45215457  1.0
  Na  Na14  1  0.64325577  0.14470124  0.54784543  1.0
  Na  Na15  1  0.64325577  0.35529876  0.04784543  1.0
  Ge  Ge16  1  0.81761473  0.69319241  0.97542719  1.0
  Ge  Ge17  1  0.81761473  0.80680759  0.47542719  1.0
  Ge  Ge18  1  0.18238527  0.19319241  0.52457281  1.0
  Ge  Ge19  1  0.18238527  0.30680759  0.02457281  1.0
  Ge  Ge20  1  0.83204381  0.46558356  0.58947259  1.0
  Ge  Ge21  1  0.83204381  0.03441644  0.08947259  1.0
  Ge  Ge22  1  0.16795619  0.96558356  0.91052741  1.0
  Ge  Ge23  1  0.16795619  0.53441644  0.41052741  1.0
  Ge  Ge24  1  0.69408866  0.48927973  0.34310430  1.0
  Ge  Ge25  1  0.69408866  0.01072027  0.84310430  1.0
  Ge  Ge26  1  0.30591134  0.98927973  0.15689570  1.0
  Ge  Ge27  1  0.30591134  0.51072027  0.65689570  1.0
  Ge  Ge28  1  0.62421496  0.82696490  0.99674191  1.0
  Ge  Ge29  1  0.62421496  0.67303510  0.49674191  1.0
  Ge  Ge30  1  0.37578504  0.32696490  0.50325809  1.0
  Ge  Ge31  1  0.37578504  0.17303510  0.00325809  1.0
