# generated using pymatgen
data_Ba2HN
_symmetry_space_group_name_H-M   'P 1'
_cell_length_a   7.30226464
_cell_length_b   7.30226464
_cell_length_c   7.30226464
_cell_angle_alpha   32.09062438
_cell_angle_beta   32.09062438
_cell_angle_gamma   32.09062438
_symmetry_Int_Tables_number   1
_chemical_formula_structural   Ba2HN
_chemical_formula_sum   'Ba2 H1 N1'
_cell_volume   97.65698769
_cell_formula_units_Z   1
loop_
 _symmetry_equiv_pos_site_id
 _symmetry_equiv_pos_as_xyz
  1  'x, y, z'
loop_
 _atom_site_type_symbol
 _atom_site_label
 _atom_site_symmetry_multiplicity
 _atom_site_fract_x
 _atom_site_fract_y
 _atom_site_fract_z
 _atom_site_occupancy
  Ba  Ba0  1  0.76070819  0.76070819  0.76070819  1.0
  Ba  Ba1  1  1.23929181  1.23929181  0.23929181  1.0
  H  H2  1  0.00000000  0.00000000  0.00000000  1.0
  N  N3  1  1.50000000  0.50000000  0.50000000  1.0
