# generated using pymatgen
data_Na2In5Au6
_symmetry_space_group_name_H-M   'P 1'
_cell_length_a   9.45795642
_cell_length_b   9.45795642
_cell_length_c   9.45795642
_cell_angle_alpha   90.00000000
_cell_angle_beta   90.00000000
_cell_angle_gamma   90.00000000
_symmetry_Int_Tables_number   1
_chemical_formula_structural   Na2In5Au6
_chemical_formula_sum   'Na6 In15 Au18'
_cell_volume   846.04200444
_cell_formula_units_Z   3
loop_
 _symmetry_equiv_pos_site_id
 _symmetry_equiv_pos_as_xyz
  1  'x, y, z'
loop_
 _atom_site_type_symbol
 _atom_site_label
 _atom_site_symmetry_multiplicity
 _atom_site_fract_x
 _atom_site_fract_y
 _atom_site_fract_z
 _atom_site_occupancy
  Na  Na0  1  0.82848213  0.00000000  0.50000000  1.0
  Na  Na1  1  0.00000000  0.50000000  0.82848213  1.0
  Na  Na2  1  0.00000000  0.50000000  0.17151787  1.0
  Na  Na3  1  0.50000000  0.82848213  0.00000000  1.0
  Na  Na4  1  0.50000000  0.17151787  0.00000000  1.0
  Na  Na5  1  0.17151787  0.00000000  0.50000000  1.0
  In  In6  1  0.71665474  0.71665474  0.71665474  1.0
  In  In7  1  0.71665474  0.71665474  0.28334526  1.0
  In  In8  1  0.71665474  0.28334526  0.71665474  1.0
  In  In9  1  0.71665474  0.28334526  0.28334526  1.0
  In  In10  1  0.28334526  0.71665474  0.71665474  1.0
  In  In11  1  0.28334526  0.71665474  0.28334526  1.0
  In  In12  1  0.28334526  0.28334526  0.71665474  1.0
  In  In13  1  0.28334526  0.28334526  0.28334526  1.0
  In  In14  1  0.66523881  0.50000000  0.00000000  1.0
  In  In15  1  0.50000000  0.00000000  0.66523881  1.0
  In  In16  1  0.50000000  0.00000000  0.33476119  1.0
  In  In17  1  0.00000000  0.66523881  0.50000000  1.0
  In  In18  1  0.00000000  0.33476119  0.50000000  1.0
  In  In19  1  0.33476119  0.50000000  0.00000000  1.0
  In  In20  1  0.00000000  0.00000000  0.00000000  1.0
  Au  Au21  1  0.00000000  0.82721436  0.74097425  1.0
  Au  Au22  1  0.00000000  0.82721436  0.25902575  1.0
  Au  Au23  1  0.00000000  0.17278564  0.74097425  1.0
  Au  Au24  1  0.00000000  0.17278564  0.25902575  1.0
  Au  Au25  1  0.82721436  0.74097425  -0.00000000  1.0
  Au  Au26  1  0.82721436  0.25902575  -0.00000000  1.0
  Au  Au27  1  0.74097425  0.00000000  0.82721436  1.0
  Au  Au28  1  0.74097425  0.00000000  0.17278564  1.0
  Au  Au29  1  0.17278564  0.74097425  -0.00000000  1.0
  Au  Au30  1  0.17278564  0.25902575  -0.00000000  1.0
  Au  Au31  1  0.25902575  0.00000000  0.82721436  1.0
  Au  Au32  1  0.25902575  0.00000000  0.17278564  1.0
  Au  Au33  1  0.73881446  0.50000000  0.50000000  1.0
  Au  Au34  1  0.50000000  0.50000000  0.73881446  1.0
  Au  Au35  1  0.50000000  0.50000000  0.26118554  1.0
  Au  Au36  1  0.50000000  0.73881446  0.50000000  1.0
  Au  Au37  1  0.50000000  0.26118554  0.50000000  1.0
  Au  Au38  1  0.26118554  0.50000000  0.50000000  1.0
