# generated using pymatgen
data_K3Ge17
_symmetry_space_group_name_H-M   'P 1'
_cell_length_a   11.29139935
_cell_length_b   11.29139935
_cell_length_c   11.29139935
_cell_angle_alpha   60.00000000
_cell_angle_beta   60.00000000
_cell_angle_gamma   60.00000000
_symmetry_Int_Tables_number   1
_chemical_formula_structural   K3Ge17
_chemical_formula_sum   'K6 Ge34'
_cell_volume   1017.95435714
_cell_formula_units_Z   2
loop_
 _symmetry_equiv_pos_site_id
 _symmetry_equiv_pos_as_xyz
  1  'x, y, z'
loop_
 _atom_site_type_symbol
 _atom_site_label
 _atom_site_symmetry_multiplicity
 _atom_site_fract_x
 _atom_site_fract_y
 _atom_site_fract_z
 _atom_site_occupancy
  K  K0  1  1.12500000  0.62500000  0.62500000  1.0
  K  K1  1  0.62500000  1.12500000  -0.37500000  1.0
  K  K2  1  -0.37500000  0.62500000  1.12500000  1.0
  K  K3  1  -0.37500000  0.62500000  0.62500000  1.0
  K  K4  1  0.25000000  1.25000000  0.25000000  1.0
  K  K5  1  -0.00000000  -0.00000000  0.00000000  1.0
  Ge  Ge6  1  0.75000000  0.75000000  0.75000000  1.0
  Ge  Ge7  1  0.50000000  -0.50000000  0.50000000  1.0
  Ge  Ge8  1  0.46845931  0.84384690  -0.15615310  1.0
  Ge  Ge9  1  0.84384690  0.46845931  0.84384690  1.0
  Ge  Ge10  1  0.84384690  0.84384690  -0.53154069  1.0
  Ge  Ge11  1  0.84384690  0.84384690  0.84384690  1.0
  Ge  Ge12  1  -0.21845931  0.40615310  0.40615310  1.0
  Ge  Ge13  1  0.40615310  -0.21845931  0.40615310  1.0
  Ge  Ge14  1  0.40615310  1.40615310  -0.21845931  1.0
  Ge  Ge15  1  0.40615310  1.40615310  0.40615310  1.0
  Ge  Ge16  1  0.38856628  0.99638484  -0.00361516  1.0
  Ge  Ge17  1  0.99638484  0.38856628  -0.38133596  1.0
  Ge  Ge18  1  0.99638484  0.61866404  -0.61143372  1.0
  Ge  Ge19  1  0.61866404  0.99638484  -0.00361516  1.0
  Ge  Ge20  1  0.99638484  0.99638484  -0.61143372  1.0
  Ge  Ge21  1  -0.61143372  0.61866404  0.99638484  1.0
  Ge  Ge22  1  -0.38133596  0.38856628  0.99638484  1.0
  Ge  Ge23  1  0.99638484  0.99638484  -0.38133596  1.0
  Ge  Ge24  1  0.99638484  0.38856628  0.99638484  1.0
  Ge  Ge25  1  0.61866404  0.99638484  0.38856628  1.0
  Ge  Ge26  1  0.38856628  0.99638484  0.61866404  1.0
  Ge  Ge27  1  0.99638484  0.61866404  0.99638484  1.0
  Ge  Ge28  1  -0.13856628  0.25361516  0.25361516  1.0
  Ge  Ge29  1  0.25361516  -0.13856628  1.63133596  1.0
  Ge  Ge30  1  0.25361516  1.63133596  -0.13856628  1.0
  Ge  Ge31  1  1.63133596  0.25361516  0.25361516  1.0
  Ge  Ge32  1  0.25361516  1.25361516  -0.13856628  1.0
  Ge  Ge33  1  -0.13856628  1.63133596  0.25361516  1.0
  Ge  Ge34  1  1.63133596  -0.13856628  0.25361516  1.0
  Ge  Ge35  1  1.25361516  0.25361516  0.63133596  1.0
  Ge  Ge36  1  0.25361516  -0.13856628  0.25361516  1.0
  Ge  Ge37  1  1.63133596  0.25361516  -0.13856628  1.0
  Ge  Ge38  1  -0.13856628  0.25361516  1.63133596  1.0
  Ge  Ge39  1  0.25361516  1.63133596  0.25361516  1.0
