# generated using pymatgen
data_K4Na2H18Pd(IO10)2
_symmetry_space_group_name_H-M   'P 1'
_cell_length_a   11.05359697
_cell_length_b   7.31176933
_cell_length_c   6.89279207
_cell_angle_alpha   94.79501646
_cell_angle_beta   103.16993365
_cell_angle_gamma   93.31047627
_symmetry_Int_Tables_number   1
_chemical_formula_structural   K4Na2H18Pd(IO10)2
_chemical_formula_sum   'K4 Na2 H18 Pd1 I2 O20'
_cell_volume   538.83869745
_cell_formula_units_Z   1
loop_
 _symmetry_equiv_pos_site_id
 _symmetry_equiv_pos_as_xyz
  1  'x, y, z'
loop_
 _atom_site_type_symbol
 _atom_site_label
 _atom_site_symmetry_multiplicity
 _atom_site_fract_x
 _atom_site_fract_y
 _atom_site_fract_z
 _atom_site_occupancy
  K  K0  1  -0.61001238  -0.33353304  -0.59171998  1.0
  K  K1  1  -0.38998762  -0.66646696  -0.40828001  1.0
  K  K2  1  -0.87378634  -0.69335888  -0.41329180  1.0
  K  K3  1  -0.12621366  -0.30664112  -0.58670820  1.0
  Na  Na4  1  -0.23759772  -0.82142619  -0.80366864  1.0
  Na  Na5  1  -0.76240228  -0.17857381  -0.19633136  1.0
  H  H6  1  -0.12094358  -0.52471572  -0.96664055  1.0
  H  H7  1  -0.87905642  -0.47528428  -0.03335945  1.0
  H  H8  1  -0.37192599  -0.49144416  -0.88455257  1.0
  H  H9  1  -0.62807401  -0.50855584  -0.11544743  1.0
  H  H10  1  -0.47345174  -0.64371617  -0.86408659  1.0
  H  H11  1  -0.52654826  -0.35628383  -0.13591341  1.0
  H  H12  1  -0.85864802  -0.36086363  -0.66684692  1.0
  H  H13  1  -0.14135198  -0.63913637  -0.33315308  1.0
  H  H14  1  -0.85837846  -0.14280154  -0.64172077  1.0
  H  H15  1  -0.14162154  -0.85719846  -0.35827923  1.0
  H  H16  1  -0.62111252  -0.88610241  -0.39940351  1.0
  H  H17  1  -0.37888748  -0.11389759  -0.60059649  1.0
  H  H18  1  -0.60963280  -0.86643468  -0.16553601  1.0
  H  H19  1  -0.39036720  -0.13356532  -0.83446399  1.0
  H  H20  1  -0.43132153  -0.98297581  -0.19256775  1.0
  H  H21  1  -0.56867847  -0.01702419  -0.80743225  1.0
  H  H22  1  -0.99954072  -0.39163688  -0.15240862  1.0
  H  H23  1  -0.00045928  -0.60836312  -0.84759138  1.0
  Pd  Pd24  1  0.00000000  0.00000000  0.00000000  1.0
  I  I25  1  -0.74259420  -0.79653259  -0.83544783  1.0
  I  I26  1  -0.25740580  -0.20346741  -0.16455217  1.0
  O  O27  1  -0.62703676  -0.69954474  -0.97989650  1.0
  O  O28  1  -0.37296324  -0.30045526  -0.02010350  1.0
  O  O29  1  -0.66064966  -0.04621680  -0.84826953  1.0
  O  O30  1  -0.33935034  -0.95378320  -0.15173047  1.0
  O  O31  1  -0.08755169  -0.58758537  -0.84319650  1.0
  O  O32  1  -0.91244831  -0.41241463  -0.15680350  1.0
  O  O33  1  -0.82804260  -0.57244022  -0.82245533  1.0
  O  O34  1  -0.17195740  -0.42755978  -0.17754467  1.0
  O  O35  1  -0.38487041  -0.59603607  -0.80607526  1.0
  O  O36  1  -0.61512959  -0.40396393  -0.19392474  1.0
  O  O37  1  -0.87568711  -0.93641187  -0.73527551  1.0
  O  O38  1  -0.12431289  -0.06358813  -0.26472449  1.0
  O  O39  1  -0.64093347  -0.73246593  -0.57282591  1.0
  O  O40  1  -0.35906653  -0.26753407  -0.42717409  1.0
  O  O41  1  -0.85710467  -0.25540483  -0.56720026  1.0
  O  O42  1  -0.14289533  -0.74459517  -0.43279974  1.0
  O  O43  1  -0.60007464  -0.95597332  -0.27834209  1.0
  O  O44  1  -0.39992536  -0.04402668  -0.72165791  1.0
  O  O45  1  -0.85717354  -0.89899374  -0.09906011  1.0
  O  O46  1  -0.14282646  -0.10100626  -0.90093989  1.0
