# generated using pymatgen
data_K4CdP2
_symmetry_space_group_name_H-M   'P 1'
_cell_length_a   8.70782312
_cell_length_b   3.75770696
_cell_length_c   10.61890953
_cell_angle_alpha   90.00000000
_cell_angle_beta   102.30621210
_cell_angle_gamma   90.00000000
_symmetry_Int_Tables_number   1
_chemical_formula_structural   K4CdP2
_chemical_formula_sum   'K4 Cd1 P2'
_cell_volume   339.48217855
_cell_formula_units_Z   1
loop_
 _symmetry_equiv_pos_site_id
 _symmetry_equiv_pos_as_xyz
  1  'x, y, z'
loop_
 _atom_site_type_symbol
 _atom_site_label
 _atom_site_symmetry_multiplicity
 _atom_site_fract_x
 _atom_site_fract_y
 _atom_site_fract_z
 _atom_site_occupancy
  K  K0  1  0.36232191  0.00000000  0.83000592  1.0
  K  K1  1  0.63767809  0.00000000  0.16999408  1.0
  K  K2  1  0.80710783  0.00000000  0.63057403  1.0
  K  K3  1  0.19289217  0.00000000  0.36942597  1.0
  Cd  Cd4  1  0.00000000  0.00000000  0.00000000  1.0
  P  P5  1  0.72462467  0.00000000  0.89745158  1.0
  P  P6  1  0.27537533  0.00000000  0.10254842  1.0
