# generated using pymatgen
data_YB2C
_symmetry_space_group_name_H-M   'P 1'
_cell_length_a   6.83897322
_cell_length_b   6.73407095
_cell_length_c   3.73405242
_cell_angle_alpha   90.00000000
_cell_angle_beta   90.00000000
_cell_angle_gamma   90.00000000
_symmetry_Int_Tables_number   1
_chemical_formula_structural   YB2C
_chemical_formula_sum   'Y4 B8 C4'
_cell_volume   171.96853888
_cell_formula_units_Z   4
loop_
 _symmetry_equiv_pos_site_id
 _symmetry_equiv_pos_as_xyz
  1  'x, y, z'
loop_
 _atom_site_type_symbol
 _atom_site_label
 _atom_site_symmetry_multiplicity
 _atom_site_fract_x
 _atom_site_fract_y
 _atom_site_fract_z
 _atom_site_occupancy
  Y  Y0  1  0.19260624  0.81238087  0.50000000  1.0
  Y  Y1  1  0.69260624  0.68761913  0.50000000  1.0
  Y  Y2  1  0.80739376  0.18761913  0.50000000  1.0
  Y  Y3  1  0.30739376  0.31238087  0.50000000  1.0
  B  B4  1  0.46693868  0.84771882  0.00000000  1.0
  B  B5  1  0.96693868  0.65228118  0.00000000  1.0
  B  B6  1  0.53306132  0.15228118  0.00000000  1.0
  B  B7  1  0.03306132  0.34771882  0.00000000  1.0
  B  B8  1  0.40547327  0.59672349  0.00000000  1.0
  B  B9  1  0.90547327  0.90327651  0.00000000  1.0
  B  B10  1  0.59452673  0.40327651  0.00000000  1.0
  B  B11  1  0.09452673  0.09672349  0.00000000  1.0
  C  C12  1  0.17737273  0.54161832  0.00000000  1.0
  C  C13  1  0.67737273  0.95838168  0.00000000  1.0
  C  C14  1  0.82262727  0.45838168  0.00000000  1.0
  C  C15  1  0.32262727  0.04161832  0.00000000  1.0
