# generated using pymatgen
data_BaBe2(BO3)2
_symmetry_space_group_name_H-M   'P 1'
_cell_length_a   8.80481773
_cell_length_b   7.26905605
_cell_length_c   6.73638251
_cell_angle_alpha   77.80163565
_cell_angle_beta   53.79775580
_cell_angle_gamma   48.40060855
_symmetry_Int_Tables_number   1
_chemical_formula_structural   BaBe2(BO3)2
_chemical_formula_sum   'Ba2 Be4 B4 O12'
_cell_volume   248.21008031
_cell_formula_units_Z   2
loop_
 _symmetry_equiv_pos_site_id
 _symmetry_equiv_pos_as_xyz
  1  'x, y, z'
loop_
 _atom_site_type_symbol
 _atom_site_label
 _atom_site_symmetry_multiplicity
 _atom_site_fract_x
 _atom_site_fract_y
 _atom_site_fract_z
 _atom_site_occupancy
  Ba  Ba0  1  0.00000000  1.00000000  -0.00000000  1.0
  Ba  Ba1  1  0.25000000  0.25000000  0.25000000  1.0
  Be  Be2  1  -0.34261377  0.65738623  0.84261377  1.0
  Be  Be3  1  -0.15738623  0.84261377  0.65738623  1.0
  Be  Be4  1  0.59261377  0.59261377  -0.59261377  1.0
  Be  Be5  1  0.40738623  0.40738623  -0.40738623  1.0
  B  B6  1  0.28559096  0.71440904  0.28559096  1.0
  B  B7  1  0.71440904  0.28559096  -0.28559096  1.0
  B  B8  1  0.96440904  -0.46440904  0.96440904  1.0
  B  B9  1  -0.46440904  0.96440904  0.53559096  1.0
  O  O10  1  1.40239875  -0.40239875  0.40239875  1.0
  O  O11  1  0.59760125  0.40239875  -0.40239875  1.0
  O  O12  1  -0.15239875  0.65239875  0.84760125  1.0
  O  O13  1  -0.34760125  0.84760125  0.65239875  1.0
  O  O14  1  0.36118308  0.81643662  0.09370132  1.0
  O  O15  1  0.09370132  0.72867898  0.36118308  1.0
  O  O16  1  0.81643662  0.36118308  -0.27132102  1.0
  O  O17  1  -0.27132102  1.09370132  0.81643662  1.0
  O  O18  1  -0.11118308  0.43356338  0.15629868  1.0
  O  O19  1  0.15629868  0.52132102  -0.11118308  1.0
  O  O20  1  0.43356338  -0.11118308  1.52132102  1.0
  O  O21  1  0.52132102  0.15629868  1.43356338  1.0
