# generated using pymatgen
data_CdI2
_symmetry_space_group_name_H-M   'P 1'
_cell_length_a   4.32829674
_cell_length_b   4.32829674
_cell_length_c   68.25728957
_cell_angle_alpha   90.00000000
_cell_angle_beta   90.00000000
_cell_angle_gamma   120.00000000
_symmetry_Int_Tables_number   1
_chemical_formula_structural   CdI2
_chemical_formula_sum   'Cd9 I18'
_cell_volume   1107.42347768
_cell_formula_units_Z   9
loop_
 _symmetry_equiv_pos_site_id
 _symmetry_equiv_pos_as_xyz
  1  'x, y, z'
loop_
 _atom_site_type_symbol
 _atom_site_label
 _atom_site_symmetry_multiplicity
 _atom_site_fract_x
 _atom_site_fract_y
 _atom_site_fract_z
 _atom_site_occupancy
  Cd  Cd0  1  0.00000000  0.00000000  0.02779358  1.0
  Cd  Cd1  1  0.00000000  0.00000000  0.69445819  1.0
  Cd  Cd2  1  0.00000000  0.00000000  0.80554280  1.0
  Cd  Cd3  1  0.66666667  0.33333333  0.13891770  1.0
  Cd  Cd4  1  0.66666667  0.33333333  0.24999840  1.0
  Cd  Cd5  1  0.66666667  0.33333333  0.36110007  1.0
  Cd  Cd6  1  0.66666667  0.33333333  0.47220753  1.0
  Cd  Cd7  1  0.66666667  0.33333333  0.58331303  1.0
  Cd  Cd8  1  0.33333333  0.66666667  0.91666858  1.0
  I  I9  1  0.00000000  0.00000000  0.16410502  1.0
  I  I10  1  0.00000000  0.00000000  0.27518718  1.0
  I  I11  1  0.00000000  0.00000000  0.38628890  1.0
  I  I12  1  0.00000000  0.00000000  0.49739630  1.0
  I  I13  1  0.00000000  0.00000000  0.60849115  1.0
  I  I14  1  0.00000000  0.00000000  0.89149196  1.0
  I  I15  1  0.66666667  0.33333333  0.05298260  1.0
  I  I16  1  0.66666667  0.33333333  0.71963412  1.0
  I  I17  1  0.66666667  0.33333333  0.83071751  1.0
  I  I18  1  0.66666667  0.33333333  0.94184412  1.0
  I  I19  1  0.33333333  0.66666667  0.00260480  1.0
  I  I20  1  0.33333333  0.66666667  0.11373124  1.0
  I  I21  1  0.33333333  0.66666667  0.22480964  1.0
  I  I22  1  0.33333333  0.66666667  0.33591068  1.0
  I  I23  1  0.33333333  0.66666667  0.44701933  1.0
  I  I24  1  0.33333333  0.66666667  0.55813491  1.0
  I  I25  1  0.33333333  0.66666667  0.66928344  1.0
  I  I26  1  0.33333333  0.66666667  0.78036722  1.0
