# generated using pymatgen
data_KB(SO4)2
_symmetry_space_group_name_H-M   'P 1'
_cell_length_a   9.25181769
_cell_length_b   9.25181769
_cell_length_c   7.56961493
_cell_angle_alpha   90.00000000
_cell_angle_beta   90.00000000
_cell_angle_gamma   90.00000000
_symmetry_Int_Tables_number   1
_chemical_formula_structural   KB(SO4)2
_chemical_formula_sum   'K4 B4 S8 O32'
_cell_volume   647.92974835
_cell_formula_units_Z   4
loop_
 _symmetry_equiv_pos_site_id
 _symmetry_equiv_pos_as_xyz
  1  'x, y, z'
loop_
 _atom_site_type_symbol
 _atom_site_label
 _atom_site_symmetry_multiplicity
 _atom_site_fract_x
 _atom_site_fract_y
 _atom_site_fract_z
 _atom_site_occupancy
  K  K0  1  0.00000000  0.50000000  0.43954477  1.0
  K  K1  1  0.00000000  0.50000000  0.93954477  1.0
  K  K2  1  0.50000000  0.00000000  0.56045523  1.0
  K  K3  1  0.50000000  0.00000000  0.06045523  1.0
  B  B4  1  0.00000000  0.00000000  0.50000000  1.0
  B  B5  1  0.00000000  0.00000000  -0.00000000  1.0
  B  B6  1  0.50000000  0.50000000  0.00000000  1.0
  B  B7  1  0.50000000  0.50000000  0.50000000  1.0
  S  S8  1  0.15270332  0.84729668  0.25000000  1.0
  S  S9  1  0.84729668  0.84729668  0.75000000  1.0
  S  S10  1  0.15270332  0.15270332  0.75000000  1.0
  S  S11  1  0.84729668  0.15270332  0.25000000  1.0
  S  S12  1  0.34729668  0.65270332  0.75000000  1.0
  S  S13  1  0.65270332  0.65270332  0.25000000  1.0
  S  S14  1  0.34729668  0.34729668  0.25000000  1.0
  S  S15  1  0.65270332  0.34729668  0.75000000  1.0
  O  O16  1  0.87550908  0.29476775  0.17856671  1.0
  O  O17  1  0.12449092  0.29476775  0.67856671  1.0
  O  O18  1  0.87550908  0.70523225  0.67856671  1.0
  O  O19  1  0.12449092  0.70523225  0.17856671  1.0
  O  O20  1  0.79476775  0.37550908  0.67856671  1.0
  O  O21  1  0.20523225  0.37550908  0.17856671  1.0
  O  O22  1  0.79476775  0.62449092  0.17856671  1.0
  O  O23  1  0.20523225  0.62449092  0.67856671  1.0
  O  O24  1  0.62449092  0.20523225  0.82143329  1.0
  O  O25  1  0.37550908  0.20523225  0.32143329  1.0
  O  O26  1  0.62449092  0.79476775  0.32143329  1.0
  O  O27  1  0.37550908  0.79476775  0.82143329  1.0
  O  O28  1  0.70523225  0.12449092  0.32143329  1.0
  O  O29  1  0.29476775  0.12449092  0.82143329  1.0
  O  O30  1  0.70523225  0.87550908  0.82143329  1.0
  O  O31  1  0.29476775  0.87550908  0.32143329  1.0
  O  O32  1  0.37110633  0.46809337  0.39175536  1.0
  O  O33  1  0.62889367  0.46809337  0.89175536  1.0
  O  O34  1  0.37110633  0.53190663  0.89175536  1.0
  O  O35  1  0.62889367  0.53190663  0.39175536  1.0
  O  O36  1  0.96809337  0.87110633  0.89175536  1.0
  O  O37  1  0.03190663  0.87110633  0.39175536  1.0
  O  O38  1  0.96809337  0.12889367  0.39175536  1.0
  O  O39  1  0.03190663  0.12889367  0.89175536  1.0
  O  O40  1  0.12889367  0.03190663  0.60824464  1.0
  O  O41  1  0.87110633  0.03190663  0.10824464  1.0
  O  O42  1  0.12889367  0.96809337  0.10824464  1.0
  O  O43  1  0.87110633  0.96809337  0.60824464  1.0
  O  O44  1  0.53190663  0.62889367  0.10824464  1.0
  O  O45  1  0.46809337  0.62889367  0.60824464  1.0
  O  O46  1  0.53190663  0.37110633  0.60824464  1.0
  O  O47  1  0.46809337  0.37110633  0.10824464  1.0
