# generated using pymatgen
data_Sr2TlI5
_symmetry_space_group_name_H-M   'P 1'
_cell_length_a   10.02617095
_cell_length_b   9.16622383
_cell_length_c   14.51876061
_cell_angle_alpha   90.00000000
_cell_angle_beta   89.91088088
_cell_angle_gamma   90.00000000
_symmetry_Int_Tables_number   1
_chemical_formula_structural   Sr2TlI5
_chemical_formula_sum   'Sr8 Tl4 I20'
_cell_volume   1334.30336844
_cell_formula_units_Z   4
loop_
 _symmetry_equiv_pos_site_id
 _symmetry_equiv_pos_as_xyz
  1  'x, y, z'
loop_
 _atom_site_type_symbol
 _atom_site_label
 _atom_site_symmetry_multiplicity
 _atom_site_fract_x
 _atom_site_fract_y
 _atom_site_fract_z
 _atom_site_occupancy
  Sr  Sr0  1  0.99753490  0.47810217  0.17977123  1.0
  Sr  Sr1  1  0.99753490  0.02189783  0.67977123  1.0
  Sr  Sr2  1  0.00246510  0.97810217  0.32022877  1.0
  Sr  Sr3  1  0.00246510  0.52189783  0.82022877  1.0
  Sr  Sr4  1  0.75180259  0.42300490  0.49497527  1.0
  Sr  Sr5  1  0.75180259  0.07699510  0.99497527  1.0
  Sr  Sr6  1  0.24819741  0.92300490  0.00502473  1.0
  Sr  Sr7  1  0.24819741  0.57699510  0.50502473  1.0
  Tl  Tl8  1  0.51351749  0.49062337  0.18228997  1.0
  Tl  Tl9  1  0.51351749  0.00937663  0.68228997  1.0
  Tl  Tl10  1  0.48648251  0.99062337  0.31771003  1.0
  Tl  Tl11  1  0.48648251  0.50937663  0.81771003  1.0
  I  I12  1  0.95717876  0.83903162  0.10028310  1.0
  I  I13  1  0.95717876  0.66096838  0.60028310  1.0
  I  I14  1  0.04282124  0.33903162  0.39971690  1.0
  I  I15  1  0.04282124  0.16096838  0.89971690  1.0
  I  I16  1  0.77942883  0.04255025  0.49718136  1.0
  I  I17  1  0.77942883  0.45744975  0.99718136  1.0
  I  I18  1  0.22057117  0.54255025  0.00281864  1.0
  I  I19  1  0.22057117  0.95744975  0.50281864  1.0
  I  I20  1  0.77632179  0.66308087  0.31764633  1.0
  I  I21  1  0.77632179  0.83691913  0.81764633  1.0
  I  I22  1  0.22367821  0.16308087  0.18235367  1.0
  I  I23  1  0.22367821  0.33691913  0.68235367  1.0
  I  I24  1  0.76929494  0.19398737  0.21628714  1.0
  I  I25  1  0.76929494  0.30601263  0.71628714  1.0
  I  I26  1  0.23070506  0.69398737  0.28371286  1.0
  I  I27  1  0.23070506  0.80601263  0.78371286  1.0
  I  I28  1  0.46316239  0.34070661  0.40494315  1.0
  I  I29  1  0.46316239  0.15929339  0.90494315  1.0
  I  I30  1  0.53683761  0.84070661  0.09505685  1.0
  I  I31  1  0.53683761  0.65929339  0.59505685  1.0
