# generated using pymatgen
data_Sr(Ni2B)6
_symmetry_space_group_name_H-M   'P 1'
_cell_length_a   6.06973249
_cell_length_b   6.06973249
_cell_length_c   6.06973249
_cell_angle_alpha   104.46184029
_cell_angle_beta   104.46184029
_cell_angle_gamma   104.46184029
_symmetry_Int_Tables_number   1
_chemical_formula_structural   Sr(Ni2B)6
_chemical_formula_sum   'Sr1 Ni12 B6'
_cell_volume   197.71588505
_cell_formula_units_Z   1
loop_
 _symmetry_equiv_pos_site_id
 _symmetry_equiv_pos_as_xyz
  1  'x, y, z'
loop_
 _atom_site_type_symbol
 _atom_site_label
 _atom_site_symmetry_multiplicity
 _atom_site_fract_x
 _atom_site_fract_y
 _atom_site_fract_z
 _atom_site_occupancy
  Sr  Sr0  1  0.00000000  0.00000000  0.00000000  1.0
  Ni  Ni1  1  1.53964596  0.53964596  -0.18794843  1.0
  Ni  Ni2  1  1.53964596  -0.18794843  0.53964596  1.0
  Ni  Ni3  1  1.18794843  0.46035404  -0.53964596  1.0
  Ni  Ni4  1  0.46035404  1.18794843  -0.53964596  1.0
  Ni  Ni5  1  0.46035404  0.46035404  0.18794843  1.0
  Ni  Ni6  1  0.81205157  0.53964596  0.53964596  1.0
  Ni  Ni7  1  1.13159841  0.50000000  -0.13159841  1.0
  Ni  Ni8  1  1.13159841  -0.13159841  0.50000000  1.0
  Ni  Ni9  1  0.50000000  1.13159841  -0.13159841  1.0
  Ni  Ni10  1  0.50000000  0.86840159  0.13159841  1.0
  Ni  Ni11  1  0.86840159  0.50000000  0.13159841  1.0
  Ni  Ni12  1  0.86840159  0.13159841  0.50000000  1.0
  B  B13  1  1.23357594  0.23357594  -0.34180186  1.0
  B  B14  1  1.23357594  -0.34180186  0.23357594  1.0
  B  B15  1  1.34180186  0.76642406  -0.23357594  1.0
  B  B16  1  0.76642406  1.34180186  -0.23357594  1.0
  B  B17  1  0.76642406  0.76642406  0.34180186  1.0
  B  B18  1  0.65819814  0.23357594  0.23357594  1.0
