# generated using pymatgen
data_RbCrP2O7
_symmetry_space_group_name_H-M   'P 1'
_cell_length_a   7.60565351
_cell_length_b   10.01653630
_cell_length_c   8.35016868
_cell_angle_alpha   90.00000000
_cell_angle_beta   106.21834931
_cell_angle_gamma   90.00000000
_symmetry_Int_Tables_number   1
_chemical_formula_structural   RbCrP2O7
_chemical_formula_sum   'Rb4 Cr4 P8 O28'
_cell_volume   610.81964343
_cell_formula_units_Z   4
loop_
 _symmetry_equiv_pos_site_id
 _symmetry_equiv_pos_as_xyz
  1  'x, y, z'
loop_
 _atom_site_type_symbol
 _atom_site_label
 _atom_site_symmetry_multiplicity
 _atom_site_fract_x
 _atom_site_fract_y
 _atom_site_fract_z
 _atom_site_occupancy
  Rb  Rb0  1  0.81341614  0.81296191  0.44804374  1.0
  Rb  Rb1  1  0.81341614  0.68703809  0.94804374  1.0
  Rb  Rb2  1  0.18658386  0.31296191  0.05195626  1.0
  Rb  Rb3  1  0.18658386  0.18703809  0.55195626  1.0
  Cr  Cr4  1  0.76142189  0.39880958  0.24008836  1.0
  Cr  Cr5  1  0.76142189  0.10119042  0.74008836  1.0
  Cr  Cr6  1  0.23857811  0.89880958  0.25991164  1.0
  Cr  Cr7  1  0.23857811  0.60119042  0.75991164  1.0
  P  P8  1  0.87069866  0.09696099  0.16758851  1.0
  P  P9  1  0.87069866  0.40303901  0.66758851  1.0
  P  P10  1  0.12930134  0.59696099  0.33241149  1.0
  P  P11  1  0.12930134  0.90303901  0.83241149  1.0
  P  P12  1  0.56874362  0.13106011  0.31208354  1.0
  P  P13  1  0.56874362  0.36893989  0.81208354  1.0
  P  P14  1  0.43125638  0.63106011  0.18791646  1.0
  P  P15  1  0.43125638  0.86893989  0.68791646  1.0
  O  O16  1  0.98602834  0.50065577  0.22576501  1.0
  O  O17  1  0.98602834  -0.00065577  0.72576501  1.0
  O  O18  1  0.01397166  1.00065577  0.27423499  1.0
  O  O19  1  0.01397166  0.49934423  0.77423499  1.0
  O  O20  1  0.91359864  0.23858937  0.24240329  1.0
  O  O21  1  0.91359864  0.26141063  0.74240329  1.0
  O  O22  1  0.08640136  0.73858937  0.25759671  1.0
  O  O23  1  0.08640136  0.76141063  0.75759671  1.0
  O  O24  1  0.85318472  0.40978673  0.48292864  1.0
  O  O25  1  0.85318472  0.09021327  0.98292864  1.0
  O  O26  1  0.14681528  0.90978673  0.01707136  1.0
  O  O27  1  0.14681528  0.59021327  0.51707136  1.0
  O  O28  1  0.68135898  0.10268752  0.49095946  1.0
  O  O29  1  0.68135898  0.39731248  0.99095946  1.0
  O  O30  1  0.31864102  0.60268752  0.00904054  1.0
  O  O31  1  0.31864102  0.89731248  0.50904054  1.0
  O  O32  1  0.67484382  0.05100513  0.19420878  1.0
  O  O33  1  0.67484382  0.44899487  0.69420878  1.0
  O  O34  1  0.32515618  0.55100513  0.30579122  1.0
  O  O35  1  0.32515618  0.94899487  0.80579122  1.0
  O  O36  1  0.55811621  0.27955383  0.25869330  1.0
  O  O37  1  0.55811621  0.22044617  0.75869330  1.0
  O  O38  1  0.44188379  0.77955383  0.24130670  1.0
  O  O39  1  0.44188379  0.72044617  0.74130670  1.0
  O  O40  1  0.37388261  0.07358964  0.26417060  1.0
  O  O41  1  0.37388261  0.42641036  0.76417060  1.0
  O  O42  1  0.62611739  0.57358964  0.23582940  1.0
  O  O43  1  0.62611739  0.92641036  0.73582940  1.0
