# generated using pymatgen
data_CaV4(Bi3O10)2
_symmetry_space_group_name_H-M   'P 1'
_cell_length_a   7.17539183
_cell_length_b   9.55002583
_cell_length_c   8.02684225
_cell_angle_alpha   106.45098182
_cell_angle_beta   113.13889154
_cell_angle_gamma   94.00064995
_symmetry_Int_Tables_number   1
_chemical_formula_structural   CaV4(Bi3O10)2
_chemical_formula_sum   'Ca1 V4 Bi6 O20'
_cell_volume   474.75442989
_cell_formula_units_Z   1
loop_
 _symmetry_equiv_pos_site_id
 _symmetry_equiv_pos_as_xyz
  1  'x, y, z'
loop_
 _atom_site_type_symbol
 _atom_site_label
 _atom_site_symmetry_multiplicity
 _atom_site_fract_x
 _atom_site_fract_y
 _atom_site_fract_z
 _atom_site_occupancy
  Ca  Ca0  1  0.00000000  0.00000000  0.00000000  1.0
  V  V1  1  -0.94433343  -0.23582437  -0.72919519  1.0
  V  V2  1  -0.05566657  -0.76417563  -0.27080481  1.0
  V  V3  1  -0.66440564  -0.74688705  -0.61919404  1.0
  V  V4  1  -0.33559436  -0.25311295  -0.38080596  1.0
  Bi  Bi5  1  -0.65012332  -0.47592259  -0.86782435  1.0
  Bi  Bi6  1  -0.34987668  -0.52407741  -0.13217565  1.0
  Bi  Bi7  1  -0.58045027  -0.93013570  -0.20860114  1.0
  Bi  Bi8  1  -0.41954973  -0.06986430  -0.79139886  1.0
  Bi  Bi9  1  -0.20176081  -0.67406111  -0.71087806  1.0
  Bi  Bi10  1  -0.79823919  -0.32593889  -0.28912194  1.0
  O  O11  1  -0.93622741  -0.58160067  -0.19479578  1.0
  O  O12  1  -0.06377259  -0.41839933  -0.80520422  1.0
  O  O13  1  -0.88605369  -0.86970452  -0.16922344  1.0
  O  O14  1  -0.11394631  -0.13029548  -0.83077656  1.0
  O  O15  1  -0.90716052  -0.73591375  -0.77127685  1.0
  O  O16  1  -0.09283948  -0.26408625  -0.22872315  1.0
  O  O17  1  -0.83079550  -0.16600563  -0.47764158  1.0
  O  O18  1  -0.16920450  -0.83399437  -0.52235842  1.0
  O  O19  1  -0.75748221  -0.24066765  -0.81271742  1.0
  O  O20  1  -0.24251779  -0.75933235  -0.18728258  1.0
  O  O21  1  -0.65515638  -0.92986208  -0.71546389  1.0
  O  O22  1  -0.34484362  -0.07013792  -0.28453611  1.0
  O  O23  1  -0.63569155  -0.69718916  -0.38460923  1.0
  O  O24  1  -0.36430845  -0.30281084  -0.61539077  1.0
  O  O25  1  -0.47598323  -0.63323302  -0.63104952  1.0
  O  O26  1  -0.52401677  -0.36676698  -0.36895048  1.0
  O  O27  1  -0.45038860  -0.63015837  -0.96633422  1.0
  O  O28  1  -0.54961140  -0.36984163  -0.03366578  1.0
  O  O29  1  -0.33756722  -0.89486859  -0.90921077  1.0
  O  O30  1  -0.66243278  -0.10513141  -0.09078923  1.0
