# generated using pymatgen
data_Sr(GaAu)2
_symmetry_space_group_name_H-M   'P 1'
_cell_length_a   4.55658186
_cell_length_b   4.55658186
_cell_length_c   10.61422110
_cell_angle_alpha   90.00000000
_cell_angle_beta   90.00000000
_cell_angle_gamma   90.00000000
_symmetry_Int_Tables_number   1
_chemical_formula_structural   Sr(GaAu)2
_chemical_formula_sum   'Sr2 Ga4 Au4'
_cell_volume   220.37711011
_cell_formula_units_Z   2
loop_
 _symmetry_equiv_pos_site_id
 _symmetry_equiv_pos_as_xyz
  1  'x, y, z'
loop_
 _atom_site_type_symbol
 _atom_site_label
 _atom_site_symmetry_multiplicity
 _atom_site_fract_x
 _atom_site_fract_y
 _atom_site_fract_z
 _atom_site_occupancy
  Sr  Sr0  1  0.50000000  0.00000000  0.75063516  1.0
  Sr  Sr1  1  0.00000000  0.50000000  0.24936484  1.0
  Ga  Ga2  1  0.50000000  0.00000000  0.12523851  1.0
  Ga  Ga3  1  0.00000000  0.50000000  0.87476149  1.0
  Ga  Ga4  1  0.00000000  0.00000000  0.50000000  1.0
  Ga  Ga5  1  0.50000000  0.50000000  0.50000000  1.0
  Au  Au6  1  0.00000000  0.00000000  0.00000000  1.0
  Au  Au7  1  0.50000000  0.50000000  0.00000000  1.0
  Au  Au8  1  0.50000000  0.00000000  0.36964480  1.0
  Au  Au9  1  0.00000000  0.50000000  0.63035520  1.0
