# generated using pymatgen
data_KMg3V3CuO12
_symmetry_space_group_name_H-M   'P 1'
_cell_length_a   8.87323589
_cell_length_b   8.87323589
_cell_length_c   6.90920159
_cell_angle_alpha   75.24757049
_cell_angle_beta   104.75242951
_cell_angle_gamma   87.47178758
_symmetry_Int_Tables_number   1
_chemical_formula_structural   KMg3V3CuO12
_chemical_formula_sum   'K2 Mg6 V6 Cu2 O24'
_cell_volume   505.25265400
_cell_formula_units_Z   2
loop_
 _symmetry_equiv_pos_site_id
 _symmetry_equiv_pos_as_xyz
  1  'x, y, z'
loop_
 _atom_site_type_symbol
 _atom_site_label
 _atom_site_symmetry_multiplicity
 _atom_site_fract_x
 _atom_site_fract_y
 _atom_site_fract_z
 _atom_site_occupancy
  O  O0  1  0.68091865  -0.24621942  0.52409300  1.0
  O  O1  1  1.24621942  0.31908135  0.02409300  1.0
  O  O2  1  0.75378058  -0.31908135  0.97590700  1.0
  O  O3  1  1.31908135  0.24621942  0.47590700  1.0
  O  O4  1  0.46905506  -0.09873831  0.67945972  1.0
  O  O5  1  1.09873831  0.53094494  0.17945972  1.0
  O  O6  1  0.90126169  -0.53094494  0.82054028  1.0
  O  O7  1  1.53094494  0.09873831  0.32054028  1.0
  O  O8  1  1.67457620  0.31607094  0.61212253  1.0
  O  O9  1  0.68392906  -0.67457620  0.11212253  1.0
  O  O10  1  1.31607094  0.67457620  0.88787747  1.0
  O  O11  1  0.32542380  -0.31607094  0.38787747  1.0
  O  O12  1  1.48741722  0.16962790  0.87947308  1.0
  O  O13  1  0.83037210  -0.48741722  0.37947308  1.0
  O  O14  1  1.16962790  0.48741722  0.62052692  1.0
  O  O15  1  0.51258278  -0.16962790  0.12052692  1.0
  O  O16  1  0.22165158  -0.00461842  0.82573586  1.0
  O  O17  1  1.00461842  0.77834842  0.32573586  1.0
  O  O18  1  0.99538158  -0.77834842  0.67426414  1.0
  O  O19  1  1.77834842  0.00461842  0.17426414  1.0
  O  O20  1  0.77126074  -0.01081487  0.73197241  1.0
  O  O21  1  1.01081487  0.22873926  0.23197241  1.0
  O  O22  1  0.98918513  -0.22873926  0.76802759  1.0
  O  O23  1  1.22873926  0.01081487  0.26802759  1.0
  Mg  Mg24  1  1.55173304  0.12431482  0.62394829  1.0
  Mg  Mg25  1  0.87568518  -0.55173304  0.12394829  1.0
  Mg  Mg26  1  1.12431482  0.55173304  0.87605171  1.0
  Mg  Mg27  1  0.44826696  -0.12431482  0.37605171  1.0
  Mg  Mg28  1  1.24046022  0.24046022  0.75000000  1.0
  Mg  Mg29  1  0.75953978  -0.24046022  0.25000000  1.0
  V  V30  1  0.37972155  -0.14796406  0.87889617  1.0
  V  V31  1  1.14796406  0.62027845  0.37889617  1.0
  V  V32  1  0.85203594  -0.62027845  0.62110383  1.0
  V  V33  1  1.62027845  0.14796406  0.12110383  1.0
  V  V34  1  0.79006658  -0.20993342  0.75000000  1.0
  V  V35  1  1.20993342  0.20993342  0.25000000  1.0
  Cu  Cu36  1  -0.00285508  -0.00285508  0.75000000  1.0
  Cu  Cu37  1  0.00285508  0.00285508  0.25000000  1.0
  K  K38  1  0.51606361  -0.48393639  0.75000000  1.0
  K  K39  1  1.48393639  0.48393639  0.25000000  1.0
