# generated using pymatgen
data_LaTaO4
_symmetry_space_group_name_H-M   'P 1'
_cell_length_a   7.74995457
_cell_length_b   7.74995457
_cell_length_c   5.67045272
_cell_angle_alpha   90.00000000
_cell_angle_beta   90.00000000
_cell_angle_gamma   150.28834819
_symmetry_Int_Tables_number   1
_chemical_formula_structural   LaTaO4
_chemical_formula_sum   'La2 Ta2 O8'
_cell_volume   168.80226983
_cell_formula_units_Z   2
loop_
 _symmetry_equiv_pos_site_id
 _symmetry_equiv_pos_as_xyz
  1  'x, y, z'
loop_
 _atom_site_type_symbol
 _atom_site_label
 _atom_site_symmetry_multiplicity
 _atom_site_fract_x
 _atom_site_fract_y
 _atom_site_fract_z
 _atom_site_occupancy
  La  La0  1  -0.67505745  0.67505745  0.11128229  1.0
  La  La1  1  -0.32494255  1.32494255  0.61128229  1.0
  Ta  Ta2  1  -0.91527734  0.91527734  0.15967710  1.0
  Ta  Ta3  1  -0.08472266  1.08472266  0.65967710  1.0
  O  O4  1  -0.97160990  0.97160990  0.49764746  1.0
  O  O5  1  -0.02839010  1.02839010  -0.00235254  1.0
  O  O6  1  -0.83644400  0.83644400  0.89214389  1.0
  O  O7  1  -0.16355600  1.16355600  0.39214389  1.0
  O  O8  1  -0.80180203  0.80180203  0.36813562  1.0
  O  O9  1  -0.19819797  1.19819797  0.86813562  1.0
  O  O10  1  -0.41170035  1.41170035  0.19371363  1.0
  O  O11  1  -0.58829965  0.58829965  0.69371363  1.0
