# generated using pymatgen
data_CsCoPO4
_symmetry_space_group_name_H-M   'P 1'
_cell_length_a   9.69410819
_cell_length_b   9.31014617
_cell_length_c   5.41925121
_cell_angle_alpha   90.00000000
_cell_angle_beta   90.00000000
_cell_angle_gamma   90.00000000
_symmetry_Int_Tables_number   1
_chemical_formula_structural   CsCoPO4
_chemical_formula_sum   'Cs4 Co4 P4 O16'
_cell_volume   489.10673768
_cell_formula_units_Z   4
loop_
 _symmetry_equiv_pos_site_id
 _symmetry_equiv_pos_as_xyz
  1  'x, y, z'
loop_
 _atom_site_type_symbol
 _atom_site_label
 _atom_site_symmetry_multiplicity
 _atom_site_fract_x
 _atom_site_fract_y
 _atom_site_fract_z
 _atom_site_occupancy
  Cs  Cs0  1  0.49318497  0.81565073  0.98328292  1.0
  Cs  Cs1  1  0.99318497  0.68434927  0.98328292  1.0
  Cs  Cs2  1  0.50681503  0.18434927  0.48328292  1.0
  Cs  Cs3  1  0.00681503  0.31565073  0.48328292  1.0
  Co  Co4  1  0.15178169  0.89512483  0.49428642  1.0
  Co  Co5  1  0.65178169  0.60487517  0.49428642  1.0
  Co  Co6  1  0.84821831  0.10487517  -0.00571358  1.0
  Co  Co7  1  0.34821831  0.39512483  -0.00571358  1.0
  P  P8  1  0.30614305  0.57907298  0.49696007  1.0
  P  P9  1  0.80614305  0.92092702  0.49696007  1.0
  P  P10  1  0.69385695  0.42092702  0.99696007  1.0
  P  P11  1  0.19385695  0.07907298  0.99696007  1.0
  O  O12  1  0.45338082  0.64436269  0.47586503  1.0
  O  O13  1  0.95338082  0.85563731  0.47586503  1.0
  O  O14  1  0.54661918  0.35563731  0.97586503  1.0
  O  O15  1  0.04661918  0.14436269  0.97586503  1.0
  O  O16  1  0.30136721  0.19338965  0.91396978  1.0
  O  O17  1  0.80136721  0.30661035  0.91396978  1.0
  O  O18  1  0.69863279  0.80661035  0.41396978  1.0
  O  O19  1  0.19863279  0.69338965  0.41396978  1.0
  O  O20  1  0.20948421  0.94201407  0.83197279  1.0
  O  O21  1  0.70948421  0.55798593  0.83197279  1.0
  O  O22  1  0.79051579  0.05798593  0.33197279  1.0
  O  O23  1  0.29051579  0.44201407  0.33197279  1.0
  O  O24  1  0.27215641  0.53675751  0.77066299  1.0
  O  O25  1  0.77215641  0.96324249  0.77066299  1.0
  O  O26  1  0.72784359  0.46324249  0.27066299  1.0
  O  O27  1  0.22784359  0.03675751  0.27066299  1.0
