# generated using pymatgen
data_C3SeSNCl
_symmetry_space_group_name_H-M   'P 1'
_cell_length_a   5.83114683
_cell_length_b   5.88921129
_cell_length_c   17.35980275
_cell_angle_alpha   90.00000000
_cell_angle_beta   111.26398099
_cell_angle_gamma   90.00000000
_symmetry_Int_Tables_number   1
_chemical_formula_structural   C3SeSNCl
_chemical_formula_sum   'C12 Se4 S4 N4 Cl4'
_cell_volume   555.56420084
_cell_formula_units_Z   4
loop_
 _symmetry_equiv_pos_site_id
 _symmetry_equiv_pos_as_xyz
  1  'x, y, z'
loop_
 _atom_site_type_symbol
 _atom_site_label
 _atom_site_symmetry_multiplicity
 _atom_site_fract_x
 _atom_site_fract_y
 _atom_site_fract_z
 _atom_site_occupancy
  C  C0  1  0.67480397  0.32453022  -0.00048819  1.0
  C  C1  1  0.32519603  0.82453022  0.50048819  1.0
  C  C2  1  0.32519603  0.67546978  1.00048819  1.0
  C  C3  1  0.67480397  0.17546978  0.49951181  1.0
  C  C4  1  0.52331333  0.43561559  0.92485672  1.0
  C  C5  1  0.47668667  0.93561559  0.57514328  1.0
  C  C6  1  0.47668667  0.56438441  0.07514328  1.0
  C  C7  1  0.52331333  0.06438441  0.42485672  1.0
  C  C8  1  0.35687937  0.60251785  0.92465045  1.0
  C  C9  1  0.64312063  0.10251785  0.57534955  1.0
  C  C10  1  0.64312063  0.39748215  0.07534955  1.0
  C  C11  1  0.35687937  0.89748215  0.42465045  1.0
  Se  Se12  1  0.01816874  0.03683826  0.09956502  1.0
  Se  Se13  1  0.98183126  0.53683826  0.40043498  1.0
  Se  Se14  1  0.98183126  0.96316174  0.90043498  1.0
  Se  Se15  1  0.01816874  0.46316174  0.59956502  1.0
  S  S16  1  0.17430962  0.73733946  0.83458110  1.0
  S  S17  1  0.82569038  0.23733946  0.66541890  1.0
  S  S18  1  0.82569038  0.26266054  0.16541890  1.0
  S  S19  1  0.17430962  0.76266054  0.33458110  1.0
  N  N20  1  0.83524824  0.16453225  0.00043105  1.0
  N  N21  1  0.16475176  0.66453225  0.49956895  1.0
  N  N22  1  0.16475176  0.83546775  0.99956895  1.0
  N  N23  1  0.83524824  0.33546775  0.50043105  1.0
  Cl  Cl24  1  0.54778220  0.35962943  0.83187335  1.0
  Cl  Cl25  1  0.45221780  0.85962943  0.66812665  1.0
  Cl  Cl26  1  0.45221780  0.64037057  0.16812665  1.0
  Cl  Cl27  1  0.54778220  0.14037057  0.33187335  1.0
