# generated using pymatgen
data_K2PtC4(SN)4
_symmetry_space_group_name_H-M   'P 1'
_cell_length_a   4.45404961
_cell_length_b   13.42676119
_cell_length_c   11.11200738
_cell_angle_alpha   90.00000000
_cell_angle_beta   97.28498205
_cell_angle_gamma   90.00000000
_symmetry_Int_Tables_number   1
_chemical_formula_structural   K2PtC4(SN)4
_chemical_formula_sum   'K4 Pt2 C8 S8 N8'
_cell_volume   659.17216512
_cell_formula_units_Z   2
loop_
 _symmetry_equiv_pos_site_id
 _symmetry_equiv_pos_as_xyz
  1  'x, y, z'
loop_
 _atom_site_type_symbol
 _atom_site_label
 _atom_site_symmetry_multiplicity
 _atom_site_fract_x
 _atom_site_fract_y
 _atom_site_fract_z
 _atom_site_occupancy
  K  K0  1  0.29243937  0.14106588  0.46500921  1.0
  K  K1  1  0.29243937  0.35893412  0.96500921  1.0
  K  K2  1  0.70756063  0.64106588  0.03499079  1.0
  K  K3  1  0.70756063  0.85893412  0.53499079  1.0
  Pt  Pt4  1  -0.00000000  0.50000000  0.50000000  1.0
  Pt  Pt5  1  0.00000000  0.00000000  0.00000000  1.0
  C  C6  1  0.95715909  0.42663198  0.22128874  1.0
  C  C7  1  0.95715909  0.07336802  0.72128874  1.0
  C  C8  1  0.04284091  0.92663198  0.27871126  1.0
  C  C9  1  0.04284091  0.57336802  0.77871126  1.0
  C  C10  1  0.78506366  0.15358699  0.20230108  1.0
  C  C11  1  0.78506366  0.34641301  0.70230108  1.0
  C  C12  1  0.21493634  0.65358699  0.29769892  1.0
  C  C13  1  0.21493634  0.84641301  0.79769892  1.0
  S  S14  1  0.86690432  0.15844604  0.06001501  1.0
  S  S15  1  0.86690432  0.34155396  0.56001501  1.0
  S  S16  1  0.13309568  0.65844604  0.43998499  1.0
  S  S17  1  0.13309568  0.84155396  0.93998499  1.0
  S  S18  1  0.79580842  0.91302785  0.15420402  1.0
  S  S19  1  0.79580842  0.58697215  0.65420402  1.0
  S  S20  1  0.20419158  0.41302785  0.34579598  1.0
  S  S21  1  0.20419158  0.08697215  0.84579598  1.0
  N  N22  1  0.80167158  0.43340861  0.12733075  1.0
  N  N23  1  0.80167158  0.06659139  0.62733075  1.0
  N  N24  1  0.19832842  0.93340861  0.37266925  1.0
  N  N25  1  0.19832842  0.56659139  0.87266925  1.0
  N  N26  1  0.72728153  0.15558505  0.30273741  1.0
  N  N27  1  0.72728153  0.34441495  0.80273741  1.0
  N  N28  1  0.27271847  0.65558505  0.19726259  1.0
  N  N29  1  0.27271847  0.84441495  0.69726259  1.0
