# generated using pymatgen
data_Nd2WC2
_symmetry_space_group_name_H-M   'P 1'
_cell_length_a   5.73553060
_cell_length_b   5.73553060
_cell_length_c   10.39088290
_cell_angle_alpha   90.00000000
_cell_angle_beta   90.00000000
_cell_angle_gamma   90.00000000
_symmetry_Int_Tables_number   1
_chemical_formula_structural   Nd2WC2
_chemical_formula_sum   'Nd8 W4 C8'
_cell_volume   341.82171831
_cell_formula_units_Z   4
loop_
 _symmetry_equiv_pos_site_id
 _symmetry_equiv_pos_as_xyz
  1  'x, y, z'
loop_
 _atom_site_type_symbol
 _atom_site_label
 _atom_site_symmetry_multiplicity
 _atom_site_fract_x
 _atom_site_fract_y
 _atom_site_fract_z
 _atom_site_occupancy
  Nd  Nd0  1  0.30908606  0.69091394  0.15804087  1.0
  Nd  Nd1  1  0.30908606  0.69091394  0.84195913  1.0
  Nd  Nd2  1  0.80908606  0.80908606  0.65804087  1.0
  Nd  Nd3  1  0.80908606  0.80908606  0.34195913  1.0
  Nd  Nd4  1  0.69091394  0.30908606  0.15804087  1.0
  Nd  Nd5  1  0.69091394  0.30908606  0.84195913  1.0
  Nd  Nd6  1  0.19091394  0.19091394  0.65804087  1.0
  Nd  Nd7  1  0.19091394  0.19091394  0.34195913  1.0
  W  W8  1  0.32181479  0.67818521  0.50000000  1.0
  W  W9  1  0.82181479  0.82181479  0.00000000  1.0
  W  W10  1  0.67818521  0.32181479  0.50000000  1.0
  W  W11  1  0.17818521  0.17818521  0.00000000  1.0
  C  C12  1  0.50000000  0.50000000  0.35820842  1.0
  C  C13  1  0.50000000  0.50000000  0.64179158  1.0
  C  C14  1  0.00000000  0.00000000  0.85820842  1.0
  C  C15  1  0.00000000  0.00000000  0.14179158  1.0
  C  C16  1  0.50000000  0.00000000  0.50000000  1.0
  C  C17  1  0.00000000  0.50000000  0.00000000  1.0
  C  C18  1  0.00000000  0.50000000  0.50000000  1.0
  C  C19  1  0.50000000  0.00000000  0.00000000  1.0
