# generated using pymatgen
data_YSiIr
_symmetry_space_group_name_H-M   'P 1'
_cell_length_a   6.85992878
_cell_length_b   4.23450145
_cell_length_c   7.45390386
_cell_angle_alpha   90.00000000
_cell_angle_beta   90.00000000
_cell_angle_gamma   90.00000000
_symmetry_Int_Tables_number   1
_chemical_formula_structural   YSiIr
_chemical_formula_sum   'Y4 Si4 Ir4'
_cell_volume   216.52381967
_cell_formula_units_Z   4
loop_
 _symmetry_equiv_pos_site_id
 _symmetry_equiv_pos_as_xyz
  1  'x, y, z'
loop_
 _atom_site_type_symbol
 _atom_site_label
 _atom_site_symmetry_multiplicity
 _atom_site_fract_x
 _atom_site_fract_y
 _atom_site_fract_z
 _atom_site_occupancy
  Y  Y0  1  0.99812546  0.75000000  0.68714024  1.0
  Y  Y1  1  0.49812546  0.75000000  0.81285976  1.0
  Y  Y2  1  0.00187454  0.25000000  0.31285976  1.0
  Y  Y3  1  0.50187454  0.25000000  0.18714024  1.0
  Si  Si4  1  0.70144148  0.75000000  0.39096416  1.0
  Si  Si5  1  0.20144148  0.75000000  0.10903584  1.0
  Si  Si6  1  0.29855852  0.25000000  0.60903584  1.0
  Si  Si7  1  0.79855852  0.25000000  0.89096416  1.0
  Ir  Ir8  1  0.84326250  0.75000000  0.06742573  1.0
  Ir  Ir9  1  0.34326250  0.75000000  0.43257427  1.0
  Ir  Ir10  1  0.15673750  0.25000000  0.93257427  1.0
  Ir  Ir11  1  0.65673750  0.25000000  0.56742573  1.0
