# generated using pymatgen
data_LaF3
_symmetry_space_group_name_H-M   'P 1'
_cell_length_a   4.02999911
_cell_length_b   5.13216856
_cell_length_c   5.44224617
_cell_angle_alpha   90.00000000
_cell_angle_beta   90.00000000
_cell_angle_gamma   90.00000000
_symmetry_Int_Tables_number   1
_chemical_formula_structural   LaF3
_chemical_formula_sum   'La2 F6'
_cell_volume   112.55998961
_cell_formula_units_Z   2
loop_
 _symmetry_equiv_pos_site_id
 _symmetry_equiv_pos_as_xyz
  1  'x, y, z'
loop_
 _atom_site_type_symbol
 _atom_site_label
 _atom_site_symmetry_multiplicity
 _atom_site_fract_x
 _atom_site_fract_y
 _atom_site_fract_z
 _atom_site_occupancy
  La  La0  1  0.50000000  0.00000000  0.25469964  1.0
  La  La1  1  0.00000000  0.50000000  0.74530036  1.0
  F  F2  1  0.50000000  0.75047063  0.64287207  1.0
  F  F3  1  0.50000000  0.24952937  0.64287207  1.0
  F  F4  1  0.00000000  0.25047063  0.35712793  1.0
  F  F5  1  0.00000000  0.74952937  0.35712793  1.0
  F  F6  1  0.50000000  0.50000000  0.06174729  1.0
  F  F7  1  0.00000000  0.00000000  0.93825271  1.0
