# generated using pymatgen
data_HN
_symmetry_space_group_name_H-M   'P 1'
_cell_length_a   6.03166724
_cell_length_b   5.51321140
_cell_length_c   12.40399943
_cell_angle_alpha   90.00000000
_cell_angle_beta   116.89342903
_cell_angle_gamma   90.00000000
_symmetry_Int_Tables_number   1
_chemical_formula_structural   HN
_chemical_formula_sum   'H20 N20'
_cell_volume   367.87077509
_cell_formula_units_Z   20
loop_
 _symmetry_equiv_pos_site_id
 _symmetry_equiv_pos_as_xyz
  1  'x, y, z'
loop_
 _atom_site_type_symbol
 _atom_site_label
 _atom_site_symmetry_multiplicity
 _atom_site_fract_x
 _atom_site_fract_y
 _atom_site_fract_z
 _atom_site_occupancy
  H  H0  1  0.83858704  0.94551367  0.85076086  1.0
  H  H1  1  0.83858704  0.55448633  0.35076086  1.0
  H  H2  1  0.16141296  0.44551367  0.64923914  1.0
  H  H3  1  0.16141296  0.05448633  0.14923914  1.0
  H  H4  1  0.77979462  0.33862889  0.43285433  1.0
  H  H5  1  0.77979462  0.16137111  0.93285433  1.0
  H  H6  1  0.22020538  0.83862889  0.06714567  1.0
  H  H7  1  0.22020538  0.66137111  0.56714567  1.0
  H  H8  1  0.62987105  0.32206206  0.27639335  1.0
  H  H9  1  0.62987105  0.17793794  0.77639335  1.0
  H  H10  1  0.37012895  0.82206206  0.22360665  1.0
  H  H11  1  0.37012895  0.67793794  0.72360665  1.0
  H  H12  1  0.42490340  0.18610535  0.07095284  1.0
  H  H13  1  0.42490340  0.31389465  0.57095284  1.0
  H  H14  1  0.57509660  0.68610535  0.42904716  1.0
  H  H15  1  0.57509660  0.81389465  0.92904716  1.0
  H  H16  1  0.36912063  0.47955449  0.34928963  1.0
  H  H17  1  0.36912063  0.02044551  0.84928963  1.0
  H  H18  1  0.63087937  0.97955449  0.15071037  1.0
  H  H19  1  0.63087937  0.52044551  0.65071037  1.0
  N  N20  1  0.91043133  0.28760415  0.07810843  1.0
  N  N21  1  0.91043133  0.21239585  0.57810843  1.0
  N  N22  1  0.08956867  0.78760415  0.42189157  1.0
  N  N23  1  0.08956867  0.71239585  0.92189157  1.0
  N  N24  1  0.83890593  0.48076987  0.09092602  1.0
  N  N25  1  0.83890593  0.01923013  0.59092602  1.0
  N  N26  1  0.16109407  0.98076987  0.40907398  1.0
  N  N27  1  0.16109407  0.51923013  0.90907398  1.0
  N  N28  1  0.69978527  0.44163812  0.35138570  1.0
  N  N29  1  0.69978527  0.05836188  0.85138570  1.0
  N  N30  1  0.30021473  0.94163812  0.14861430  1.0
  N  N31  1  0.30021473  0.55836188  0.64861430  1.0
  N  N32  1  0.49886712  0.09536450  0.15291028  1.0
  N  N33  1  0.49886712  0.40463550  0.65291028  1.0
  N  N34  1  0.50113288  0.59536450  0.34708972  1.0
  N  N35  1  0.50113288  0.90463550  0.84708972  1.0
  N  N36  1  0.23401805  0.17206089  0.39739869  1.0
  N  N37  1  0.23401805  0.32793911  0.89739869  1.0
  N  N38  1  0.76598195  0.67206089  0.10260131  1.0
  N  N39  1  0.76598195  0.82793911  0.60260131  1.0
