# generated using pymatgen
data_LaGaRh
_symmetry_space_group_name_H-M   'P 1'
_cell_length_a   7.12189990
_cell_length_b   4.37677499
_cell_length_c   8.09935754
_cell_angle_alpha   90.00000000
_cell_angle_beta   90.00000000
_cell_angle_gamma   90.00000000
_symmetry_Int_Tables_number   1
_chemical_formula_structural   LaGaRh
_chemical_formula_sum   'La4 Ga4 Rh4'
_cell_volume   252.46469636
_cell_formula_units_Z   4
loop_
 _symmetry_equiv_pos_site_id
 _symmetry_equiv_pos_as_xyz
  1  'x, y, z'
loop_
 _atom_site_type_symbol
 _atom_site_label
 _atom_site_symmetry_multiplicity
 _atom_site_fract_x
 _atom_site_fract_y
 _atom_site_fract_z
 _atom_site_occupancy
  La  La0  1  0.96142104  0.75000000  0.68577454  1.0
  La  La1  1  0.46142104  0.75000000  0.81422546  1.0
  La  La2  1  0.03857896  0.25000000  0.31422546  1.0
  La  La3  1  0.53857896  0.25000000  0.18577454  1.0
  Ga  Ga4  1  0.85802933  0.75000000  0.06676253  1.0
  Ga  Ga5  1  0.35802933  0.75000000  0.43323747  1.0
  Ga  Ga6  1  0.14197067  0.25000000  0.93323747  1.0
  Ga  Ga7  1  0.64197067  0.25000000  0.56676253  1.0
  Rh  Rh8  1  0.73074932  0.75000000  0.38740499  1.0
  Rh  Rh9  1  0.23074932  0.75000000  0.11259501  1.0
  Rh  Rh10  1  0.26925068  0.25000000  0.61259501  1.0
  Rh  Rh11  1  0.76925068  0.25000000  0.88740499  1.0
