# generated using pymatgen
data_TiP2PbO8
_symmetry_space_group_name_H-M   'P 1'
_cell_length_a   8.91306775
_cell_length_b   8.91306775
_cell_length_c   8.40626836
_cell_angle_alpha   64.63865113
_cell_angle_beta   115.36134887
_cell_angle_gamma   145.88749162
_symmetry_Int_Tables_number   1
_chemical_formula_structural   TiP2PbO8
_chemical_formula_sum   'Ti2 P4 Pb2 O16'
_cell_volume   334.83216311
_cell_formula_units_Z   2
loop_
 _symmetry_equiv_pos_site_id
 _symmetry_equiv_pos_as_xyz
  1  'x, y, z'
loop_
 _atom_site_type_symbol
 _atom_site_label
 _atom_site_symmetry_multiplicity
 _atom_site_fract_x
 _atom_site_fract_y
 _atom_site_fract_z
 _atom_site_occupancy
  Ti  Ti0  1  1.50000000  -0.00000000  -0.00000000  1.0
  Ti  Ti1  1  1.00000000  -0.50000000  0.50000000  1.0
  P  P2  1  1.59314859  -0.11830132  0.74449903  1.0
  P  P3  1  1.11830132  -0.59314859  0.24449903  1.0
  P  P4  1  0.88169868  -0.40685141  0.75550097  1.0
  P  P5  1  1.40685141  0.11830132  0.25550097  1.0
  Pb  Pb6  1  0.15510680  0.15510680  0.75000000  1.0
  Pb  Pb7  1  0.84489320  0.84489320  0.25000000  1.0
  O  O8  1  1.78503717  0.12543493  0.60067289  1.0
  O  O9  1  0.87456507  -0.78503717  0.10067289  1.0
  O  O10  1  1.12543493  -0.21496283  0.89932711  1.0
  O  O11  1  1.21496283  -0.12543493  0.39932711  1.0
  O  O12  1  1.52037947  -0.05579468  0.82052666  1.0
  O  O13  1  1.05579468  -0.52037947  0.32052666  1.0
  O  O14  1  0.94420532  -0.47962053  0.67947334  1.0
  O  O15  1  1.47962053  0.05579468  0.17947334  1.0
  O  O16  1  1.62292101  0.32557766  0.84723742  1.0
  O  O17  1  0.67442234  -0.62292101  0.34723742  1.0
  O  O18  1  1.32557766  -0.37707899  0.65276258  1.0
  O  O19  1  1.37707899  -0.32557766  0.15276258  1.0
  O  O20  1  1.74289138  -0.15650407  0.88691687  1.0
  O  O21  1  1.15650407  -0.74289138  0.38691687  1.0
  O  O22  1  0.84349593  -0.25710862  0.61308313  1.0
  O  O23  1  1.25710862  0.15650407  0.11308313  1.0
