# generated using pymatgen
data_LuFe2SiC
_symmetry_space_group_name_H-M   'P 1'
_cell_length_a   5.49843956
_cell_length_b   5.49843956
_cell_length_c   6.70749229
_cell_angle_alpha   90.00000000
_cell_angle_beta   90.00000000
_cell_angle_gamma   141.03558565
_symmetry_Int_Tables_number   1
_chemical_formula_structural   LuFe2SiC
_chemical_formula_sum   'Lu2 Fe4 Si2 C2'
_cell_volume   127.51979040
_cell_formula_units_Z   2
loop_
 _symmetry_equiv_pos_site_id
 _symmetry_equiv_pos_as_xyz
  1  'x, y, z'
loop_
 _atom_site_type_symbol
 _atom_site_label
 _atom_site_symmetry_multiplicity
 _atom_site_fract_x
 _atom_site_fract_y
 _atom_site_fract_z
 _atom_site_occupancy
  Lu  Lu0  1  0.45156979  0.54843021  0.75000000  1.0
  Lu  Lu1  1  -0.45156979  0.45156979  0.25000000  1.0
  Fe  Fe2  1  0.16568455  0.83431545  0.93889601  1.0
  Fe  Fe3  1  0.16568455  0.83431545  0.56110399  1.0
  Fe  Fe4  1  -0.16568455  0.16568455  0.43889601  1.0
  Fe  Fe5  1  -0.16568455  0.16568455  0.06110399  1.0
  Si  Si6  1  -0.26888051  0.26888051  0.75000000  1.0
  Si  Si7  1  0.26888051  0.73111949  0.25000000  1.0
  C  C8  1  0.00000000  0.00000000  -0.00000000  1.0
  C  C9  1  0.00000000  0.00000000  0.50000000  1.0
