# generated using pymatgen
data_Ta2O5
_symmetry_space_group_name_H-M   'P 1'
_cell_length_a   6.25481017
_cell_length_b   3.82433489
_cell_length_c   7.40484594
_cell_angle_alpha   90.00000000
_cell_angle_beta   89.99639864
_cell_angle_gamma   90.00000000
_symmetry_Int_Tables_number   1
_chemical_formula_structural   Ta2O5
_chemical_formula_sum   'Ta4 O10'
_cell_volume   177.12753400
_cell_formula_units_Z   2
loop_
 _symmetry_equiv_pos_site_id
 _symmetry_equiv_pos_as_xyz
  1  'x, y, z'
loop_
 _atom_site_type_symbol
 _atom_site_label
 _atom_site_symmetry_multiplicity
 _atom_site_fract_x
 _atom_site_fract_y
 _atom_site_fract_z
 _atom_site_occupancy
  Ta  Ta0  1  -0.01990563  0.00000000  0.01014761  1.0
  Ta  Ta1  1  0.03061458  0.00000000  0.51014015  1.0
  Ta  Ta2  1  0.53075049  0.00000000  0.77437321  1.0
  Ta  Ta3  1  0.47998483  0.00000000  0.27439836  1.0
  O  O4  1  -0.04339958  0.50000000  0.04550830  1.0
  O  O5  1  0.05408103  0.50000000  0.54548722  1.0
  O  O6  1  0.55435059  0.50000000  0.73896554  1.0
  O  O7  1  0.45641351  0.50000000  0.23902167  1.0
  O  O8  1  0.25549618  0.00000000  0.89237196  1.0
  O  O9  1  0.86592399  0.00000000  0.75167557  1.0
  O  O10  1  0.75521095  0.00000000  0.39239007  1.0
  O  O11  1  0.36577125  0.00000000  0.53293223  1.0
  O  O12  1  0.14478542  0.00000000  0.25166810  1.0
  O  O13  1  0.64492240  0.00000000  0.03292001  1.0
