# generated using pymatgen
data_Cd5(NO8)2
_symmetry_space_group_name_H-M   'P 1'
_cell_length_a   11.00253076
_cell_length_b   11.00253076
_cell_length_c   6.16347033
_cell_angle_alpha   74.11188776
_cell_angle_beta   105.88811224
_cell_angle_gamma   145.39058142
_symmetry_Int_Tables_number   1
_chemical_formula_structural   Cd5(NO8)2
_chemical_formula_sum   'Cd5 N2 O16'
_cell_volume   405.98720596
_cell_formula_units_Z   1
loop_
 _symmetry_equiv_pos_site_id
 _symmetry_equiv_pos_as_xyz
  1  'x, y, z'
loop_
 _atom_site_type_symbol
 _atom_site_label
 _atom_site_symmetry_multiplicity
 _atom_site_fract_x
 _atom_site_fract_y
 _atom_site_fract_z
 _atom_site_occupancy
  N  N0  1  0.75473075  0.24526925  0.77594062  1.0
  N  N1  1  0.24526925  -0.24526925  0.22405938  1.0
  O  O2  1  0.69511469  0.30488531  0.68518687  1.0
  O  O3  1  0.30488531  -0.30488531  0.31481313  1.0
  O  O4  1  0.83583603  0.16416397  0.39141186  1.0
  O  O5  1  0.16416397  -0.16416397  0.60858814  1.0
  O  O6  1  0.44589686  -0.44589686  0.64272210  1.0
  O  O7  1  0.55410314  0.44589686  0.35727790  1.0
  O  O8  1  0.28222545  0.18730793  0.84765489  1.0
  O  O9  1  0.81269207  0.71777455  0.84765489  1.0
  O  O10  1  1.18730793  0.28222545  0.15234511  1.0
  O  O11  1  0.71777455  -0.18730793  0.15234511  1.0
  O  O12  1  0.88632046  0.11367954  0.55291493  1.0
  O  O13  1  0.11367954  -0.11367954  0.44708507  1.0
  O  O14  1  0.62120577  0.04433913  0.82710130  1.0
  O  O15  1  0.95566087  0.37879423  0.82710130  1.0
  O  O16  1  1.04433913  0.62120577  0.17289870  1.0
  O  O17  1  0.37879423  -0.04433913  0.17289870  1.0
  Cd  Cd18  1  0.50000000  0.50000000  -0.00000000  1.0
  Cd  Cd19  1  0.74005673  0.74005673  0.50000000  1.0
  Cd  Cd20  1  0.25994327  0.25994327  0.50000000  1.0
  Cd  Cd21  1  0.88571424  0.11428576  0.99815123  1.0
  Cd  Cd22  1  0.11428576  -0.11428576  0.00184877  1.0
