# generated using pymatgen
data_CsAs
_symmetry_space_group_name_H-M   'P 1'
_cell_length_a   12.54412904
_cell_length_b   12.54412904
_cell_length_c   10.60803692
_cell_angle_alpha   90.00000000
_cell_angle_beta   90.00000000
_cell_angle_gamma   120.00000000
_symmetry_Int_Tables_number   1
_chemical_formula_structural   CsAs
_chemical_formula_sum   'Cs18 As18'
_cell_volume   1445.59514119
_cell_formula_units_Z   18
loop_
 _symmetry_equiv_pos_site_id
 _symmetry_equiv_pos_as_xyz
  1  'x, y, z'
loop_
 _atom_site_type_symbol
 _atom_site_label
 _atom_site_symmetry_multiplicity
 _atom_site_fract_x
 _atom_site_fract_y
 _atom_site_fract_z
 _atom_site_occupancy
  Cs  Cs0  1  0.63483573  0.63483573  0.68639859  1.0
  Cs  Cs1  1  0.63483573  0.63483573  0.31360141  1.0
  Cs  Cs2  1  -0.00000000  0.36516427  0.68639859  1.0
  Cs  Cs3  1  -0.00000000  0.36516427  0.31360141  1.0
  Cs  Cs4  1  0.36516427  0.00000000  0.68639859  1.0
  Cs  Cs5  1  0.36516427  0.00000000  0.31360141  1.0
  Cs  Cs6  1  0.30679620  0.30679620  0.73608883  1.0
  Cs  Cs7  1  0.30679620  0.30679620  0.26391117  1.0
  Cs  Cs8  1  -0.00000000  0.69320380  0.73608883  1.0
  Cs  Cs9  1  -0.00000000  0.69320380  0.26391117  1.0
  Cs  Cs10  1  0.69320380  0.00000000  0.73608883  1.0
  Cs  Cs11  1  0.69320380  0.00000000  0.26391117  1.0
  Cs  Cs12  1  0.33333333  0.66666667  0.81867097  1.0
  Cs  Cs13  1  0.33333333  0.66666667  0.18132903  1.0
  Cs  Cs14  1  0.66666667  0.33333333  0.81867097  1.0
  Cs  Cs15  1  0.66666667  0.33333333  0.18132903  1.0
  Cs  Cs16  1  0.00000000  0.00000000  0.81633061  1.0
  Cs  Cs17  1  0.00000000  0.00000000  0.18366939  1.0
  As  As18  1  0.22371983  0.67646877  0.50000000  1.0
  As  As19  1  0.67646877  0.22371983  0.50000000  1.0
  As  As20  1  0.45274893  0.77628017  0.50000000  1.0
  As  As21  1  0.32353123  0.54725107  0.50000000  1.0
  As  As22  1  0.77628017  0.45274893  0.50000000  1.0
  As  As23  1  0.54725107  0.32353123  0.50000000  1.0
  As  As24  1  0.23182361  0.88489030  0.00000000  1.0
  As  As25  1  0.88489030  0.23182361  0.00000000  1.0
  As  As26  1  0.65306669  0.76817639  0.00000000  1.0
  As  As27  1  0.11510970  0.34693331  0.00000000  1.0
  As  As28  1  0.76817639  0.65306669  0.00000000  1.0
  As  As29  1  0.34693331  0.11510970  0.00000000  1.0
  As  As30  1  0.88555678  0.88555678  0.50000000  1.0
  As  As31  1  0.00000000  0.11444322  0.50000000  1.0
  As  As32  1  0.11444322  0.00000000  0.50000000  1.0
  As  As33  1  0.53736294  0.53736294  0.00000000  1.0
  As  As34  1  0.00000000  0.46263706  0.00000000  1.0
  As  As35  1  0.46263706  0.00000000  0.00000000  1.0
