# generated using pymatgen
data_P2Ir
_symmetry_space_group_name_H-M   'P 1'
_cell_length_a   5.79158093
_cell_length_b   5.83512451
_cell_length_c   5.89735325
_cell_angle_alpha   90.00000000
_cell_angle_beta   111.31868692
_cell_angle_gamma   90.00000000
_symmetry_Int_Tables_number   1
_chemical_formula_structural   P2Ir
_chemical_formula_sum   'P8 Ir4'
_cell_volume   185.66120061
_cell_formula_units_Z   4
loop_
 _symmetry_equiv_pos_site_id
 _symmetry_equiv_pos_as_xyz
  1  'x, y, z'
loop_
 _atom_site_type_symbol
 _atom_site_label
 _atom_site_symmetry_multiplicity
 _atom_site_fract_x
 _atom_site_fract_y
 _atom_site_fract_z
 _atom_site_occupancy
  P  P0  1  0.83429413  0.37620929  0.68890349  1.0
  P  P1  1  0.83429413  0.12379071  0.18890349  1.0
  P  P2  1  0.16570587  0.87620929  0.81109651  1.0
  P  P3  1  0.16570587  0.62379071  0.31109651  1.0
  P  P4  1  0.65781395  0.61909391  0.87107481  1.0
  P  P5  1  0.65781395  0.88090609  0.37107481  1.0
  P  P6  1  0.34218605  0.11909391  0.62892519  1.0
  P  P7  1  0.34218605  0.38090609  0.12892519  1.0
  Ir  Ir8  1  0.77176222  0.00075649  0.79191597  1.0
  Ir  Ir9  1  0.77176222  0.49924351  0.29191597  1.0
  Ir  Ir10  1  0.22823778  0.50075649  0.70808403  1.0
  Ir  Ir11  1  0.22823778  -0.00075649  0.20808403  1.0
