# generated using pymatgen
data_Y2Ni12P7
_symmetry_space_group_name_H-M   'P 1'
_cell_length_a   9.05185353
_cell_length_b   9.05185353
_cell_length_c   3.69703264
_cell_angle_alpha   90.00000000
_cell_angle_beta   90.00000000
_cell_angle_gamma   120.00000000
_symmetry_Int_Tables_number   1
_chemical_formula_structural   Y2Ni12P7
_chemical_formula_sum   'Y2 Ni12 P7'
_cell_volume   262.33664017
_cell_formula_units_Z   1
loop_
 _symmetry_equiv_pos_site_id
 _symmetry_equiv_pos_as_xyz
  1  'x, y, z'
loop_
 _atom_site_type_symbol
 _atom_site_label
 _atom_site_symmetry_multiplicity
 _atom_site_fract_x
 _atom_site_fract_y
 _atom_site_fract_z
 _atom_site_occupancy
  Y  Y0  1  0.00000000  0.00000000  0.50000000  1.0
  Y  Y1  1  0.66666667  0.33333333  0.00000000  1.0
  Ni  Ni2  1  0.71462214  0.61782200  0.50000000  1.0
  Ni  Ni3  1  0.90319986  0.28537786  0.50000000  1.0
  Ni  Ni4  1  0.38217800  0.09680014  0.50000000  1.0
  Ni  Ni5  1  0.24025548  0.45272443  0.50000000  1.0
  Ni  Ni6  1  0.21246894  0.75974452  0.50000000  1.0
  Ni  Ni7  1  0.54727557  0.78753106  0.50000000  1.0
  Ni  Ni8  1  0.48517480  0.54419262  0.00000000  1.0
  Ni  Ni9  1  0.05901782  0.51482520  0.00000000  1.0
  Ni  Ni10  1  0.45580738  0.94098218  0.00000000  1.0
  Ni  Ni11  1  0.27241599  0.23306591  0.00000000  1.0
  Ni  Ni12  1  0.96064992  0.72758401  0.00000000  1.0
  Ni  Ni13  1  0.76693409  0.03935008  0.00000000  1.0
  P  P14  1  0.44312205  0.37188962  0.50000000  1.0
  P  P15  1  0.92876757  0.55687795  0.50000000  1.0
  P  P16  1  0.62811038  0.07123243  0.50000000  1.0
  P  P17  1  0.03848817  0.25946104  0.00000000  1.0
  P  P18  1  0.22097287  0.96151183  0.00000000  1.0
  P  P19  1  0.74053896  0.77902713  0.00000000  1.0
  P  P20  1  0.33333333  0.66666667  0.00000000  1.0
