# generated using pymatgen
data_KMn2P2HO9
_symmetry_space_group_name_H-M   'P 1'
_cell_length_a   6.29915630
_cell_length_b   6.96390373
_cell_length_c   8.95136711
_cell_angle_alpha   90.00000000
_cell_angle_beta   107.60408334
_cell_angle_gamma   90.00000000
_symmetry_Int_Tables_number   1
_chemical_formula_structural   KMn2P2HO9
_chemical_formula_sum   'K2 Mn4 P4 H2 O18'
_cell_volume   374.27814999
_cell_formula_units_Z   2
loop_
 _symmetry_equiv_pos_site_id
 _symmetry_equiv_pos_as_xyz
  1  'x, y, z'
loop_
 _atom_site_type_symbol
 _atom_site_label
 _atom_site_symmetry_multiplicity
 _atom_site_fract_x
 _atom_site_fract_y
 _atom_site_fract_z
 _atom_site_occupancy
  Mn  Mn0  1  0.03684043  0.75000000  0.71380376  1.0
  Mn  Mn1  1  0.96315957  0.25000000  0.28619624  1.0
  Mn  Mn2  1  0.00000000  -0.00000000  0.00000000  1.0
  Mn  Mn3  1  0.00000000  0.50000000  0.00000000  1.0
  K  K4  1  0.55339697  0.75000000  0.17389687  1.0
  K  K5  1  0.44660303  0.25000000  0.82610313  1.0
  P  P6  1  0.61149302  0.75000000  0.81079461  1.0
  P  P7  1  0.38850698  0.25000000  0.18920539  1.0
  P  P8  1  0.06934589  0.75000000  0.34849399  1.0
  P  P9  1  0.93065411  0.25000000  0.65150601  1.0
  H  H10  1  0.42480435  0.75000000  0.50730526  1.0
  H  H11  1  0.57519565  0.25000000  0.49269474  1.0
  O  O12  1  0.68684298  0.93260610  0.91596098  1.0
  O  O13  1  0.68684298  0.56739390  0.91596098  1.0
  O  O14  1  0.31315702  0.43260610  0.08403902  1.0
  O  O15  1  0.31315702  0.06739390  0.08403902  1.0
  O  O16  1  0.98307257  0.75000000  0.49221820  1.0
  O  O17  1  0.01692743  0.25000000  0.50778180  1.0
  O  O18  1  0.71120632  0.75000000  0.67135509  1.0
  O  O19  1  0.28879368  0.25000000  0.32864491  1.0
  O  O20  1  0.35639908  0.75000000  0.74054558  1.0
  O  O21  1  0.64360092  0.25000000  0.25945442  1.0
  O  O22  1  0.33570492  0.75000000  0.39577162  1.0
  O  O23  1  0.66429508  0.25000000  0.60422838  1.0
  O  O24  1  0.07913744  0.75000000  0.93658128  1.0
  O  O25  1  0.92086256  0.25000000  0.06341872  1.0
  O  O26  1  0.98325944  0.92944339  0.24591918  1.0
  O  O27  1  0.98325944  0.57055661  0.24591918  1.0
  O  O28  1  0.01674056  0.42944339  0.75408082  1.0
  O  O29  1  0.01674056  0.07055661  0.75408082  1.0
