# generated using pymatgen
data_BaSm2Ti3O10
_symmetry_space_group_name_H-M   'P 1'
_cell_length_a   14.29598662
_cell_length_b   14.29598662
_cell_length_c   7.66489054
_cell_angle_alpha   90.00000000
_cell_angle_beta   90.00000000
_cell_angle_gamma   164.30609258
_symmetry_Int_Tables_number   1
_chemical_formula_structural   BaSm2Ti3O10
_chemical_formula_sum   'Ba2 Sm4 Ti6 O20'
_cell_volume   423.73896700
_cell_formula_units_Z   2
loop_
 _symmetry_equiv_pos_site_id
 _symmetry_equiv_pos_as_xyz
  1  'x, y, z'
loop_
 _atom_site_type_symbol
 _atom_site_label
 _atom_site_symmetry_multiplicity
 _atom_site_fract_x
 _atom_site_fract_y
 _atom_site_fract_z
 _atom_site_occupancy
  Ba  Ba0  1  -0.74373310  0.74373310  0.25000000  1.0
  Ba  Ba1  1  -0.25626690  1.25626690  0.75000000  1.0
  Sm  Sm2  1  -0.57329554  0.57329554  0.25000000  1.0
  Sm  Sm3  1  -0.42670446  1.42670446  0.75000000  1.0
  Sm  Sm4  1  -0.42171093  1.42171093  0.25000000  1.0
  Sm  Sm5  1  -0.57828907  0.57828907  0.75000000  1.0
  Ti  Ti6  1  -0.85427319  0.85427319  0.50306671  1.0
  Ti  Ti7  1  -0.85427319  0.85427319  0.99693329  1.0
  Ti  Ti8  1  -0.14572681  1.14572681  0.00306671  1.0
  Ti  Ti9  1  -0.14572681  1.14572681  0.49693329  1.0
  Ti  Ti10  1  0.00000000  0.00000000  0.50000000  1.0
  Ti  Ti11  1  0.00000000  0.00000000  0.00000000  1.0
  O  O12  1  -0.93397399  0.93397399  0.43679510  1.0
  O  O13  1  -0.93397399  0.93397399  0.06320490  1.0
  O  O14  1  -0.06602601  1.06602601  0.93679510  1.0
  O  O15  1  -0.06602601  1.06602601  0.56320490  1.0
  O  O16  1  -0.79325598  0.79325598  0.95111311  1.0
  O  O17  1  -0.79325598  0.79325598  0.54888689  1.0
  O  O18  1  -0.20674402  1.20674402  0.45111311  1.0
  O  O19  1  -0.20674402  1.20674402  0.04888689  1.0
  O  O20  1  -0.62969480  0.62969480  0.49359911  1.0
  O  O21  1  -0.62969480  0.62969480  0.00640089  1.0
  O  O22  1  -0.37030520  1.37030520  0.99359911  1.0
  O  O23  1  -0.37030520  1.37030520  0.50640089  1.0
  O  O24  1  -0.01949081  0.01949081  0.25000000  1.0
  O  O25  1  0.01949081  -0.01949081  0.75000000  1.0
  O  O26  1  -0.85127876  0.85127876  0.25000000  1.0
  O  O27  1  -0.14872124  1.14872124  0.75000000  1.0
  O  O28  1  -0.12138513  1.12138513  0.25000000  1.0
  O  O29  1  -0.87861487  0.87861487  0.75000000  1.0
  O  O30  1  0.50000000  0.50000000  0.50000000  1.0
  O  O31  1  0.50000000  0.50000000  0.00000000  1.0
