# generated using pymatgen
data_BaLi2SiO4
_symmetry_space_group_name_H-M   'P 1'
_cell_length_a   8.17142303
_cell_length_b   8.17142303
_cell_length_c   10.75070563
_cell_angle_alpha   90.00000000
_cell_angle_beta   90.00000000
_cell_angle_gamma   120.00000000
_symmetry_Int_Tables_number   1
_chemical_formula_structural   BaLi2SiO4
_chemical_formula_sum   'Ba6 Li12 Si6 O24'
_cell_volume   621.67440964
_cell_formula_units_Z   6
loop_
 _symmetry_equiv_pos_site_id
 _symmetry_equiv_pos_as_xyz
  1  'x, y, z'
loop_
 _atom_site_type_symbol
 _atom_site_label
 _atom_site_symmetry_multiplicity
 _atom_site_fract_x
 _atom_site_fract_y
 _atom_site_fract_z
 _atom_site_occupancy
  Ba  Ba0  1  0.42420578  0.42420578  0.24651738  1.0
  Ba  Ba1  1  0.42420578  -0.00000000  0.74651738  1.0
  Ba  Ba2  1  0.00000000  0.42420578  0.74651738  1.0
  Ba  Ba3  1  -0.00000000  0.57579422  0.24651738  1.0
  Ba  Ba4  1  0.57579422  0.57579422  0.74651738  1.0
  Ba  Ba5  1  0.57579422  -0.00000000  0.24651738  1.0
  Li  Li6  1  0.77258981  0.77258981  0.39554492  1.0
  Li  Li7  1  0.77258981  0.00000000  0.89554492  1.0
  Li  Li8  1  0.00000000  0.77258981  0.89554492  1.0
  Li  Li9  1  0.00000000  0.22741019  0.39554492  1.0
  Li  Li10  1  0.22741019  0.22741019  0.89554492  1.0
  Li  Li11  1  0.22741019  -0.00000000  0.39554492  1.0
  Li  Li12  1  0.73246195  0.73246195  0.03444562  1.0
  Li  Li13  1  0.73246195  0.00000000  0.53444562  1.0
  Li  Li14  1  -0.00000000  0.73246195  0.53444562  1.0
  Li  Li15  1  0.00000000  0.26753805  0.03444562  1.0
  Li  Li16  1  0.26753805  0.26753805  0.53444562  1.0
  Li  Li17  1  0.26753805  0.00000000  0.03444562  1.0
  Si  Si18  1  0.33333333  0.66666667  0.49342566  1.0
  Si  Si19  1  0.33333333  0.66666667  0.99342566  1.0
  Si  Si20  1  0.66666667  0.33333333  0.49342566  1.0
  Si  Si21  1  0.66666667  0.33333333  0.99342566  1.0
  Si  Si22  1  -0.00000000  -0.00000000  0.16296335  1.0
  Si  Si23  1  0.00000000  -0.00000000  0.66296335  1.0
  O  O24  1  0.22068333  0.77467083  0.44207825  1.0
  O  O25  1  0.22068333  0.44601250  0.94207825  1.0
  O  O26  1  0.77467083  0.22068333  0.44207825  1.0
  O  O27  1  0.77467083  0.55398750  0.94207825  1.0
  O  O28  1  0.55398750  0.77467083  0.94207825  1.0
  O  O29  1  0.55398750  0.77931667  0.44207825  1.0
  O  O30  1  0.22532917  0.77931667  0.94207825  1.0
  O  O31  1  0.22532917  0.44601250  0.44207825  1.0
  O  O32  1  0.77931667  0.55398750  0.44207825  1.0
  O  O33  1  0.77931667  0.22532917  0.94207825  1.0
  O  O34  1  0.44601250  0.22068333  0.94207825  1.0
  O  O35  1  0.44601250  0.22532917  0.44207825  1.0
  O  O36  1  0.80714896  0.80714896  0.20987273  1.0
  O  O37  1  0.80714896  -0.00000000  0.70987273  1.0
  O  O38  1  -0.00000000  0.80714896  0.70987273  1.0
  O  O39  1  0.00000000  0.19285104  0.20987273  1.0
  O  O40  1  0.19285104  0.19285104  0.70987273  1.0
  O  O41  1  0.19285104  -0.00000000  0.20987273  1.0
  O  O42  1  0.33333333  0.66666667  0.14657195  1.0
  O  O43  1  0.33333333  0.66666667  0.64657195  1.0
  O  O44  1  0.66666667  0.33333333  0.14657195  1.0
  O  O45  1  0.66666667  0.33333333  0.64657195  1.0
  O  O46  1  0.00000000  0.00000000  0.00562995  1.0
  O  O47  1  0.00000000  0.00000000  0.50562995  1.0
