# generated using pymatgen
data_AgAs(XeF5)2
_symmetry_space_group_name_H-M   'P 1'
_cell_length_a   8.99885551
_cell_length_b   8.99885551
_cell_length_c   8.99885551
_cell_angle_alpha   121.39580392
_cell_angle_beta   121.39580392
_cell_angle_gamma   87.59893411
_symmetry_Int_Tables_number   1
_chemical_formula_structural   AgAs(XeF5)2
_chemical_formula_sum   'Ag2 As2 Xe4 F20'
_cell_volume   503.93219695
_cell_formula_units_Z   2
loop_
 _symmetry_equiv_pos_site_id
 _symmetry_equiv_pos_as_xyz
  1  'x, y, z'
loop_
 _atom_site_type_symbol
 _atom_site_label
 _atom_site_symmetry_multiplicity
 _atom_site_fract_x
 _atom_site_fract_y
 _atom_site_fract_z
 _atom_site_occupancy
  Ag  Ag0  1  0.00000000  0.50000000  0.50000000  1.0
  Ag  Ag1  1  0.50000000  0.00000000  0.50000000  1.0
  As  As2  1  0.00000000  0.00000000  0.00000000  1.0
  As  As3  1  0.50000000  0.50000000  1.00000000  1.0
  Xe  Xe4  1  0.50011188  0.99988812  1.00000000  1.0
  Xe  Xe5  1  1.00011188  1.00011188  1.50022376  1.0
  Xe  Xe6  1  0.49988812  0.49988812  0.49977624  1.0
  Xe  Xe7  1  0.99988812  0.50011188  1.00000000  1.0
  F  F8  1  0.26994046  0.76968580  0.73847837  1.0
  F  F9  1  0.76994046  1.03146208  1.50025465  1.0
  F  F10  1  0.73031420  1.23005954  1.26152163  1.0
  F  F11  1  1.23031420  0.96879257  1.50025465  1.0
  F  F12  1  0.53120743  0.26968580  0.49974535  1.0
  F  F13  1  1.03120743  0.53146208  1.26152163  1.0
  F  F14  1  0.46853792  0.73005954  0.49974535  1.0
  F  F15  1  0.96853792  0.46879257  0.73847837  1.0
  F  F16  1  0.19127809  0.92738000  1.11861308  1.0
  F  F17  1  0.69127809  0.57266501  1.26389809  1.0
  F  F18  1  0.57262000  1.30872191  0.88138692  1.0
  F  F19  1  1.07262000  1.19123308  1.26389809  1.0
  F  F20  1  0.30876692  0.42738000  0.73610191  1.0
  F  F21  1  0.80876692  0.07266501  0.88138692  1.0
  F  F22  1  0.92733499  0.80872191  0.73610191  1.0
  F  F23  1  1.42733499  0.69123308  1.11861308  1.0
  F  F24  1  0.13812558  0.13812558  0.00000000  1.0
  F  F25  1  0.63812558  0.63812558  1.00000000  1.0
  F  F26  1  0.36187442  0.36187442  0.00000000  1.0
  F  F27  1  0.86187442  0.86187442  1.00000000  1.0
