# generated using pymatgen
data_Ti5CuSb2
_symmetry_space_group_name_H-M   'P 1'
_cell_length_a   7.82706108
_cell_length_b   7.82706108
_cell_length_c   7.82706108
_cell_angle_alpha   96.17893907
_cell_angle_beta   96.17893907
_cell_angle_gamma   141.69591388
_symmetry_Int_Tables_number   1
_chemical_formula_structural   Ti5CuSb2
_chemical_formula_sum   'Ti10 Cu2 Sb4'
_cell_volume   280.76553156
_cell_formula_units_Z   2
loop_
 _symmetry_equiv_pos_site_id
 _symmetry_equiv_pos_as_xyz
  1  'x, y, z'
loop_
 _atom_site_type_symbol
 _atom_site_label
 _atom_site_symmetry_multiplicity
 _atom_site_fract_x
 _atom_site_fract_y
 _atom_site_fract_z
 _atom_site_occupancy
  Ti  Ti0  1  0.28602592  0.42579100  0.71181692  1.0
  Ti  Ti1  1  1.21397408  0.92579100  1.13976507  1.0
  Ti  Ti2  1  0.92579100  0.78602592  1.71181692  1.0
  Ti  Ti3  1  0.57420900  1.28602592  0.86023493  1.0
  Ti  Ti4  1  0.78602592  1.07420901  0.86023493  1.0
  Ti  Ti5  1  0.71397408  0.57420901  1.28818308  1.0
  Ti  Ti6  1  1.42579100  0.71397408  1.13976507  1.0
  Ti  Ti7  1  0.07420900  0.21397408  0.28818308  1.0
  Ti  Ti8  1  0.75000000  1.25000000  0.50000000  1.0
  Ti  Ti9  1  0.25000000  0.75000000  0.50000000  1.0
  Cu  Cu10  1  0.25000000  0.25000000  0.00000000  1.0
  Cu  Cu11  1  0.75000000  0.75000000  0.00000000  1.0
  Sb  Sb12  1  0.83601674  0.33601674  1.17203348  1.0
  Sb  Sb13  1  0.66398326  0.83601674  0.50000000  1.0
  Sb  Sb14  1  1.33601674  1.16398326  1.50000000  1.0
  Sb  Sb15  1  0.16398326  0.66398326  0.82796652  1.0
