# generated using pymatgen
data_MoO3
_symmetry_space_group_name_H-M   'P 1'
_cell_length_a   7.37383860
_cell_length_b   7.83060811
_cell_length_c   10.95510059
_cell_angle_alpha   90.00000000
_cell_angle_beta   132.30745212
_cell_angle_gamma   90.00000000
_symmetry_Int_Tables_number   1
_chemical_formula_structural   MoO3
_chemical_formula_sum   'Mo8 O24'
_cell_volume   467.80972188
_cell_formula_units_Z   8
loop_
 _symmetry_equiv_pos_site_id
 _symmetry_equiv_pos_as_xyz
  1  'x, y, z'
loop_
 _atom_site_type_symbol
 _atom_site_label
 _atom_site_symmetry_multiplicity
 _atom_site_fract_x
 _atom_site_fract_y
 _atom_site_fract_z
 _atom_site_occupancy
  Mo  Mo0  1  0.96162366  0.46049041  0.21187001  1.0
  Mo  Mo1  1  0.96162366  0.03950959  0.71187001  1.0
  Mo  Mo2  1  0.03837634  0.96049041  0.28812999  1.0
  Mo  Mo3  1  0.03837634  0.53950959  0.78812999  1.0
  Mo  Mo4  1  0.46211216  0.03950796  0.21189020  1.0
  Mo  Mo5  1  0.46211216  0.46049204  0.71189020  1.0
  Mo  Mo6  1  0.53788784  0.53950796  0.28810980  1.0
  Mo  Mo7  1  0.53788784  0.96049204  0.78810980  1.0
  O  O8  1  0.00379720  0.23939832  0.24285132  1.0
  O  O9  1  0.00379720  0.26060168  0.74285132  1.0
  O  O10  1  0.99620280  0.73939832  0.25714868  1.0
  O  O11  1  0.99620280  0.76060168  0.75714868  1.0
  O  O12  1  0.76059188  0.48953477  0.26107852  1.0
  O  O13  1  0.76059188  0.01046523  0.76107852  1.0
  O  O14  1  0.23940812  0.98953477  0.23892148  1.0
  O  O15  1  0.23940812  0.51046523  0.73892148  1.0
  O  O16  1  0.76142364  0.01026366  0.26095422  1.0
  O  O17  1  0.76142364  0.48973634  0.76095422  1.0
  O  O18  1  0.23857636  0.51026366  0.23904578  1.0
  O  O19  1  0.23857636  0.98973634  0.73904578  1.0
  O  O20  1  0.73673620  1.02033038  0.49944754  1.0
  O  O21  1  0.73673620  0.47966962  0.99944754  1.0
  O  O22  1  0.26326380  0.52033038  0.00055246  1.0
  O  O23  1  0.26326380  -0.02033038  0.50055246  1.0
  O  O24  1  0.48267437  0.26048429  0.24364249  1.0
  O  O25  1  0.48267437  0.23951571  0.74364249  1.0
  O  O26  1  0.51732563  0.76048429  0.25635751  1.0
  O  O27  1  0.51732563  0.73951571  0.75635751  1.0
  O  O28  1  0.26200921  0.47884101  0.49939654  1.0
  O  O29  1  0.26200921  0.02115899  0.99939654  1.0
  O  O30  1  0.73799079  0.97884101  0.00060346  1.0
  O  O31  1  0.73799079  0.52115899  0.50060346  1.0
