# generated using pymatgen
data_TaNiAs
_symmetry_space_group_name_H-M   'P 1'
_cell_length_a   6.33227397
_cell_length_b   3.69945328
_cell_length_c   7.36403094
_cell_angle_alpha   90.00000000
_cell_angle_beta   90.00000000
_cell_angle_gamma   90.00000000
_symmetry_Int_Tables_number   1
_chemical_formula_structural   TaNiAs
_chemical_formula_sum   'Ta4 Ni4 As4'
_cell_volume   172.50943316
_cell_formula_units_Z   4
loop_
 _symmetry_equiv_pos_site_id
 _symmetry_equiv_pos_as_xyz
  1  'x, y, z'
loop_
 _atom_site_type_symbol
 _atom_site_label
 _atom_site_symmetry_multiplicity
 _atom_site_fract_x
 _atom_site_fract_y
 _atom_site_fract_z
 _atom_site_occupancy
  Ta  Ta0  1  0.98376131  0.75000000  0.66121435  1.0
  Ta  Ta1  1  0.48376131  0.75000000  0.83878565  1.0
  Ta  Ta2  1  0.01623869  0.25000000  0.33878565  1.0
  Ta  Ta3  1  0.51623869  0.25000000  0.16121435  1.0
  Ni  Ni4  1  0.83570081  0.75000000  0.07721758  1.0
  Ni  Ni5  1  0.33570081  0.75000000  0.42278242  1.0
  Ni  Ni6  1  0.16429919  0.25000000  0.92278242  1.0
  Ni  Ni7  1  0.66429919  0.25000000  0.57721758  1.0
  As  As8  1  0.70851096  0.75000000  0.37983126  1.0
  As  As9  1  0.20851096  0.75000000  0.12016874  1.0
  As  As10  1  0.29148904  0.25000000  0.62016874  1.0
  As  As11  1  0.79148904  0.25000000  0.87983126  1.0
