# generated using pymatgen
data_Na2Mg(CO3)2
_symmetry_space_group_name_H-M   'P 1'
_cell_length_a   6.25475029
_cell_length_b   6.25475029
_cell_length_c   6.25475029
_cell_angle_alpha   47.07257203
_cell_angle_beta   47.07257203
_cell_angle_gamma   47.07257203
_symmetry_Int_Tables_number   1
_chemical_formula_structural   Na2Mg(CO3)2
_chemical_formula_sum   'Na2 Mg1 C2 O6'
_cell_volume   119.94341001
_cell_formula_units_Z   1
loop_
 _symmetry_equiv_pos_site_id
 _symmetry_equiv_pos_as_xyz
  1  'x, y, z'
loop_
 _atom_site_type_symbol
 _atom_site_label
 _atom_site_symmetry_multiplicity
 _atom_site_fract_x
 _atom_site_fract_y
 _atom_site_fract_z
 _atom_site_occupancy
  Na  Na0  1  0.20122580  0.20122580  0.20122580  1.0
  Na  Na1  1  0.79877420  -0.20122580  -0.20122580  1.0
  Mg  Mg2  1  0.00000000  0.00000000  0.00000000  1.0
  C  C3  1  0.40884999  0.40884999  -0.59115001  1.0
  C  C4  1  0.59115001  0.59115001  -0.40884999  1.0
  O  O5  1  0.19752354  0.69967605  -0.66681653  1.0
  O  O6  1  0.66681653  0.80247646  -0.69967605  1.0
  O  O7  1  0.30032395  0.66681653  -0.19752354  1.0
  O  O8  1  0.80247646  0.30032395  -0.33318347  1.0
  O  O9  1  0.33318347  0.19752354  -0.30032395  1.0
  O  O10  1  0.69967605  0.33318347  -0.80247646  1.0
