# generated using pymatgen
data_La4(GeS4)3
_symmetry_space_group_name_H-M   'P 1'
_cell_length_a   11.68990504
_cell_length_b   11.68990504
_cell_length_c   11.68990504
_cell_angle_alpha   114.75601011
_cell_angle_beta   114.75601011
_cell_angle_gamma   114.75601011
_symmetry_Int_Tables_number   1
_chemical_formula_structural   La4(GeS4)3
_chemical_formula_sum   'La8 Ge6 S24'
_cell_volume   913.59493647
_cell_formula_units_Z   2
loop_
 _symmetry_equiv_pos_site_id
 _symmetry_equiv_pos_as_xyz
  1  'x, y, z'
loop_
 _atom_site_type_symbol
 _atom_site_label
 _atom_site_symmetry_multiplicity
 _atom_site_fract_x
 _atom_site_fract_y
 _atom_site_fract_z
 _atom_site_occupancy
  La  La0  1  0.47280921  -0.06732011  -0.29096749  1.0
  La  La1  1  0.43267989  0.97280921  -0.79096749  1.0
  La  La2  1  0.97280921  0.20903251  0.43267989  1.0
  La  La3  1  0.70903251  0.47280921  -0.06732011  1.0
  La  La4  1  1.20903251  1.43267989  -0.02719079  1.0
  La  La5  1  0.93267989  0.70903251  0.47280921  1.0
  La  La6  1  -0.00384456  -0.00384456  -0.00384456  1.0
  La  La7  1  0.49615544  0.49615544  0.49615544  1.0
  Ge  Ge8  1  0.64109967  0.85331772  -0.53353601  1.0
  Ge  Ge9  1  0.35331772  0.14109967  -0.03353601  1.0
  Ge  Ge10  1  1.14109967  0.96646399  0.35331772  1.0
  Ge  Ge11  1  1.46646399  0.64109967  0.85331772  1.0
  Ge  Ge12  1  0.96646399  0.35331772  0.14109967  1.0
  Ge  Ge13  1  0.85331772  0.46646399  0.64109967  1.0
  S  S14  1  0.84913404  1.12449639  -0.41838446  1.0
  S  S15  1  0.62449639  0.34913404  0.08161554  1.0
  S  S16  1  0.34913404  0.08161554  -0.37550361  1.0
  S  S17  1  0.58161554  -0.15086596  0.12449639  1.0
  S  S18  1  1.08161554  0.62449639  0.34913404  1.0
  S  S19  1  1.12449639  0.58161554  0.84913404  1.0
  S  S20  1  0.68525495  0.87056398  -0.31565801  1.0
  S  S21  1  0.37056398  0.18525495  0.18434199  1.0
  S  S22  1  1.18525495  1.18434199  0.37056398  1.0
  S  S23  1  0.68434199  -0.31474505  -0.12943602  1.0
  S  S24  1  1.18434199  0.37056398  0.18525495  1.0
  S  S25  1  0.87056398  0.68434199  0.68525495  1.0
  S  S26  1  0.81298319  0.28060814  -0.11391062  1.0
  S  S27  1  0.78060814  0.31298319  0.38608938  1.0
  S  S28  1  1.31298319  0.38608938  0.78060814  1.0
  S  S29  1  0.88608938  0.81298319  0.28060814  1.0
  S  S30  1  0.38608938  0.78060814  -0.68701681  1.0
  S  S31  1  1.28060814  0.88608938  0.81298319  1.0
  S  S32  1  0.79675345  0.11298937  0.08491115  1.0
  S  S33  1  0.61298937  1.29675345  -0.41508885  1.0
  S  S34  1  1.29675345  0.58491115  0.61298937  1.0
  S  S35  1  1.08491115  0.79675345  0.11298937  1.0
  S  S36  1  0.58491115  0.61298937  -0.70324655  1.0
  S  S37  1  1.11298937  1.08491115  0.79675345  1.0
