# generated using pymatgen
data_Re2PbO8
_symmetry_space_group_name_H-M   'P 1'
_cell_length_a   11.52090249
_cell_length_b   11.52090249
_cell_length_c   5.24550350
_cell_angle_alpha   90.00000000
_cell_angle_beta   90.00000000
_cell_angle_gamma   120.00000000
_symmetry_Int_Tables_number   1
_chemical_formula_structural   Re2PbO8
_chemical_formula_sum   'Re6 Pb3 O24'
_cell_volume   602.96321086
_cell_formula_units_Z   3
loop_
 _symmetry_equiv_pos_site_id
 _symmetry_equiv_pos_as_xyz
  1  'x, y, z'
loop_
 _atom_site_type_symbol
 _atom_site_label
 _atom_site_symmetry_multiplicity
 _atom_site_fract_x
 _atom_site_fract_y
 _atom_site_fract_z
 _atom_site_occupancy
  Re  Re0  1  0.70286950  0.70286950  0.49015213  1.0
  Re  Re1  1  -0.00000000  0.29713050  0.49015213  1.0
  Re  Re2  1  0.29713050  -0.00000000  0.49015213  1.0
  Re  Re3  1  0.37019349  0.37019349  0.99085037  1.0
  Re  Re4  1  -0.00000000  0.62980651  0.99085037  1.0
  Re  Re5  1  0.62980651  -0.00000000  0.99085037  1.0
  Pb  Pb6  1  0.33333333  0.66666667  0.39650072  1.0
  Pb  Pb7  1  0.66666667  0.33333333  0.39650072  1.0
  Pb  Pb8  1  0.00000000  -0.00000000  -0.06254870  1.0
  O  O9  1  0.48907395  0.85510956  0.10765441  1.0
  O  O10  1  0.85510956  0.48907395  0.10765441  1.0
  O  O11  1  0.36603561  0.51092605  0.10765441  1.0
  O  O12  1  0.14489044  0.63396439  0.10765441  1.0
  O  O13  1  0.51092605  0.36603561  0.10765441  1.0
  O  O14  1  0.63396439  0.14489044  0.10765441  1.0
  O  O15  1  0.30070889  0.85666549  0.58821014  1.0
  O  O16  1  0.85666549  0.30070889  0.58821014  1.0
  O  O17  1  0.55595660  0.69929111  0.58821014  1.0
  O  O18  1  0.14333451  0.44404340  0.58821014  1.0
  O  O19  1  0.69929111  0.55595660  0.58821014  1.0
  O  O20  1  0.44404340  0.14333451  0.58821014  1.0
  O  O21  1  0.84438187  0.84438187  0.61487106  1.0
  O  O22  1  0.00000000  0.15561813  0.61487106  1.0
  O  O23  1  0.15561813  -0.00000000  0.61487106  1.0
  O  O24  1  0.71038370  0.71038370  0.16199278  1.0
  O  O25  1  -0.00000000  0.28961630  0.16199278  1.0
  O  O26  1  0.28961630  0.00000000  0.16199278  1.0
  O  O27  1  0.37914360  0.37914360  0.66289073  1.0
  O  O28  1  -0.00000000  0.62085640  0.66289073  1.0
  O  O29  1  0.62085640  0.00000000  0.66289073  1.0
  O  O30  1  0.22396182  0.22396182  0.07739624  1.0
  O  O31  1  -0.00000000  0.77603818  0.07739624  1.0
  O  O32  1  0.77603818  -0.00000000  0.07739624  1.0
