# generated using pymatgen
data_Ba3YIr2O9
_symmetry_space_group_name_H-M   'P 1'
_cell_length_a   5.92901832
_cell_length_b   5.92901832
_cell_length_c   14.66810277
_cell_angle_alpha   90.00000000
_cell_angle_beta   90.00000000
_cell_angle_gamma   120.00000000
_symmetry_Int_Tables_number   1
_chemical_formula_structural   Ba3YIr2O9
_chemical_formula_sum   'Ba6 Y2 Ir4 O18'
_cell_volume   446.55006926
_cell_formula_units_Z   2
loop_
 _symmetry_equiv_pos_site_id
 _symmetry_equiv_pos_as_xyz
  1  'x, y, z'
loop_
 _atom_site_type_symbol
 _atom_site_label
 _atom_site_symmetry_multiplicity
 _atom_site_fract_x
 _atom_site_fract_y
 _atom_site_fract_z
 _atom_site_occupancy
  Ba  Ba0  1  0.33333333  0.66666667  0.40788725  1.0
  Ba  Ba1  1  0.33333333  0.66666667  0.09211275  1.0
  Ba  Ba2  1  0.66666667  0.33333333  0.90788725  1.0
  Ba  Ba3  1  0.66666667  0.33333333  0.59211275  1.0
  Ba  Ba4  1  0.00000000  0.00000000  0.25000000  1.0
  Ba  Ba5  1  0.00000000  0.00000000  0.75000000  1.0
  Y  Y6  1  0.00000000  0.00000000  0.50000000  1.0
  Y  Y7  1  0.00000000  0.00000000  0.00000000  1.0
  Ir  Ir8  1  0.33333333  0.66666667  0.83578221  1.0
  Ir  Ir9  1  0.33333333  0.66666667  0.66421779  1.0
  Ir  Ir10  1  0.66666667  0.33333333  0.33578221  1.0
  Ir  Ir11  1  0.66666667  0.33333333  0.16421779  1.0
  O  O12  1  0.17620618  0.82379382  0.91322368  1.0
  O  O13  1  0.17620618  0.82379382  0.58677632  1.0
  O  O14  1  0.17620618  0.35241237  0.91322368  1.0
  O  O15  1  0.17620618  0.35241237  0.58677632  1.0
  O  O16  1  0.82379382  0.17620618  0.41322368  1.0
  O  O17  1  0.82379382  0.17620618  0.08677632  1.0
  O  O18  1  0.82379382  0.64758763  0.41322368  1.0
  O  O19  1  0.82379382  0.64758763  0.08677632  1.0
  O  O20  1  0.64758763  0.82379382  0.91322368  1.0
  O  O21  1  0.64758763  0.82379382  0.58677632  1.0
  O  O22  1  0.35241237  0.17620618  0.41322368  1.0
  O  O23  1  0.35241237  0.17620618  0.08677632  1.0
  O  O24  1  0.50905722  0.49094278  0.25000000  1.0
  O  O25  1  0.50905722  0.01811444  0.25000000  1.0
  O  O26  1  0.49094278  0.50905722  0.75000000  1.0
  O  O27  1  0.49094278  -0.01811444  0.75000000  1.0
  O  O28  1  -0.01811444  0.49094278  0.25000000  1.0
  O  O29  1  0.01811444  0.50905722  0.75000000  1.0
