# generated using pymatgen
data_Y3GaCo3
_symmetry_space_group_name_H-M   'P 1'
_cell_length_a   5.37807893
_cell_length_b   5.37807893
_cell_length_c   12.88054960
_cell_angle_alpha   90.00000000
_cell_angle_beta   90.00000000
_cell_angle_gamma   134.75154320
_symmetry_Int_Tables_number   1
_chemical_formula_structural   Y3GaCo3
_chemical_formula_sum   'Y6 Ga2 Co6'
_cell_volume   264.57503736
_cell_formula_units_Z   2
loop_
 _symmetry_equiv_pos_site_id
 _symmetry_equiv_pos_as_xyz
  1  'x, y, z'
loop_
 _atom_site_type_symbol
 _atom_site_label
 _atom_site_symmetry_multiplicity
 _atom_site_fract_x
 _atom_site_fract_y
 _atom_site_fract_z
 _atom_site_occupancy
  Y  Y0  1  0.29350634  0.70649366  0.39740347  1.0
  Y  Y1  1  0.29350634  0.70649366  0.10259653  1.0
  Y  Y2  1  -0.29350634  0.29350634  0.89740347  1.0
  Y  Y3  1  -0.29350634  0.29350634  0.60259653  1.0
  Y  Y4  1  -0.00260472  0.00260472  0.75000000  1.0
  Y  Y5  1  0.00260472  0.99739528  0.25000000  1.0
  Ga  Ga6  1  0.00000000  0.00000000  0.00000000  1.0
  Ga  Ga7  1  0.00000000  0.00000000  0.50000000  1.0
  Co  Co8  1  0.41635878  0.58364122  0.90398238  1.0
  Co  Co9  1  0.41635878  0.58364122  0.59601762  1.0
  Co  Co10  1  -0.41635878  0.41635878  0.40398238  1.0
  Co  Co11  1  -0.41635878  0.41635878  0.09601762  1.0
  Co  Co12  1  0.30166977  0.69833023  0.75000000  1.0
  Co  Co13  1  -0.30166977  0.30166977  0.25000000  1.0
