# generated using pymatgen
data_H2Pb(CO2)2
_symmetry_space_group_name_H-M   'P 1'
_cell_length_a   6.57980351
_cell_length_b   7.61455788
_cell_length_c   8.95521380
_cell_angle_alpha   90.00000000
_cell_angle_beta   90.00000000
_cell_angle_gamma   90.00000000
_symmetry_Int_Tables_number   1
_chemical_formula_structural   H2Pb(CO2)2
_chemical_formula_sum   'H8 Pb4 C8 O16'
_cell_volume   448.67676074
_cell_formula_units_Z   4
loop_
 _symmetry_equiv_pos_site_id
 _symmetry_equiv_pos_as_xyz
  1  'x, y, z'
loop_
 _atom_site_type_symbol
 _atom_site_label
 _atom_site_symmetry_multiplicity
 _atom_site_fract_x
 _atom_site_fract_y
 _atom_site_fract_z
 _atom_site_occupancy
  H  H0  1  0.47542397  0.50948931  0.76934748  1.0
  H  H1  1  1.02457603  0.49051069  0.26934748  1.0
  H  H2  1  -0.02457603  0.99051069  0.23065252  1.0
  H  H3  1  0.52457603  0.00948931  0.73065252  1.0
  H  H4  1  0.76378122  0.69890040  0.99345634  1.0
  H  H5  1  0.73621878  0.30109960  0.49345634  1.0
  H  H6  1  0.26378122  0.80109960  0.00654366  1.0
  H  H7  1  0.23621878  0.19890040  0.50654366  1.0
  Pb  Pb8  1  0.07272220  0.75012305  0.66894067  1.0
  Pb  Pb9  1  0.42727780  0.24987695  0.16894067  1.0
  Pb  Pb10  1  0.57272220  0.74987695  0.33105933  1.0
  Pb  Pb11  1  0.92727780  0.25012305  0.83105933  1.0
  C  C12  1  0.57158385  0.59638686  0.69994190  1.0
  C  C13  1  0.92841615  0.40361314  0.19994190  1.0
  C  C14  1  0.07158385  0.90361314  0.30005810  1.0
  C  C15  1  0.42841615  0.09638686  0.80005810  1.0
  C  C16  1  0.75869081  0.84464926  0.99346843  1.0
  C  C17  1  0.74130919  0.15535074  0.49346843  1.0
  C  C18  1  0.25869081  0.65535074  0.00653157  1.0
  C  C19  1  0.24130919  0.34464926  0.50653157  1.0
  O  O20  1  0.48673251  0.72208199  0.63157110  1.0
  O  O21  1  0.01326749  0.27791801  0.13157110  1.0
  O  O22  1  0.98673251  0.77791801  0.36842890  1.0
  O  O23  1  0.51326749  0.22208199  0.86842890  1.0
  O  O24  1  0.76000685  0.55821351  0.69526967  1.0
  O  O25  1  0.73999315  0.44178649  0.19526967  1.0
  O  O26  1  0.26000685  0.94178649  0.30473033  1.0
  O  O27  1  0.23999315  0.05821351  0.80473033  1.0
  O  O28  1  0.15659044  0.58105833  0.90421045  1.0
  O  O29  1  0.34340956  0.41894167  0.40421045  1.0
  O  O30  1  0.65659044  0.91894167  0.09578955  1.0
  O  O31  1  0.84340956  0.08105833  0.59578955  1.0
  O  O32  1  0.85679497  0.92133641  0.89092311  1.0
  O  O33  1  0.64320503  0.07866359  0.39092311  1.0
  O  O34  1  0.35679497  0.57866359  0.10907689  1.0
  O  O35  1  0.14320503  0.42133641  0.60907689  1.0
