# generated using pymatgen
data_NiTe2O5
_symmetry_space_group_name_H-M   'P 1'
_cell_length_a   9.12716503
_cell_length_b   12.40782232
_cell_length_c   8.30734936
_cell_angle_alpha   90.00000000
_cell_angle_beta   90.00000000
_cell_angle_gamma   90.00000000
_symmetry_Int_Tables_number   1
_chemical_formula_structural   NiTe2O5
_chemical_formula_sum   'Ni8 Te16 O40'
_cell_volume   940.79271074
_cell_formula_units_Z   8
loop_
 _symmetry_equiv_pos_site_id
 _symmetry_equiv_pos_as_xyz
  1  'x, y, z'
loop_
 _atom_site_type_symbol
 _atom_site_label
 _atom_site_symmetry_multiplicity
 _atom_site_fract_x
 _atom_site_fract_y
 _atom_site_fract_z
 _atom_site_occupancy
  O  O0  1  0.49029773  0.87447540  0.92501131  1.0
  O  O1  1  0.49029773  0.62552460  0.92501131  1.0
  O  O2  1  0.99029773  0.87447540  0.57498869  1.0
  O  O3  1  0.99029773  0.62552460  0.57498869  1.0
  O  O4  1  0.50970227  0.37447540  0.07498869  1.0
  O  O5  1  0.50970227  0.12552460  0.07498869  1.0
  O  O6  1  0.00970227  0.37447540  0.42501131  1.0
  O  O7  1  0.00970227  0.12552460  0.42501131  1.0
  O  O8  1  0.18389387  0.87741908  0.85795416  1.0
  O  O9  1  0.18389387  0.62258092  0.85795416  1.0
  O  O10  1  0.68389387  0.87741908  0.64204584  1.0
  O  O11  1  0.68389387  0.62258092  0.64204584  1.0
  O  O12  1  0.81610613  0.37741908  0.14204584  1.0
  O  O13  1  0.81610613  0.12258092  0.14204584  1.0
  O  O14  1  0.31610613  0.37741908  0.35795416  1.0
  O  O15  1  0.31610613  0.12258092  0.35795416  1.0
  O  O16  1  0.16110080  0.37292469  0.82443508  1.0
  O  O17  1  0.16110080  0.12707531  0.82443508  1.0
  O  O18  1  0.66110080  0.37292469  0.67556492  1.0
  O  O19  1  0.66110080  0.12707531  0.67556492  1.0
  O  O20  1  0.83889920  0.87292469  0.17556492  1.0
  O  O21  1  0.83889920  0.62707531  0.17556492  1.0
  O  O22  1  0.33889920  0.87292469  0.32443508  1.0
  O  O23  1  0.33889920  0.62707531  0.32443508  1.0
  O  O24  1  0.45481367  0.75000000  0.63234198  1.0
  O  O25  1  0.95481367  0.75000000  0.86765802  1.0
  O  O26  1  0.54518633  0.25000000  0.36765802  1.0
  O  O27  1  0.04518633  0.25000000  0.13234198  1.0
  O  O28  1  0.10363511  0.75000000  0.16051879  1.0
  O  O29  1  0.60363511  0.75000000  0.33948121  1.0
  O  O30  1  0.89636489  0.25000000  0.83948121  1.0
  O  O31  1  0.39636489  0.25000000  0.66051879  1.0
  O  O32  1  0.38808641  0.98967069  0.61881327  1.0
  O  O33  1  0.38808641  0.51032931  0.61881327  1.0
  O  O34  1  0.88808641  0.98967069  0.88118673  1.0
  O  O35  1  0.88808641  0.51032931  0.88118673  1.0
  O  O36  1  0.61191359  0.48967069  0.38118673  1.0
  O  O37  1  0.61191359  0.01032931  0.38118673  1.0
  O  O38  1  0.11191359  0.48967069  0.11881327  1.0
  O  O39  1  0.11191359  0.01032931  0.11881327  1.0
  Ni  Ni40  1  0.48941392  0.37573756  0.51475499  1.0
  Ni  Ni41  1  0.48941392  0.12426244  0.51475499  1.0
  Ni  Ni42  1  0.98941392  0.37573756  0.98524501  1.0
  Ni  Ni43  1  0.98941392  0.12426244  0.98524501  1.0
  Ni  Ni44  1  0.51058608  0.87573756  0.48524501  1.0
  Ni  Ni45  1  0.51058608  0.62426244  0.48524501  1.0
  Ni  Ni46  1  0.01058608  0.87573756  0.01475499  1.0
  Ni  Ni47  1  0.01058608  0.62426244  0.01475499  1.0
  Te  Te48  1  0.34174866  0.98754552  0.85023114  1.0
  Te  Te49  1  0.34174866  0.51245448  0.85023114  1.0
  Te  Te50  1  0.84174866  0.98754552  0.64976886  1.0
  Te  Te51  1  0.84174866  0.51245448  0.64976886  1.0
  Te  Te52  1  0.65825134  0.48754552  0.14976886  1.0
  Te  Te53  1  0.65825134  0.01245448  0.14976886  1.0
  Te  Te54  1  0.15825134  0.48754552  0.35023114  1.0
  Te  Te55  1  0.15825134  0.01245448  0.35023114  1.0
  Te  Te56  1  0.32184210  0.75000000  0.17493256  1.0
  Te  Te57  1  0.82184210  0.75000000  0.32506744  1.0
  Te  Te58  1  0.67815790  0.25000000  0.82506744  1.0
  Te  Te59  1  0.17815790  0.25000000  0.67493256  1.0
  Te  Te60  1  0.10299788  0.75000000  0.69140045  1.0
  Te  Te61  1  0.60299788  0.75000000  0.80859955  1.0
  Te  Te62  1  0.89700212  0.25000000  0.30859955  1.0
  Te  Te63  1  0.39700212  0.25000000  0.19140045  1.0
