# generated using pymatgen
data_ZrPb3F10
_symmetry_space_group_name_H-M   'P 1'
_cell_length_a   8.40493483
_cell_length_b   8.40493483
_cell_length_c   6.10458391
_cell_angle_alpha   90.00000000
_cell_angle_beta   90.00000000
_cell_angle_gamma   101.03179757
_symmetry_Int_Tables_number   1
_chemical_formula_structural   ZrPb3F10
_chemical_formula_sum   'Zr2 Pb6 F20'
_cell_volume   423.27676115
_cell_formula_units_Z   2
loop_
 _symmetry_equiv_pos_site_id
 _symmetry_equiv_pos_as_xyz
  1  'x, y, z'
loop_
 _atom_site_type_symbol
 _atom_site_label
 _atom_site_symmetry_multiplicity
 _atom_site_fract_x
 _atom_site_fract_y
 _atom_site_fract_z
 _atom_site_occupancy
  Zr  Zr0  1  -0.31660688  1.31660688  0.25000000  1.0
  Zr  Zr1  1  0.31660688  0.68339312  0.75000000  1.0
  Pb  Pb2  1  0.17941399  0.38988292  0.25000000  1.0
  Pb  Pb3  1  -0.61011708  1.17941399  0.75000000  1.0
  Pb  Pb4  1  0.61011708  0.82058601  0.25000000  1.0
  Pb  Pb5  1  -0.17941399  1.61011708  0.75000000  1.0
  Pb  Pb6  1  0.11166759  0.88833241  0.25000000  1.0
  Pb  Pb7  1  -0.11166759  1.11166759  0.75000000  1.0
  F  F8  1  -0.10402259  1.34471881  0.45890982  1.0
  F  F9  1  -0.10402259  1.34471881  0.04109018  1.0
  F  F10  1  0.34471881  0.89597741  0.95890982  1.0
  F  F11  1  0.34471881  0.89597741  0.54109018  1.0
  F  F12  1  -0.34471881  1.10402259  0.45890982  1.0
  F  F13  1  -0.34471881  1.10402259  0.04109018  1.0
  F  F14  1  0.10402259  0.65528119  0.95890982  1.0
  F  F15  1  0.10402259  0.65528119  0.54109018  1.0
  F  F16  1  -0.24572663  1.57324093  0.25000000  1.0
  F  F17  1  0.57324093  0.75427337  0.75000000  1.0
  F  F18  1  -0.57324093  1.24572663  0.25000000  1.0
  F  F19  1  0.24572663  0.42675907  0.75000000  1.0
  F  F20  1  0.39498974  0.60501026  0.45486156  1.0
  F  F21  1  0.39498974  0.60501026  0.04513844  1.0
  F  F22  1  -0.39498974  1.39498974  0.95486156  1.0
  F  F23  1  -0.39498974  1.39498974  0.54513844  1.0
  F  F24  1  0.86290448  0.86290448  0.50000000  1.0
  F  F25  1  0.86290448  0.86290448  0.00000000  1.0
  F  F26  1  0.13709552  0.13709552  0.50000000  1.0
  F  F27  1  0.13709552  0.13709552  -0.00000000  1.0
