# generated using pymatgen
data_BaGaO2F5
_symmetry_space_group_name_H-M   'P 1'
_cell_length_a   5.20973468
_cell_length_b   5.84433880
_cell_length_c   10.38613933
_cell_angle_alpha   90.00000000
_cell_angle_beta   111.55150693
_cell_angle_gamma   90.00000000
_symmetry_Int_Tables_number   1
_chemical_formula_structural   BaGaO2F5
_chemical_formula_sum   'Ba2 Ga2 O4 F10'
_cell_volume   294.12303924
_cell_formula_units_Z   2
loop_
 _symmetry_equiv_pos_site_id
 _symmetry_equiv_pos_as_xyz
  1  'x, y, z'
loop_
 _atom_site_type_symbol
 _atom_site_label
 _atom_site_symmetry_multiplicity
 _atom_site_fract_x
 _atom_site_fract_y
 _atom_site_fract_z
 _atom_site_occupancy
  Ga  Ga0  1  0.83204998  0.75000000  0.74404546  1.0
  Ga  Ga1  1  0.16795002  0.25000000  0.25595454  1.0
  F  F2  1  0.94912575  0.97842928  0.64289520  1.0
  F  F3  1  0.94912575  0.52157072  0.64289520  1.0
  F  F4  1  0.05087425  0.47842928  0.35710480  1.0
  F  F5  1  0.05087425  0.02157072  0.35710480  1.0
  F  F6  1  0.48074280  0.75000000  0.58982023  1.0
  F  F7  1  0.51925720  0.25000000  0.41017977  1.0
  F  F8  1  0.68665249  0.98807748  0.82626853  1.0
  F  F9  1  0.68665249  0.51192252  0.82626853  1.0
  F  F10  1  0.31334751  0.48807748  0.17373147  1.0
  F  F11  1  0.31334751  0.01192252  0.17373147  1.0
  Ba  Ba12  1  0.66280933  0.75000000  0.37689377  1.0
  Ba  Ba13  1  0.33719067  0.25000000  0.62310623  1.0
  O  O14  1  1.02193444  0.75000000  0.05515896  1.0
  O  O15  1  -0.02193444  0.25000000  0.94484104  1.0
  O  O16  1  0.19143737  0.75000000  0.90368040  1.0
  O  O17  1  0.80856263  0.25000000  0.09631960  1.0
