# generated using pymatgen
data_Sr2MnZn2(AsO)2
_symmetry_space_group_name_H-M   'P 1'
_cell_length_a   9.85128789
_cell_length_b   9.85128789
_cell_length_c   9.85128789
_cell_angle_alpha   155.69254642
_cell_angle_beta   155.69254642
_cell_angle_gamma   34.64405873
_symmetry_Int_Tables_number   1
_chemical_formula_structural   Sr2MnZn2(AsO)2
_chemical_formula_sum   'Sr2 Mn1 Zn2 As2 O2'
_cell_volume   161.81977836
_cell_formula_units_Z   1
loop_
 _symmetry_equiv_pos_site_id
 _symmetry_equiv_pos_as_xyz
  1  'x, y, z'
loop_
 _atom_site_type_symbol
 _atom_site_label
 _atom_site_symmetry_multiplicity
 _atom_site_fract_x
 _atom_site_fract_y
 _atom_site_fract_z
 _atom_site_occupancy
  Sr  Sr0  1  0.58801691  0.58801691  1.00000000  1.0
  Sr  Sr1  1  0.41198309  0.41198309  0.00000000  1.0
  Mn  Mn2  1  0.00000000  0.00000000  0.00000000  1.0
  Zn  Zn3  1  0.25000000  0.75000000  0.50000000  1.0
  Zn  Zn4  1  0.75000000  0.25000000  0.50000000  1.0
  As  As5  1  0.83228396  0.83228396  1.00000000  1.0
  As  As6  1  0.16771604  0.16771604  0.00000000  1.0
  O  O7  1  0.50000000  0.00000000  0.50000000  1.0
  O  O8  1  0.00000000  0.50000000  0.50000000  1.0
