# generated using pymatgen
data_Gd2Zn14Ni3
_symmetry_space_group_name_H-M   'P 1'
_cell_length_a   6.67320408
_cell_length_b   6.67320408
_cell_length_c   6.67320408
_cell_angle_alpha   82.80363823
_cell_angle_beta   82.80363823
_cell_angle_gamma   82.80363822
_symmetry_Int_Tables_number   1
_chemical_formula_structural   Gd2Zn14Ni3
_chemical_formula_sum   'Gd2 Zn14 Ni3'
_cell_volume   290.68726142
_cell_formula_units_Z   1
loop_
 _symmetry_equiv_pos_site_id
 _symmetry_equiv_pos_as_xyz
  1  'x, y, z'
loop_
 _atom_site_type_symbol
 _atom_site_label
 _atom_site_symmetry_multiplicity
 _atom_site_fract_x
 _atom_site_fract_y
 _atom_site_fract_z
 _atom_site_occupancy
  Gd  Gd0  1  0.66087062  0.66087062  -0.33912938  1.0
  Gd  Gd1  1  0.33912938  0.33912938  -0.66087062  1.0
  Zn  Zn2  1  0.34714030  0.34714030  -0.14623986  1.0
  Zn  Zn3  1  0.34714030  0.85376014  -0.65285970  1.0
  Zn  Zn4  1  1.14623986  -0.34714030  -0.34714030  1.0
  Zn  Zn5  1  0.65285970  0.14623986  -0.34714030  1.0
  Zn  Zn6  1  0.65285970  -0.34714030  0.14623986  1.0
  Zn  Zn7  1  0.85376014  0.34714030  -0.65285970  1.0
  Zn  Zn8  1  0.70661912  0.00000000  0.29338088  1.0
  Zn  Zn9  1  0.70661912  -0.70661912  -0.00000000  1.0
  Zn  Zn10  1  -0.00000000  0.70661912  -0.70661912  1.0
  Zn  Zn11  1  0.00000000  0.29338088  -0.29338088  1.0
  Zn  Zn12  1  1.29338088  -0.00000000  -0.29338088  1.0
  Zn  Zn13  1  0.29338088  -0.29338088  -0.00000000  1.0
  Zn  Zn14  1  0.89419194  0.89419194  -0.10580806  1.0
  Zn  Zn15  1  1.10580806  1.10580806  0.10580806  1.0
  Ni  Ni16  1  1.00000000  1.50000000  0.00000000  1.0
  Ni  Ni17  1  1.00000000  -0.00000000  -0.50000000  1.0
  Ni  Ni18  1  0.50000000  -0.00000000  -0.00000000  1.0
