# generated using pymatgen
data_Hf2CoP
_symmetry_space_group_name_H-M   'P 1'
_cell_length_a   5.18381637
_cell_length_b   3.59611021
_cell_length_c   7.47491408
_cell_angle_alpha   90.00000000
_cell_angle_beta   111.33065717
_cell_angle_gamma   90.00000000
_symmetry_Int_Tables_number   1
_chemical_formula_structural   Hf2CoP
_chemical_formula_sum   'Hf4 Co2 P2'
_cell_volume   129.79863977
_cell_formula_units_Z   2
loop_
 _symmetry_equiv_pos_site_id
 _symmetry_equiv_pos_as_xyz
  1  'x, y, z'
loop_
 _atom_site_type_symbol
 _atom_site_label
 _atom_site_symmetry_multiplicity
 _atom_site_fract_x
 _atom_site_fract_y
 _atom_site_fract_z
 _atom_site_occupancy
  Hf  Hf0  1  0.70768702  0.25000000  0.93482158  1.0
  Hf  Hf1  1  0.29231298  0.75000000  0.06517842  1.0
  Hf  Hf2  1  0.71315403  0.25000000  0.41943995  1.0
  Hf  Hf3  1  0.28684597  0.75000000  0.58056005  1.0
  Co  Co4  1  0.14734990  0.25000000  0.78939097  1.0
  Co  Co5  1  0.85265010  0.75000000  0.21060903  1.0
  P  P6  1  0.15019405  0.25000000  0.28897446  1.0
  P  P7  1  0.84980595  0.75000000  0.71102554  1.0
