# generated using pymatgen
data_Sr2VO4
_symmetry_space_group_name_H-M   'P 1'
_cell_length_a   6.92814860
_cell_length_b   6.92814860
_cell_length_c   6.92814860
_cell_angle_alpha   147.96716073
_cell_angle_beta   147.96716073
_cell_angle_gamma   45.93384576
_symmetry_Int_Tables_number   1
_chemical_formula_structural   Sr2VO4
_chemical_formula_sum   'Sr2 V1 O4'
_cell_volume   93.23688484
_cell_formula_units_Z   1
loop_
 _symmetry_equiv_pos_site_id
 _symmetry_equiv_pos_as_xyz
  1  'x, y, z'
loop_
 _atom_site_type_symbol
 _atom_site_label
 _atom_site_symmetry_multiplicity
 _atom_site_fract_x
 _atom_site_fract_y
 _atom_site_fract_z
 _atom_site_occupancy
  Sr  Sr0  1  0.64613025  0.64613025  1.00000000  1.0
  Sr  Sr1  1  0.35386975  0.35386975  0.00000000  1.0
  V  V2  1  0.00000000  0.00000000  0.00000000  1.0
  O  O3  1  0.84233471  0.84233471  1.00000000  1.0
  O  O4  1  0.15766529  0.15766529  -0.00000000  1.0
  O  O5  1  0.50000000  0.00000000  0.50000000  1.0
  O  O6  1  0.00000000  0.50000000  0.50000000  1.0
