# generated using pymatgen
data_BeAu
_symmetry_space_group_name_H-M   'P 1'
_cell_length_a   4.70205564
_cell_length_b   4.70205564
_cell_length_c   4.70205564
_cell_angle_alpha   90.00000000
_cell_angle_beta   90.00000000
_cell_angle_gamma   90.00000000
_symmetry_Int_Tables_number   1
_chemical_formula_structural   BeAu
_chemical_formula_sum   'Be4 Au4'
_cell_volume   103.95928695
_cell_formula_units_Z   4
loop_
 _symmetry_equiv_pos_site_id
 _symmetry_equiv_pos_as_xyz
  1  'x, y, z'
loop_
 _atom_site_type_symbol
 _atom_site_label
 _atom_site_symmetry_multiplicity
 _atom_site_fract_x
 _atom_site_fract_y
 _atom_site_fract_z
 _atom_site_occupancy
  Be  Be0  1  0.40400775  0.90400775  0.59599225  1.0
  Be  Be1  1  0.90400775  0.59599225  0.40400775  1.0
  Be  Be2  1  0.59599225  0.40400775  0.90400775  1.0
  Be  Be3  1  0.09599225  0.09599225  0.09599225  1.0
  Au  Au4  1  0.09523697  0.59523697  0.90476303  1.0
  Au  Au5  1  0.59523697  0.90476303  0.09523697  1.0
  Au  Au6  1  0.90476303  0.09523697  0.59523697  1.0
  Au  Au7  1  0.40476303  0.40476303  0.40476303  1.0
