# generated using pymatgen
data_HC3ClO2
_symmetry_space_group_name_H-M   'P 1'
_cell_length_a   8.04714296
_cell_length_b   5.48599098
_cell_length_c   11.72254464
_cell_angle_alpha   90.00000000
_cell_angle_beta   127.69900222
_cell_angle_gamma   90.00000000
_symmetry_Int_Tables_number   1
_chemical_formula_structural   HC3ClO2
_chemical_formula_sum   'H4 C12 Cl4 O8'
_cell_volume   409.47155942
_cell_formula_units_Z   4
loop_
 _symmetry_equiv_pos_site_id
 _symmetry_equiv_pos_as_xyz
  1  'x, y, z'
loop_
 _atom_site_type_symbol
 _atom_site_label
 _atom_site_symmetry_multiplicity
 _atom_site_fract_x
 _atom_site_fract_y
 _atom_site_fract_z
 _atom_site_occupancy
  H  H0  1  0.64722147  0.14489637  0.24425041  1.0
  H  H1  1  0.64722147  0.35510363  0.74425041  1.0
  H  H2  1  0.35277853  0.64489637  0.25574959  1.0
  H  H3  1  0.35277853  0.85510363  0.75574959  1.0
  C  C4  1  0.90333799  0.31489113  0.39132511  1.0
  C  C5  1  0.90333799  0.18510887  0.89132511  1.0
  C  C6  1  0.09666201  0.81489113  0.10867489  1.0
  C  C7  1  0.09666201  0.68510887  0.60867489  1.0
  C  C8  1  0.88284033  0.83723603  0.02579337  1.0
  C  C9  1  0.88284033  0.66276397  0.52579337  1.0
  C  C10  1  0.11715967  0.33723603  0.47420663  1.0
  C  C11  1  0.11715967  0.16276397  0.97420663  1.0
  C  C12  1  0.77467184  0.48277860  0.41252885  1.0
  C  C13  1  0.77467184  0.01722140  0.91252885  1.0
  C  C14  1  0.22532816  0.98277860  0.08747115  1.0
  C  C15  1  0.22532816  0.51722140  0.58747115  1.0
  Cl  Cl16  1  0.26298819  0.14946655  0.44859366  1.0
  Cl  Cl17  1  0.26298819  0.35053345  0.94859366  1.0
  Cl  Cl18  1  0.73701181  0.64946655  0.05140634  1.0
  Cl  Cl19  1  0.73701181  0.85053345  0.55140634  1.0
  O  O20  1  0.80043486  0.14954187  0.28905496  1.0
  O  O21  1  0.80043486  0.35045813  0.78905496  1.0
  O  O22  1  0.19956514  0.64954187  0.21094504  1.0
  O  O23  1  0.19956514  0.85045813  0.71094504  1.0
  O  O24  1  0.58173044  0.45526600  0.32869227  1.0
  O  O25  1  0.58173044  0.04473400  0.82869227  1.0
  O  O26  1  0.41826956  0.95526600  0.17130773  1.0
  O  O27  1  0.41826956  0.54473400  0.67130773  1.0
