# generated using pymatgen
data_MnPbO3
_symmetry_space_group_name_H-M   'P 1'
_cell_length_a   5.54726843
_cell_length_b   5.54726843
_cell_length_c   13.65200976
_cell_angle_alpha   89.12006788
_cell_angle_beta   90.87993212
_cell_angle_gamma   60.00976865
_symmetry_Int_Tables_number   1
_chemical_formula_structural   MnPbO3
_chemical_formula_sum   'Mn6 Pb6 O18'
_cell_volume   363.68336900
_cell_formula_units_Z   6
loop_
 _symmetry_equiv_pos_site_id
 _symmetry_equiv_pos_as_xyz
  1  'x, y, z'
loop_
 _atom_site_type_symbol
 _atom_site_label
 _atom_site_symmetry_multiplicity
 _atom_site_fract_x
 _atom_site_fract_y
 _atom_site_fract_z
 _atom_site_occupancy
  Mn  Mn0  1  0.00000000  0.00000000  0.00000000  1.0
  Mn  Mn1  1  0.00000000  -0.00000000  0.50000000  1.0
  Mn  Mn2  1  0.65293087  -0.32862218  0.84436382  1.0
  Mn  Mn3  1  1.32862218  -0.65293087  0.34436382  1.0
  Mn  Mn4  1  0.67137782  -0.34706913  0.65563618  1.0
  Mn  Mn5  1  0.34706913  0.32862218  0.15563618  1.0
  O  O6  1  0.51457396  -0.04299924  0.73889555  1.0
  O  O7  1  1.04299924  -0.51457396  0.23889555  1.0
  O  O8  1  0.95700076  -0.48542604  0.76110445  1.0
  O  O9  1  0.48542604  0.04299924  0.26110445  1.0
  O  O10  1  0.62814347  0.20903559  0.43784081  1.0
  O  O11  1  0.79096441  -0.62814347  0.93784081  1.0
  O  O12  1  1.20903559  -0.37185653  0.06215919  1.0
  O  O13  1  0.37185653  -0.20903559  0.56215919  1.0
  O  O14  1  0.28688831  -0.11803617  0.90457932  1.0
  O  O15  1  1.11803617  -0.28688831  0.40457932  1.0
  O  O16  1  0.88196383  -0.71311169  0.59542068  1.0
  O  O17  1  0.71311169  0.11803617  0.09542068  1.0
  O  O18  1  0.51456683  -0.48543317  0.75000000  1.0
  O  O19  1  0.48543317  0.48543317  0.25000000  1.0
  O  O20  1  0.78711837  -0.12056714  0.92016704  1.0
  O  O21  1  1.12056714  -0.78711837  0.42016704  1.0
  O  O22  1  0.87943286  -0.21288163  0.57983296  1.0
  O  O23  1  0.21288163  0.12056714  0.07983296  1.0
  Pb  Pb24  1  1.32980521  -0.67361478  0.91108890  1.0
  Pb  Pb25  1  0.67361478  -0.32980521  0.41108890  1.0
  Pb  Pb26  1  0.32638522  0.32980521  0.58891110  1.0
  Pb  Pb27  1  0.67019479  -0.32638522  0.08891110  1.0
  Pb  Pb28  1  0.99018577  -0.00981423  0.75000000  1.0
  Pb  Pb29  1  0.00981423  0.00981423  0.25000000  1.0
