# generated using pymatgen
data_Sr3Te4O11
_symmetry_space_group_name_H-M   'P 1'
_cell_length_a   9.35096337
_cell_length_b   9.89245019
_cell_length_c   7.71676355
_cell_angle_alpha   110.99114494
_cell_angle_beta   101.74577518
_cell_angle_gamma   98.23436237
_symmetry_Int_Tables_number   1
_chemical_formula_structural   Sr3Te4O11
_chemical_formula_sum   'Sr6 Te8 O22'
_cell_volume   633.99850206
_cell_formula_units_Z   2
loop_
 _symmetry_equiv_pos_site_id
 _symmetry_equiv_pos_as_xyz
  1  'x, y, z'
loop_
 _atom_site_type_symbol
 _atom_site_label
 _atom_site_symmetry_multiplicity
 _atom_site_fract_x
 _atom_site_fract_y
 _atom_site_fract_z
 _atom_site_occupancy
  Sr  Sr0  1  0.96023458  0.87984350  0.70903475  1.0
  Sr  Sr1  1  0.03976542  0.12015650  0.29096525  1.0
  Sr  Sr2  1  0.91793217  0.67859856  0.13685165  1.0
  Sr  Sr3  1  0.08206783  0.32140144  0.86314835  1.0
  Sr  Sr4  1  0.47099899  0.37682582  0.69236772  1.0
  Sr  Sr5  1  0.52900101  0.62317418  0.30763228  1.0
  Te  Te6  1  0.37127911  0.20881691  0.08663696  1.0
  Te  Te7  1  0.62872089  0.79118309  0.91336304  1.0
  Te  Te8  1  0.74896014  0.22740518  0.98038953  1.0
  Te  Te9  1  0.25103986  0.77259482  0.01961047  1.0
  Te  Te10  1  0.30501681  0.96024935  0.54902985  1.0
  Te  Te11  1  0.69498319  0.03975065  0.45097015  1.0
  Te  Te12  1  0.19474713  0.53728422  0.50096737  1.0
  Te  Te13  1  0.80525287  0.46271578  0.49903263  1.0
  O  O14  1  0.09359016  0.86165311  0.44530632  1.0
  O  O15  1  0.90640984  0.13834689  0.55469368  1.0
  O  O16  1  0.09766579  0.88478299  0.05258081  1.0
  O  O17  1  0.90233421  0.11521701  0.94741919  1.0
  O  O18  1  0.77063948  0.69112433  0.79619361  1.0
  O  O19  1  0.22936052  0.30887567  0.20380639  1.0
  O  O20  1  0.37422567  0.84279110  0.31271430  1.0
  O  O21  1  0.62577433  0.15720890  0.68728570  1.0
  O  O22  1  0.29947602  0.12893801  0.48247365  1.0
  O  O23  1  0.70052398  0.87106199  0.51752635  1.0
  O  O24  1  0.14969677  0.59629212  0.03821430  1.0
  O  O25  1  0.85030323  0.40370788  0.96178570  1.0
  O  O26  1  0.80869938  0.61082472  0.38994808  1.0
  O  O27  1  0.19130062  0.38917528  0.61005192  1.0
  O  O28  1  0.13070815  0.68502678  0.70560402  1.0
  O  O29  1  0.86929185  0.31497322  0.29439598  1.0
  O  O30  1  0.22009575  0.09358719  0.83309936  1.0
  O  O31  1  0.77990425  0.90641281  0.16690064  1.0
  O  O32  1  0.58918776  0.38101568  0.41980385  1.0
  O  O33  1  0.41081224  0.61898432  0.58019615  1.0
  O  O34  1  0.54561725  0.63672997  0.98825586  1.0
  O  O35  1  0.45438275  0.36327003  0.01174414  1.0
