# generated using pymatgen
data_GdAgTe2
_symmetry_space_group_name_H-M   'P 1'
_cell_length_a   7.17242774
_cell_length_b   7.17242774
_cell_length_c   4.77396787
_cell_angle_alpha   90.00000000
_cell_angle_beta   90.00000000
_cell_angle_gamma   90.00000000
_symmetry_Int_Tables_number   1
_chemical_formula_structural   GdAgTe2
_chemical_formula_sum   'Gd2 Ag2 Te4'
_cell_volume   245.59066508
_cell_formula_units_Z   2
loop_
 _symmetry_equiv_pos_site_id
 _symmetry_equiv_pos_as_xyz
  1  'x, y, z'
loop_
 _atom_site_type_symbol
 _atom_site_label
 _atom_site_symmetry_multiplicity
 _atom_site_fract_x
 _atom_site_fract_y
 _atom_site_fract_z
 _atom_site_occupancy
  Gd  Gd0  1  0.50000000  0.00000000  0.80243093  1.0
  Gd  Gd1  1  0.00000000  0.50000000  0.19756907  1.0
  Ag  Ag2  1  0.50000000  0.50000000  0.00000000  1.0
  Ag  Ag3  1  0.00000000  0.00000000  0.00000000  1.0
  Te  Te4  1  0.29850206  0.20149794  0.28605942  1.0
  Te  Te5  1  0.79850206  0.29850206  0.71394058  1.0
  Te  Te6  1  0.70149794  0.79850206  0.28605942  1.0
  Te  Te7  1  0.20149794  0.70149794  0.71394058  1.0
