# generated using pymatgen
data_LiMnO7
_symmetry_space_group_name_H-M   'P 1'
_cell_length_a   7.38004081
_cell_length_b   7.38004081
_cell_length_c   5.47265519
_cell_angle_alpha   90.00000000
_cell_angle_beta   90.00000000
_cell_angle_gamma   120.00000000
_symmetry_Int_Tables_number   1
_chemical_formula_structural   LiMnO7
_chemical_formula_sum   'Li2 Mn2 O14'
_cell_volume   258.13461376
_cell_formula_units_Z   2
loop_
 _symmetry_equiv_pos_site_id
 _symmetry_equiv_pos_as_xyz
  1  'x, y, z'
loop_
 _atom_site_type_symbol
 _atom_site_label
 _atom_site_symmetry_multiplicity
 _atom_site_fract_x
 _atom_site_fract_y
 _atom_site_fract_z
 _atom_site_occupancy
  Mn  Mn0  1  0.33333333  0.66666667  0.28999692  1.0
  Mn  Mn1  1  0.66666667  0.33333333  0.78999692  1.0
  O  O2  1  0.21599712  0.10799856  0.23134982  1.0
  O  O3  1  0.10799856  0.21599712  0.73134982  1.0
  O  O4  1  0.10799856  0.89200144  0.73134982  1.0
  O  O5  1  0.89200144  0.10799856  0.23134982  1.0
  O  O6  1  0.89200144  0.78400288  0.23134982  1.0
  O  O7  1  0.78400288  0.89200144  0.73134982  1.0
  O  O8  1  0.09527743  0.54763872  0.19194087  1.0
  O  O9  1  0.54763872  0.09527743  0.69194087  1.0
  O  O10  1  0.54763872  0.45236128  0.69194087  1.0
  O  O11  1  0.45236128  0.54763872  0.19194087  1.0
  O  O12  1  0.45236128  0.90472257  0.19194087  1.0
  O  O13  1  0.90472257  0.45236128  0.69194087  1.0
  O  O14  1  0.33333333  0.66666667  0.58331313  1.0
  O  O15  1  0.66666667  0.33333333  0.08331313  1.0
  Li  Li16  1  0.00000000  0.00000000  -0.01838214  1.0
  Li  Li17  1  0.00000000  -0.00000000  0.48161786  1.0
