# generated using pymatgen
data_ZrGeOs
_symmetry_space_group_name_H-M   'P 1'
_cell_length_a   6.76092612
_cell_length_b   6.76092612
_cell_length_c   3.82702319
_cell_angle_alpha   90.00000000
_cell_angle_beta   90.00000000
_cell_angle_gamma   120.00000000
_symmetry_Int_Tables_number   1
_chemical_formula_structural   ZrGeOs
_chemical_formula_sum   'Zr3 Ge3 Os3'
_cell_volume   151.49702566
_cell_formula_units_Z   3
loop_
 _symmetry_equiv_pos_site_id
 _symmetry_equiv_pos_as_xyz
  1  'x, y, z'
loop_
 _atom_site_type_symbol
 _atom_site_label
 _atom_site_symmetry_multiplicity
 _atom_site_fract_x
 _atom_site_fract_y
 _atom_site_fract_z
 _atom_site_occupancy
  Zr  Zr0  1  0.41663904  0.41663904  -0.00000000  1.0
  Zr  Zr1  1  0.00000000  0.58336096  0.00000000  1.0
  Zr  Zr2  1  0.58336096  0.00000000  0.00000000  1.0
  Ge  Ge3  1  0.33333333  0.66666667  0.50000000  1.0
  Ge  Ge4  1  0.66666667  0.33333333  0.50000000  1.0
  Ge  Ge5  1  -0.00000000  -0.00000000  -0.00000000  1.0
  Os  Os6  1  0.75547603  0.75547603  0.50000000  1.0
  Os  Os7  1  0.00000000  0.24452397  0.50000000  1.0
  Os  Os8  1  0.24452397  0.00000000  0.50000000  1.0
