# generated using pymatgen
data_Y2(Al3Pd)3
_symmetry_space_group_name_H-M   'P 1'
_cell_length_a   7.65650181
_cell_length_b   7.65650181
_cell_length_c   9.46566378
_cell_angle_alpha   90.00000000
_cell_angle_beta   90.00000000
_cell_angle_gamma   60.45219241
_symmetry_Int_Tables_number   1
_chemical_formula_structural   Y2(Al3Pd)3
_chemical_formula_sum   'Y4 Al18 Pd6'
_cell_volume   482.72901956
_cell_formula_units_Z   2
loop_
 _symmetry_equiv_pos_site_id
 _symmetry_equiv_pos_as_xyz
  1  'x, y, z'
loop_
 _atom_site_type_symbol
 _atom_site_label
 _atom_site_symmetry_multiplicity
 _atom_site_fract_x
 _atom_site_fract_y
 _atom_site_fract_z
 _atom_site_occupancy
  Y  Y0  1  -0.00677586  1.33019841  0.25000000  1.0
  Y  Y1  1  0.33019841  0.99322414  0.75000000  1.0
  Y  Y2  1  -0.33019841  1.00677586  0.25000000  1.0
  Y  Y3  1  0.00677586  0.66980159  0.75000000  1.0
  Al  Al4  1  0.00087714  0.66502769  0.42452507  1.0
  Al  Al5  1  0.00087714  0.66502769  0.07547493  1.0
  Al  Al6  1  -0.33497231  1.00087714  0.92452507  1.0
  Al  Al7  1  -0.33497231  1.00087714  0.57547493  1.0
  Al  Al8  1  0.33497231  0.99912286  0.42452507  1.0
  Al  Al9  1  0.33497231  0.99912286  0.07547493  1.0
  Al  Al10  1  -0.00087714  1.33497231  0.92452507  1.0
  Al  Al11  1  -0.00087714  1.33497231  0.57547493  1.0
  Al  Al12  1  0.33853163  0.45368729  0.25000000  1.0
  Al  Al13  1  -0.54631271  1.33853163  0.75000000  1.0
  Al  Al14  1  0.54631271  0.66146837  0.25000000  1.0
  Al  Al15  1  -0.33853163  1.54631271  0.75000000  1.0
  Al  Al16  1  0.33330231  0.66669769  0.94368986  1.0
  Al  Al17  1  0.33330231  0.66669769  0.55631014  1.0
  Al  Al18  1  -0.33330231  1.33330231  0.44368986  1.0
  Al  Al19  1  -0.33330231  1.33330231  0.05631014  1.0
  Al  Al20  1  0.13062778  0.86937222  0.25000000  1.0
  Al  Al21  1  -0.13062778  1.13062778  0.75000000  1.0
  Pd  Pd22  1  0.67185145  0.67185145  0.50000000  1.0
  Pd  Pd23  1  0.67185145  0.67185145  0.00000000  1.0
  Pd  Pd24  1  0.32814855  0.32814855  0.50000000  1.0
  Pd  Pd25  1  0.32814855  0.32814855  0.00000000  1.0
  Pd  Pd26  1  0.00000000  0.00000000  0.50000000  1.0
  Pd  Pd27  1  0.00000000  0.00000000  0.00000000  1.0
