# generated using pymatgen
data_Ti5Al2C3
_symmetry_space_group_name_H-M   'P 1'
_cell_length_a   3.06392353
_cell_length_b   3.06392353
_cell_length_c   32.71366065
_cell_angle_alpha   90.00000000
_cell_angle_beta   90.00000000
_cell_angle_gamma   120.00000000
_symmetry_Int_Tables_number   1
_chemical_formula_structural   Ti5Al2C3
_chemical_formula_sum   'Ti10 Al4 C6'
_cell_volume   265.95956818
_cell_formula_units_Z   2
loop_
 _symmetry_equiv_pos_site_id
 _symmetry_equiv_pos_as_xyz
  1  'x, y, z'
loop_
 _atom_site_type_symbol
 _atom_site_label
 _atom_site_symmetry_multiplicity
 _atom_site_fract_x
 _atom_site_fract_y
 _atom_site_fract_z
 _atom_site_occupancy
  Ti  Ti0  1  0.33333333  0.66666667  0.46501723  1.0
  Ti  Ti1  1  0.33333333  0.66666667  0.03498277  1.0
  Ti  Ti2  1  0.66666667  0.33333333  0.96501723  1.0
  Ti  Ti3  1  0.66666667  0.33333333  0.53498277  1.0
  Ti  Ti4  1  0.33333333  0.66666667  0.32227328  1.0
  Ti  Ti5  1  0.33333333  0.66666667  0.17772672  1.0
  Ti  Ti6  1  0.66666667  0.33333333  0.82227328  1.0
  Ti  Ti7  1  0.66666667  0.33333333  0.67772672  1.0
  Ti  Ti8  1  0.33333333  0.66666667  0.75000000  1.0
  Ti  Ti9  1  0.66666667  0.33333333  0.25000000  1.0
  Al  Al10  1  0.00000000  0.00000000  0.39396012  1.0
  Al  Al11  1  0.00000000  0.00000000  0.10603988  1.0
  Al  Al12  1  0.00000000  0.00000000  0.89396012  1.0
  Al  Al13  1  0.00000000  0.00000000  0.60603988  1.0
  C  C14  1  0.00000000  0.00000000  0.28978258  1.0
  C  C15  1  0.00000000  0.00000000  0.21021742  1.0
  C  C16  1  0.00000000  0.00000000  0.78978258  1.0
  C  C17  1  0.00000000  0.00000000  0.71021742  1.0
  C  C18  1  0.00000000  0.00000000  0.50000000  1.0
  C  C19  1  0.00000000  0.00000000  0.00000000  1.0
