# generated using pymatgen
data_KCoH3(CO2)3
_symmetry_space_group_name_H-M   'P 1'
_cell_length_a   7.09653854
_cell_length_b   7.09653854
_cell_length_c   6.95862923
_cell_angle_alpha   85.58209119
_cell_angle_beta   94.41790881
_cell_angle_gamma   100.45901359
_symmetry_Int_Tables_number   1
_chemical_formula_structural   KCoH3(CO2)3
_chemical_formula_sum   'K2 Co2 H6 C6 O12'
_cell_volume   342.88488072
_cell_formula_units_Z   2
loop_
 _symmetry_equiv_pos_site_id
 _symmetry_equiv_pos_as_xyz
  1  'x, y, z'
loop_
 _atom_site_type_symbol
 _atom_site_label
 _atom_site_symmetry_multiplicity
 _atom_site_fract_x
 _atom_site_fract_y
 _atom_site_fract_z
 _atom_site_occupancy
  K  K0  1  1.10841350  0.10841350  0.25000000  1.0
  K  K1  1  0.89158650  -0.10841350  0.75000000  1.0
  Co  Co2  1  1.00000000  -0.50000000  0.50000000  1.0
  Co  Co3  1  1.50000000  0.00000000  -0.00000000  1.0
  H  H4  1  1.56971559  0.33099352  0.46516371  1.0
  H  H5  1  1.33099352  0.56971559  0.03483629  1.0
  H  H6  1  0.43028441  -0.33099352  0.53483629  1.0
  H  H7  1  0.66900648  -0.56971559  0.96516371  1.0
  H  H8  1  0.62655055  -0.37344945  0.25000000  1.0
  H  H9  1  1.37344945  0.37344945  0.75000000  1.0
  C  C10  1  1.62832777  0.26788811  0.34640983  1.0
  C  C11  1  1.26788811  0.62832777  0.15359017  1.0
  C  C12  1  0.37167223  -0.26788811  0.65359017  1.0
  C  C13  1  0.73211189  -0.62832777  0.84640983  1.0
  C  C14  1  0.74870201  -0.25129799  0.25000000  1.0
  C  C15  1  1.25129799  0.25129799  0.75000000  1.0
  O  O16  1  0.80901853  -0.69973591  0.33638649  1.0
  O  O17  1  0.30026409  -0.19098147  0.16361351  1.0
  O  O18  1  1.19098147  0.69973591  0.66361351  1.0
  O  O19  1  1.69973591  0.19098147  0.83638649  1.0
  O  O20  1  1.50540613  0.17189936  0.23374947  1.0
  O  O21  1  1.17189936  0.50540613  0.26625053  1.0
  O  O22  1  0.49459387  -0.17189936  0.76625053  1.0
  O  O23  1  0.82810064  -0.50540613  0.73374947  1.0
  O  O24  1  0.74163125  -0.11320651  0.12446077  1.0
  O  O25  1  0.88679349  -0.25836875  0.37553923  1.0
  O  O26  1  1.25836875  0.11320651  0.87553923  1.0
  O  O27  1  1.11320651  0.25836875  0.62446077  1.0
