# generated using pymatgen
data_ZrCoP
_symmetry_space_group_name_H-M   'P 1'
_cell_length_a   6.33426133
_cell_length_b   3.69445628
_cell_length_c   7.14967853
_cell_angle_alpha   90.00000000
_cell_angle_beta   90.00000000
_cell_angle_gamma   90.00000000
_symmetry_Int_Tables_number   1
_chemical_formula_structural   ZrCoP
_chemical_formula_sum   'Zr4 Co4 P4'
_cell_volume   167.31428550
_cell_formula_units_Z   4
loop_
 _symmetry_equiv_pos_site_id
 _symmetry_equiv_pos_as_xyz
  1  'x, y, z'
loop_
 _atom_site_type_symbol
 _atom_site_label
 _atom_site_symmetry_multiplicity
 _atom_site_fract_x
 _atom_site_fract_y
 _atom_site_fract_z
 _atom_site_occupancy
  Zr  Zr0  1  0.98104342  0.75000000  0.68325596  1.0
  Zr  Zr1  1  0.48104342  0.75000000  0.81674404  1.0
  Zr  Zr2  1  0.01895658  0.25000000  0.31674404  1.0
  Zr  Zr3  1  0.51895658  0.25000000  0.18325596  1.0
  Co  Co4  1  0.86193796  0.75000000  0.06076160  1.0
  Co  Co5  1  0.36193796  0.75000000  0.43923840  1.0
  Co  Co6  1  0.13806204  0.25000000  0.93923840  1.0
  Co  Co7  1  0.63806204  0.25000000  0.56076160  1.0
  P  P8  1  0.72506095  0.75000000  0.38681014  1.0
  P  P9  1  0.22506095  0.75000000  0.11318986  1.0
  P  P10  1  0.27493905  0.25000000  0.61318986  1.0
  P  P11  1  0.77493905  0.25000000  0.88681014  1.0
