# generated using pymatgen
data_Rb3AlO3
_symmetry_space_group_name_H-M   'P 1'
_cell_length_a   6.88377011
_cell_length_b   6.88377011
_cell_length_c   6.90118288
_cell_angle_alpha   82.48040349
_cell_angle_beta   97.51959651
_cell_angle_gamma   64.34573462
_symmetry_Int_Tables_number   1
_chemical_formula_structural   Rb3AlO3
_chemical_formula_sum   'Rb6 Al2 O6'
_cell_volume   285.74321704
_cell_formula_units_Z   2
loop_
 _symmetry_equiv_pos_site_id
 _symmetry_equiv_pos_as_xyz
  1  'x, y, z'
loop_
 _atom_site_type_symbol
 _atom_site_label
 _atom_site_symmetry_multiplicity
 _atom_site_fract_x
 _atom_site_fract_y
 _atom_site_fract_z
 _atom_site_occupancy
  Rb  Rb0  1  0.62938198  -0.62938198  0.84611757  1.0
  Rb  Rb1  1  0.37061802  -0.37061802  0.15388243  1.0
  Rb  Rb2  1  0.73478763  -0.26521237  0.50000000  1.0
  Rb  Rb3  1  1.26521237  0.26521237  0.50000000  1.0
  Rb  Rb4  1  0.79951128  -0.20048872  -0.00000000  1.0
  Rb  Rb5  1  1.20048872  0.20048872  -0.00000000  1.0
  Al  Al6  1  0.84460327  -0.84460327  0.35318028  1.0
  Al  Al7  1  0.15539673  -0.15539673  0.64681972  1.0
  O  O8  1  0.39812759  -0.14659249  0.76224360  1.0
  O  O9  1  1.14659249  0.60187241  0.76224360  1.0
  O  O10  1  0.85340751  -0.60187241  0.23775640  1.0
  O  O11  1  1.60187241  0.14659249  0.23775640  1.0
  O  O12  1  0.89919563  -0.89919563  0.63066228  1.0
  O  O13  1  0.10080437  -0.10080437  0.36933772  1.0
