# generated using pymatgen
data_K2GaP2
_symmetry_space_group_name_H-M   'P 1'
_cell_length_a   8.73941727
_cell_length_b   14.09848367
_cell_length_c   11.05807068
_cell_angle_alpha   90.00000000
_cell_angle_beta   118.57264822
_cell_angle_gamma   90.00000000
_symmetry_Int_Tables_number   1
_chemical_formula_structural   K2GaP2
_chemical_formula_sum   'K16 Ga8 P16'
_cell_volume   1196.55677333
_cell_formula_units_Z   8
loop_
 _symmetry_equiv_pos_site_id
 _symmetry_equiv_pos_as_xyz
  1  'x, y, z'
loop_
 _atom_site_type_symbol
 _atom_site_label
 _atom_site_symmetry_multiplicity
 _atom_site_fract_x
 _atom_site_fract_y
 _atom_site_fract_z
 _atom_site_occupancy
  K  K0  1  0.92305626  0.13095510  0.09959844  1.0
  K  K1  1  0.92305626  0.36904490  0.59959844  1.0
  K  K2  1  0.07694374  0.63095510  0.40040156  1.0
  K  K3  1  0.07694374  0.86904490  0.90040156  1.0
  K  K4  1  0.98862710  0.88289986  0.43217482  1.0
  K  K5  1  0.98862710  0.61710014  0.93217482  1.0
  K  K6  1  0.01137290  0.38289986  0.06782518  1.0
  K  K7  1  0.01137290  0.11710014  0.56782518  1.0
  K  K8  1  0.48749999  0.12856549  0.46206156  1.0
  K  K9  1  0.48749999  0.37143451  0.96206156  1.0
  K  K10  1  0.51250001  0.62856549  0.03793844  1.0
  K  K11  1  0.51250001  0.87143451  0.53793844  1.0
  K  K12  1  0.28795411  0.38625200  0.47377669  1.0
  K  K13  1  0.28795411  0.11374800  0.97377669  1.0
  K  K14  1  0.71204589  0.88625200  0.02622331  1.0
  K  K15  1  0.71204589  0.61374800  0.52622331  1.0
  Ga  Ga16  1  0.64584700  0.21664929  0.25434584  1.0
  Ga  Ga17  1  0.64584700  0.28335071  0.75434584  1.0
  Ga  Ga18  1  0.35415300  0.71664929  0.24565416  1.0
  Ga  Ga19  1  0.35415300  0.78335071  0.74565416  1.0
  Ga  Ga20  1  0.49194847  0.44124037  0.25740344  1.0
  Ga  Ga21  1  0.49194847  0.05875963  0.75740344  1.0
  Ga  Ga22  1  0.50805153  0.94124037  0.24259656  1.0
  Ga  Ga23  1  0.50805153  0.55875963  0.74259656  1.0
  P  P24  1  0.39003560  0.28564450  0.22461206  1.0
  P  P25  1  0.39003560  0.21435550  0.72461206  1.0
  P  P26  1  0.60996440  0.78564450  0.27538794  1.0
  P  P27  1  0.60996440  0.71435550  0.77538794  1.0
  P  P28  1  0.76525554  0.46405651  0.27855559  1.0
  P  P29  1  0.76525554  0.03594349  0.77855559  1.0
  P  P30  1  0.23474446  0.96405651  0.22144441  1.0
  P  P31  1  0.23474446  0.53594349  0.72144441  1.0
  P  P32  1  0.86687929  0.31859536  0.28279258  1.0
  P  P33  1  0.86687929  0.18140464  0.78279258  1.0
  P  P34  1  0.13312071  0.81859536  0.21720742  1.0
  P  P35  1  0.13312071  0.68140464  0.71720742  1.0
  P  P36  1  0.70958005  0.05517526  0.25733261  1.0
  P  P37  1  0.70958005  0.44482474  0.75733261  1.0
  P  P38  1  0.29041995  0.55517526  0.24266739  1.0
  P  P39  1  0.29041995  0.94482474  0.74266739  1.0
