# generated using pymatgen
data_Sc2Si4Mo3
_symmetry_space_group_name_H-M   'P 1'
_cell_length_a   6.56118491
_cell_length_b   12.67299189
_cell_length_c   6.79132055
_cell_angle_alpha   90.00000000
_cell_angle_beta   90.00000000
_cell_angle_gamma   90.00000000
_symmetry_Int_Tables_number   1
_chemical_formula_structural   Sc2Si4Mo3
_chemical_formula_sum   'Sc8 Si16 Mo12'
_cell_volume   564.69723844
_cell_formula_units_Z   4
loop_
 _symmetry_equiv_pos_site_id
 _symmetry_equiv_pos_as_xyz
  1  'x, y, z'
loop_
 _atom_site_type_symbol
 _atom_site_label
 _atom_site_symmetry_multiplicity
 _atom_site_fract_x
 _atom_site_fract_y
 _atom_site_fract_z
 _atom_site_occupancy
  Sc  Sc0  1  0.50382496  0.90764038  0.66995002  1.0
  Sc  Sc1  1  0.50382496  0.59235962  0.66995002  1.0
  Sc  Sc2  1  1.00382496  0.90764038  0.83004998  1.0
  Sc  Sc3  1  1.00382496  0.59235962  0.83004998  1.0
  Sc  Sc4  1  0.49617504  0.40764038  0.33004998  1.0
  Sc  Sc5  1  0.49617504  0.09235962  0.33004998  1.0
  Sc  Sc6  1  -0.00382496  0.40764038  0.16995002  1.0
  Sc  Sc7  1  -0.00382496  0.09235962  0.16995002  1.0
  Si  Si8  1  0.20052191  0.25000000  0.35952993  1.0
  Si  Si9  1  0.70052191  0.25000000  0.14047007  1.0
  Si  Si10  1  0.79947809  0.75000000  0.64047007  1.0
  Si  Si11  1  0.29947809  0.75000000  0.85952993  1.0
  Si  Si12  1  0.46794038  0.25000000  0.62419271  1.0
  Si  Si13  1  0.96794038  0.25000000  0.87580729  1.0
  Si  Si14  1  0.53205962  0.75000000  0.37580729  1.0
  Si  Si15  1  0.03205962  0.75000000  0.12419271  1.0
  Si  Si16  1  0.33468921  0.45520855  0.96230566  1.0
  Si  Si17  1  0.33468921  0.04479145  0.96230566  1.0
  Si  Si18  1  0.83468921  0.45520855  0.53769434  1.0
  Si  Si19  1  0.83468921  0.04479145  0.53769434  1.0
  Si  Si20  1  0.66531079  0.95520855  0.03769434  1.0
  Si  Si21  1  0.66531079  0.54479145  0.03769434  1.0
  Si  Si22  1  0.16531079  0.95520855  0.46230566  1.0
  Si  Si23  1  0.16531079  0.54479145  0.46230566  1.0
  Mo  Mo24  1  0.33543964  0.25000000  0.00475925  1.0
  Mo  Mo25  1  0.83543964  0.25000000  0.49524075  1.0
  Mo  Mo26  1  0.66456036  0.75000000  0.99524075  1.0
  Mo  Mo27  1  0.16456036  0.75000000  0.50475925  1.0
  Mo  Mo28  1  0.17110347  0.37622778  0.66515781  1.0
  Mo  Mo29  1  0.17110347  0.12377222  0.66515781  1.0
  Mo  Mo30  1  0.67110347  0.37622778  0.83484219  1.0
  Mo  Mo31  1  0.67110347  0.12377222  0.83484219  1.0
  Mo  Mo32  1  0.82889653  0.87622778  0.33484219  1.0
  Mo  Mo33  1  0.82889653  0.62377222  0.33484219  1.0
  Mo  Mo34  1  0.32889653  0.87622778  0.16515781  1.0
  Mo  Mo35  1  0.32889653  0.62377222  0.16515781  1.0
