# generated using pymatgen
data_MnZnSb
_symmetry_space_group_name_H-M   'P 1'
_cell_length_a   3.77673083
_cell_length_b   3.77673083
_cell_length_c   7.51930694
_cell_angle_alpha   90.00000000
_cell_angle_beta   90.00000000
_cell_angle_gamma   90.00000000
_symmetry_Int_Tables_number   1
_chemical_formula_structural   MnZnSb
_chemical_formula_sum   'Mn2 Zn2 Sb2'
_cell_volume   107.25310673
_cell_formula_units_Z   2
loop_
 _symmetry_equiv_pos_site_id
 _symmetry_equiv_pos_as_xyz
  1  'x, y, z'
loop_
 _atom_site_type_symbol
 _atom_site_label
 _atom_site_symmetry_multiplicity
 _atom_site_fract_x
 _atom_site_fract_y
 _atom_site_fract_z
 _atom_site_occupancy
  Mn  Mn0  1  0.50000000  0.00000000  0.26513046  1.0
  Mn  Mn1  1  0.00000000  0.50000000  0.73486954  1.0
  Zn  Zn2  1  0.00000000  0.00000000  0.00000000  1.0
  Zn  Zn3  1  0.50000000  0.50000000  0.00000000  1.0
  Sb  Sb4  1  0.50000000  0.00000000  0.64066885  1.0
  Sb  Sb5  1  0.00000000  0.50000000  0.35933115  1.0
