# generated using pymatgen
data_KSbClF3
_symmetry_space_group_name_H-M   'P 1'
_cell_length_a   8.02607317
_cell_length_b   8.33409016
_cell_length_c   15.22732798
_cell_angle_alpha   90.00000000
_cell_angle_beta   90.00000000
_cell_angle_gamma   90.00000000
_symmetry_Int_Tables_number   1
_chemical_formula_structural   KSbClF3
_chemical_formula_sum   'K8 Sb8 Cl8 F24'
_cell_volume   1018.55623352
_cell_formula_units_Z   8
loop_
 _symmetry_equiv_pos_site_id
 _symmetry_equiv_pos_as_xyz
  1  'x, y, z'
loop_
 _atom_site_type_symbol
 _atom_site_label
 _atom_site_symmetry_multiplicity
 _atom_site_fract_x
 _atom_site_fract_y
 _atom_site_fract_z
 _atom_site_occupancy
  K  K0  1  0.31277753  0.79902221  0.94234779  1.0
  K  K1  1  0.31277753  0.70097779  0.44234779  1.0
  K  K2  1  0.81277753  0.79902221  0.55765221  1.0
  K  K3  1  0.81277753  0.70097779  0.05765221  1.0
  K  K4  1  0.68722247  0.29902221  0.55765221  1.0
  K  K5  1  0.68722247  0.20097779  0.05765221  1.0
  K  K6  1  0.18722247  0.29902221  0.94234779  1.0
  K  K7  1  0.18722247  0.20097779  0.44234779  1.0
  Sb  Sb8  1  0.36814899  1.00074048  0.67416119  1.0
  Sb  Sb9  1  0.36814899  0.49925952  0.17416119  1.0
  Sb  Sb10  1  0.86814899  1.00074048  0.82583881  1.0
  Sb  Sb11  1  0.86814899  0.49925952  0.32583881  1.0
  Sb  Sb12  1  0.63185101  0.50074048  0.82583881  1.0
  Sb  Sb13  1  0.63185101  -0.00074048  0.32583881  1.0
  Sb  Sb14  1  0.13185101  0.50074048  0.67416119  1.0
  Sb  Sb15  1  0.13185101  -0.00074048  0.17416119  1.0
  Cl  Cl16  1  0.47907132  0.62696263  0.65392265  1.0
  Cl  Cl17  1  0.47907132  0.87303737  0.15392265  1.0
  Cl  Cl18  1  0.97907132  0.62696263  0.84607735  1.0
  Cl  Cl19  1  0.97907132  0.87303737  0.34607735  1.0
  Cl  Cl20  1  0.52092868  0.12696263  0.84607735  1.0
  Cl  Cl21  1  0.52092868  0.37303737  0.34607735  1.0
  Cl  Cl22  1  0.02092868  0.12696263  0.65392265  1.0
  Cl  Cl23  1  0.02092868  0.37303737  0.15392265  1.0
  F  F24  1  0.33002592  0.96384292  0.54577507  1.0
  F  F25  1  0.33002592  0.53615708  0.04577507  1.0
  F  F26  1  0.83002592  0.96384292  0.95422493  1.0
  F  F27  1  0.83002592  0.53615708  0.45422493  1.0
  F  F28  1  0.66997408  0.46384292  0.95422493  1.0
  F  F29  1  0.66997408  0.03615708  0.45422493  1.0
  F  F30  1  0.16997408  0.46384292  0.54577507  1.0
  F  F31  1  0.16997408  0.03615708  0.04577507  1.0
  F  F32  1  0.11416425  -0.00394510  0.85187375  1.0
  F  F33  1  0.11416425  0.50394510  0.35187375  1.0
  F  F34  1  0.61416425  -0.00394510  0.64812625  1.0
  F  F35  1  0.61416425  0.50394510  0.14812625  1.0
  F  F36  1  0.88583575  0.49605490  0.64812625  1.0
  F  F37  1  0.88583575  1.00394510  0.14812625  1.0
  F  F38  1  0.38583575  0.49605490  0.85187375  1.0
  F  F39  1  0.38583575  1.00394510  0.35187375  1.0
  F  F40  1  0.10508822  0.73198459  0.64276800  1.0
  F  F41  1  0.10508822  0.76801541  0.14276800  1.0
  F  F42  1  0.60508822  0.73198459  0.85723200  1.0
  F  F43  1  0.60508822  0.76801541  0.35723200  1.0
  F  F44  1  0.89491178  0.23198459  0.85723200  1.0
  F  F45  1  0.89491178  0.26801541  0.35723200  1.0
  F  F46  1  0.39491178  0.23198459  0.64276800  1.0
  F  F47  1  0.39491178  0.26801541  0.14276800  1.0
