# generated using pymatgen
data_NiSeO5
_symmetry_space_group_name_H-M   'P 1'
_cell_length_a   7.60409755
_cell_length_b   9.00160804
_cell_length_c   10.21907897
_cell_angle_alpha   90.00000000
_cell_angle_beta   138.43146870
_cell_angle_gamma   90.00000000
_symmetry_Int_Tables_number   1
_chemical_formula_structural   NiSeO5
_chemical_formula_sum   'Ni4 Se4 O20'
_cell_volume   464.12027341
_cell_formula_units_Z   4
loop_
 _symmetry_equiv_pos_site_id
 _symmetry_equiv_pos_as_xyz
  1  'x, y, z'
loop_
 _atom_site_type_symbol
 _atom_site_label
 _atom_site_symmetry_multiplicity
 _atom_site_fract_x
 _atom_site_fract_y
 _atom_site_fract_z
 _atom_site_occupancy
  O  O0  1  0.54311822  0.36491988  0.26029747  1.0
  O  O1  1  0.54311822  0.13508012  0.76029747  1.0
  O  O2  1  0.45688178  0.86491988  0.23970253  1.0
  O  O3  1  0.45688178  0.63508012  0.73970253  1.0
  O  O4  1  0.86950166  0.15769613  0.47836670  1.0
  O  O5  1  0.86950166  0.34230387  0.97836670  1.0
  O  O6  1  0.13049834  0.65769613  0.02163330  1.0
  O  O7  1  0.13049834  0.84230387  0.52163330  1.0
  O  O8  1  0.93466319  0.70539254  0.22272028  1.0
  O  O9  1  0.93466319  0.79460746  0.72272028  1.0
  O  O10  1  0.06533681  0.20539254  0.27727972  1.0
  O  O11  1  0.06533681  0.29460746  0.77727972  1.0
  O  O12  1  0.53831676  0.33436947  0.52432946  1.0
  O  O13  1  0.53831676  0.16563053  1.02432946  1.0
  O  O14  1  0.46168324  0.83436947  -0.02432946  1.0
  O  O15  1  0.46168324  0.66563053  0.47567054  1.0
  O  O16  1  0.86126648  0.95899606  0.06342669  1.0
  O  O17  1  0.86126648  0.54100394  0.56342669  1.0
  O  O18  1  0.13873352  0.45899606  0.43657331  1.0
  O  O19  1  0.13873352  0.04100394  0.93657331  1.0
  Se  Se20  1  0.79460424  0.87868105  0.17598410  1.0
  Se  Se21  1  0.79460424  0.62131895  0.67598410  1.0
  Se  Se22  1  0.20539576  0.37868105  0.32401590  1.0
  Se  Se23  1  0.20539576  0.12131895  0.82401590  1.0
  Ni  Ni24  1  0.78771718  0.32701493  0.50324428  1.0
  Ni  Ni25  1  0.78771718  0.17298507  1.00324428  1.0
  Ni  Ni26  1  0.21228282  0.82701493  -0.00324428  1.0
  Ni  Ni27  1  0.21228282  0.67298507  0.49675572  1.0
