# generated using pymatgen
data_KGdCO3F2
_symmetry_space_group_name_H-M   'P 1'
_cell_length_a   12.40568301
_cell_length_b   11.58403511
_cell_length_c   6.68255128
_cell_angle_alpha   80.72790196
_cell_angle_beta   67.15641281
_cell_angle_gamma   32.11568523
_symmetry_Int_Tables_number   1
_chemical_formula_structural   KGdCO3F2
_chemical_formula_sum   'K4 Gd4 C4 O12 F8'
_cell_volume   442.08391684
_cell_formula_units_Z   4
loop_
 _symmetry_equiv_pos_site_id
 _symmetry_equiv_pos_as_xyz
  1  'x, y, z'
loop_
 _atom_site_type_symbol
 _atom_site_label
 _atom_site_symmetry_multiplicity
 _atom_site_fract_x
 _atom_site_fract_y
 _atom_site_fract_z
 _atom_site_occupancy
  K  K0  1  0.41781358  0.41781358  0.58218642  1.0
  K  K1  1  0.58218642  0.58218642  0.41781358  1.0
  K  K2  1  0.83218642  -0.16781358  0.66781358  1.0
  K  K3  1  0.66781358  -0.33218642  0.83218642  1.0
  Gd  Gd4  1  0.81774812  0.18225188  0.81774812  1.0
  Gd  Gd5  1  0.18225188  0.81774812  0.18225188  1.0
  Gd  Gd6  1  0.43225188  0.06774812  0.43225188  1.0
  Gd  Gd7  1  0.06774812  0.43225188  0.06774812  1.0
  C  C8  1  0.12223204  1.12223204  -0.12223204  1.0
  C  C9  1  -0.12223204  0.87776796  0.12223204  1.0
  C  C10  1  0.12776796  0.12776796  0.37223204  1.0
  C  C11  1  0.37223204  0.37223204  0.12776796  1.0
  O  O12  1  0.06268022  1.06268022  -0.06268022  1.0
  O  O13  1  -0.06268022  0.93731978  0.06268022  1.0
  O  O14  1  0.18731978  0.18731978  0.31268022  1.0
  O  O15  1  0.31268022  0.31268022  0.18731978  1.0
  O  O16  1  0.99252465  -0.69116438  1.01062749  1.0
  O  O17  1  -0.31198777  1.01062749  0.30883562  1.0
  O  O18  1  1.01062749  -0.31198777  0.99252465  1.0
  O  O19  1  -0.69116438  0.99252465  0.68801223  1.0
  O  O20  1  0.25747535  0.94116438  0.23937251  1.0
  O  O21  1  0.56198777  0.23937251  -0.05883562  1.0
  O  O22  1  0.23937251  0.56198777  0.25747535  1.0
  O  O23  1  -0.05883562  1.25747535  0.56198777  1.0
  F  F24  1  0.47651702  0.55660663  -0.18485084  1.0
  F  F25  1  0.15172720  0.81514916  0.55660663  1.0
  F  F26  1  -0.18485084  1.15172720  0.47651702  1.0
  F  F27  1  0.55660663  0.47651702  0.15172720  1.0
  F  F28  1  -0.22651702  0.69339337  0.43485084  1.0
  F  F29  1  1.09827280  -0.56514916  0.69339337  1.0
  F  F30  1  -0.56514916  1.09827280  0.77348298  1.0
  F  F31  1  0.69339337  -0.22651702  1.09827280  1.0
