# generated using pymatgen
data_VClO
_symmetry_space_group_name_H-M   'P 1'
_cell_length_a   3.33026288
_cell_length_b   3.84488059
_cell_length_c   8.64523576
_cell_angle_alpha   90.00000000
_cell_angle_beta   90.00000000
_cell_angle_gamma   90.00000000
_symmetry_Int_Tables_number   1
_chemical_formula_structural   VClO
_chemical_formula_sum   'V2 Cl2 O2'
_cell_volume   110.69760221
_cell_formula_units_Z   2
loop_
 _symmetry_equiv_pos_site_id
 _symmetry_equiv_pos_as_xyz
  1  'x, y, z'
loop_
 _atom_site_type_symbol
 _atom_site_label
 _atom_site_symmetry_multiplicity
 _atom_site_fract_x
 _atom_site_fract_y
 _atom_site_fract_z
 _atom_site_occupancy
  V  V0  1  0.00000000  0.50000000  0.09761075  1.0
  V  V1  1  0.50000000  0.00000000  0.90238925  1.0
  Cl  Cl2  1  0.00000000  0.00000000  0.70799885  1.0
  Cl  Cl3  1  0.50000000  0.50000000  0.29200115  1.0
  O  O4  1  0.00000000  0.00000000  0.05158967  1.0
  O  O5  1  0.50000000  0.50000000  0.94841033  1.0
