# generated using pymatgen
data_Ba4SiSb2Se11
_symmetry_space_group_name_H-M   'P 1'
_cell_length_a   13.81127157
_cell_length_b   13.81127157
_cell_length_c   8.95827703
_cell_angle_alpha   90.00000000
_cell_angle_beta   90.00000000
_cell_angle_gamma   139.68627188
_symmetry_Int_Tables_number   1
_chemical_formula_structural   Ba4SiSb2Se11
_chemical_formula_sum   'Ba8 Si2 Sb4 Se22'
_cell_volume   1105.54808738
_cell_formula_units_Z   2
loop_
 _symmetry_equiv_pos_site_id
 _symmetry_equiv_pos_as_xyz
  1  'x, y, z'
loop_
 _atom_site_type_symbol
 _atom_site_label
 _atom_site_symmetry_multiplicity
 _atom_site_fract_x
 _atom_site_fract_y
 _atom_site_fract_z
 _atom_site_occupancy
  Ba  Ba0  1  0.21399271  0.29262407  0.75561647  1.0
  Ba  Ba1  1  0.29262407  1.21399271  0.25561647  1.0
  Ba  Ba2  1  0.70737593  0.78600729  0.75561647  1.0
  Ba  Ba3  1  -0.21399271  0.70737593  0.25561647  1.0
  Ba  Ba4  1  0.03667543  0.45760451  0.51362341  1.0
  Ba  Ba5  1  0.45760451  1.03667543  0.01362341  1.0
  Ba  Ba6  1  0.54239549  0.96332457  0.51362341  1.0
  Ba  Ba7  1  -0.03667543  0.54239549  0.01362341  1.0
  Si  Si8  1  0.07976245  0.92023755  0.92568112  1.0
  Si  Si9  1  -0.07976245  0.07976245  0.42568112  1.0
  Sb  Sb10  1  0.14498267  0.85501733  0.58806961  1.0
  Sb  Sb11  1  -0.14498267  0.14498267  0.08806961  1.0
  Sb  Sb12  1  -0.35208471  0.35208471  0.58259947  1.0
  Sb  Sb13  1  0.35208471  0.64791529  0.08259947  1.0
  Se  Se14  1  -0.09146826  0.70914996  0.77917513  1.0
  Se  Se15  1  0.70914996  0.90853174  0.27917513  1.0
  Se  Se16  1  0.29085004  1.09146826  0.77917513  1.0
  Se  Se17  1  0.09146826  0.29085004  0.27917513  1.0
  Se  Se18  1  0.11747057  0.44394491  0.91156637  1.0
  Se  Se19  1  0.44394491  1.11747057  0.41156637  1.0
  Se  Se20  1  0.55605509  0.88252943  0.91156637  1.0
  Se  Se21  1  -0.11747057  0.55605509  0.41156637  1.0
  Se  Se22  1  0.00512516  0.99487484  0.49844473  1.0
  Se  Se23  1  -0.00512516  0.00512516  -0.00155527  1.0
  Se  Se24  1  0.12530412  0.87469588  0.14284184  1.0
  Se  Se25  1  -0.12530412  0.12530412  0.64284184  1.0
  Se  Se26  1  0.23299901  0.76700099  0.72437194  1.0
  Se  Se27  1  -0.23299901  0.23299901  0.22437194  1.0
  Se  Se28  1  0.38359699  0.61640301  0.61069498  1.0
  Se  Se29  1  -0.38359699  0.38359699  0.11069498  1.0
  Se  Se30  1  -0.47150878  0.47150878  0.53834183  1.0
  Se  Se31  1  0.47150878  0.52849122  0.03834183  1.0
  Se  Se32  1  -0.44520584  0.44520584  0.90962794  1.0
  Se  Se33  1  0.44520584  0.55479416  0.40962794  1.0
  Se  Se34  1  -0.26719440  0.26719440  0.73996379  1.0
  Se  Se35  1  0.26719440  0.73280560  0.23996379  1.0
