# generated using pymatgen
data_YPOs2C
_symmetry_space_group_name_H-M   'P 1'
_cell_length_a   5.87777767
_cell_length_b   5.87777767
_cell_length_c   7.04396089
_cell_angle_alpha   90.00000000
_cell_angle_beta   90.00000000
_cell_angle_gamma   142.04920141
_symmetry_Int_Tables_number   1
_chemical_formula_structural   YPOs2C
_chemical_formula_sum   'Y2 P2 Os4 C2'
_cell_volume   149.66059202
_cell_formula_units_Z   2
loop_
 _symmetry_equiv_pos_site_id
 _symmetry_equiv_pos_as_xyz
  1  'x, y, z'
loop_
 _atom_site_type_symbol
 _atom_site_label
 _atom_site_symmetry_multiplicity
 _atom_site_fract_x
 _atom_site_fract_y
 _atom_site_fract_z
 _atom_site_occupancy
  Y  Y0  1  0.45633136  0.54366864  0.75000000  1.0
  Y  Y1  1  -0.45633136  0.45633136  0.25000000  1.0
  P  P2  1  -0.26899275  0.26899275  0.75000000  1.0
  P  P3  1  0.26899275  0.73100725  0.25000000  1.0
  Os  Os4  1  0.16591858  0.83408142  0.94735027  1.0
  Os  Os5  1  0.16591858  0.83408142  0.55264973  1.0
  Os  Os6  1  -0.16591858  0.16591858  0.44735027  1.0
  Os  Os7  1  -0.16591858  0.16591858  0.05264973  1.0
  C  C8  1  0.00000000  0.00000000  0.00000000  1.0
  C  C9  1  0.00000000  0.00000000  0.50000000  1.0
