# generated using pymatgen
data_LaSbSe2O
_symmetry_space_group_name_H-M   'P 1'
_cell_length_a   4.10396991
_cell_length_b   4.10396991
_cell_length_c   14.70579463
_cell_angle_alpha   90.00000000
_cell_angle_beta   90.00000000
_cell_angle_gamma   90.00000000
_symmetry_Int_Tables_number   1
_chemical_formula_structural   LaSbSe2O
_chemical_formula_sum   'La2 Sb2 Se4 O2'
_cell_volume   247.68336143
_cell_formula_units_Z   2
loop_
 _symmetry_equiv_pos_site_id
 _symmetry_equiv_pos_as_xyz
  1  'x, y, z'
loop_
 _atom_site_type_symbol
 _atom_site_label
 _atom_site_symmetry_multiplicity
 _atom_site_fract_x
 _atom_site_fract_y
 _atom_site_fract_z
 _atom_site_occupancy
  La  La0  1  0.50000000  0.00000000  0.08425894  1.0
  La  La1  1  0.00000000  0.50000000  0.91574106  1.0
  Sb  Sb2  1  0.50000000  0.00000000  0.63372633  1.0
  Sb  Sb3  1  0.00000000  0.50000000  0.36627367  1.0
  Se  Se4  1  0.50000000  0.00000000  0.39288815  1.0
  Se  Se5  1  0.00000000  0.50000000  0.60711185  1.0
  Se  Se6  1  0.50000000  0.00000000  0.80839697  1.0
  Se  Se7  1  0.00000000  0.50000000  0.19160303  1.0
  O  O8  1  0.00000000  0.00000000  0.00000000  1.0
  O  O9  1  0.50000000  0.50000000  0.00000000  1.0
