# generated using pymatgen
data_Zr6Be15Co8
_symmetry_space_group_name_H-M   'P 1'
_cell_length_a   7.76903831
_cell_length_b   7.76903831
_cell_length_c   7.76903831
_cell_angle_alpha   60.00000000
_cell_angle_beta   60.00000000
_cell_angle_gamma   60.00000000
_symmetry_Int_Tables_number   1
_chemical_formula_structural   Zr6Be15Co8
_chemical_formula_sum   'Zr6 Be15 Co8'
_cell_volume   331.57882759
_cell_formula_units_Z   1
loop_
 _symmetry_equiv_pos_site_id
 _symmetry_equiv_pos_as_xyz
  1  'x, y, z'
loop_
 _atom_site_type_symbol
 _atom_site_label
 _atom_site_symmetry_multiplicity
 _atom_site_fract_x
 _atom_site_fract_y
 _atom_site_fract_z
 _atom_site_occupancy
  Zr  Zr0  1  -0.71195375  0.71195375  0.71195375  1.0
  Zr  Zr1  1  -0.28804625  0.28804625  0.71195375  1.0
  Zr  Zr2  1  0.71195375  0.71195375  -0.71195375  1.0
  Zr  Zr3  1  0.28804625  1.28804625  -0.28804625  1.0
  Zr  Zr4  1  0.28804625  -0.28804625  1.28804625  1.0
  Zr  Zr5  1  -0.28804625  0.28804625  0.28804625  1.0
  Be  Be6  1  0.67891935  0.67891935  -0.32108065  1.0
  Be  Be7  1  1.32108065  0.32108065  0.03675804  1.0
  Be  Be8  1  1.32108065  0.03675804  0.32108065  1.0
  Be  Be9  1  0.96324196  0.67891935  -0.32108065  1.0
  Be  Be10  1  1.03675804  0.32108065  0.32108065  1.0
  Be  Be11  1  0.67891935  0.96324196  -0.32108065  1.0
  Be  Be12  1  0.67891935  0.67891935  -0.03675804  1.0
  Be  Be13  1  1.32108065  0.32108065  0.32108065  1.0
  Be  Be14  1  1.50000000  0.00000000  -0.00000000  1.0
  Be  Be15  1  1.00000000  0.50000000  -0.50000000  1.0
  Be  Be16  1  0.00000000  1.50000000  -0.00000000  1.0
  Be  Be17  1  0.50000000  1.00000000  -0.50000000  1.0
  Be  Be18  1  0.00000000  -0.00000000  0.50000000  1.0
  Be  Be19  1  0.50000000  -0.50000000  1.00000000  1.0
  Be  Be20  1  0.00000000  0.00000000  0.00000000  1.0
  Co  Co21  1  0.87516840  0.87516840  -0.12483160  1.0
  Co  Co22  1  1.12483160  0.12483160  0.62550520  1.0
  Co  Co23  1  1.12483160  0.62550520  0.12483160  1.0
  Co  Co24  1  0.37449480  0.87516840  -0.12483160  1.0
  Co  Co25  1  1.62550520  0.12483160  0.12483160  1.0
  Co  Co26  1  0.87516840  0.37449480  -0.12483160  1.0
  Co  Co27  1  0.87516840  0.87516840  -0.62550520  1.0
  Co  Co28  1  1.12483160  0.12483160  0.12483160  1.0
