# generated using pymatgen
data_HfSiOs
_symmetry_space_group_name_H-M   'P 1'
_cell_length_a   6.62664653
_cell_length_b   6.62664653
_cell_length_c   3.74391198
_cell_angle_alpha   90.00000000
_cell_angle_beta   90.00000000
_cell_angle_gamma   120.00000000
_symmetry_Int_Tables_number   1
_chemical_formula_structural   HfSiOs
_chemical_formula_sum   'Hf3 Si3 Os3'
_cell_volume   142.37832316
_cell_formula_units_Z   3
loop_
 _symmetry_equiv_pos_site_id
 _symmetry_equiv_pos_as_xyz
  1  'x, y, z'
loop_
 _atom_site_type_symbol
 _atom_site_label
 _atom_site_symmetry_multiplicity
 _atom_site_fract_x
 _atom_site_fract_y
 _atom_site_fract_z
 _atom_site_occupancy
  Hf  Hf0  1  0.41594775  0.41594775  0.00000000  1.0
  Hf  Hf1  1  0.00000000  0.58405225  0.00000000  1.0
  Hf  Hf2  1  0.58405225  0.00000000  0.00000000  1.0
  Si  Si3  1  0.33333333  0.66666667  0.50000000  1.0
  Si  Si4  1  0.66666667  0.33333333  0.50000000  1.0
  Si  Si5  1  0.00000000  0.00000000  0.00000000  1.0
  Os  Os6  1  0.75334030  0.75334030  0.50000000  1.0
  Os  Os7  1  0.00000000  0.24665970  0.50000000  1.0
  Os  Os8  1  0.24665970  -0.00000000  0.50000000  1.0
