# generated using pymatgen
data_In7Cu10
_symmetry_space_group_name_H-M   'P 1'
_cell_length_a   9.21476026
_cell_length_b   9.21476026
_cell_length_c   6.78539459
_cell_angle_alpha   89.21664450
_cell_angle_beta   90.78335550
_cell_angle_gamma   98.70165476
_symmetry_Int_Tables_number   1
_chemical_formula_structural   In7Cu10
_chemical_formula_sum   'In14 Cu20'
_cell_volume   569.43576072
_cell_formula_units_Z   2
loop_
 _symmetry_equiv_pos_site_id
 _symmetry_equiv_pos_as_xyz
  1  'x, y, z'
loop_
 _atom_site_type_symbol
 _atom_site_label
 _atom_site_symmetry_multiplicity
 _atom_site_fract_x
 _atom_site_fract_y
 _atom_site_fract_z
 _atom_site_occupancy
  In  In0  1  0.70568295  -0.15648389  0.80263428  1.0
  In  In1  1  1.15648389  0.29431705  0.80263428  1.0
  In  In2  1  0.84351611  -0.29431705  0.19736572  1.0
  In  In3  1  1.29431705  0.15648389  0.19736572  1.0
  In  In4  1  1.43180942  0.12030597  0.61431832  1.0
  In  In5  1  0.87969403  -0.43180942  0.61431832  1.0
  In  In6  1  1.12030597  0.43180942  0.38568168  1.0
  In  In7  1  0.56819058  -0.12030597  0.38568168  1.0
  In  In8  1  0.83341591  -0.83341591  0.50247215  1.0
  In  In9  1  0.16658409  -0.16658409  0.49752785  1.0
  In  In10  1  0.76310583  -0.76310583  0.93266725  1.0
  In  In11  1  0.23689417  -0.23689417  0.06733275  1.0
  In  In12  1  0.46503730  -0.46503730  0.71737757  1.0
  In  In13  1  0.53496270  -0.53496270  0.28262243  1.0
  Cu  Cu14  1  0.40850040  -0.18194094  0.72596662  1.0
  Cu  Cu15  1  1.18194094  0.59149960  0.72596662  1.0
  Cu  Cu16  1  0.81805906  -0.59149960  0.27403338  1.0
  Cu  Cu17  1  1.59149960  0.18194094  0.27403338  1.0
  Cu  Cu18  1  1.21737934  0.00272807  0.84593184  1.0
  Cu  Cu19  1  0.99727193  -0.21737934  0.84593184  1.0
  Cu  Cu20  1  1.00272807  0.21737934  0.15406816  1.0
  Cu  Cu21  1  0.78262066  -0.00272807  0.15406816  1.0
  Cu  Cu22  1  1.48221008  0.29255537  0.94009804  1.0
  Cu  Cu23  1  0.70744463  -0.48221008  0.94009804  1.0
  Cu  Cu24  1  1.29255537  0.48221008  0.05990196  1.0
  Cu  Cu25  1  0.51778992  -0.29255537  0.05990196  1.0
  Cu  Cu26  1  0.95149800  -0.95149800  0.83416086  1.0
  Cu  Cu27  1  0.04850200  -0.04850200  0.16583914  1.0
  Cu  Cu28  1  0.64840650  -0.64840650  0.60675744  1.0
  Cu  Cu29  1  0.35159350  -0.35159350  0.39324256  1.0
  Cu  Cu30  1  0.88930207  -0.11069793  0.50000000  1.0
  Cu  Cu31  1  1.11069793  0.11069793  0.50000000  1.0
  Cu  Cu32  1  1.50000000  0.00000000  -0.00000000  1.0
  Cu  Cu33  1  1.00000000  -0.50000000  -0.00000000  1.0
