# generated using pymatgen
data_Sc2SiO5
_symmetry_space_group_name_H-M   'P 1'
_cell_length_a   7.60289917
_cell_length_b   7.60289917
_cell_length_c   10.08428650
_cell_angle_alpha   62.40044382
_cell_angle_beta   117.59955618
_cell_angle_gamma   129.48226268
_symmetry_Int_Tables_number   1
_chemical_formula_structural   Sc2SiO5
_chemical_formula_sum   'Sc8 Si4 O20'
_cell_volume   386.38978549
_cell_formula_units_Z   4
loop_
 _symmetry_equiv_pos_site_id
 _symmetry_equiv_pos_as_xyz
  1  'x, y, z'
loop_
 _atom_site_type_symbol
 _atom_site_label
 _atom_site_symmetry_multiplicity
 _atom_site_fract_x
 _atom_site_fract_y
 _atom_site_fract_z
 _atom_site_occupancy
  Sc  Sc0  1  1.69961141  -0.20713377  0.00897834  1.0
  Sc  Sc1  1  1.20713377  -0.69961141  0.50897834  1.0
  Sc  Sc2  1  0.79286623  0.69961141  0.49102166  1.0
  Sc  Sc3  1  0.30038859  0.20713377  0.99102166  1.0
  Sc  Sc4  1  0.52652138  0.24361583  0.34591930  1.0
  Sc  Sc5  1  0.75638417  0.47347862  0.84591930  1.0
  Sc  Sc6  1  1.24361583  -0.47347862  0.15408070  1.0
  Sc  Sc7  1  1.47347862  -0.24361583  0.65408070  1.0
  Si  Si8  1  0.72111810  0.08287932  0.19105782  1.0
  Si  Si9  1  0.91712068  -0.72111810  0.69105782  1.0
  Si  Si10  1  1.08287932  0.72111810  0.30894218  1.0
  Si  Si11  1  1.27888190  -0.08287932  0.80894218  1.0
  O  O12  1  0.88743678  0.04867975  0.36566646  1.0
  O  O13  1  0.95132025  -0.88743678  0.86566646  1.0
  O  O14  1  1.04867975  0.88743678  0.13433354  1.0
  O  O15  1  1.11256322  -0.04867975  0.63433354  1.0
  O  O16  1  1.57450624  -0.16380083  0.14091550  1.0
  O  O17  1  1.16380083  -0.57450624  0.64091550  1.0
  O  O18  1  0.83619917  0.57450624  0.35908450  1.0
  O  O19  1  0.42549376  0.16380083  0.85908450  1.0
  O  O20  1  0.28867246  -0.11670585  0.43200723  1.0
  O  O21  1  1.11670585  0.71132754  0.93200723  1.0
  O  O22  1  0.88329415  -0.71132754  0.06799277  1.0
  O  O23  1  1.71132754  0.11670585  0.56799277  1.0
  O  O24  1  0.54569236  0.14089174  0.18927557  1.0
  O  O25  1  0.85910826  -0.54569236  0.68927557  1.0
  O  O26  1  1.14089174  0.54569236  0.31072443  1.0
  O  O27  1  1.45430764  -0.14089174  0.81072443  1.0
  O  O28  1  0.41771864  0.39180787  0.39146084  1.0
  O  O29  1  0.60819213  0.58228136  0.89146084  1.0
  O  O30  1  1.39180787  -0.58228136  0.10853916  1.0
  O  O31  1  1.58228136  -0.39180787  0.60853916  1.0
