# generated using pymatgen
data_NbNi2
_symmetry_space_group_name_H-M   'P 1'
_cell_length_a   4.80038519
_cell_length_b   4.80038519
_cell_length_c   15.64045585
_cell_angle_alpha   90.00000000
_cell_angle_beta   90.00000000
_cell_angle_gamma   120.00000000
_symmetry_Int_Tables_number   1
_chemical_formula_structural   NbNi2
_chemical_formula_sum   'Nb8 Ni16'
_cell_volume   312.12762887
_cell_formula_units_Z   8
loop_
 _symmetry_equiv_pos_site_id
 _symmetry_equiv_pos_as_xyz
  1  'x, y, z'
loop_
 _atom_site_type_symbol
 _atom_site_label
 _atom_site_symmetry_multiplicity
 _atom_site_fract_x
 _atom_site_fract_y
 _atom_site_fract_z
 _atom_site_occupancy
  Nb  Nb0  1  0.00000000  0.00000000  0.40306919  1.0
  Nb  Nb1  1  0.00000000  0.00000000  0.59693081  1.0
  Nb  Nb2  1  0.00000000  0.00000000  0.90306919  1.0
  Nb  Nb3  1  0.00000000  0.00000000  0.09693081  1.0
  Nb  Nb4  1  0.33333333  0.66666667  0.65500316  1.0
  Nb  Nb5  1  0.66666667  0.33333333  0.34499684  1.0
  Nb  Nb6  1  0.66666667  0.33333333  0.15500316  1.0
  Nb  Nb7  1  0.33333333  0.66666667  0.84499684  1.0
  Ni  Ni8  1  0.33333333  0.66666667  0.37581051  1.0
  Ni  Ni9  1  0.66666667  0.33333333  0.62418949  1.0
  Ni  Ni10  1  0.66666667  0.33333333  0.87581051  1.0
  Ni  Ni11  1  0.33333333  0.66666667  0.12418949  1.0
  Ni  Ni12  1  0.50000000  0.50000000  0.50000000  1.0
  Ni  Ni13  1  0.50000000  0.00000000  0.50000000  1.0
  Ni  Ni14  1  -0.00000000  0.50000000  0.50000000  1.0
  Ni  Ni15  1  0.50000000  0.50000000  0.00000000  1.0
  Ni  Ni16  1  0.50000000  0.00000000  0.00000000  1.0
  Ni  Ni17  1  -0.00000000  0.50000000  0.00000000  1.0
  Ni  Ni18  1  0.16474327  0.83525673  0.25000000  1.0
  Ni  Ni19  1  0.16474327  0.32948654  0.25000000  1.0
  Ni  Ni20  1  0.67051346  0.83525673  0.25000000  1.0
  Ni  Ni21  1  0.83525673  0.16474327  0.75000000  1.0
  Ni  Ni22  1  0.83525673  0.67051346  0.75000000  1.0
  Ni  Ni23  1  0.32948654  0.16474327  0.75000000  1.0
