# generated using pymatgen
data_CaMgSn
_symmetry_space_group_name_H-M   'P 1'
_cell_length_a   7.87636749
_cell_length_b   4.71293272
_cell_length_c   8.80835352
_cell_angle_alpha   90.00000000
_cell_angle_beta   90.00000000
_cell_angle_gamma   90.00000000
_symmetry_Int_Tables_number   1
_chemical_formula_structural   CaMgSn
_chemical_formula_sum   'Ca4 Mg4 Sn4'
_cell_volume   326.97304189
_cell_formula_units_Z   4
loop_
 _symmetry_equiv_pos_site_id
 _symmetry_equiv_pos_as_xyz
  1  'x, y, z'
loop_
 _atom_site_type_symbol
 _atom_site_label
 _atom_site_symmetry_multiplicity
 _atom_site_fract_x
 _atom_site_fract_y
 _atom_site_fract_z
 _atom_site_occupancy
  Ca  Ca0  1  0.98028884  0.75000000  0.68352971  1.0
  Ca  Ca1  1  0.48028884  0.75000000  0.81647029  1.0
  Ca  Ca2  1  0.01971116  0.25000000  0.31647029  1.0
  Ca  Ca3  1  0.51971116  0.25000000  0.18352971  1.0
  Mg  Mg4  1  0.85597600  0.75000000  0.06270719  1.0
  Mg  Mg5  1  0.35597600  0.75000000  0.43729281  1.0
  Mg  Mg6  1  0.14402400  0.25000000  0.93729281  1.0
  Mg  Mg7  1  0.64402400  0.25000000  0.56270719  1.0
  Sn  Sn8  1  0.73491880  0.75000000  0.38342473  1.0
  Sn  Sn9  1  0.23491880  0.75000000  0.11657527  1.0
  Sn  Sn10  1  0.26508120  0.25000000  0.61657527  1.0
  Sn  Sn11  1  0.76508120  0.25000000  0.88342473  1.0
