# generated using pymatgen
data_ZnS
_symmetry_space_group_name_H-M   'P 1'
_cell_length_a   3.84933528
_cell_length_b   3.84933528
_cell_length_c   75.53874081
_cell_angle_alpha   90.00000000
_cell_angle_beta   90.00000000
_cell_angle_gamma   120.00000000
_symmetry_Int_Tables_number   1
_chemical_formula_structural   ZnS
_chemical_formula_sum   'Zn24 S24'
_cell_volume   969.33044377
_cell_formula_units_Z   24
loop_
 _symmetry_equiv_pos_site_id
 _symmetry_equiv_pos_as_xyz
  1  'x, y, z'
loop_
 _atom_site_type_symbol
 _atom_site_label
 _atom_site_symmetry_multiplicity
 _atom_site_fract_x
 _atom_site_fract_y
 _atom_site_fract_z
 _atom_site_occupancy
  Zn  Zn0  1  0.00000000  0.00000000  0.09376255  1.0
  Zn  Zn1  1  -0.00000000  -0.00000000  0.26043005  1.0
  Zn  Zn2  1  0.00000000  0.00000000  0.42707453  1.0
  Zn  Zn3  1  0.00000000  0.00000000  0.51045678  1.0
  Zn  Zn4  1  0.00000000  0.00000000  0.67707413  1.0
  Zn  Zn5  1  0.00000000  0.00000000  0.76045807  1.0
  Zn  Zn6  1  0.00000000  0.00000000  0.92709717  1.0
  Zn  Zn7  1  0.66666667  0.33333333  0.01042406  1.0
  Zn  Zn8  1  0.66666667  0.33333333  0.17710140  1.0
  Zn  Zn9  1  0.66666667  0.33333333  0.30206951  1.0
  Zn  Zn10  1  0.66666667  0.33333333  0.38545724  1.0
  Zn  Zn11  1  0.66666667  0.33333333  0.55207453  1.0
  Zn  Zn12  1  0.66666667  0.33333333  0.63545763  1.0
  Zn  Zn13  1  0.66666667  0.33333333  0.80207431  1.0
  Zn  Zn14  1  0.66666667  0.33333333  0.88546253  1.0
  Zn  Zn15  1  0.33333333  0.66666667  0.05210047  1.0
  Zn  Zn16  1  0.33333333  0.66666667  0.13543434  1.0
  Zn  Zn17  1  0.33333333  0.66666667  0.21879548  1.0
  Zn  Zn18  1  0.33333333  0.66666667  0.34376227  1.0
  Zn  Zn19  1  0.33333333  0.66666667  0.46876342  1.0
  Zn  Zn20  1  0.33333333  0.66666667  0.59376431  1.0
  Zn  Zn21  1  0.33333333  0.66666667  0.71876379  1.0
  Zn  Zn22  1  0.33333333  0.66666667  0.84376366  1.0
  Zn  Zn23  1  0.33333333  0.66666667  0.96873466  1.0
  S  S24  1  -0.00000000  -0.00000000  0.12503171  1.0
  S  S25  1  0.00000000  0.00000000  0.29165843  1.0
  S  S26  1  -0.00000000  -0.00000000  0.45829511  1.0
  S  S27  1  0.00000000  0.00000000  0.54166979  1.0
  S  S28  1  0.00000000  0.00000000  0.70829431  1.0
  S  S29  1  -0.00000000  -0.00000000  0.79167116  1.0
  S  S30  1  -0.00000000  -0.00000000  0.95832469  1.0
  S  S31  1  0.66666667  0.33333333  0.04169606  1.0
  S  S32  1  0.66666667  0.33333333  0.20837717  1.0
  S  S33  1  0.66666667  0.33333333  0.33329253  1.0
  S  S34  1  0.66666667  0.33333333  0.41667042  1.0
  S  S35  1  0.66666667  0.33333333  0.58329502  1.0
  S  S36  1  0.66666667  0.33333333  0.66667043  1.0
  S  S37  1  0.66666667  0.33333333  0.83329478  1.0
  S  S38  1  0.66666667  0.33333333  0.91668154  1.0
  S  S39  1  0.33333333  0.66666667  -0.00004317  1.0
  S  S40  1  0.33333333  0.66666667  0.08330537  1.0
  S  S41  1  0.33333333  0.66666667  0.16664083  1.0
  S  S42  1  0.33333333  0.66666667  0.25001421  1.0
  S  S43  1  0.33333333  0.66666667  0.37503945  1.0
  S  S44  1  0.33333333  0.66666667  0.50003999  1.0
  S  S45  1  0.33333333  0.66666667  0.62504090  1.0
  S  S46  1  0.33333333  0.66666667  0.75004050  1.0
  S  S47  1  0.33333333  0.66666667  0.87504187  1.0
