# generated using pymatgen
data_YMn2SiC
_symmetry_space_group_name_H-M   'P 1'
_cell_length_a   5.59870091
_cell_length_b   5.59870091
_cell_length_c   6.99379644
_cell_angle_alpha   90.00000000
_cell_angle_beta   90.00000000
_cell_angle_gamma   141.31302536
_symmetry_Int_Tables_number   1
_chemical_formula_structural   YMn2SiC
_chemical_formula_sum   'Y2 Mn4 Si2 C2'
_cell_volume   137.02911654
_cell_formula_units_Z   2
loop_
 _symmetry_equiv_pos_site_id
 _symmetry_equiv_pos_as_xyz
  1  'x, y, z'
loop_
 _atom_site_type_symbol
 _atom_site_label
 _atom_site_symmetry_multiplicity
 _atom_site_fract_x
 _atom_site_fract_y
 _atom_site_fract_z
 _atom_site_occupancy
  Y  Y0  1  0.45642599  0.54357401  0.75000000  1.0
  Y  Y1  1  -0.45642599  0.45642599  0.25000000  1.0
  Mn  Mn2  1  0.16776700  0.83223300  0.93816790  1.0
  Mn  Mn3  1  0.16776700  0.83223300  0.56183210  1.0
  Mn  Mn4  1  -0.16776700  0.16776700  0.43816790  1.0
  Mn  Mn5  1  -0.16776700  0.16776700  0.06183210  1.0
  Si  Si6  1  -0.26445168  0.26445168  0.75000000  1.0
  Si  Si7  1  0.26445168  0.73554832  0.25000000  1.0
  C  C8  1  0.00000000  0.00000000  0.00000000  1.0
  C  C9  1  0.00000000  0.00000000  0.50000000  1.0
