# generated using pymatgen
data_Y2Nb3Ge4
_symmetry_space_group_name_H-M   'P 1'
_cell_length_a   7.01512354
_cell_length_b   13.57165569
_cell_length_c   7.19443709
_cell_angle_alpha   90.00000000
_cell_angle_beta   90.00000000
_cell_angle_gamma   90.00000000
_symmetry_Int_Tables_number   1
_chemical_formula_structural   Y2Nb3Ge4
_chemical_formula_sum   'Y8 Nb12 Ge16'
_cell_volume   684.95962968
_cell_formula_units_Z   4
loop_
 _symmetry_equiv_pos_site_id
 _symmetry_equiv_pos_as_xyz
  1  'x, y, z'
loop_
 _atom_site_type_symbol
 _atom_site_label
 _atom_site_symmetry_multiplicity
 _atom_site_fract_x
 _atom_site_fract_y
 _atom_site_fract_z
 _atom_site_occupancy
  Y  Y0  1  0.49655656  0.40489059  0.17369027  1.0
  Y  Y1  1  0.49655656  0.09510941  0.17369027  1.0
  Y  Y2  1  0.99655656  0.40489059  0.32630973  1.0
  Y  Y3  1  0.99655656  0.09510941  0.32630973  1.0
  Y  Y4  1  0.50344344  0.90489059  0.82630973  1.0
  Y  Y5  1  0.50344344  0.59510941  0.82630973  1.0
  Y  Y6  1  0.00344344  0.90489059  0.67369027  1.0
  Y  Y7  1  0.00344344  0.59510941  0.67369027  1.0
  Nb  Nb8  1  0.15945452  0.37308411  0.82859824  1.0
  Nb  Nb9  1  0.15945452  0.12691589  0.82859824  1.0
  Nb  Nb10  1  0.65945452  0.37308411  0.67140176  1.0
  Nb  Nb11  1  0.65945452  0.12691589  0.67140176  1.0
  Nb  Nb12  1  0.84054548  0.87308411  0.17140176  1.0
  Nb  Nb13  1  0.84054548  0.62691589  0.17140176  1.0
  Nb  Nb14  1  0.34054548  0.87308411  0.32859824  1.0
  Nb  Nb15  1  0.34054548  0.62691589  0.32859824  1.0
  Nb  Nb16  1  0.33499854  0.25000000  0.51295365  1.0
  Nb  Nb17  1  0.83499854  0.25000000  0.98704635  1.0
  Nb  Nb18  1  0.66500146  0.75000000  0.48704635  1.0
  Nb  Nb19  1  0.16500146  0.75000000  0.01295365  1.0
  Ge  Ge20  1  0.32589600  0.45813018  0.53901703  1.0
  Ge  Ge21  1  0.32589600  0.04186982  0.53901703  1.0
  Ge  Ge22  1  0.82589600  0.45813018  0.96098297  1.0
  Ge  Ge23  1  0.82589600  0.04186982  0.96098297  1.0
  Ge  Ge24  1  0.67410400  0.95813018  0.46098297  1.0
  Ge  Ge25  1  0.67410400  0.54186982  0.46098297  1.0
  Ge  Ge26  1  0.17410400  0.95813018  0.03901703  1.0
  Ge  Ge27  1  0.17410400  0.54186982  0.03901703  1.0
  Ge  Ge28  1  0.46017662  0.25000000  0.87834522  1.0
  Ge  Ge29  1  0.96017662  0.25000000  0.62165478  1.0
  Ge  Ge30  1  0.53982338  0.75000000  0.12165478  1.0
  Ge  Ge31  1  0.03982338  0.75000000  0.37834522  1.0
  Ge  Ge32  1  0.19406814  0.25000000  0.13721074  1.0
  Ge  Ge33  1  0.69406814  0.25000000  0.36278926  1.0
  Ge  Ge34  1  0.80593186  0.75000000  0.86278926  1.0
  Ge  Ge35  1  0.30593186  0.75000000  0.63721074  1.0
