# generated using pymatgen
data_Cs2HgBr4
_symmetry_space_group_name_H-M   'P 1'
_cell_length_a   10.48210627
_cell_length_b   8.12714793
_cell_length_c   14.73104633
_cell_angle_alpha   90.00000000
_cell_angle_beta   90.00000000
_cell_angle_gamma   90.00000000
_symmetry_Int_Tables_number   1
_chemical_formula_structural   Cs2HgBr4
_chemical_formula_sum   'Cs8 Hg4 Br16'
_cell_volume   1254.93236081
_cell_formula_units_Z   4
loop_
 _symmetry_equiv_pos_site_id
 _symmetry_equiv_pos_as_xyz
  1  'x, y, z'
loop_
 _atom_site_type_symbol
 _atom_site_label
 _atom_site_symmetry_multiplicity
 _atom_site_fract_x
 _atom_site_fract_y
 _atom_site_fract_z
 _atom_site_occupancy
  Cs  Cs0  1  0.88568484  0.75000000  0.43071008  1.0
  Cs  Cs1  1  0.38568484  0.75000000  0.06928992  1.0
  Cs  Cs2  1  0.11431516  0.25000000  0.56928992  1.0
  Cs  Cs3  1  0.61431516  0.25000000  0.93071008  1.0
  Cs  Cs4  1  0.51947937  0.75000000  0.67357067  1.0
  Cs  Cs5  1  0.01947937  0.75000000  0.82642933  1.0
  Cs  Cs6  1  0.48052063  0.25000000  0.32642933  1.0
  Cs  Cs7  1  0.98052063  0.25000000  0.17357067  1.0
  Hg  Hg8  1  0.78180706  0.75000000  0.07447492  1.0
  Hg  Hg9  1  0.28180706  0.75000000  0.42552508  1.0
  Hg  Hg10  1  0.21819294  0.25000000  0.92552508  1.0
  Hg  Hg11  1  0.71819294  0.25000000  0.57447492  1.0
  Br  Br12  1  0.67130368  1.01366818  0.14829237  1.0
  Br  Br13  1  0.67130368  0.48633182  0.14829237  1.0
  Br  Br14  1  0.17130368  1.01366818  0.35170763  1.0
  Br  Br15  1  0.17130368  0.48633182  0.35170763  1.0
  Br  Br16  1  0.32869632  0.51366818  0.85170763  1.0
  Br  Br17  1  0.32869632  -0.01366818  0.85170763  1.0
  Br  Br18  1  0.82869632  0.51366818  0.64829237  1.0
  Br  Br19  1  0.82869632  -0.01366818  0.64829237  1.0
  Br  Br20  1  1.03147960  0.75000000  0.08404003  1.0
  Br  Br21  1  0.53147960  0.75000000  0.41595997  1.0
  Br  Br22  1  -0.03147960  0.25000000  0.91595997  1.0
  Br  Br23  1  0.46852040  0.25000000  0.58404003  1.0
  Br  Br24  1  0.18466972  0.75000000  0.59551904  1.0
  Br  Br25  1  0.68466972  0.75000000  0.90448096  1.0
  Br  Br26  1  0.81533028  0.25000000  0.40448096  1.0
  Br  Br27  1  0.31533028  0.25000000  0.09551904  1.0
