# generated using pymatgen
data_Sr6TbIn(BO3)6
_symmetry_space_group_name_H-M   'P 1'
_cell_length_a   7.85298846
_cell_length_b   7.85298846
_cell_length_c   7.85298846
_cell_angle_alpha   105.28538716
_cell_angle_beta   105.28538716
_cell_angle_gamma   105.28538716
_symmetry_Int_Tables_number   1
_chemical_formula_structural   Sr6TbIn(BO3)6
_chemical_formula_sum   'Sr6 Tb1 In1 B6 O18'
_cell_volume   420.76313690
_cell_formula_units_Z   1
loop_
 _symmetry_equiv_pos_site_id
 _symmetry_equiv_pos_as_xyz
  1  'x, y, z'
loop_
 _atom_site_type_symbol
 _atom_site_label
 _atom_site_symmetry_multiplicity
 _atom_site_fract_x
 _atom_site_fract_y
 _atom_site_fract_z
 _atom_site_occupancy
  Sr  Sr0  1  0.76838361  0.65485050  0.14674449  1.0
  Sr  Sr1  1  1.34514950  -0.14674449  0.23161639  1.0
  Sr  Sr2  1  0.85325551  0.23161639  0.34514950  1.0
  Sr  Sr3  1  1.23161639  0.34514950  -0.14674449  1.0
  Sr  Sr4  1  0.65485050  1.14674449  -0.23161639  1.0
  Sr  Sr5  1  1.14674449  0.76838361  -0.34514950  1.0
  Tb  Tb6  1  0.50000000  0.50000000  0.50000000  1.0
  In  In7  1  0.00000000  0.00000000  0.00000000  1.0
  B  B8  1  1.54273054  0.79271840  -0.11391267  1.0
  B  B9  1  1.20728160  0.11391267  -0.54273054  1.0
  B  B10  1  1.11391267  -0.54273054  0.20728160  1.0
  B  B11  1  0.45726946  0.20728160  0.11391267  1.0
  B  B12  1  0.79271840  0.88608733  0.54273054  1.0
  B  B13  1  0.88608733  1.54273054  -0.20728160  1.0
  O  O14  1  0.71546815  0.93596615  0.00773231  1.0
  O  O15  1  1.06403385  -0.00773231  -0.71546815  1.0
  O  O16  1  0.99226769  -0.71546815  0.06403385  1.0
  O  O17  1  0.28453185  0.06403385  -0.00773231  1.0
  O  O18  1  0.93596615  1.00773231  -0.28453185  1.0
  O  O19  1  1.00773231  0.71546815  -0.06403385  1.0
  O  O20  1  1.48097110  0.76846725  -0.30485233  1.0
  O  O21  1  1.23153275  0.30485233  -0.48097110  1.0
  O  O22  1  1.30485233  -0.48097110  0.23153275  1.0
  O  O23  1  0.51902890  0.23153275  0.30485233  1.0
  O  O24  1  0.76846725  0.69514767  0.48097110  1.0
  O  O25  1  0.69514767  1.48097110  -0.23153275  1.0
  O  O26  1  0.56290588  0.31370718  0.03958857  1.0
  O  O27  1  0.68629282  0.96041143  0.43709412  1.0
  O  O28  1  0.96041143  1.43709412  -0.31370718  1.0
  O  O29  1  1.43709412  0.68629282  -0.03958857  1.0
  O  O30  1  1.31370718  0.03958857  -0.43709412  1.0
  O  O31  1  1.03958857  -0.43709412  0.31370718  1.0
