# generated using pymatgen
data_Cs3Mo2Cl9
_symmetry_space_group_name_H-M   'P 1'
_cell_length_a   7.54253443
_cell_length_b   7.54253443
_cell_length_c   18.33436698
_cell_angle_alpha   90.00000000
_cell_angle_beta   90.00000000
_cell_angle_gamma   120.00000000
_symmetry_Int_Tables_number   1
_chemical_formula_structural   Cs3Mo2Cl9
_chemical_formula_sum   'Cs6 Mo4 Cl18'
_cell_volume   903.29821909
_cell_formula_units_Z   2
loop_
 _symmetry_equiv_pos_site_id
 _symmetry_equiv_pos_as_xyz
  1  'x, y, z'
loop_
 _atom_site_type_symbol
 _atom_site_label
 _atom_site_symmetry_multiplicity
 _atom_site_fract_x
 _atom_site_fract_y
 _atom_site_fract_z
 _atom_site_occupancy
  Cs  Cs0  1  0.00000000  0.00000000  0.25000000  1.0
  Cs  Cs1  1  0.00000000  0.00000000  0.75000000  1.0
  Cs  Cs2  1  0.33333333  0.66666667  0.43163220  1.0
  Cs  Cs3  1  0.33333333  0.66666667  0.06836780  1.0
  Cs  Cs4  1  0.66666667  0.33333333  0.93163220  1.0
  Cs  Cs5  1  0.66666667  0.33333333  0.56836780  1.0
  Mo  Mo6  1  0.33333333  0.66666667  0.82587638  1.0
  Mo  Mo7  1  0.33333333  0.66666667  0.67412362  1.0
  Mo  Mo8  1  0.66666667  0.33333333  0.32587638  1.0
  Mo  Mo9  1  0.66666667  0.33333333  0.17412362  1.0
  Cl  Cl10  1  0.18171047  0.81828953  0.90152480  1.0
  Cl  Cl11  1  0.18171047  0.81828953  0.59847520  1.0
  Cl  Cl12  1  0.18171047  0.36342094  0.90152480  1.0
  Cl  Cl13  1  0.18171047  0.36342094  0.59847520  1.0
  Cl  Cl14  1  0.81828953  0.18171047  0.40152480  1.0
  Cl  Cl15  1  0.81828953  0.18171047  0.09847520  1.0
  Cl  Cl16  1  0.81828953  0.63657906  0.40152480  1.0
  Cl  Cl17  1  0.81828953  0.63657906  0.09847520  1.0
  Cl  Cl18  1  0.63657906  0.81828953  0.90152480  1.0
  Cl  Cl19  1  0.63657906  0.81828953  0.59847520  1.0
  Cl  Cl20  1  0.36342094  0.18171047  0.40152480  1.0
  Cl  Cl21  1  0.36342094  0.18171047  0.09847520  1.0
  Cl  Cl22  1  0.50887743  0.49112257  0.25000000  1.0
  Cl  Cl23  1  0.50887743  1.01775486  0.25000000  1.0
  Cl  Cl24  1  0.49112257  0.50887743  0.75000000  1.0
  Cl  Cl25  1  0.49112257  -0.01775486  0.75000000  1.0
  Cl  Cl26  1  -0.01775486  0.49112257  0.25000000  1.0
  Cl  Cl27  1  1.01775486  0.50887743  0.75000000  1.0
