# generated using pymatgen
data_Tb(P3Ru)4
_symmetry_space_group_name_H-M   'P 1'
_cell_length_a   6.99752220
_cell_length_b   6.99752220
_cell_length_c   6.99752220
_cell_angle_alpha   109.47122063
_cell_angle_beta   109.47122063
_cell_angle_gamma   109.47122063
_symmetry_Int_Tables_number   1
_chemical_formula_structural   Tb(P3Ru)4
_chemical_formula_sum   'Tb1 P12 Ru4'
_cell_volume   263.76123235
_cell_formula_units_Z   1
loop_
 _symmetry_equiv_pos_site_id
 _symmetry_equiv_pos_as_xyz
  1  'x, y, z'
loop_
 _atom_site_type_symbol
 _atom_site_label
 _atom_site_symmetry_multiplicity
 _atom_site_fract_x
 _atom_site_fract_y
 _atom_site_fract_z
 _atom_site_occupancy
  Tb  Tb0  1  0.00000000  0.00000000  0.00000000  1.0
  P  P1  1  0.85663811  1.35683044  1.21346855  1.0
  P  P2  1  0.85663811  0.64316956  0.49980767  1.0
  P  P3  1  0.14336189  0.35683044  0.50019233  1.0
  P  P4  1  0.14336189  0.64316956  0.78653145  1.0
  P  P5  1  0.49980767  0.85663811  0.64316956  1.0
  P  P6  1  1.21346855  0.85663811  1.35683044  1.0
  P  P7  1  0.64316956  0.78653145  0.14336189  1.0
  P  P8  1  0.64316956  0.49980767  0.85663811  1.0
  P  P9  1  0.78653145  0.14336189  0.64316956  1.0
  P  P10  1  0.50019233  0.14336189  0.35683044  1.0
  P  P11  1  0.35683044  0.50019233  0.14336189  1.0
  P  P12  1  1.35683044  1.21346855  0.85663811  1.0
  Ru  Ru13  1  0.50000000  1.00000000  1.00000000  1.0
  Ru  Ru14  1  0.50000000  0.50000000  0.50000000  1.0
  Ru  Ru15  1  1.00000000  1.00000000  0.50000000  1.0
  Ru  Ru16  1  1.00000000  0.50000000  1.00000000  1.0
