# generated using pymatgen
data_MnGaNi2
_symmetry_space_group_name_H-M   'P 1'
_cell_length_a   10.99446788
_cell_length_b   10.99446788
_cell_length_c   4.30495586
_cell_angle_alpha   81.35233436
_cell_angle_beta   98.64766564
_cell_angle_gamma   151.70670178
_symmetry_Int_Tables_number   1
_chemical_formula_structural   MnGaNi2
_chemical_formula_sum   'Mn5 Ga5 Ni10'
_cell_volume   243.66722370
_cell_formula_units_Z   5
loop_
 _symmetry_equiv_pos_site_id
 _symmetry_equiv_pos_as_xyz
  1  'x, y, z'
loop_
 _atom_site_type_symbol
 _atom_site_label
 _atom_site_symmetry_multiplicity
 _atom_site_fract_x
 _atom_site_fract_y
 _atom_site_fract_z
 _atom_site_occupancy
  Mn  Mn0  1  0.80058175  -0.80058175  0.84220857  1.0
  Mn  Mn1  1  1.19941825  -0.19941825  0.15779143  1.0
  Mn  Mn2  1  0.60020503  -0.60020503  0.48417291  1.0
  Mn  Mn3  1  1.39979497  -0.39979497  0.51582709  1.0
  Mn  Mn4  1  0.00000000  0.00000000  0.00000000  1.0
  Ga  Ga5  1  0.69924391  -0.69924391  0.15552316  1.0
  Ga  Ga6  1  1.30075609  -0.30075609  0.84447684  1.0
  Ga  Ga7  1  1.10022046  -0.10022046  0.48269608  1.0
  Ga  Ga8  1  0.89977954  -0.89977954  0.51730392  1.0
  Ga  Ga9  1  0.50000000  0.50000000  0.00000000  1.0
  Ni  Ni10  1  1.45054490  0.04873202  0.65795279  1.0
  Ni  Ni11  1  0.95126798  -0.45054490  0.65795279  1.0
  Ni  Ni12  1  1.04873202  -0.54945510  0.34204721  1.0
  Ni  Ni13  1  1.54945510  -0.04873202  0.34204721  1.0
  Ni  Ni14  1  0.84959005  -0.35013436  -0.02624261  1.0
  Ni  Ni15  1  1.35013436  0.15040995  -0.02624261  1.0
  Ni  Ni16  1  1.64986564  -0.15040995  1.02624261  1.0
  Ni  Ni17  1  1.15040995  -0.64986564  1.02624261  1.0
  Ni  Ni18  1  0.24977994  0.24977994  0.50000000  1.0
  Ni  Ni19  1  0.75022006  0.75022006  0.50000000  1.0
