# generated using pymatgen
data_KY2Cl7
_symmetry_space_group_name_H-M   'P 1'
_cell_length_a   6.97081675
_cell_length_b   12.59866108
_cell_length_c   13.59809336
_cell_angle_alpha   90.00000000
_cell_angle_beta   86.67413366
_cell_angle_gamma   90.00000000
_symmetry_Int_Tables_number   1
_chemical_formula_structural   KY2Cl7
_chemical_formula_sum   'K4 Y8 Cl28'
_cell_volume   1192.21337733
_cell_formula_units_Z   4
loop_
 _symmetry_equiv_pos_site_id
 _symmetry_equiv_pos_as_xyz
  1  'x, y, z'
loop_
 _atom_site_type_symbol
 _atom_site_label
 _atom_site_symmetry_multiplicity
 _atom_site_fract_x
 _atom_site_fract_y
 _atom_site_fract_z
 _atom_site_occupancy
  K  K0  1  0.80125268  0.22193889  0.97847536  1.0
  K  K1  1  0.80125268  0.27806111  0.47847536  1.0
  K  K2  1  0.19874732  0.72193889  0.52152464  1.0
  K  K3  1  0.19874732  0.77806111  0.02152464  1.0
  Y  Y4  1  0.78277027  0.53898596  0.75790085  1.0
  Y  Y5  1  0.78277027  0.96101404  0.25790085  1.0
  Y  Y6  1  0.21722973  0.03898596  0.74209915  1.0
  Y  Y7  1  0.21722973  0.46101404  0.24209915  1.0
  Y  Y8  1  0.71635980  0.84291259  0.75541974  1.0
  Y  Y9  1  0.71635980  0.65708741  0.25541974  1.0
  Y  Y10  1  0.28364020  0.34291259  0.74458026  1.0
  Y  Y11  1  0.28364020  0.15708741  0.24458026  1.0
  Cl  Cl12  1  0.99306901  0.70893405  0.81715521  1.0
  Cl  Cl13  1  0.99306901  0.79106595  0.31715521  1.0
  Cl  Cl14  1  0.00693099  0.20893405  0.68284479  1.0
  Cl  Cl15  1  0.00693099  0.29106595  0.18284479  1.0
  Cl  Cl16  1  0.97335136  0.93659796  0.62607165  1.0
  Cl  Cl17  1  0.97335136  0.56340204  0.12607165  1.0
  Cl  Cl18  1  0.02664864  0.43659796  0.87392835  1.0
  Cl  Cl19  1  0.02664864  0.06340204  0.37392835  1.0
  Cl  Cl20  1  0.92132899  0.97753505  0.86793875  1.0
  Cl  Cl21  1  0.92132899  0.52246495  0.36793875  1.0
  Cl  Cl22  1  0.07867101  0.47753505  0.63206125  1.0
  Cl  Cl23  1  0.07867101  0.02246495  0.13206125  1.0
  Cl  Cl24  1  0.75582808  0.68984684  0.61251590  1.0
  Cl  Cl25  1  0.75582808  0.81015316  0.11251590  1.0
  Cl  Cl26  1  0.24417192  0.18984684  0.88748410  1.0
  Cl  Cl27  1  0.24417192  0.31015316  0.38748410  1.0
  Cl  Cl28  1  0.51513893  0.67583701  0.83335033  1.0
  Cl  Cl29  1  0.51513893  0.82416299  0.33335033  1.0
  Cl  Cl30  1  0.48486107  0.17583701  0.66664967  1.0
  Cl  Cl31  1  0.48486107  0.32416299  0.16664967  1.0
  Cl  Cl32  1  0.43867189  0.94125775  0.87200448  1.0
  Cl  Cl33  1  0.43867189  0.55874225  0.37200448  1.0
  Cl  Cl34  1  0.56132811  0.44125775  0.62799552  1.0
  Cl  Cl35  1  0.56132811  0.05874225  0.12799552  1.0
  Cl  Cl36  1  0.45162866  0.90621951  0.63059317  1.0
  Cl  Cl37  1  0.45162866  0.59378049  0.13059317  1.0
  Cl  Cl38  1  0.54837134  0.40621951  0.86940683  1.0
  Cl  Cl39  1  0.54837134  0.09378049  0.36940683  1.0
