# generated using pymatgen
data_Zr2Fe
_symmetry_space_group_name_H-M   'P 1'
_cell_length_a   8.58718204
_cell_length_b   8.58718204
_cell_length_c   8.58718204
_cell_angle_alpha   60.00000000
_cell_angle_beta   60.00000000
_cell_angle_gamma   60.00000000
_symmetry_Int_Tables_number   1
_chemical_formula_structural   Zr2Fe
_chemical_formula_sum   'Zr16 Fe8'
_cell_volume   447.75146069
_cell_formula_units_Z   8
loop_
 _symmetry_equiv_pos_site_id
 _symmetry_equiv_pos_as_xyz
  1  'x, y, z'
loop_
 _atom_site_type_symbol
 _atom_site_label
 _atom_site_symmetry_multiplicity
 _atom_site_fract_x
 _atom_site_fract_y
 _atom_site_fract_z
 _atom_site_occupancy
  Zr  Zr0  1  0.12500000  0.12500000  1.62500000  1.0
  Zr  Zr1  1  0.12500000  0.62500000  0.12500000  1.0
  Zr  Zr2  1  0.62500000  0.12500000  1.12500000  1.0
  Zr  Zr3  1  0.12500000  0.12500000  0.12500000  1.0
  Zr  Zr4  1  0.56163631  -0.43836369  0.93836369  1.0
  Zr  Zr5  1  0.93836369  -0.43836369  0.93836369  1.0
  Zr  Zr6  1  0.56163631  -0.06163631  0.93836369  1.0
  Zr  Zr7  1  0.93836369  -0.06163631  0.56163631  1.0
  Zr  Zr8  1  0.56163631  -0.06163631  0.56163631  1.0
  Zr  Zr9  1  0.93836369  -0.43836369  0.56163631  1.0
  Zr  Zr10  1  -0.31163631  0.68836369  0.31163631  1.0
  Zr  Zr11  1  0.31163631  0.68836369  0.31163631  1.0
  Zr  Zr12  1  -0.31163631  1.31163631  0.31163631  1.0
  Zr  Zr13  1  0.31163631  0.31163631  -0.31163631  1.0
  Zr  Zr14  1  0.68836369  0.31163631  0.68836369  1.0
  Zr  Zr15  1  0.31163631  0.68836369  -0.31163631  1.0
  Fe  Fe16  1  -0.09197332  0.90802668  0.27591996  1.0
  Fe  Fe17  1  0.90802668  -0.72408004  0.90802668  1.0
  Fe  Fe18  1  -0.72408004  0.90802668  0.90802668  1.0
  Fe  Fe19  1  0.90802668  -0.09197332  0.90802668  1.0
  Fe  Fe20  1  0.34197332  0.34197332  -0.02591996  1.0
  Fe  Fe21  1  0.34197332  -0.02591996  0.34197332  1.0
  Fe  Fe22  1  -0.02591996  0.34197332  0.34197332  1.0
  Fe  Fe23  1  0.34197332  0.34197332  0.34197332  1.0
