# generated using pymatgen
data_Ti2Tl(PO4)3
_symmetry_space_group_name_H-M   'P 1'
_cell_length_a   9.30593754
_cell_length_b   9.30593754
_cell_length_c   9.30593754
_cell_angle_alpha   54.07669072
_cell_angle_beta   54.07669072
_cell_angle_gamma   54.07669072
_symmetry_Int_Tables_number   1
_chemical_formula_structural   Ti2Tl(PO4)3
_chemical_formula_sum   'Ti4 Tl2 P6 O24'
_cell_volume   491.03682130
_cell_formula_units_Z   2
loop_
 _symmetry_equiv_pos_site_id
 _symmetry_equiv_pos_as_xyz
  1  'x, y, z'
loop_
 _atom_site_type_symbol
 _atom_site_label
 _atom_site_symmetry_multiplicity
 _atom_site_fract_x
 _atom_site_fract_y
 _atom_site_fract_z
 _atom_site_occupancy
  Ti  Ti0  1  0.84902088  -0.15097912  -0.15097912  1.0
  Ti  Ti1  1  0.34902088  0.34902088  0.34902088  1.0
  Ti  Ti2  1  0.65097912  0.65097912  -0.34902088  1.0
  Ti  Ti3  1  1.15097912  0.15097912  0.15097912  1.0
  Tl  Tl4  1  1.00000000  0.00000000  0.00000000  1.0
  Tl  Tl5  1  0.50000000  0.50000000  0.50000000  1.0
  P  P6  1  0.46960587  0.75000000  0.03039413  1.0
  P  P7  1  0.96960587  -0.46960587  0.25000000  1.0
  P  P8  1  0.25000000  0.96960587  -0.46960587  1.0
  P  P9  1  0.75000000  1.03039413  -0.53039413  1.0
  P  P10  1  0.53039413  0.25000000  -0.03039413  1.0
  P  P11  1  1.03039413  0.46960587  -0.25000000  1.0
  O  O12  1  0.69899026  0.06776528  -0.07000387  1.0
  O  O13  1  1.19899026  0.42999613  -0.43223472  1.0
  O  O14  1  0.57000387  0.43223472  -0.19899026  1.0
  O  O15  1  1.07000387  0.30100974  -0.06776528  1.0
  O  O16  1  0.93223472  0.07000387  0.30100974  1.0
  O  O17  1  0.43223472  0.80100974  -0.42999613  1.0
  O  O18  1  1.30100974  -0.06776528  0.07000387  1.0
  O  O19  1  0.80100974  0.57000387  -0.56776528  1.0
  O  O20  1  0.92999613  -0.30100974  0.06776528  1.0
  O  O21  1  0.42999613  0.56776528  0.19899026  1.0
  O  O22  1  0.56776528  1.19899026  -0.57000387  1.0
  O  O23  1  1.06776528  -0.07000387  -0.30100974  1.0
  O  O24  1  0.74109499  1.01098090  -0.34828165  1.0
  O  O25  1  1.24109499  0.15171835  -0.48901910  1.0
  O  O26  1  0.84828165  0.48901910  -0.24109499  1.0
  O  O27  1  0.34828165  0.25890501  -0.01098090  1.0
  O  O28  1  0.98901910  0.34828165  -0.74109499  1.0
  O  O29  1  0.48901910  0.75890501  -0.15171835  1.0
  O  O30  1  0.25890501  0.98901910  -0.65171835  1.0
  O  O31  1  0.75890501  0.84828165  -0.51098090  1.0
  O  O32  1  0.65171835  0.74109499  0.01098090  1.0
  O  O33  1  1.15171835  -0.48901910  0.24109499  1.0
  O  O34  1  0.51098090  0.24109499  0.15171835  1.0
  O  O35  1  1.01098090  0.65171835  -0.25890501  1.0
