# generated using pymatgen
data_CsNaTiF6
_symmetry_space_group_name_H-M   'P 1'
_cell_length_a   6.66325754
_cell_length_b   11.31048666
_cell_length_c   8.49596287
_cell_angle_alpha   90.00000000
_cell_angle_beta   90.00000000
_cell_angle_gamma   90.00000000
_symmetry_Int_Tables_number   1
_chemical_formula_structural   CsNaTiF6
_chemical_formula_sum   'Cs4 Na4 Ti4 F24'
_cell_volume   640.29557005
_cell_formula_units_Z   4
loop_
 _symmetry_equiv_pos_site_id
 _symmetry_equiv_pos_as_xyz
  1  'x, y, z'
loop_
 _atom_site_type_symbol
 _atom_site_label
 _atom_site_symmetry_multiplicity
 _atom_site_fract_x
 _atom_site_fract_y
 _atom_site_fract_z
 _atom_site_occupancy
  Cs  Cs0  1  0.17696505  0.25000000  0.50000000  1.0
  Cs  Cs1  1  0.17696505  0.25000000  -0.00000000  1.0
  Cs  Cs2  1  0.82303495  0.75000000  0.50000000  1.0
  Cs  Cs3  1  0.82303495  0.75000000  -0.00000000  1.0
  Na  Na4  1  0.70167157  0.07032294  0.25000000  1.0
  Na  Na5  1  0.70167157  0.42967706  0.75000000  1.0
  Na  Na6  1  0.29832843  0.57032294  0.25000000  1.0
  Na  Na7  1  0.29832843  0.92967706  0.75000000  1.0
  Ti  Ti8  1  0.73293787  0.41983240  0.25000000  1.0
  Ti  Ti9  1  0.73293787  0.08016760  0.75000000  1.0
  Ti  Ti10  1  0.26706213  0.91983240  0.25000000  1.0
  Ti  Ti11  1  0.26706213  0.58016760  0.75000000  1.0
  F  F12  1  0.73372282  0.42095703  0.47118308  1.0
  F  F13  1  0.73372282  0.42095703  0.02881692  1.0
  F  F14  1  0.73372282  0.07904297  0.97118308  1.0
  F  F15  1  0.73372282  0.07904297  0.52881692  1.0
  F  F16  1  0.26627718  0.92095703  0.47118308  1.0
  F  F17  1  0.26627718  0.92095703  0.02881692  1.0
  F  F18  1  0.26627718  0.57904297  0.97118308  1.0
  F  F19  1  0.26627718  0.57904297  0.52881692  1.0
  F  F20  1  1.00464052  0.46685996  0.25000000  1.0
  F  F21  1  1.00464052  0.03314004  0.75000000  1.0
  F  F22  1  -0.00464052  0.96685996  0.25000000  1.0
  F  F23  1  -0.00464052  0.53314004  0.75000000  1.0
  F  F24  1  0.81924721  0.26020650  0.25000000  1.0
  F  F25  1  0.81924721  0.23979350  0.75000000  1.0
  F  F26  1  0.18075279  0.76020650  0.25000000  1.0
  F  F27  1  0.18075279  0.73979350  0.75000000  1.0
  F  F28  1  0.45731649  0.37689646  0.25000000  1.0
  F  F29  1  0.45731649  0.12310354  0.75000000  1.0
  F  F30  1  0.54268351  0.87689646  0.25000000  1.0
  F  F31  1  0.54268351  0.62310354  0.75000000  1.0
  F  F32  1  0.34956510  0.08195905  0.25000000  1.0
  F  F33  1  0.34956510  0.41804095  0.75000000  1.0
  F  F34  1  0.65043490  0.58195905  0.25000000  1.0
  F  F35  1  0.65043490  0.91804095  0.75000000  1.0
