# generated using pymatgen
data_Be4Si2O9
_symmetry_space_group_name_H-M   'P 1'
_cell_length_a   8.36016950
_cell_length_b   8.36016950
_cell_length_c   4.68979955
_cell_angle_alpha   90.00000000
_cell_angle_beta   90.00000000
_cell_angle_gamma   119.63726150
_symmetry_Int_Tables_number   1
_chemical_formula_structural   Be4Si2O9
_chemical_formula_sum   'Be8 Si4 O18'
_cell_volume   284.89900483
_cell_formula_units_Z   2
loop_
 _symmetry_equiv_pos_site_id
 _symmetry_equiv_pos_as_xyz
  1  'x, y, z'
loop_
 _atom_site_type_symbol
 _atom_site_label
 _atom_site_symmetry_multiplicity
 _atom_site_fract_x
 _atom_site_fract_y
 _atom_site_fract_z
 _atom_site_occupancy
  O  O0  1  -0.05277744  0.71964766  0.60265328  1.0
  O  O1  1  0.71964766  0.94722256  0.10265328  1.0
  O  O2  1  0.28035234  1.05277744  0.60265328  1.0
  O  O3  1  0.05277744  0.28035234  0.10265328  1.0
  O  O4  1  0.29477126  0.39870097  0.66861982  1.0
  O  O5  1  0.39870097  1.29477126  0.16861982  1.0
  O  O6  1  0.60129903  0.70522874  0.66861982  1.0
  O  O7  1  -0.29477126  0.60129903  0.16861982  1.0
  O  O8  1  0.28091240  0.71908760  0.63568169  1.0
  O  O9  1  -0.28091240  0.28091240  0.13568169  1.0
  O  O10  1  -0.39681340  0.39681340  0.67880462  1.0
  O  O11  1  0.39681340  0.60318660  0.17880462  1.0
  O  O12  1  -0.03660343  0.41307627  0.54165681  1.0
  O  O13  1  0.41307627  0.96339657  0.04165681  1.0
  O  O14  1  0.58692373  1.03660343  0.54165681  1.0
  O  O15  1  0.03660343  0.58692373  0.04165681  1.0
  O  O16  1  0.03958518  0.96041482  0.17518885  1.0
  O  O17  1  -0.03958518  0.03958518  0.67518885  1.0
  Si  Si18  1  0.06068292  0.93931708  0.51526823  1.0
  Si  Si19  1  -0.06068292  0.06068292  0.01526823  1.0
  Si  Si20  1  0.38963492  0.61036508  0.53299532  1.0
  Si  Si21  1  -0.38963492  0.38963492  0.03299532  1.0
  Be  Be22  1  0.05524481  0.60853894  0.70253490  1.0
  Be  Be23  1  0.60853894  1.05524481  0.20253490  1.0
  Be  Be24  1  0.39146106  0.94475519  0.70253490  1.0
  Be  Be25  1  -0.05524481  0.39146106  0.20253490  1.0
  Be  Be26  1  -0.27518916  0.61048123  0.52806583  1.0
  Be  Be27  1  0.61048123  0.72481084  0.02806583  1.0
  Be  Be28  1  0.38951877  1.27518916  0.52806583  1.0
  Be  Be29  1  0.27518916  0.38951877  0.02806583  1.0
