# generated using pymatgen
data_Y2Re2Si2C
_symmetry_space_group_name_H-M   'P 1'
_cell_length_a   5.81562231
_cell_length_b   5.81562231
_cell_length_c   6.94074183
_cell_angle_alpha   55.25136572
_cell_angle_beta   124.74863428
_cell_angle_gamma   139.91069558
_symmetry_Int_Tables_number   1
_chemical_formula_structural   Y2Re2Si2C
_chemical_formula_sum   'Y2 Re2 Si2 C1'
_cell_volume   120.16786820
_cell_formula_units_Z   1
loop_
 _symmetry_equiv_pos_site_id
 _symmetry_equiv_pos_as_xyz
  1  'x, y, z'
loop_
 _atom_site_type_symbol
 _atom_site_label
 _atom_site_symmetry_multiplicity
 _atom_site_fract_x
 _atom_site_fract_y
 _atom_site_fract_z
 _atom_site_occupancy
  Y  Y0  1  1.42765238  -0.42765238  0.70015003  1.0
  Y  Y1  1  0.57234762  0.42765238  0.29984997  1.0
  Re  Re2  1  0.79302831  0.20697169  0.90860150  1.0
  Re  Re3  1  1.20697169  -0.20697169  0.09139850  1.0
  Si  Si4  1  0.85804292  -0.85804292  0.31841756  1.0
  Si  Si5  1  0.14195708  -0.14195708  0.68158244  1.0
  C  C6  1  0.00000000  0.00000000  0.00000000  1.0
