# generated using pymatgen
data_NiP
_symmetry_space_group_name_H-M   'P 1'
_cell_length_a   4.93915830
_cell_length_b   17.14909177
_cell_length_c   5.96744852
_cell_angle_alpha   90.00000000
_cell_angle_beta   90.00000000
_cell_angle_gamma   90.00000000
_symmetry_Int_Tables_number   1
_chemical_formula_structural   NiP
_chemical_formula_sum   'Ni20 P20'
_cell_volume   505.45529553
_cell_formula_units_Z   20
loop_
 _symmetry_equiv_pos_site_id
 _symmetry_equiv_pos_as_xyz
  1  'x, y, z'
loop_
 _atom_site_type_symbol
 _atom_site_label
 _atom_site_symmetry_multiplicity
 _atom_site_fract_x
 _atom_site_fract_y
 _atom_site_fract_z
 _atom_site_occupancy
  Ni  Ni0  1  0.48292603  0.45979504  0.69210800  1.0
  Ni  Ni1  1  0.48292603  0.04020496  0.69210800  1.0
  Ni  Ni2  1  0.98292603  0.45979504  0.80789200  1.0
  Ni  Ni3  1  0.98292603  0.04020496  0.80789200  1.0
  Ni  Ni4  1  0.51707397  0.95979504  0.30789200  1.0
  Ni  Ni5  1  0.51707397  0.54020496  0.30789200  1.0
  Ni  Ni6  1  0.01707397  0.95979504  0.19210800  1.0
  Ni  Ni7  1  0.01707397  0.54020496  0.19210800  1.0
  Ni  Ni8  1  0.47019139  0.33615913  0.19327844  1.0
  Ni  Ni9  1  0.47019139  0.16384087  0.19327844  1.0
  Ni  Ni10  1  0.97019139  0.33615913  0.30672156  1.0
  Ni  Ni11  1  0.97019139  0.16384087  0.30672156  1.0
  Ni  Ni12  1  0.52980861  0.83615913  0.80672156  1.0
  Ni  Ni13  1  0.52980861  0.66384087  0.80672156  1.0
  Ni  Ni14  1  0.02980861  0.83615913  0.69327844  1.0
  Ni  Ni15  1  0.02980861  0.66384087  0.69327844  1.0
  Ni  Ni16  1  0.49934808  0.25000000  0.80293591  1.0
  Ni  Ni17  1  0.99934808  0.25000000  0.69706409  1.0
  Ni  Ni18  1  0.50065192  0.75000000  0.19706409  1.0
  Ni  Ni19  1  0.00065192  0.75000000  0.30293591  1.0
  P  P20  1  0.32807044  0.45367988  0.05739747  1.0
  P  P21  1  0.32807044  0.04632012  0.05739747  1.0
  P  P22  1  0.82807044  0.45367988  0.44260253  1.0
  P  P23  1  0.82807044  0.04632012  0.44260253  1.0
  P  P24  1  0.67192956  0.95367988  0.94260253  1.0
  P  P25  1  0.67192956  0.54632012  0.94260253  1.0
  P  P26  1  0.17192956  0.95367988  0.55739747  1.0
  P  P27  1  0.17192956  0.54632012  0.55739747  1.0
  P  P28  1  0.30350669  0.34643786  0.56394292  1.0
  P  P29  1  0.30350669  0.15356214  0.56394292  1.0
  P  P30  1  0.80350669  0.34643786  0.93605708  1.0
  P  P31  1  0.80350669  0.15356214  0.93605708  1.0
  P  P32  1  0.69649331  0.84643786  0.43605708  1.0
  P  P33  1  0.69649331  0.65356214  0.43605708  1.0
  P  P34  1  0.19649331  0.84643786  0.06394292  1.0
  P  P35  1  0.19649331  0.65356214  0.06394292  1.0
  P  P36  1  0.15775192  0.25000000  0.06077727  1.0
  P  P37  1  0.65775192  0.25000000  0.43922273  1.0
  P  P38  1  0.84224808  0.75000000  0.93922273  1.0
  P  P39  1  0.34224808  0.75000000  0.56077727  1.0
