# generated using pymatgen
data_BaGa4
_symmetry_space_group_name_H-M   'P 1'
_cell_length_a   6.31735871
_cell_length_b   6.31735871
_cell_length_c   6.31735871
_cell_angle_alpha   136.99236836
_cell_angle_beta   136.99236836
_cell_angle_gamma   62.44979261
_symmetry_Int_Tables_number   1
_chemical_formula_structural   BaGa4
_chemical_formula_sum   'Ba1 Ga4'
_cell_volume   115.87801981
_cell_formula_units_Z   1
loop_
 _symmetry_equiv_pos_site_id
 _symmetry_equiv_pos_as_xyz
  1  'x, y, z'
loop_
 _atom_site_type_symbol
 _atom_site_label
 _atom_site_symmetry_multiplicity
 _atom_site_fract_x
 _atom_site_fract_y
 _atom_site_fract_z
 _atom_site_occupancy
  Ba  Ba0  1  0.00000000  0.00000000  0.00000000  1.0
  Ga  Ga1  1  0.62175496  0.62175496  1.00000000  1.0
  Ga  Ga2  1  0.37824504  0.37824504  0.00000000  1.0
  Ga  Ga3  1  0.25000000  0.75000000  0.50000000  1.0
  Ga  Ga4  1  0.75000000  0.25000000  0.50000000  1.0
