# generated using pymatgen
data_KFe2H(SeO3)4
_symmetry_space_group_name_H-M   'P 1'
_cell_length_a   10.27641539
_cell_length_b   5.36513469
_cell_length_c   10.78998110
_cell_angle_alpha   90.00000000
_cell_angle_beta   96.65240725
_cell_angle_gamma   90.00000000
_symmetry_Int_Tables_number   1
_chemical_formula_structural   KFe2H(SeO3)4
_chemical_formula_sum   'K2 Fe4 H2 Se8 O24'
_cell_volume   590.89330142
_cell_formula_units_Z   2
loop_
 _symmetry_equiv_pos_site_id
 _symmetry_equiv_pos_as_xyz
  1  'x, y, z'
loop_
 _atom_site_type_symbol
 _atom_site_label
 _atom_site_symmetry_multiplicity
 _atom_site_fract_x
 _atom_site_fract_y
 _atom_site_fract_z
 _atom_site_occupancy
  O  O0  1  0.57684368  0.35230943  0.77466035  1.0
  O  O1  1  0.42315632  0.35230943  0.22533965  1.0
  O  O2  1  0.42738241  -0.00351166  0.86064880  1.0
  O  O3  1  0.57261759  -0.00351166  0.13935120  1.0
  O  O4  1  0.89789661  0.78193285  0.69995677  1.0
  O  O5  1  0.10210339  0.78193285  0.30004323  1.0
  O  O6  1  0.17955852  0.75821582  0.83911981  1.0
  O  O7  1  0.82044148  0.75821582  0.16088019  1.0
  O  O8  1  0.85694017  0.25467738  0.76998447  1.0
  O  O9  1  0.14305983  0.25467738  0.23001553  1.0
  O  O10  1  0.92869560  0.12807196  0.34382384  1.0
  O  O11  1  0.07130440  0.12807196  0.65617616  1.0
  O  O12  1  0.78577103  0.63972223  0.92401876  1.0
  O  O13  1  0.21422897  0.63972223  0.07598124  1.0
  O  O14  1  0.69200183  0.48515609  0.55788585  1.0
  O  O15  1  0.30799817  0.48515609  0.44211415  1.0
  O  O16  1  0.19567043  0.27391487  0.90360392  1.0
  O  O17  1  0.80432957  0.27391487  0.09639608  1.0
  O  O18  1  0.32875419  0.36076656  0.68115998  1.0
  O  O19  1  0.67124581  0.36076656  0.31884002  1.0
  O  O20  1  0.69771380  0.84632407  0.38768694  1.0
  O  O21  1  0.30228620  0.84632407  0.61231306  1.0
  O  O22  1  0.61702147  0.86386223  0.71962369  1.0
  O  O23  1  0.38297853  0.86386223  0.28037631  1.0
  Fe  Fe24  1  0.24161115  0.05454336  0.75734203  1.0
  Fe  Fe25  1  0.75838885  0.05454336  0.24265797  1.0
  Fe  Fe26  1  0.75350491  0.57511280  0.73906703  1.0
  Fe  Fe27  1  0.24649509  0.57511280  0.26093297  1.0
  H  H28  1  0.48291961  0.38239167  0.73518845  1.0
  H  H29  1  0.51708039  0.38239167  0.26481155  1.0
  Se  Se30  1  0.90445346  0.08612575  0.64566271  1.0
  Se  Se31  1  0.09554654  0.08612575  0.35433729  1.0
  Se  Se32  1  0.76425501  0.55896511  0.42508996  1.0
  Se  Se33  1  0.23574499  0.55896511  0.57491004  1.0
  Se  Se34  1  0.58802726  0.03829668  0.84573621  1.0
  Se  Se35  1  0.41197274  0.03829668  0.15426379  1.0
  Se  Se36  1  0.27292549  0.55334623  0.93786562  1.0
  Se  Se37  1  0.72707451  0.55334623  0.06213438  1.0
  K  K38  1  0.50000000  0.07550662  0.50000000  1.0
  K  K39  1  0.00000000  0.00294656  0.00000000  1.0
