# generated using pymatgen
data_Nb6Co7
_symmetry_space_group_name_H-M   'P 1'
_cell_length_a   9.09466401
_cell_length_b   9.09466401
_cell_length_c   9.09466401
_cell_angle_alpha   31.09618727
_cell_angle_beta   31.09618727
_cell_angle_gamma   31.09618727
_symmetry_Int_Tables_number   1
_chemical_formula_structural   Nb6Co7
_chemical_formula_sum   'Nb6 Co7'
_cell_volume   178.03502898
_cell_formula_units_Z   1
loop_
 _symmetry_equiv_pos_site_id
 _symmetry_equiv_pos_as_xyz
  1  'x, y, z'
loop_
 _atom_site_type_symbol
 _atom_site_label
 _atom_site_symmetry_multiplicity
 _atom_site_fract_x
 _atom_site_fract_y
 _atom_site_fract_z
 _atom_site_occupancy
  Co  Co0  1  1.41006016  0.41006016  0.90704919  1.0
  Co  Co1  1  1.41006016  0.90704919  0.41006016  1.0
  Co  Co2  1  1.09295081  0.58993984  0.58993984  1.0
  Co  Co3  1  1.58993984  0.09295081  0.58993984  1.0
  Co  Co4  1  1.58993984  0.58993984  0.09295081  1.0
  Co  Co5  1  0.90704919  1.41006016  0.41006016  1.0
  Co  Co6  1  1.50000000  0.50000000  0.50000000  1.0
  Nb  Nb7  1  0.66563052  0.66563052  0.66563052  1.0
  Nb  Nb8  1  1.33436948  1.33436948  0.33436948  1.0
  Nb  Nb9  1  0.94952339  0.94952339  0.94952339  1.0
  Nb  Nb10  1  1.05047661  1.05047661  0.05047661  1.0
  Nb  Nb11  1  0.84436122  0.84436122  0.84436122  1.0
  Nb  Nb12  1  1.15563878  1.15563878  0.15563878  1.0
