# generated using pymatgen
data_CsReF6
_symmetry_space_group_name_H-M   'P 1'
_cell_length_a   5.49553330
_cell_length_b   5.49553330
_cell_length_c   5.49553330
_cell_angle_alpha   96.61547125
_cell_angle_beta   96.61547125
_cell_angle_gamma   96.61547125
_symmetry_Int_Tables_number   1
_chemical_formula_structural   CsReF6
_chemical_formula_sum   'Cs1 Re1 F6'
_cell_volume   162.37302424
_cell_formula_units_Z   1
loop_
 _symmetry_equiv_pos_site_id
 _symmetry_equiv_pos_as_xyz
  1  'x, y, z'
loop_
 _atom_site_type_symbol
 _atom_site_label
 _atom_site_symmetry_multiplicity
 _atom_site_fract_x
 _atom_site_fract_y
 _atom_site_fract_z
 _atom_site_occupancy
  Cs  Cs0  1  0.50000000  0.50000000  0.50000000  1.0
  Re  Re1  1  0.00000000  0.00000000  0.00000000  1.0
  F  F2  1  0.76834954  0.74593955  0.08401565  1.0
  F  F3  1  1.25406045  -0.08401565  0.23165046  1.0
  F  F4  1  0.91598435  0.23165046  0.25406045  1.0
  F  F5  1  1.23165046  0.25406045  -0.08401565  1.0
  F  F6  1  0.74593955  1.08401565  -0.23165046  1.0
  F  F7  1  1.08401565  0.76834954  -0.25406045  1.0
