# generated using pymatgen
data_Ca2NF2
_symmetry_space_group_name_H-M   'P 1'
_cell_length_a   7.89745051
_cell_length_b   7.89745051
_cell_length_c   7.89745152
_cell_angle_alpha   128.83455574
_cell_angle_beta   128.83455573
_cell_angle_gamma   75.27693088
_symmetry_Int_Tables_number   1
_chemical_formula_structural   Ca2NF2
_chemical_formula_sum   'Ca8 N4 F8'
_cell_volume   290.91965422
_cell_formula_units_Z   4
loop_
 _symmetry_equiv_pos_site_id
 _symmetry_equiv_pos_as_xyz
  1  'x, y, z'
loop_
 _atom_site_type_symbol
 _atom_site_label
 _atom_site_symmetry_multiplicity
 _atom_site_fract_x
 _atom_site_fract_y
 _atom_site_fract_z
 _atom_site_occupancy
  Ca  Ca0  1  0.63907651  -0.10184348  0.74092000  1.0
  Ca  Ca1  1  0.59276346  0.35184348  0.24091998  1.0
  Ca  Ca2  1  0.15723654  -0.10184348  0.25908002  1.0
  Ca  Ca3  1  1.11092349  0.35184348  0.75908000  1.0
  Ca  Ca4  1  1.10184348  0.84276346  0.74091998  1.0
  Ca  Ca5  1  0.64815652  0.88907651  1.24092000  1.0
  Ca  Ca6  1  1.10184348  1.36092349  1.25908000  1.0
  Ca  Ca7  1  0.64815652  0.40723654  0.75908002  1.0
  N  N8  1  0.37500000  0.12500000  0.25000000  1.0
  N  N9  1  0.87500000  0.12500000  0.75000000  1.0
  N  N10  1  0.87500000  1.12500000  1.25000000  1.0
  N  N11  1  0.87500000  0.62500000  0.75000000  1.0
  F  F12  1  1.50577886  0.71948381  0.78629505  1.0
  F  F13  1  0.81681123  0.53051619  1.28629504  1.0
  F  F14  1  0.93318877  0.71948381  0.21370496  1.0
  F  F15  1  0.24422114  0.53051619  0.71370495  1.0
  F  F16  1  0.28051619  0.06681123  0.78629504  1.0
  F  F17  1  0.46948381  0.75577886  0.28629505  1.0
  F  F18  1  0.28051619  0.49422114  1.21370495  1.0
  F  F19  1  0.46948381  1.18318877  0.71370496  1.0
