# generated using pymatgen
data_CsNb(PO4)2
_symmetry_space_group_name_H-M   'P 1'
_cell_length_a   4.98534732
_cell_length_b   9.02489245
_cell_length_c   19.13830084
_cell_angle_alpha   90.00000000
_cell_angle_beta   99.20127891
_cell_angle_gamma   90.00000000
_symmetry_Int_Tables_number   1
_chemical_formula_structural   CsNb(PO4)2
_chemical_formula_sum   'Cs4 Nb4 P8 O32'
_cell_volume   849.99499650
_cell_formula_units_Z   4
loop_
 _symmetry_equiv_pos_site_id
 _symmetry_equiv_pos_as_xyz
  1  'x, y, z'
loop_
 _atom_site_type_symbol
 _atom_site_label
 _atom_site_symmetry_multiplicity
 _atom_site_fract_x
 _atom_site_fract_y
 _atom_site_fract_z
 _atom_site_occupancy
  Cs  Cs0  1  0.82987747  0.21072348  0.05913638  1.0
  Cs  Cs1  1  0.82987747  0.28927652  0.55913638  1.0
  Cs  Cs2  1  0.17012253  0.71072348  0.44086362  1.0
  Cs  Cs3  1  0.17012253  0.78927652  0.94086362  1.0
  Nb  Nb4  1  0.65895393  0.05611403  0.33120123  1.0
  Nb  Nb5  1  0.65895393  0.44388597  0.83120123  1.0
  Nb  Nb6  1  0.34104607  0.55611403  0.16879877  1.0
  Nb  Nb7  1  0.34104607  0.94388597  0.66879877  1.0
  P  P8  1  0.87126491  0.38043011  0.25750968  1.0
  P  P9  1  0.87126491  0.11956989  0.75750968  1.0
  P  P10  1  0.12873509  0.88043011  0.24249032  1.0
  P  P11  1  0.12873509  0.61956989  0.74249032  1.0
  P  P12  1  0.81384894  0.78342225  0.10882525  1.0
  P  P13  1  0.81384894  0.71657775  0.60882525  1.0
  P  P14  1  0.18615106  0.28342225  0.39117475  1.0
  P  P15  1  0.18615106  0.21657775  0.89117475  1.0
  O  O16  1  0.97436539  0.15778487  0.39493835  1.0
  O  O17  1  0.97436539  0.34221513  0.89493835  1.0
  O  O18  1  0.02563461  0.65778487  0.10506165  1.0
  O  O19  1  0.02563461  0.84221513  0.60506165  1.0
  O  O20  1  0.96941722  0.90969654  0.16286230  1.0
  O  O21  1  0.96941722  0.59030346  0.66286230  1.0
  O  O22  1  0.03058278  0.40969654  0.33713770  1.0
  O  O23  1  0.03058278  0.09030346  0.83713770  1.0
  O  O24  1  0.93022551  0.91866503  0.29416096  1.0
  O  O25  1  0.93022551  0.58133497  0.79416096  1.0
  O  O26  1  0.06977449  0.41866503  0.20583904  1.0
  O  O27  1  0.06977449  0.08133497  0.70583904  1.0
  O  O28  1  0.78104015  0.21990966  0.25065827  1.0
  O  O29  1  0.78104015  0.28009034  0.75065827  1.0
  O  O30  1  0.21895985  0.71990966  0.24934173  1.0
  O  O31  1  0.21895985  0.78009034  0.74934173  1.0
  O  O32  1  0.63508943  0.49396602  0.24969353  1.0
  O  O33  1  0.63508943  0.00603398  0.74969353  1.0
  O  O34  1  0.36491057  0.99396602  0.25030647  1.0
  O  O35  1  0.36491057  0.50603398  0.75030647  1.0
  O  O36  1  0.58740235  0.93272642  0.39524850  1.0
  O  O37  1  0.58740235  0.56727358  0.89524850  1.0
  O  O38  1  0.41259765  0.43272642  0.10475150  1.0
  O  O39  1  0.41259765  0.06727358  0.60475150  1.0
  O  O40  1  0.41747395  0.22398879  0.35336328  1.0
  O  O41  1  0.41747395  0.27601121  0.85336328  1.0
  O  O42  1  0.58252605  0.72398879  0.14663672  1.0
  O  O43  1  0.58252605  0.77601121  0.64663672  1.0
  O  O44  1  0.27575943  0.36036843  0.46022201  1.0
  O  O45  1  0.27575943  0.13963157  0.96022201  1.0
  O  O46  1  0.72424057  0.86036843  0.03977799  1.0
  O  O47  1  0.72424057  0.63963157  0.53977799  1.0
