# generated using pymatgen
data_Ba8Sb4H2O
_symmetry_space_group_name_H-M   'P 1'
_cell_length_a   19.38077908
_cell_length_b   19.38077908
_cell_length_c   19.38077908
_cell_angle_alpha   164.46086994
_cell_angle_beta   164.46086994
_cell_angle_gamma   22.04407129
_symmetry_Int_Tables_number   1
_chemical_formula_structural   Ba8Sb4H2O
_chemical_formula_sum   'Ba8 Sb4 H2 O1'
_cell_volume   522.36281679
_cell_formula_units_Z   1
loop_
 _symmetry_equiv_pos_site_id
 _symmetry_equiv_pos_as_xyz
  1  'x, y, z'
loop_
 _atom_site_type_symbol
 _atom_site_label
 _atom_site_symmetry_multiplicity
 _atom_site_fract_x
 _atom_site_fract_y
 _atom_site_fract_z
 _atom_site_occupancy
  Ba  Ba0  1  0.91512561  0.91512561  1.00000000  1.0
  Ba  Ba1  1  0.08487439  0.08487439  0.00000000  1.0
  Ba  Ba2  1  0.65945804  0.65945804  1.00000000  1.0
  Ba  Ba3  1  0.34054196  0.34054196  0.00000000  1.0
  Ba  Ba4  1  0.25000000  0.75000000  0.50000000  1.0
  Ba  Ba5  1  0.75000000  0.25000000  0.50000000  1.0
  Ba  Ba6  1  0.50000000  0.00000000  0.50000000  1.0
  Ba  Ba7  1  0.00000000  0.50000000  0.50000000  1.0
  Sb  Sb8  1  0.82000986  0.82000986  1.00000000  1.0
  Sb  Sb9  1  0.17999014  0.17999014  -0.00000000  1.0
  Sb  Sb10  1  0.56703596  0.56703596  1.00000000  1.0
  Sb  Sb11  1  0.43296404  0.43296404  -0.00000000  1.0
  H  H12  1  0.72900679  0.72900679  1.00000000  1.0
  H  H13  1  0.27099321  0.27099321  -0.00000000  1.0
  O  O14  1  0.00000000  0.00000000  0.00000000  1.0
