# generated using pymatgen
data_MgSe2O5
_symmetry_space_group_name_H-M   'P 1'
_cell_length_a   6.92831987
_cell_length_b   10.52025302
_cell_length_c   6.15104349
_cell_angle_alpha   90.00000000
_cell_angle_beta   90.00000000
_cell_angle_gamma   90.00000000
_symmetry_Int_Tables_number   1
_chemical_formula_structural   MgSe2O5
_chemical_formula_sum   'Mg4 Se8 O20'
_cell_volume   448.33527769
_cell_formula_units_Z   4
loop_
 _symmetry_equiv_pos_site_id
 _symmetry_equiv_pos_as_xyz
  1  'x, y, z'
loop_
 _atom_site_type_symbol
 _atom_site_label
 _atom_site_symmetry_multiplicity
 _atom_site_fract_x
 _atom_site_fract_y
 _atom_site_fract_z
 _atom_site_occupancy
  Mg  Mg0  1  0.50000000  0.06148504  0.75000000  1.0
  Mg  Mg1  1  0.50000000  0.93851496  0.25000000  1.0
  Mg  Mg2  1  0.00000000  0.56148504  0.75000000  1.0
  Mg  Mg3  1  0.00000000  0.43851496  0.25000000  1.0
  Se  Se4  1  0.36337105  0.34574417  0.53492072  1.0
  Se  Se5  1  0.36337105  0.65425583  0.03492072  1.0
  Se  Se6  1  0.86337105  0.84574417  0.96507928  1.0
  Se  Se7  1  0.86337105  0.15425583  0.46507928  1.0
  Se  Se8  1  0.63662895  0.34574417  0.96507928  1.0
  Se  Se9  1  0.63662895  0.65425583  0.46507928  1.0
  Se  Se10  1  0.13662895  0.84574417  0.53492072  1.0
  Se  Se11  1  0.13662895  0.15425583  0.03492072  1.0
  O  O12  1  0.30615721  0.20919940  0.66405561  1.0
  O  O13  1  0.30615721  0.79080060  0.16405561  1.0
  O  O14  1  0.80615721  0.70919940  0.83594439  1.0
  O  O15  1  0.80615721  0.29080060  0.33594439  1.0
  O  O16  1  0.69384279  0.20919940  0.83594439  1.0
  O  O17  1  0.69384279  0.79080060  0.33594439  1.0
  O  O18  1  0.19384279  0.70919940  0.66405561  1.0
  O  O19  1  0.19384279  0.29080060  0.16405561  1.0
  O  O20  1  0.15441967  0.43262994  0.54964347  1.0
  O  O21  1  0.15441967  0.56737006  0.04964347  1.0
  O  O22  1  0.65441967  0.93262994  0.95035653  1.0
  O  O23  1  0.65441967  0.06737006  0.45035653  1.0
  O  O24  1  0.84558033  0.43262994  0.95035653  1.0
  O  O25  1  0.84558033  0.56737006  0.45035653  1.0
  O  O26  1  0.34558033  0.93262994  0.54964347  1.0
  O  O27  1  0.34558033  0.06737006  0.04964347  1.0
  O  O28  1  0.50000000  0.43354059  0.75000000  1.0
  O  O29  1  0.50000000  0.56645941  0.25000000  1.0
  O  O30  1  0.00000000  0.93354059  0.75000000  1.0
  O  O31  1  0.00000000  0.06645941  0.25000000  1.0
