# generated using pymatgen
data_Ba4Ta2O9
_symmetry_space_group_name_H-M   'P 1'
_cell_length_a   5.98854091
_cell_length_b   5.98854091
_cell_length_c   8.36754972
_cell_angle_alpha   90.00000000
_cell_angle_beta   90.00000000
_cell_angle_gamma   120.00000000
_symmetry_Int_Tables_number   1
_chemical_formula_structural   Ba4Ta2O9
_chemical_formula_sum   'Ba4 Ta2 O9'
_cell_volume   259.87887313
_cell_formula_units_Z   1
loop_
 _symmetry_equiv_pos_site_id
 _symmetry_equiv_pos_as_xyz
  1  'x, y, z'
loop_
 _atom_site_type_symbol
 _atom_site_label
 _atom_site_symmetry_multiplicity
 _atom_site_fract_x
 _atom_site_fract_y
 _atom_site_fract_z
 _atom_site_occupancy
  Ba  Ba0  1  0.33333333  0.66666667  0.74353544  1.0
  Ba  Ba1  1  0.66666667  0.33333333  0.25646456  1.0
  Ba  Ba2  1  -0.00000000  -0.00000000  0.50000000  1.0
  Ba  Ba3  1  0.00000000  0.00000000  0.00000000  1.0
  Ta  Ta4  1  0.33333333  0.66666667  0.16066862  1.0
  Ta  Ta5  1  0.66666667  0.33333333  0.83933138  1.0
  O  O6  1  0.64964242  0.82482121  0.27570394  1.0
  O  O7  1  0.82482121  0.64964242  0.72429606  1.0
  O  O8  1  0.82482121  0.17517879  0.72429606  1.0
  O  O9  1  0.17517879  0.82482121  0.27570394  1.0
  O  O10  1  0.17517879  0.35035758  0.27570394  1.0
  O  O11  1  0.35035758  0.17517879  0.72429606  1.0
  O  O12  1  0.50000000  0.50000000  -0.00000000  1.0
  O  O13  1  0.50000000  -0.00000000  0.00000000  1.0
  O  O14  1  -0.00000000  0.50000000  0.00000000  1.0
