# generated using pymatgen
data_TaMn2
_symmetry_space_group_name_H-M   'P 1'
_cell_length_a   4.80266487
_cell_length_b   4.80266487
_cell_length_c   7.90067785
_cell_angle_alpha   90.00000000
_cell_angle_beta   90.00000000
_cell_angle_gamma   120.00000000
_symmetry_Int_Tables_number   1
_chemical_formula_structural   TaMn2
_chemical_formula_sum   'Ta4 Mn8'
_cell_volume   157.81909591
_cell_formula_units_Z   4
loop_
 _symmetry_equiv_pos_site_id
 _symmetry_equiv_pos_as_xyz
  1  'x, y, z'
loop_
 _atom_site_type_symbol
 _atom_site_label
 _atom_site_symmetry_multiplicity
 _atom_site_fract_x
 _atom_site_fract_y
 _atom_site_fract_z
 _atom_site_occupancy
  Ta  Ta0  1  0.33333333  0.66666667  0.93636268  1.0
  Ta  Ta1  1  0.33333333  0.66666667  0.56363732  1.0
  Ta  Ta2  1  0.66666667  0.33333333  0.43636268  1.0
  Ta  Ta3  1  0.66666667  0.33333333  0.06363732  1.0
  Mn  Mn4  1  0.17175331  0.82824669  0.25000000  1.0
  Mn  Mn5  1  0.17175331  0.34350663  0.25000000  1.0
  Mn  Mn6  1  0.82824669  0.17175331  0.75000000  1.0
  Mn  Mn7  1  0.82824669  0.65649337  0.75000000  1.0
  Mn  Mn8  1  0.65649337  0.82824669  0.25000000  1.0
  Mn  Mn9  1  0.34350663  0.17175331  0.75000000  1.0
  Mn  Mn10  1  -0.00000000  0.00000000  0.50000000  1.0
  Mn  Mn11  1  0.00000000  -0.00000000  -0.00000000  1.0
