# generated using pymatgen
data_CSeN2
_symmetry_space_group_name_H-M   'P 1'
_cell_length_a   9.96680221
_cell_length_b   5.08215562
_cell_length_c   6.79036219
_cell_angle_alpha   90.00000000
_cell_angle_beta   90.00000000
_cell_angle_gamma   90.00000000
_symmetry_Int_Tables_number   1
_chemical_formula_structural   CSeN2
_chemical_formula_sum   'C4 Se4 N8'
_cell_volume   343.95112852
_cell_formula_units_Z   4
loop_
 _symmetry_equiv_pos_site_id
 _symmetry_equiv_pos_as_xyz
  1  'x, y, z'
loop_
 _atom_site_type_symbol
 _atom_site_label
 _atom_site_symmetry_multiplicity
 _atom_site_fract_x
 _atom_site_fract_y
 _atom_site_fract_z
 _atom_site_occupancy
  C  C0  1  0.38124514  0.25000000  0.60995171  1.0
  C  C1  1  0.88124514  0.25000000  0.89004829  1.0
  C  C2  1  0.61875486  0.75000000  0.39004829  1.0
  C  C3  1  0.11875486  0.75000000  0.10995171  1.0
  Se  Se4  1  -0.15786110  0.25000000  0.14268935  1.0
  Se  Se5  1  0.34213890  0.25000000  0.35731065  1.0
  Se  Se6  1  1.15786110  0.75000000  0.85731065  1.0
  Se  Se7  1  0.65786110  0.75000000  0.64268935  1.0
  N  N8  1  0.41130465  0.38043328  0.78289450  1.0
  N  N9  1  0.41130465  0.11956672  0.78289450  1.0
  N  N10  1  0.91130465  0.38043328  0.71710550  1.0
  N  N11  1  0.91130465  0.11956672  0.71710550  1.0
  N  N12  1  0.58869535  0.88043328  0.21710550  1.0
  N  N13  1  0.58869535  0.61956672  0.21710550  1.0
  N  N14  1  0.08869535  0.88043328  0.28289450  1.0
  N  N15  1  0.08869535  0.61956672  0.28289450  1.0
