# generated using pymatgen
data_V2Pb2Se2O11
_symmetry_space_group_name_H-M   'P 1'
_cell_length_a   6.96517449
_cell_length_b   10.08112657
_cell_length_c   7.29329414
_cell_angle_alpha   97.32266220
_cell_angle_beta   95.31460778
_cell_angle_gamma   93.11386030
_symmetry_Int_Tables_number   1
_chemical_formula_structural   V2Pb2Se2O11
_chemical_formula_sum   'V4 Pb4 Se4 O22'
_cell_volume   504.61653778
_cell_formula_units_Z   2
loop_
 _symmetry_equiv_pos_site_id
 _symmetry_equiv_pos_as_xyz
  1  'x, y, z'
loop_
 _atom_site_type_symbol
 _atom_site_label
 _atom_site_symmetry_multiplicity
 _atom_site_fract_x
 _atom_site_fract_y
 _atom_site_fract_z
 _atom_site_occupancy
  V  V0  1  -0.83879754  -0.55090960  -0.83817025  1.0
  V  V1  1  -0.16120246  -0.44909040  -0.16182975  1.0
  V  V2  1  -0.82839220  -0.25155260  -0.94489519  1.0
  V  V3  1  -0.17160780  -0.74844740  -0.05510481  1.0
  Pb  Pb4  1  -0.68098527  -0.88813486  -0.14612482  1.0
  Pb  Pb5  1  -0.31901473  -0.11186514  -0.85387518  1.0
  Pb  Pb6  1  -0.37345866  -0.75149348  -0.54796251  1.0
  Pb  Pb7  1  -0.62654134  -0.24850652  -0.45203749  1.0
  Se  Se8  1  -0.84533058  -0.59950151  -0.40488920  1.0
  Se  Se9  1  -0.15466942  -0.40049849  -0.59511080  1.0
  Se  Se10  1  -0.83267113  -0.95636462  -0.66354906  1.0
  Se  Se11  1  -0.16732887  -0.04363538  -0.33645094  1.0
  O  O12  1  -0.96213918  -0.62329431  -0.63311062  1.0
  O  O13  1  -0.03786082  -0.37670569  -0.36688938  1.0
  O  O14  1  -0.94701486  -0.09361306  -0.82083439  1.0
  O  O15  1  -0.05298514  -0.90638694  -0.17916561  1.0
  O  O16  1  -0.94187647  -0.37105161  -0.69696143  1.0
  O  O17  1  -0.05812353  -0.62894839  -0.30303857  1.0
  O  O18  1  -0.86981654  -0.70524551  -0.97658107  1.0
  O  O19  1  -0.13018346  -0.29475449  -0.02341893  1.0
  O  O20  1  -0.73489041  -0.74620166  -0.40062845  1.0
  O  O21  1  -0.26510959  -0.25379834  -0.59937155  1.0
  O  O22  1  -0.62952224  -0.22805930  -0.78740165  1.0
  O  O23  1  -0.37047776  -0.77194070  -0.21259835  1.0
  O  O24  1  -0.62008706  -0.53699659  -0.73559051  1.0
  O  O25  1  -0.37991294  -0.46300341  -0.26440949  1.0
  O  O26  1  -0.61964086  -0.92489116  -0.75539598  1.0
  O  O27  1  -0.38035914  -0.07510884  -0.24460402  1.0
  O  O28  1  -0.24304199  -0.81458766  -0.87541825  1.0
  O  O29  1  -0.75695801  -0.18541234  -0.12458175  1.0
  O  O30  1  -0.23777309  -0.96407622  -0.52815449  1.0
  O  O31  1  -0.76222691  -0.03592378  -0.47184551  1.0
  O  O32  1  -0.17023589  -0.56501334  -0.98152486  1.0
  O  O33  1  -0.82976411  -0.43498666  -0.01847514  1.0
