# generated using pymatgen
data_Si
_symmetry_space_group_name_H-M   'P 1'
_cell_length_a   10.42149323
_cell_length_b   10.42149323
_cell_length_c   10.42149323
_cell_angle_alpha   60.00000000
_cell_angle_beta   60.00000000
_cell_angle_gamma   60.00000000
_symmetry_Int_Tables_number   1
_chemical_formula_structural   Si
_chemical_formula_sum   Si34
_cell_volume   800.34061028
_cell_formula_units_Z   34
loop_
 _symmetry_equiv_pos_site_id
 _symmetry_equiv_pos_as_xyz
  1  'x, y, z'
loop_
 _atom_site_type_symbol
 _atom_site_label
 _atom_site_symmetry_multiplicity
 _atom_site_fract_x
 _atom_site_fract_y
 _atom_site_fract_z
 _atom_site_occupancy
  Si  Si0  1  0.75000000  -0.25000000  0.75000000  1.0
  Si  Si1  1  0.50000000  0.50000000  -0.50000000  1.0
  Si  Si2  1  -0.13984285  0.86015715  0.41952856  1.0
  Si  Si3  1  0.86015715  -0.58047144  0.86015715  1.0
  Si  Si4  1  -0.58047144  0.86015715  0.86015715  1.0
  Si  Si5  1  0.86015715  -0.13984285  0.86015715  1.0
  Si  Si6  1  0.38984285  0.38984285  -0.16952856  1.0
  Si  Si7  1  0.38984285  -0.16952856  0.38984285  1.0
  Si  Si8  1  -0.16952856  0.38984285  0.38984285  1.0
  Si  Si9  1  0.38984285  0.38984285  0.38984285  1.0
  Si  Si10  1  0.49709364  -0.11439019  1.12020291  1.0
  Si  Si11  1  0.49709364  -0.50290636  1.12020291  1.0
  Si  Si12  1  0.88560981  -0.50290636  1.12020291  1.0
  Si  Si13  1  0.49709364  0.12020291  0.88560981  1.0
  Si  Si14  1  0.88560981  0.12020291  0.49709364  1.0
  Si  Si15  1  0.49709364  0.12020291  0.49709364  1.0
  Si  Si16  1  1.12020291  -0.50290636  0.49709364  1.0
  Si  Si17  1  1.12020291  -0.11439019  0.49709364  1.0
  Si  Si18  1  1.12020291  -0.50290636  0.88560981  1.0
  Si  Si19  1  0.88560981  -0.50290636  0.49709364  1.0
  Si  Si20  1  0.49709364  -0.50290636  0.88560981  1.0
  Si  Si21  1  0.49709364  -0.11439019  0.49709364  1.0
  Si  Si22  1  0.75290636  -0.63560981  1.12979709  1.0
  Si  Si23  1  0.75290636  -0.24709364  1.12979709  1.0
  Si  Si24  1  -0.63560981  0.75290636  1.12979709  1.0
  Si  Si25  1  -0.24709364  1.12979709  0.36439019  1.0
  Si  Si26  1  -0.63560981  1.12979709  0.75290636  1.0
  Si  Si27  1  0.75290636  0.12979709  0.75290636  1.0
  Si  Si28  1  1.12979709  -0.24709364  0.75290636  1.0
  Si  Si29  1  1.12979709  -0.63560981  0.75290636  1.0
  Si  Si30  1  0.12979709  0.75290636  0.36439019  1.0
  Si  Si31  1  -0.63560981  0.75290636  0.75290636  1.0
  Si  Si32  1  -0.24709364  0.75290636  0.36439019  1.0
  Si  Si33  1  0.75290636  -0.63560981  0.75290636  1.0
