# generated using pymatgen
data_CaH4SO6
_symmetry_space_group_name_H-M   'P 1'
_cell_length_a   8.68334879
_cell_length_b   8.68334879
_cell_length_c   6.37308556
_cell_angle_alpha   82.86214464
_cell_angle_beta   97.13785536
_cell_angle_gamma   37.18002686
_symmetry_Int_Tables_number   1
_chemical_formula_structural   CaH4SO6
_chemical_formula_sum   'Ca2 H8 S2 O12'
_cell_volume   267.42993864
_cell_formula_units_Z   2
loop_
 _symmetry_equiv_pos_site_id
 _symmetry_equiv_pos_as_xyz
  1  'x, y, z'
loop_
 _atom_site_type_symbol
 _atom_site_label
 _atom_site_symmetry_multiplicity
 _atom_site_fract_x
 _atom_site_fract_y
 _atom_site_fract_z
 _atom_site_occupancy
  Ca  Ca0  1  0.82472526  -0.17527474  0.25000000  1.0
  Ca  Ca1  1  1.17527474  0.17527474  0.75000000  1.0
  H  H2  1  1.39743045  -0.58061233  1.00693747  1.0
  H  H3  1  0.41938767  0.39743045  0.49306253  1.0
  H  H4  1  0.60256955  0.58061233  -0.00693747  1.0
  H  H5  1  1.58061233  -0.39743045  0.50693747  1.0
  H  H6  1  0.66245205  0.27231133  -0.03035139  1.0
  H  H7  1  1.27231133  -0.33754795  0.53035139  1.0
  H  H8  1  1.33754795  -0.27231133  1.03035139  1.0
  H  H9  1  0.72768867  0.33754795  0.46964861  1.0
  S  S10  1  0.82654003  -0.17345997  0.75000000  1.0
  S  S11  1  1.17345997  0.17345997  0.25000000  1.0
  O  O12  1  1.04392395  -0.28870743  0.94783326  1.0
  O  O13  1  0.71129257  0.04392395  0.55216674  1.0
  O  O14  1  0.95607605  0.28870743  0.05216674  1.0
  O  O15  1  1.28870743  -0.04392395  0.44783326  1.0
  O  O16  1  0.60981845  -0.06031423  0.83533955  1.0
  O  O17  1  0.93968577  -0.39018155  0.66466045  1.0
  O  O18  1  1.39018155  0.06031423  0.16466045  1.0
  O  O19  1  1.06031423  0.39018155  0.33533955  1.0
  O  O20  1  0.60146599  0.25066286  0.07071546  1.0
  O  O21  1  1.25066286  -0.39853401  0.42928454  1.0
  O  O22  1  1.39853401  -0.25066286  0.92928454  1.0
  O  O23  1  0.74933714  0.39853401  0.57071546  1.0
