# generated using pymatgen
data_In3Ni2
_symmetry_space_group_name_H-M   'P 1'
_cell_length_a   4.43829057
_cell_length_b   4.43829057
_cell_length_c   5.36171855
_cell_angle_alpha   90.00000000
_cell_angle_beta   90.00000000
_cell_angle_gamma   120.00000000
_symmetry_Int_Tables_number   1
_chemical_formula_structural   In3Ni2
_chemical_formula_sum   'In3 Ni2'
_cell_volume   91.46735208
_cell_formula_units_Z   1
loop_
 _symmetry_equiv_pos_site_id
 _symmetry_equiv_pos_as_xyz
  1  'x, y, z'
loop_
 _atom_site_type_symbol
 _atom_site_label
 _atom_site_symmetry_multiplicity
 _atom_site_fract_x
 _atom_site_fract_y
 _atom_site_fract_z
 _atom_site_occupancy
  In  In0  1  0.00000000  0.00000000  -0.00000000  1.0
  In  In1  1  0.33333333  0.66666667  0.64561779  1.0
  In  In2  1  0.66666667  0.33333333  0.35438221  1.0
  Ni  Ni3  1  0.33333333  0.66666667  0.14068014  1.0
  Ni  Ni4  1  0.66666667  0.33333333  0.85931986  1.0
