# generated using pymatgen
data_Li2Ge3O8
_symmetry_space_group_name_H-M   'P 1'
_cell_length_a   7.98003152
_cell_length_b   7.98003152
_cell_length_c   5.09514312
_cell_angle_alpha   76.01289542
_cell_angle_beta   103.98710458
_cell_angle_gamma   83.07456570
_symmetry_Int_Tables_number   1
_chemical_formula_structural   Li2Ge3O8
_chemical_formula_sum   'Li4 Ge6 O16'
_cell_volume   299.93671608
_cell_formula_units_Z   2
loop_
 _symmetry_equiv_pos_site_id
 _symmetry_equiv_pos_as_xyz
  1  'x, y, z'
loop_
 _atom_site_type_symbol
 _atom_site_label
 _atom_site_symmetry_multiplicity
 _atom_site_fract_x
 _atom_site_fract_y
 _atom_site_fract_z
 _atom_site_occupancy
  O  O0  1  1.30084270  0.59994642  0.97500585  1.0
  O  O1  1  0.40005358  -0.30084270  0.47500585  1.0
  O  O2  1  1.59994642  0.30084270  0.52499415  1.0
  O  O3  1  0.69915730  -0.59994642  0.02499415  1.0
  O  O4  1  1.43240545  0.19382589  0.98010214  1.0
  O  O5  1  0.80617411  -0.43240545  0.48010214  1.0
  O  O6  1  1.19382589  0.43240545  0.51989786  1.0
  O  O7  1  0.56759455  -0.19382589  0.01989786  1.0
  O  O8  1  0.19364033  -0.03804993  0.95208622  1.0
  O  O9  1  1.03804993  0.80635967  0.45208622  1.0
  O  O10  1  0.96195007  -0.80635967  0.54791378  1.0
  O  O11  1  1.80635967  0.03804993  0.04791378  1.0
  O  O12  1  0.72451788  -0.11347199  0.51859626  1.0
  O  O13  1  1.11347199  0.27548212  1.01859626  1.0
  O  O14  1  0.88652801  -0.27548212  -0.01859626  1.0
  O  O15  1  1.27548212  0.11347199  0.48140374  1.0
  Ge  Ge16  1  1.62874597  0.21939060  0.89542001  1.0
  Ge  Ge17  1  0.78060940  -0.62874597  0.39542001  1.0
  Ge  Ge18  1  1.21939060  0.62874597  0.60457999  1.0
  Ge  Ge19  1  0.37125403  -0.21939060  0.10457999  1.0
  Ge  Ge20  1  1.20329094  0.20329094  0.75000000  1.0
  Ge  Ge21  1  0.79670906  -0.20329094  0.25000000  1.0
  Li  Li22  1  0.94511194  -0.05488806  0.75000000  1.0
  Li  Li23  1  1.05488806  0.05488806  0.25000000  1.0
  Li  Li24  1  0.65795685  -0.34204315  0.75000000  1.0
  Li  Li25  1  1.34204315  0.34204315  0.25000000  1.0
