# generated using pymatgen
data_Na2BeF4
_symmetry_space_group_name_H-M   'P 1'
_cell_length_a   9.59547243
_cell_length_b   5.27257569
_cell_length_c   6.93015579
_cell_angle_alpha   90.00000000
_cell_angle_beta   90.00000000
_cell_angle_gamma   90.00000000
_symmetry_Int_Tables_number   1
_chemical_formula_structural   Na2BeF4
_chemical_formula_sum   'Na8 Be4 F16'
_cell_volume   350.61636439
_cell_formula_units_Z   4
loop_
 _symmetry_equiv_pos_site_id
 _symmetry_equiv_pos_as_xyz
  1  'x, y, z'
loop_
 _atom_site_type_symbol
 _atom_site_label
 _atom_site_symmetry_multiplicity
 _atom_site_fract_x
 _atom_site_fract_y
 _atom_site_fract_z
 _atom_site_occupancy
  Na  Na0  1  0.49999265  0.50001418  0.52484716  1.0
  Na  Na1  1  -0.00000735  0.99998582  0.52484716  1.0
  Na  Na2  1  0.50000735  0.49998582  0.02484716  1.0
  Na  Na3  1  0.00000735  0.00001418  0.02484716  1.0
  Na  Na4  1  0.14787576  0.50910309  0.77485968  1.0
  Na  Na5  1  0.64787576  0.99089691  0.77485968  1.0
  Na  Na6  1  0.85212424  0.49089691  0.27485968  1.0
  Na  Na7  1  0.35212424  0.00910309  0.27485968  1.0
  Be  Be8  1  0.32079571  0.00942037  0.77486052  1.0
  Be  Be9  1  0.82079571  0.49057963  0.77486052  1.0
  Be  Be10  1  0.67920429  0.99057963  0.27486052  1.0
  Be  Be11  1  0.17920429  0.50942037  0.27486052  1.0
  F  F12  1  0.36260976  0.71991503  0.77485806  1.0
  F  F13  1  0.86260976  0.78008497  0.77485806  1.0
  F  F14  1  0.63739024  0.28008497  0.27485806  1.0
  F  F15  1  0.13739024  0.21991503  0.27485806  1.0
  F  F16  1  0.11865981  0.63990436  0.45845871  1.0
  F  F17  1  0.61865981  0.86009564  0.45845871  1.0
  F  F18  1  0.88134019  0.36009564  -0.04154129  1.0
  F  F19  1  0.38134019  0.13990436  -0.04154129  1.0
  F  F20  1  0.11864662  0.63987732  0.09125807  1.0
  F  F21  1  0.61864662  0.86012268  0.09125807  1.0
  F  F22  1  0.88135338  0.36012268  0.59125807  1.0
  F  F23  1  0.38135338  0.13987732  0.59125807  1.0
  F  F24  1  0.15698611  1.05148897  0.77485780  1.0
  F  F25  1  0.65698611  0.44851103  0.77485780  1.0
  F  F26  1  0.84301389  -0.05148897  0.27485780  1.0
  F  F27  1  0.34301389  0.55148897  0.27485780  1.0
