# generated using pymatgen
data_N2O5
_symmetry_space_group_name_H-M   'P 1'
_cell_length_a   5.50803322
_cell_length_b   5.50803322
_cell_length_c   6.82669294
_cell_angle_alpha   90.00000000
_cell_angle_beta   90.00000000
_cell_angle_gamma   120.00000000
_symmetry_Int_Tables_number   1
_chemical_formula_structural   N2O5
_chemical_formula_sum   'N4 O10'
_cell_volume   179.36351332
_cell_formula_units_Z   2
loop_
 _symmetry_equiv_pos_site_id
 _symmetry_equiv_pos_as_xyz
  1  'x, y, z'
loop_
 _atom_site_type_symbol
 _atom_site_label
 _atom_site_symmetry_multiplicity
 _atom_site_fract_x
 _atom_site_fract_y
 _atom_site_fract_z
 _atom_site_occupancy
  N  N0  1  0.33333333  0.66666667  0.75000000  1.0
  N  N1  1  0.66666667  0.33333333  0.25000000  1.0
  N  N2  1  0.00000000  0.00000000  0.25000000  1.0
  N  N3  1  -0.00000000  -0.00000000  0.75000000  1.0
  O  O4  1  0.13263016  0.86736984  0.25000000  1.0
  O  O5  1  0.13263016  0.26526032  0.25000000  1.0
  O  O6  1  0.86736984  0.13263016  0.75000000  1.0
  O  O7  1  0.86736984  0.73473968  0.75000000  1.0
  O  O8  1  0.73473968  0.86736984  0.25000000  1.0
  O  O9  1  0.26526032  0.13263016  0.75000000  1.0
  O  O10  1  0.33333333  0.66666667  0.91540589  1.0
  O  O11  1  0.33333333  0.66666667  0.58459411  1.0
  O  O12  1  0.66666667  0.33333333  0.41540589  1.0
  O  O13  1  0.66666667  0.33333333  0.08459411  1.0
