# generated using pymatgen
data_Pr8Re13B12
_symmetry_space_group_name_H-M   'P 1'
_cell_length_a   7.82830778
_cell_length_b   7.82830778
_cell_length_c   7.82830778
_cell_angle_alpha   85.74439932
_cell_angle_beta   85.74439932
_cell_angle_gamma   85.74439932
_symmetry_Int_Tables_number   1
_chemical_formula_structural   Pr8Re13B12
_chemical_formula_sum   'Pr8 Re13 B12'
_cell_volume   475.95610448
_cell_formula_units_Z   1
loop_
 _symmetry_equiv_pos_site_id
 _symmetry_equiv_pos_as_xyz
  1  'x, y, z'
loop_
 _atom_site_type_symbol
 _atom_site_label
 _atom_site_symmetry_multiplicity
 _atom_site_fract_x
 _atom_site_fract_y
 _atom_site_fract_z
 _atom_site_occupancy
  Pr  Pr0  1  0.31610925  0.31610925  -0.18208481  1.0
  Pr  Pr1  1  0.31610925  0.81791519  -0.68389075  1.0
  Pr  Pr2  1  0.18208481  0.68389075  -0.31610925  1.0
  Pr  Pr3  1  0.68389075  0.18208481  -0.31610925  1.0
  Pr  Pr4  1  0.68389075  0.68389075  -0.81791519  1.0
  Pr  Pr5  1  0.81791519  0.31610925  -0.68389075  1.0
  Pr  Pr6  1  0.85562929  0.85562929  -0.14437071  1.0
  Pr  Pr7  1  1.14437071  1.14437071  0.14437071  1.0
  Re  Re8  1  0.57656028  0.57656028  -0.17143318  1.0
  Re  Re9  1  0.57656028  0.82856682  -0.42343972  1.0
  Re  Re10  1  0.17143318  0.42343972  -0.57656028  1.0
  Re  Re11  1  0.42343972  0.17143318  -0.57656028  1.0
  Re  Re12  1  0.42343972  0.42343972  -0.82856682  1.0
  Re  Re13  1  0.82856682  0.57656028  -0.42343972  1.0
  Re  Re14  1  1.09574186  1.09574186  0.56526267  1.0
  Re  Re15  1  1.09574186  1.56526267  0.09574186  1.0
  Re  Re16  1  0.43473733  0.90425814  -0.09574186  1.0
  Re  Re17  1  0.90425814  0.43473733  -0.09574186  1.0
  Re  Re18  1  0.90425814  0.90425814  -0.56526267  1.0
  Re  Re19  1  1.56526267  1.09574186  0.09574186  1.0
  Re  Re20  1  0.50000000  0.50000000  -0.50000000  1.0
  B  B21  1  0.82788028  -0.00000000  0.17211972  1.0
  B  B22  1  0.82788028  -0.82788028  -0.00000000  1.0
  B  B23  1  -0.00000000  0.82788028  -0.82788028  1.0
  B  B24  1  -0.00000000  0.17211972  -0.17211972  1.0
  B  B25  1  1.17211972  -0.00000000  -0.17211972  1.0
  B  B26  1  0.17211972  -0.17211972  -0.00000000  1.0
  B  B27  1  0.65255978  1.00000000  -0.65255978  1.0
  B  B28  1  0.65255978  -0.65255978  -0.00000000  1.0
  B  B29  1  -0.00000000  0.65255978  -0.65255978  1.0
  B  B30  1  -0.00000000  0.34744022  -0.34744022  1.0
  B  B31  1  0.34744022  1.00000000  -0.34744022  1.0
  B  B32  1  0.34744022  -0.34744022  -0.00000000  1.0
