# generated using pymatgen
data_Ba2BiRuO6
_symmetry_space_group_name_H-M   'P 1'
_cell_length_a   6.11114947
_cell_length_b   6.11114947
_cell_length_c   20.63096524
_cell_angle_alpha   90.00000000
_cell_angle_beta   90.00000000
_cell_angle_gamma   120.03546520
_symmetry_Int_Tables_number   1
_chemical_formula_structural   Ba2BiRuO6
_chemical_formula_sum   'Ba8 Bi4 Ru4 O24'
_cell_volume   667.02279520
_cell_formula_units_Z   4
loop_
 _symmetry_equiv_pos_site_id
 _symmetry_equiv_pos_as_xyz
  1  'x, y, z'
loop_
 _atom_site_type_symbol
 _atom_site_label
 _atom_site_symmetry_multiplicity
 _atom_site_fract_x
 _atom_site_fract_y
 _atom_site_fract_z
 _atom_site_occupancy
  Ru  Ru0  1  -0.50062012  1.50062012  0.31649678  1.0
  Ru  Ru1  1  -0.50062012  1.50062012  0.18350322  1.0
  Ru  Ru2  1  0.50062012  0.49937988  0.81649678  1.0
  Ru  Ru3  1  0.50062012  0.49937988  0.68350322  1.0
  Ba  Ba4  1  0.16662255  0.83337745  0.85380151  1.0
  Ba  Ba5  1  0.16662255  0.83337745  0.64619849  1.0
  Ba  Ba6  1  -0.16662255  1.16662255  0.35380151  1.0
  Ba  Ba7  1  -0.16662255  1.16662255  0.14619849  1.0
  Ba  Ba8  1  0.16615990  0.83384010  0.25000000  1.0
  Ba  Ba9  1  -0.16615990  1.16615990  0.75000000  1.0
  Ba  Ba10  1  0.50000000  0.50000000  0.50000000  1.0
  Ba  Ba11  1  0.50000000  0.50000000  0.00000000  1.0
  O  O12  1  0.20006910  0.35025932  0.25000000  1.0
  O  O13  1  -0.64974068  1.20006910  0.75000000  1.0
  O  O14  1  0.64974068  0.79993090  0.25000000  1.0
  O  O15  1  -0.20006910  1.64974068  0.75000000  1.0
  O  O16  1  0.00000000  1.50000000  0.50000000  1.0
  O  O17  1  0.00000000  1.50000000  0.00000000  1.0
  O  O18  1  0.50000000  1.00000000  0.00000000  1.0
  O  O19  1  0.50000000  1.00000000  0.50000000  1.0
  O  O20  1  0.00000000  0.00000000  0.50000000  1.0
  O  O21  1  0.00000000  0.00000000  0.00000000  1.0
  O  O22  1  -0.19355030  1.65508575  0.36411780  1.0
  O  O23  1  -0.19355030  1.65508575  0.13588220  1.0
  O  O24  1  0.65508575  0.80644970  0.86411780  1.0
  O  O25  1  0.65508575  0.80644970  0.63588220  1.0
  O  O26  1  -0.65508575  1.19355030  0.36411780  1.0
  O  O27  1  -0.65508575  1.19355030  0.13588220  1.0
  O  O28  1  0.19355030  0.34491425  0.86411780  1.0
  O  O29  1  0.19355030  0.34491425  0.63588220  1.0
  O  O30  1  -0.35089949  1.35089949  0.25000000  1.0
  O  O31  1  0.35089949  0.64910051  0.75000000  1.0
  O  O32  1  0.34509205  0.65490795  0.36343728  1.0
  O  O33  1  0.34509205  0.65490795  0.13656272  1.0
  O  O34  1  -0.34509205  1.34509205  0.86343728  1.0
  O  O35  1  -0.34509205  1.34509205  0.63656272  1.0
  Bi  Bi36  1  0.16655189  0.83344811  0.43939378  1.0
  Bi  Bi37  1  0.16655189  0.83344811  0.06060622  1.0
  Bi  Bi38  1  -0.16655189  1.16655189  0.93939378  1.0
  Bi  Bi39  1  -0.16655189  1.16655189  0.56060622  1.0
