# generated using pymatgen
data_Al8Mo3
_symmetry_space_group_name_H-M   'P 1'
_cell_length_a   4.96158183
_cell_length_b   4.96158183
_cell_length_c   10.07450417
_cell_angle_alpha   80.00257130
_cell_angle_beta   99.99742870
_cell_angle_gamma   136.80117666
_symmetry_Int_Tables_number   1
_chemical_formula_structural   Al8Mo3
_chemical_formula_sum   'Al8 Mo3'
_cell_volume   166.78324905
_cell_formula_units_Z   1
loop_
 _symmetry_equiv_pos_site_id
 _symmetry_equiv_pos_as_xyz
  1  'x, y, z'
loop_
 _atom_site_type_symbol
 _atom_site_label
 _atom_site_symmetry_multiplicity
 _atom_site_fract_x
 _atom_site_fract_y
 _atom_site_fract_z
 _atom_site_occupancy
  Al  Al0  1  0.81326902  0.18673098  0.72221162  1.0
  Al  Al1  1  0.18673098  -0.18673098  0.27778838  1.0
  Al  Al2  1  0.63183094  0.36816906  0.45829051  1.0
  Al  Al3  1  0.36816906  -0.36816906  0.54170949  1.0
  Al  Al4  1  0.53983863  0.46016137  0.82087138  1.0
  Al  Al5  1  0.46016137  -0.46016137  0.17912862  1.0
  Al  Al6  1  0.27225301  -0.27225301  0.90981149  1.0
  Al  Al7  1  0.72774699  0.27225301  0.09018851  1.0
  Mo  Mo8  1  0.90562980  0.09437020  0.34065327  1.0
  Mo  Mo9  1  0.09437020  -0.09437020  0.65934673  1.0
  Mo  Mo10  1  0.00000000  0.00000000  0.00000000  1.0
