# generated using pymatgen
data_Co2Si
_symmetry_space_group_name_H-M   'P 1'
_cell_length_a   4.88192503
_cell_length_b   3.71191040
_cell_length_c   7.03030950
_cell_angle_alpha   90.00000000
_cell_angle_beta   90.00000000
_cell_angle_gamma   90.00000000
_symmetry_Int_Tables_number   1
_chemical_formula_structural   Co2Si
_chemical_formula_sum   'Co8 Si4'
_cell_volume   127.39812461
_cell_formula_units_Z   4
loop_
 _symmetry_equiv_pos_site_id
 _symmetry_equiv_pos_as_xyz
  1  'x, y, z'
loop_
 _atom_site_type_symbol
 _atom_site_label
 _atom_site_symmetry_multiplicity
 _atom_site_fract_x
 _atom_site_fract_y
 _atom_site_fract_z
 _atom_site_occupancy
  Co  Co0  1  0.96458318  0.75000000  0.71781918  1.0
  Co  Co1  1  0.46458318  0.75000000  0.78218082  1.0
  Co  Co2  1  0.03541682  0.25000000  0.28218082  1.0
  Co  Co3  1  0.53541682  0.25000000  0.21781918  1.0
  Co  Co4  1  0.82663695  0.75000000  0.06426568  1.0
  Co  Co5  1  0.32663695  0.75000000  0.43573432  1.0
  Co  Co6  1  0.17336305  0.25000000  0.93573432  1.0
  Co  Co7  1  0.67336305  0.25000000  0.56426568  1.0
  Si  Si8  1  0.79739068  0.75000000  0.39436504  1.0
  Si  Si9  1  0.29739068  0.75000000  0.10563496  1.0
  Si  Si10  1  0.20260932  0.25000000  0.60563496  1.0
  Si  Si11  1  0.70260932  0.25000000  0.89436504  1.0
