# generated using pymatgen
data_Tb6Zn23
_symmetry_space_group_name_H-M   'P 1'
_cell_length_a   9.00943498
_cell_length_b   9.00943498
_cell_length_c   9.00943498
_cell_angle_alpha   60.00000000
_cell_angle_beta   60.00000000
_cell_angle_gamma   60.00000000
_symmetry_Int_Tables_number   1
_chemical_formula_structural   Tb6Zn23
_chemical_formula_sum   'Tb6 Zn23'
_cell_volume   517.10372795
_cell_formula_units_Z   1
loop_
 _symmetry_equiv_pos_site_id
 _symmetry_equiv_pos_as_xyz
  1  'x, y, z'
loop_
 _atom_site_type_symbol
 _atom_site_label
 _atom_site_symmetry_multiplicity
 _atom_site_fract_x
 _atom_site_fract_y
 _atom_site_fract_z
 _atom_site_occupancy
  Tb  Tb0  1  -0.70671487  0.70671487  0.70671487  1.0
  Tb  Tb1  1  -0.29328513  0.29328513  0.70671487  1.0
  Tb  Tb2  1  0.70671487  0.70671487  -0.70671487  1.0
  Tb  Tb3  1  0.29328513  1.29328513  -0.29328513  1.0
  Tb  Tb4  1  0.29328513  -0.29328513  1.29328513  1.0
  Tb  Tb5  1  -0.29328513  0.29328513  0.29328513  1.0
  Zn  Zn6  1  0.87755782  0.87755782  -0.12244218  1.0
  Zn  Zn7  1  1.12244218  0.12244218  0.63267346  1.0
  Zn  Zn8  1  1.12244218  0.63267346  0.12244218  1.0
  Zn  Zn9  1  0.36732654  0.87755782  -0.12244218  1.0
  Zn  Zn10  1  1.63267346  0.12244218  0.12244218  1.0
  Zn  Zn11  1  0.87755782  0.36732654  -0.12244218  1.0
  Zn  Zn12  1  0.87755782  0.87755782  -0.63267346  1.0
  Zn  Zn13  1  1.12244218  0.12244218  0.12244218  1.0
  Zn  Zn14  1  0.67176565  0.67176565  -0.32823435  1.0
  Zn  Zn15  1  1.32823435  0.32823435  0.01529696  1.0
  Zn  Zn16  1  1.32823435  0.01529696  0.32823435  1.0
  Zn  Zn17  1  0.98470304  0.67176565  -0.32823435  1.0
  Zn  Zn18  1  1.01529696  0.32823435  0.32823435  1.0
  Zn  Zn19  1  0.67176565  0.98470304  -0.32823435  1.0
  Zn  Zn20  1  0.67176565  0.67176565  -0.01529696  1.0
  Zn  Zn21  1  1.32823435  0.32823435  0.32823435  1.0
  Zn  Zn22  1  1.50000000  0.00000000  -0.00000000  1.0
  Zn  Zn23  1  1.00000000  0.50000000  -0.50000000  1.0
  Zn  Zn24  1  0.00000000  1.50000000  -0.00000000  1.0
  Zn  Zn25  1  0.50000000  1.00000000  -0.50000000  1.0
  Zn  Zn26  1  -0.00000000  0.00000000  0.50000000  1.0
  Zn  Zn27  1  0.50000000  -0.50000000  1.00000000  1.0
  Zn  Zn28  1  0.00000000  0.00000000  0.00000000  1.0
