# generated using pymatgen
data_BaZr(BO3)2
_symmetry_space_group_name_H-M   'P 1'
_cell_length_a   11.94656593
_cell_length_b   11.94656593
_cell_length_c   11.94656593
_cell_angle_alpha   25.10828811
_cell_angle_beta   25.10828811
_cell_angle_gamma   25.10828811
_symmetry_Int_Tables_number   1
_chemical_formula_structural   BaZr(BO3)2
_chemical_formula_sum   'Ba2 Zr2 B4 O12'
_cell_volume   270.12109230
_cell_formula_units_Z   2
loop_
 _symmetry_equiv_pos_site_id
 _symmetry_equiv_pos_as_xyz
  1  'x, y, z'
loop_
 _atom_site_type_symbol
 _atom_site_label
 _atom_site_symmetry_multiplicity
 _atom_site_fract_x
 _atom_site_fract_y
 _atom_site_fract_z
 _atom_site_occupancy
  Ba  Ba0  1  0.75026136  -0.24973864  -0.24973864  1.0
  Ba  Ba1  1  0.25026136  0.25026136  0.25026136  1.0
  Zr  Zr2  1  0.00025945  0.00025945  0.00025945  1.0
  Zr  Zr3  1  0.50025945  0.50025945  -0.49974055  1.0
  B  B4  1  0.63176703  0.63176703  -0.36823297  1.0
  B  B5  1  0.13176703  0.13176703  0.13176703  1.0
  B  B6  1  0.86875325  -0.13124675  -0.13124675  1.0
  B  B7  1  0.36875325  0.36875325  -0.63124675  1.0
  O  O8  1  0.65862079  -0.21798796  0.16820406  1.0
  O  O9  1  0.15862079  0.66820406  -0.71798796  1.0
  O  O10  1  0.66820406  0.28201204  -0.84137921  1.0
  O  O11  1  1.16820406  -0.34137921  -0.21798796  1.0
  O  O12  1  0.28201204  0.15862079  -0.33179594  1.0
  O  O13  1  0.78201204  0.16820406  -0.34137921  1.0
  O  O14  1  0.71848222  0.84191356  -0.66767377  1.0
  O  O15  1  0.21848222  0.83232623  -0.65808644  1.0
  O  O16  1  0.83232623  0.34191356  -0.78151778  1.0
  O  O17  1  0.33232623  0.71848222  -0.15808644  1.0
  O  O18  1  0.34191356  0.21848222  -0.16767377  1.0
  O  O19  1  0.84191356  0.33232623  -0.28151778  1.0
