# generated using pymatgen
data_CuMoO4
_symmetry_space_group_name_H-M   'P 1'
_cell_length_a   7.79989860
_cell_length_b   6.34296951
_cell_length_c   7.37788257
_cell_angle_alpha   72.77422477
_cell_angle_beta   75.96873096
_cell_angle_gamma   86.07360583
_symmetry_Int_Tables_number   1
_chemical_formula_structural   CuMoO4
_chemical_formula_sum   'Cu4 Mo4 O16'
_cell_volume   338.23994475
_cell_formula_units_Z   4
loop_
 _symmetry_equiv_pos_site_id
 _symmetry_equiv_pos_as_xyz
  1  'x, y, z'
loop_
 _atom_site_type_symbol
 _atom_site_label
 _atom_site_symmetry_multiplicity
 _atom_site_fract_x
 _atom_site_fract_y
 _atom_site_fract_z
 _atom_site_occupancy
  Mo  Mo0  1  -0.74775366  -0.72306367  -1.00094064  1.0
  Mo  Mo1  1  -0.25224634  -0.27693633  0.00094064  1.0
  Mo  Mo2  1  -0.25380466  -0.71782786  -0.63203180  1.0
  Mo  Mo3  1  -0.74619534  -0.28217214  -0.36796820  1.0
  Cu  Cu4  1  -0.80090031  -0.31336622  -0.84441099  1.0
  Cu  Cu5  1  -0.19909969  -0.68663378  -0.15558901  1.0
  Cu  Cu6  1  -0.79685947  -0.69325930  -0.50085523  1.0
  Cu  Cu7  1  -0.20314053  -0.30674070  -0.49914477  1.0
  O  O8  1  -0.81990924  -0.99979161  -0.91454092  1.0
  O  O9  1  -0.18009076  -0.00020839  -0.08545908  1.0
  O  O10  1  -0.18105990  -0.99354973  -0.57987639  1.0
  O  O11  1  -0.81894010  -0.00645027  -0.42012361  1.0
  O  O12  1  -0.47983656  -0.72831666  -0.57170071  1.0
  O  O13  1  -0.52016344  -0.27168334  -0.42829929  1.0
  O  O14  1  -0.19181289  -0.63322226  -0.91103189  1.0
  O  O15  1  -0.80818711  -0.36677774  -0.08896811  1.0
  O  O16  1  -0.79788222  -0.64075028  -0.25290849  1.0
  O  O17  1  -0.20211778  -0.35924972  -0.74709151  1.0
  O  O18  1  -0.47785189  -0.27109858  -0.95479781  1.0
  O  O19  1  -0.52214811  -0.72890142  -0.04520219  1.0
  O  O20  1  -0.82724879  -0.63757016  -0.76728543  1.0
  O  O21  1  -0.17275121  -0.36242984  -0.23271457  1.0
  O  O22  1  -0.81266180  -0.36892942  -0.56668909  1.0
  O  O23  1  -0.18733820  -0.63107058  -0.43331091  1.0
