# generated using pymatgen
data_Cs2P2Pt
_symmetry_space_group_name_H-M   'P 1'
_cell_length_a   8.25186597
_cell_length_b   8.25186597
_cell_length_c   6.38694763
_cell_angle_alpha   90.00000000
_cell_angle_beta   90.00000000
_cell_angle_gamma   130.52491959
_symmetry_Int_Tables_number   1
_chemical_formula_structural   Cs2P2Pt
_chemical_formula_sum   'Cs4 P4 Pt2'
_cell_volume   330.58398087
_cell_formula_units_Z   2
loop_
 _symmetry_equiv_pos_site_id
 _symmetry_equiv_pos_as_xyz
  1  'x, y, z'
loop_
 _atom_site_type_symbol
 _atom_site_label
 _atom_site_symmetry_multiplicity
 _atom_site_fract_x
 _atom_site_fract_y
 _atom_site_fract_z
 _atom_site_occupancy
  Cs  Cs0  1  0.21180115  0.78819885  0.75000000  1.0
  Cs  Cs1  1  -0.21180115  0.21180115  0.25000000  1.0
  Cs  Cs2  1  -0.42089197  0.42089197  0.75000000  1.0
  Cs  Cs3  1  0.42089197  0.57910803  0.25000000  1.0
  P  P4  1  0.06204221  0.25611805  0.75000000  1.0
  P  P5  1  0.25611805  1.06204221  0.25000000  1.0
  P  P6  1  0.74388195  0.93795779  0.75000000  1.0
  P  P7  1  -0.06204221  0.74388195  0.25000000  1.0
  Pt  Pt8  1  0.00000000  0.00000000  0.00000000  1.0
  Pt  Pt9  1  0.00000000  0.00000000  0.50000000  1.0
