# generated using pymatgen
data_CuBiSO
_symmetry_space_group_name_H-M   'P 1'
_cell_length_a   3.44671855
_cell_length_b   3.44671855
_cell_length_c   11.55803729
_cell_angle_alpha   90.00000000
_cell_angle_beta   90.00000000
_cell_angle_gamma   90.00000000
_symmetry_Int_Tables_number   1
_chemical_formula_structural   CuBiSO
_chemical_formula_sum   'Cu2 Bi2 S2 O2'
_cell_volume   137.30796649
_cell_formula_units_Z   2
loop_
 _symmetry_equiv_pos_site_id
 _symmetry_equiv_pos_as_xyz
  1  'x, y, z'
loop_
 _atom_site_type_symbol
 _atom_site_label
 _atom_site_symmetry_multiplicity
 _atom_site_fract_x
 _atom_site_fract_y
 _atom_site_fract_z
 _atom_site_occupancy
  Cu  Cu0  1  0.00000000  0.00000000  0.00000000  1.0
  Cu  Cu1  1  0.50000000  0.50000000  0.00000000  1.0
  Bi  Bi2  1  0.50000000  0.00000000  0.78178441  1.0
  Bi  Bi3  1  0.00000000  0.50000000  0.21821559  1.0
  S  S4  1  0.00000000  0.00000000  0.50000000  1.0
  S  S5  1  0.50000000  0.50000000  0.50000000  1.0
  O  O6  1  0.50000000  0.00000000  0.22255718  1.0
  O  O7  1  0.00000000  0.50000000  0.77744282  1.0
