# generated using pymatgen
data_Ce(BRu)4
_symmetry_space_group_name_H-M   'P 1'
_cell_length_a   9.24204857
_cell_length_b   9.24204857
_cell_length_c   9.24204857
_cell_angle_alpha   132.15630925
_cell_angle_beta   132.15630925
_cell_angle_gamma   69.98226519
_symmetry_Int_Tables_number   1
_chemical_formula_structural   Ce(BRu)4
_chemical_formula_sum   'Ce4 B16 Ru16'
_cell_volume   425.34065924
_cell_formula_units_Z   4
loop_
 _symmetry_equiv_pos_site_id
 _symmetry_equiv_pos_as_xyz
  1  'x, y, z'
loop_
 _atom_site_type_symbol
 _atom_site_label
 _atom_site_symmetry_multiplicity
 _atom_site_fract_x
 _atom_site_fract_y
 _atom_site_fract_z
 _atom_site_occupancy
  Ce  Ce0  1  0.75000000  0.75000000  -0.00000000  1.0
  Ce  Ce1  1  1.25000000  1.25000000  1.00000000  1.0
  Ce  Ce2  1  -0.00000000  0.50000000  0.50000000  1.0
  Ce  Ce3  1  0.50000000  -0.00000000  0.50000000  1.0
  B  B4  1  0.72572913  0.41469913  0.97585268  1.0
  B  B5  1  0.22572913  0.24987645  0.31102999  1.0
  B  B6  1  1.66469913  1.47572913  1.47585268  1.0
  B  B7  1  1.16469913  1.68884646  1.18897001  1.0
  B  B8  1  1.02427087  0.83530087  0.52414732  1.0
  B  B9  1  1.52427087  1.00012355  1.18897001  1.0
  B  B10  1  1.08530087  1.77427087  1.02414732  1.0
  B  B11  1  1.58530087  1.56115354  1.31102999  1.0
  B  B12  1  0.93884646  0.91469913  1.68897001  1.0
  B  B13  1  0.43884646  0.74987645  1.02414732  1.0
  B  B14  1  1.49987645  0.97572913  0.81102999  1.0
  B  B15  1  0.99987645  1.18884646  0.52414732  1.0
  B  B16  1  0.81115354  1.33530087  0.81102999  1.0
  B  B17  1  1.31115354  1.50012355  1.47585268  1.0
  B  B18  1  1.25012355  1.27427087  0.68897001  1.0
  B  B19  1  1.75012355  1.06115354  0.97585268  1.0
  Ru  Ru20  1  1.04067003  1.57428067  1.23750899  1.0
  Ru  Ru21  1  1.54067003  1.30316104  1.46638936  1.0
  Ru  Ru22  1  1.82428067  1.79067003  1.73750899  1.0
  Ru  Ru23  1  1.32428067  1.58677168  1.03361064  1.0
  Ru  Ru24  1  0.70932997  0.67571933  1.26249101  1.0
  Ru  Ru25  1  0.20932997  0.94683896  1.03361064  1.0
  Ru  Ru26  1  0.92571933  1.45932997  0.76249101  1.0
  Ru  Ru27  1  1.42571933  1.66322832  1.46638936  1.0
  Ru  Ru28  1  0.83677168  1.07428067  0.53361064  1.0
  Ru  Ru29  1  1.33677168  0.80316104  0.76249101  1.0
  Ru  Ru30  1  1.55316104  1.29067003  0.96638936  1.0
  Ru  Ru31  1  1.05316104  1.08677168  0.26249101  1.0
  Ru  Ru32  1  0.91322832  0.17571933  0.96638936  1.0
  Ru  Ru33  1  0.41322832  0.44683896  0.73750899  1.0
  Ru  Ru34  1  1.19683896  0.95932997  0.53361064  1.0
  Ru  Ru35  1  1.69683896  1.16322832  1.23750899  1.0
