# generated using pymatgen
data_NdMgPb
_symmetry_space_group_name_H-M   'P 1'
_cell_length_a   8.90309273
_cell_length_b   8.90309273
_cell_length_c   8.90309273
_cell_angle_alpha   150.34429172
_cell_angle_beta   150.34429172
_cell_angle_gamma   42.43625417
_symmetry_Int_Tables_number   1
_chemical_formula_structural   NdMgPb
_chemical_formula_sum   'Nd2 Mg2 Pb2'
_cell_volume   172.34161095
_cell_formula_units_Z   2
loop_
 _symmetry_equiv_pos_site_id
 _symmetry_equiv_pos_as_xyz
  1  'x, y, z'
loop_
 _atom_site_type_symbol
 _atom_site_label
 _atom_site_symmetry_multiplicity
 _atom_site_fract_x
 _atom_site_fract_y
 _atom_site_fract_z
 _atom_site_occupancy
  Nd  Nd0  1  0.66730250  0.66730250  1.00000000  1.0
  Nd  Nd1  1  0.33269750  0.33269750  -0.00000000  1.0
  Mg  Mg2  1  0.50000000  -0.00000000  0.50000000  1.0
  Mg  Mg3  1  0.00000000  0.50000000  0.50000000  1.0
  Pb  Pb4  1  0.86885389  0.86885389  1.00000000  1.0
  Pb  Pb5  1  0.13114611  0.13114611  -0.00000000  1.0
