# generated using pymatgen
data_Mg2SiO4
_symmetry_space_group_name_H-M   'P 1'
_cell_length_a   7.88152845
_cell_length_b   7.88152845
_cell_length_c   7.88152845
_cell_angle_alpha   136.50568712
_cell_angle_beta   85.43733870
_cell_angle_gamma   110.73870176
_symmetry_Int_Tables_number   1
_chemical_formula_structural   Mg2SiO4
_chemical_formula_sum   'Mg8 Si4 O16'
_cell_volume   302.94549724
_cell_formula_units_Z   4
loop_
 _symmetry_equiv_pos_site_id
 _symmetry_equiv_pos_as_xyz
  1  'x, y, z'
loop_
 _atom_site_type_symbol
 _atom_site_label
 _atom_site_symmetry_multiplicity
 _atom_site_fract_x
 _atom_site_fract_y
 _atom_site_fract_z
 _atom_site_occupancy
  Mg  Mg0  1  0.00000000  0.50000000  0.50000000  1.0
  Mg  Mg1  1  0.50000000  0.50000000  1.00000000  1.0
  Mg  Mg2  1  0.69445246  0.94445246  0.75000000  1.0
  Mg  Mg3  1  1.30554754  1.05554754  0.25000000  1.0
  Mg  Mg4  1  0.63190750  0.50000000  0.63190750  1.0
  Mg  Mg5  1  0.63190750  1.00000000  1.13190750  1.0
  Mg  Mg6  1  0.36809250  0.50000000  0.36809250  1.0
  Mg  Mg7  1  0.36809250  1.00000000  0.86809250  1.0
  Si  Si8  1  0.73597438  1.12604935  0.60992503  1.0
  Si  Si9  1  0.98387568  0.87395065  0.10992503  1.0
  Si  Si10  1  1.26402562  0.87395065  0.39007497  1.0
  Si  Si11  1  1.01612432  1.12604935  0.89007497  1.0
  O  O12  1  0.48634659  0.73634659  0.75000000  1.0
  O  O13  1  0.51365341  0.26365341  0.25000000  1.0
  O  O14  1  0.93919996  1.18919996  0.75000000  1.0
  O  O15  1  1.06080004  0.81080004  0.25000000  1.0
  O  O16  1  0.76447059  0.25553205  0.50893854  1.0
  O  O17  1  0.75340650  0.74446795  1.00893854  1.0
  O  O18  1  1.23552941  0.74446795  1.49106146  1.0
  O  O19  1  1.24659350  0.25553205  0.99106146  1.0
  O  O20  1  1.38156024  1.21398417  0.60211007  1.0
  O  O21  1  0.88812589  0.78601583  0.66757607  1.0
  O  O22  1  0.88812589  1.22054983  1.10211007  1.0
  O  O23  1  1.38156024  1.77945017  1.16757607  1.0
  O  O24  1  0.61843976  0.78601583  0.39788993  1.0
  O  O25  1  1.11187411  1.21398417  0.33242393  1.0
  O  O26  1  1.11187411  1.77945017  0.89788993  1.0
  O  O27  1  0.61843976  1.22054983  0.83242393  1.0
