# generated using pymatgen
data_CdI2
_symmetry_space_group_name_H-M   'P 1'
_cell_length_a   4.32791984
_cell_length_b   4.32791984
_cell_length_c   75.86550312
_cell_angle_alpha   90.00000000
_cell_angle_beta   90.00000000
_cell_angle_gamma   120.00000000
_symmetry_Int_Tables_number   1
_chemical_formula_structural   CdI2
_chemical_formula_sum   'Cd10 I20'
_cell_volume   1230.64669514
_cell_formula_units_Z   10
loop_
 _symmetry_equiv_pos_site_id
 _symmetry_equiv_pos_as_xyz
  1  'x, y, z'
loop_
 _atom_site_type_symbol
 _atom_site_label
 _atom_site_symmetry_multiplicity
 _atom_site_fract_x
 _atom_site_fract_y
 _atom_site_fract_z
 _atom_site_occupancy
  Cd  Cd0  1  0.00000000  0.00000000  0.02499754  1.0
  Cd  Cd1  1  0.00000000  0.00000000  0.22499665  1.0
  Cd  Cd2  1  0.00000000  0.00000000  0.42501076  1.0
  Cd  Cd3  1  0.00000000  0.00000000  0.52498115  1.0
  Cd  Cd4  1  0.00000000  0.00000000  0.72501310  1.0
  Cd  Cd5  1  0.00000000  0.00000000  0.82498269  1.0
  Cd  Cd6  1  0.66666667  0.33333333  0.12499835  1.0
  Cd  Cd7  1  0.66666667  0.33333333  0.32499861  1.0
  Cd  Cd8  1  0.66666667  0.33333333  0.62499970  1.0
  Cd  Cd9  1  0.33333333  0.66666667  0.92499501  1.0
  I  I10  1  0.00000000  0.00000000  0.14766420  1.0
  I  I11  1  0.00000000  0.00000000  0.34766363  1.0
  I  I12  1  0.00000000  0.00000000  0.64766523  1.0
  I  I13  1  0.00000000  0.00000000  0.90233648  1.0
  I  I14  1  0.66666667  0.33333333  0.04766435  1.0
  I  I15  1  0.66666667  0.33333333  0.24766157  1.0
  I  I16  1  0.66666667  0.33333333  0.44767360  1.0
  I  I17  1  0.66666667  0.33333333  0.54764665  1.0
  I  I18  1  0.66666667  0.33333333  0.74767608  1.0
  I  I19  1  0.66666667  0.33333333  0.84764204  1.0
  I  I20  1  0.66666667  0.33333333  0.94765634  1.0
  I  I21  1  0.33333333  0.66666667  0.00233683  1.0
  I  I22  1  0.33333333  0.66666667  0.10234438  1.0
  I  I23  1  0.33333333  0.66666667  0.20234214  1.0
  I  I24  1  0.33333333  0.66666667  0.30234424  1.0
  I  I25  1  0.33333333  0.66666667  0.40235640  1.0
  I  I26  1  0.33333333  0.66666667  0.50232160  1.0
  I  I27  1  0.33333333  0.66666667  0.60234510  1.0
  I  I28  1  0.33333333  0.66666667  0.70235983  1.0
  I  I29  1  0.33333333  0.66666667  0.80232577  1.0
