# generated using pymatgen
data_Rb4P2Se9
_symmetry_space_group_name_H-M   'P 1'
_cell_length_a   7.32894778
_cell_length_b   7.32894778
_cell_length_c   19.72367555
_cell_angle_alpha   87.97290537
_cell_angle_beta   92.02709463
_cell_angle_gamma   85.22066766
_symmetry_Int_Tables_number   1
_chemical_formula_structural   Rb4P2Se9
_chemical_formula_sum   'Rb8 P4 Se18'
_cell_volume   1054.30153776
_cell_formula_units_Z   2
loop_
 _symmetry_equiv_pos_site_id
 _symmetry_equiv_pos_as_xyz
  1  'x, y, z'
loop_
 _atom_site_type_symbol
 _atom_site_label
 _atom_site_symmetry_multiplicity
 _atom_site_fract_x
 _atom_site_fract_y
 _atom_site_fract_z
 _atom_site_occupancy
  Rb  Rb0  1  0.72249574  -0.21352832  0.02703408  1.0
  Rb  Rb1  1  1.21352832  0.27750426  0.52703408  1.0
  Rb  Rb2  1  0.78647168  -0.27750426  0.47296592  1.0
  Rb  Rb3  1  1.27750426  0.21352832  0.97296592  1.0
  Rb  Rb4  1  0.26325213  -0.06022020  0.31831918  1.0
  Rb  Rb5  1  1.06022020  0.73674787  0.81831918  1.0
  Rb  Rb6  1  0.93977980  -0.73674787  0.18168082  1.0
  Rb  Rb7  1  1.73674787  0.06022020  0.68168082  1.0
  P  P8  1  1.75480592  0.22346389  0.88103705  1.0
  P  P9  1  0.77653611  -0.75480592  0.38103705  1.0
  P  P10  1  1.22346389  0.75480592  0.61896295  1.0
  P  P11  1  0.24519408  -0.22346389  0.11896295  1.0
  Se  Se12  1  1.75558487  -0.00032457  0.32252264  1.0
  Se  Se13  1  1.00032457  -0.75558487  0.82252264  1.0
  Se  Se14  1  0.99967543  0.75558487  0.17747736  1.0
  Se  Se15  1  0.24441513  0.00032457  0.67747736  1.0
  Se  Se16  1  1.71119159  0.22594972  0.48930410  1.0
  Se  Se17  1  0.77405028  -0.71119159  0.98930410  1.0
  Se  Se18  1  1.22594972  0.71119159  0.01069590  1.0
  Se  Se19  1  0.28880841  -0.22594972  0.51069590  1.0
  Se  Se20  1  1.37475719  0.02846326  0.13989105  1.0
  Se  Se21  1  0.97153674  -0.37475719  0.63989105  1.0
  Se  Se22  1  1.02846326  0.37475719  0.36010895  1.0
  Se  Se23  1  0.62524281  -0.02846326  0.86010895  1.0
  Se  Se24  1  1.52013394  0.45563352  0.35227179  1.0
  Se  Se25  1  0.54436648  -0.52013394  0.85227179  1.0
  Se  Se26  1  1.45563352  0.52013394  0.14772821  1.0
  Se  Se27  1  0.47986606  -0.45563352  0.64772821  1.0
  Se  Se28  1  0.60427498  -0.39572502  0.25000000  1.0
  Se  Se29  1  1.39572502  0.39572502  0.75000000  1.0
