# generated using pymatgen
data_TaTe4Rh
_symmetry_space_group_name_H-M   'P 1'
_cell_length_a   3.80482427
_cell_length_b   12.74134671
_cell_length_c   13.76845585
_cell_angle_alpha   90.00000000
_cell_angle_beta   90.00000000
_cell_angle_gamma   90.00000000
_symmetry_Int_Tables_number   1
_chemical_formula_structural   TaTe4Rh
_chemical_formula_sum   'Ta4 Te16 Rh4'
_cell_volume   667.47525943
_cell_formula_units_Z   4
loop_
 _symmetry_equiv_pos_site_id
 _symmetry_equiv_pos_as_xyz
  1  'x, y, z'
loop_
 _atom_site_type_symbol
 _atom_site_label
 _atom_site_symmetry_multiplicity
 _atom_site_fract_x
 _atom_site_fract_y
 _atom_site_fract_z
 _atom_site_occupancy
  Ta  Ta0  1  0.50000000  0.94711151  0.50364278  1.0
  Ta  Ta1  1  0.00000000  0.05288849  0.00364278  1.0
  Ta  Ta2  1  0.50000000  0.73063734  0.99157516  1.0
  Ta  Ta3  1  0.00000000  0.26936266  0.49157516  1.0
  Te  Te4  1  0.50000000  0.93323285  0.89393220  1.0
  Te  Te5  1  0.00000000  0.06676715  0.39393220  1.0
  Te  Te6  1  0.50000000  0.80824232  0.35787625  1.0
  Te  Te7  1  0.00000000  0.19175768  0.85787625  1.0
  Te  Te8  1  0.50000000  0.65334282  0.59105063  1.0
  Te  Te9  1  0.00000000  0.34665718  0.09105063  1.0
  Te  Te10  1  0.50000000  0.58854144  0.13449490  1.0
  Te  Te11  1  0.00000000  0.41145856  0.63449490  1.0
  Te  Te12  1  0.50000000  0.43398637  0.90093531  1.0
  Te  Te13  1  0.00000000  0.56601363  0.40093531  1.0
  Te  Te14  1  0.50000000  0.32374663  0.35255088  1.0
  Te  Te15  1  0.00000000  0.67625337  0.85255088  1.0
  Te  Te16  1  0.50000000  0.15028776  0.60295577  1.0
  Te  Te17  1  0.00000000  0.84971224  0.10295577  1.0
  Te  Te18  1  0.50000000  0.10669803  0.14267252  1.0
  Te  Te19  1  0.00000000  0.89330197  0.64267252  1.0
  Rh  Rh20  1  0.50000000  0.46502339  0.50010717  1.0
  Rh  Rh21  1  0.00000000  0.53497661  0.00010717  1.0
  Rh  Rh22  1  0.50000000  0.24566743  0.99220643  1.0
  Rh  Rh23  1  0.00000000  0.75433257  0.49220643  1.0
