# generated using pymatgen
data_Cs2LiCr(CN)6
_symmetry_space_group_name_H-M   'P 1'
_cell_length_a   7.58745452
_cell_length_b   7.71091435
_cell_length_c   13.23482643
_cell_angle_alpha   90.00000000
_cell_angle_beta   125.34195818
_cell_angle_gamma   90.00000000
_symmetry_Int_Tables_number   1
_chemical_formula_structural   Cs2LiCr(CN)6
_chemical_formula_sum   'Cs4 Li2 Cr2 C12 N12'
_cell_volume   631.62346208
_cell_formula_units_Z   2
loop_
 _symmetry_equiv_pos_site_id
 _symmetry_equiv_pos_as_xyz
  1  'x, y, z'
loop_
 _atom_site_type_symbol
 _atom_site_label
 _atom_site_symmetry_multiplicity
 _atom_site_fract_x
 _atom_site_fract_y
 _atom_site_fract_z
 _atom_site_occupancy
  Cs  Cs0  1  0.24137374  0.46857184  0.24959047  1.0
  Cs  Cs1  1  0.24137374  0.03142816  0.74959047  1.0
  Cs  Cs2  1  0.75862626  0.96857184  0.25040953  1.0
  Cs  Cs3  1  0.75862626  0.53142816  0.75040953  1.0
  Li  Li4  1  0.50000000  0.00000000  0.50000000  1.0
  Li  Li5  1  0.50000000  0.50000000  0.00000000  1.0
  Cr  Cr6  1  0.00000000  0.00000000  0.00000000  1.0
  Cr  Cr7  1  -0.00000000  0.50000000  0.50000000  1.0
  C  C8  1  0.21854265  1.00352626  0.18765086  1.0
  C  C9  1  0.21854265  0.49647374  0.68765086  1.0
  C  C10  1  0.78145735  0.50352626  0.31234914  1.0
  C  C11  1  0.78145735  -0.00352626  0.81234914  1.0
  C  C12  1  0.80519606  0.16409419  0.01470764  1.0
  C  C13  1  0.80519606  0.33590581  0.51470764  1.0
  C  C14  1  0.19480394  0.66409419  0.48529236  1.0
  C  C15  1  0.19480394  0.83590581  0.98529236  1.0
  C  C16  1  0.14782821  0.20788117  0.98359217  1.0
  C  C17  1  0.14782821  0.29211883  0.48359217  1.0
  C  C18  1  0.85217179  0.70788117  0.51640783  1.0
  C  C19  1  0.85217179  0.79211883  0.01640783  1.0
  N  N20  1  0.76751883  0.67277976  0.02652755  1.0
  N  N21  1  0.76751883  0.82722024  0.52652755  1.0
  N  N22  1  0.23248117  0.17277976  0.47347245  1.0
  N  N23  1  0.23248117  0.32722024  0.97347245  1.0
  N  N24  1  0.34200306  0.00665919  0.29582534  1.0
  N  N25  1  0.34200306  0.49334081  0.79582534  1.0
  N  N26  1  0.65799694  0.50665919  0.20417466  1.0
  N  N27  1  0.65799694  0.99334081  0.70417466  1.0
  N  N28  1  0.69372017  0.25996349  0.02271402  1.0
  N  N29  1  0.69372017  0.24003651  0.52271402  1.0
  N  N30  1  0.30627983  0.75996349  0.47728598  1.0
  N  N31  1  0.30627983  0.74003651  0.97728598  1.0
