# generated using pymatgen
data_MgTi7H16
_symmetry_space_group_name_H-M   'P 1'
_cell_length_a   6.28177779
_cell_length_b   6.28177779
_cell_length_c   6.28177779
_cell_angle_alpha   60.00000000
_cell_angle_beta   60.00000000
_cell_angle_gamma   60.00000000
_symmetry_Int_Tables_number   1
_chemical_formula_structural   MgTi7H16
_chemical_formula_sum   'Mg1 Ti7 H16'
_cell_volume   175.28013979
_cell_formula_units_Z   1
loop_
 _symmetry_equiv_pos_site_id
 _symmetry_equiv_pos_as_xyz
  1  'x, y, z'
loop_
 _atom_site_type_symbol
 _atom_site_label
 _atom_site_symmetry_multiplicity
 _atom_site_fract_x
 _atom_site_fract_y
 _atom_site_fract_z
 _atom_site_occupancy
  Mg  Mg0  1  0.00000000  0.00000000  0.00000000  1.0
  Ti  Ti1  1  -0.50000000  0.50000000  0.50000000  1.0
  Ti  Ti2  1  -0.00000000  -0.00000000  0.50000000  1.0
  Ti  Ti3  1  0.50000000  1.00000000  -0.50000000  1.0
  Ti  Ti4  1  1.00000000  0.50000000  -0.50000000  1.0
  Ti  Ti5  1  0.50000000  -0.50000000  1.00000000  1.0
  Ti  Ti6  1  0.00000000  1.50000000  -0.00000000  1.0
  Ti  Ti7  1  1.50000000  0.00000000  -0.00000000  1.0
  H  H8  1  0.87135382  0.87135382  -0.61406146  1.0
  H  H9  1  0.87135382  0.38593854  -0.12864618  1.0
  H  H10  1  0.38593854  0.87135382  -0.12864618  1.0
  H  H11  1  0.87135382  0.87135382  -0.12864618  1.0
  H  H12  1  1.12864618  0.12864618  0.61406146  1.0
  H  H13  1  1.12864618  0.61406146  0.12864618  1.0
  H  H14  1  1.61406146  0.12864618  0.12864618  1.0
  H  H15  1  1.12864618  0.12864618  0.12864618  1.0
  H  H16  1  0.62445327  0.62445327  1.12664019  1.0
  H  H17  1  0.62445327  1.12664019  -0.37554673  1.0
  H  H18  1  1.12664019  0.62445327  0.62445327  1.0
  H  H19  1  0.62445327  0.62445327  -0.37554673  1.0
  H  H20  1  0.37554673  1.37554673  -0.12664019  1.0
  H  H21  1  1.37554673  -0.12664019  0.37554673  1.0
  H  H22  1  -0.12664019  1.37554673  0.37554673  1.0
  H  H23  1  1.37554673  0.37554673  0.37554673  1.0
