# generated using pymatgen
data_MnCuP
_symmetry_space_group_name_H-M   'P 1'
_cell_length_a   5.94726883
_cell_length_b   3.48741917
_cell_length_c   7.31734851
_cell_angle_alpha   90.00000000
_cell_angle_beta   90.00000000
_cell_angle_gamma   90.00000000
_symmetry_Int_Tables_number   1
_chemical_formula_structural   MnCuP
_chemical_formula_sum   'Mn4 Cu4 P4'
_cell_volume   151.76633982
_cell_formula_units_Z   4
loop_
 _symmetry_equiv_pos_site_id
 _symmetry_equiv_pos_as_xyz
  1  'x, y, z'
loop_
 _atom_site_type_symbol
 _atom_site_label
 _atom_site_symmetry_multiplicity
 _atom_site_fract_x
 _atom_site_fract_y
 _atom_site_fract_z
 _atom_site_occupancy
  Mn  Mn0  1  0.96982248  0.75000000  0.66014450  1.0
  Mn  Mn1  1  0.46982248  0.75000000  0.83985550  1.0
  Mn  Mn2  1  0.03017752  0.25000000  0.33985550  1.0
  Mn  Mn3  1  0.53017752  0.25000000  0.16014450  1.0
  Cu  Cu4  1  0.86211012  0.75000000  0.06585651  1.0
  Cu  Cu5  1  0.36211012  0.75000000  0.43414349  1.0
  Cu  Cu6  1  0.13788988  0.25000000  0.93414349  1.0
  Cu  Cu7  1  0.63788988  0.25000000  0.56585651  1.0
  P  P8  1  0.75147213  0.75000000  0.36586972  1.0
  P  P9  1  0.25147213  0.75000000  0.13413028  1.0
  P  P10  1  0.24852787  0.25000000  0.63413028  1.0
  P  P11  1  0.74852787  0.25000000  0.86586972  1.0
