# generated using pymatgen
data_Ba5Nb4O15
_symmetry_space_group_name_H-M   'P 1'
_cell_length_a   5.85274257
_cell_length_b   5.85274257
_cell_length_c   11.93607290
_cell_angle_alpha   90.00000000
_cell_angle_beta   90.00000000
_cell_angle_gamma   120.00000000
_symmetry_Int_Tables_number   1
_chemical_formula_structural   Ba5Nb4O15
_chemical_formula_sum   'Ba5 Nb4 O15'
_cell_volume   354.08777945
_cell_formula_units_Z   1
loop_
 _symmetry_equiv_pos_site_id
 _symmetry_equiv_pos_as_xyz
  1  'x, y, z'
loop_
 _atom_site_type_symbol
 _atom_site_label
 _atom_site_symmetry_multiplicity
 _atom_site_fract_x
 _atom_site_fract_y
 _atom_site_fract_z
 _atom_site_occupancy
  Ba  Ba0  1  0.33333333  0.66666667  0.42924892  1.0
  Ba  Ba1  1  0.66666667  0.33333333  0.57075108  1.0
  Ba  Ba2  1  0.33333333  0.66666667  0.79197450  1.0
  Ba  Ba3  1  0.66666667  0.33333333  0.20802550  1.0
  Ba  Ba4  1  0.00000000  0.00000000  0.00000000  1.0
  Nb  Nb5  1  0.33333333  0.66666667  0.10491189  1.0
  Nb  Nb6  1  0.66666667  0.33333333  0.89508811  1.0
  Nb  Nb7  1  0.00000000  0.00000000  0.31628771  1.0
  Nb  Nb8  1  0.00000000  0.00000000  0.68371229  1.0
  O  O9  1  0.66044857  0.83022428  0.19142368  1.0
  O  O10  1  0.83022428  0.66044857  0.80857632  1.0
  O  O11  1  0.83022428  0.16977572  0.80857632  1.0
  O  O12  1  0.16977572  0.83022428  0.19142368  1.0
  O  O13  1  0.16977572  0.33955143  0.19142368  1.0
  O  O14  1  0.33955143  0.16977572  0.80857632  1.0
  O  O15  1  0.32638523  0.16319261  0.38658480  1.0
  O  O16  1  0.16319261  0.32638523  0.61341520  1.0
  O  O17  1  0.16319261  0.83680739  0.61341520  1.0
  O  O18  1  0.83680739  0.16319261  0.38658480  1.0
  O  O19  1  0.83680739  0.67361477  0.38658480  1.0
  O  O20  1  0.67361477  0.83680739  0.61341520  1.0
  O  O21  1  0.50000000  0.50000000  0.00000000  1.0
  O  O22  1  0.50000000  0.00000000  0.00000000  1.0
  O  O23  1  0.00000000  0.50000000  0.00000000  1.0
