# generated using pymatgen
data_Li4H7RhS3O13
_symmetry_space_group_name_H-M   'P 1'
_cell_length_a   6.55777809
_cell_length_b   6.55777809
_cell_length_c   6.55777809
_cell_angle_alpha   78.88711008
_cell_angle_beta   78.88711008
_cell_angle_gamma   78.88711008
_symmetry_Int_Tables_number   1
_chemical_formula_structural   Li4H7RhS3O13
_chemical_formula_sum   'Li4 H7 Rh1 S3 O13'
_cell_volume   267.96810279
_cell_formula_units_Z   1
loop_
 _symmetry_equiv_pos_site_id
 _symmetry_equiv_pos_as_xyz
  1  'x, y, z'
loop_
 _atom_site_type_symbol
 _atom_site_label
 _atom_site_symmetry_multiplicity
 _atom_site_fract_x
 _atom_site_fract_y
 _atom_site_fract_z
 _atom_site_occupancy
  Li  Li0  1  0.59417787  0.87066921  -0.56091313  1.0
  Li  Li1  1  0.87066921  0.43908687  -0.40582213  1.0
  Li  Li2  1  0.43908687  0.59417787  -0.12933079  1.0
  Li  Li3  1  1.29532996  1.29532996  0.29532996  1.0
  H  H4  1  0.90998768  0.05439058  -0.38682704  1.0
  H  H5  1  1.05439058  -0.38682704  -0.09001232  1.0
  H  H6  1  0.61317296  -0.09001232  0.05439058  1.0
  H  H7  1  0.68982465  0.09684534  -0.24324071  1.0
  H  H8  1  1.09684534  -0.24324071  -0.31017535  1.0
  H  H9  1  0.75675929  -0.31017535  0.09684534  1.0
  H  H10  1  0.52684117  0.52684117  -0.47315883  1.0
  Rh  Rh11  1  0.00488932  0.00488932  0.00488932  1.0
  S  S12  1  0.17286518  0.84311771  -0.72364699  1.0
  S  S13  1  0.84311771  0.27635301  -0.82713482  1.0
  S  S14  1  0.27635301  0.17286518  -0.15688229  1.0
  O  O15  1  0.31539694  0.97097281  -0.67087079  1.0
  O  O16  1  0.97097281  0.32912921  -0.68460306  1.0
  O  O17  1  0.32912921  0.31539694  -0.02902719  1.0
  O  O18  1  0.29588467  0.64083580  -0.78355822  1.0
  O  O19  1  0.64083580  0.21644178  -0.70411533  1.0
  O  O20  1  0.21644178  0.29588467  -0.35916420  1.0
  O  O21  1  1.00484774  0.80206033  -0.53179840  1.0
  O  O22  1  0.80206033  0.46820160  0.00484774  1.0
  O  O23  1  0.46820160  1.00484774  -0.19793967  1.0
  O  O24  1  0.83815364  0.12884334  -0.26899563  1.0
  O  O25  1  1.12884334  -0.26899563  -0.16184636  1.0
  O  O26  1  0.73100437  -0.16184636  0.12884334  1.0
  O  O27  1  0.59951697  0.59951697  -0.40048303  1.0
