# generated using pymatgen
data_KMn(PO3)3
_symmetry_space_group_name_H-M   'P 1'
_cell_length_a   6.79800971
_cell_length_b   6.79800971
_cell_length_c   10.10104873
_cell_angle_alpha   90.00000000
_cell_angle_beta   90.00000000
_cell_angle_gamma   120.00000000
_symmetry_Int_Tables_number   1
_chemical_formula_structural   KMn(PO3)3
_chemical_formula_sum   'K2 Mn2 P6 O18'
_cell_volume   404.25989479
_cell_formula_units_Z   2
loop_
 _symmetry_equiv_pos_site_id
 _symmetry_equiv_pos_as_xyz
  1  'x, y, z'
loop_
 _atom_site_type_symbol
 _atom_site_label
 _atom_site_symmetry_multiplicity
 _atom_site_fract_x
 _atom_site_fract_y
 _atom_site_fract_z
 _atom_site_occupancy
  K  K0  1  0.00000000  0.00000000  0.50000000  1.0
  K  K1  1  0.00000000  0.00000000  0.00000000  1.0
  Mn  Mn2  1  0.33333333  0.66666667  0.50000000  1.0
  Mn  Mn3  1  0.33333333  0.66666667  0.00000000  1.0
  P  P4  1  0.61378620  0.55860521  0.25000000  1.0
  P  P5  1  0.61378620  0.05518099  0.75000000  1.0
  P  P6  1  0.94481901  0.55860521  0.75000000  1.0
  P  P7  1  0.94481901  0.38621380  0.25000000  1.0
  P  P8  1  0.44139479  0.38621380  0.75000000  1.0
  P  P9  1  0.44139479  0.05518099  0.25000000  1.0
  O  O10  1  0.06559067  0.40285957  0.37819022  1.0
  O  O11  1  0.06559067  0.40285957  0.12180978  1.0
  O  O12  1  0.06559067  0.66273110  0.87819022  1.0
  O  O13  1  0.06559067  0.66273110  0.62180978  1.0
  O  O14  1  0.33726890  0.40285957  0.87819022  1.0
  O  O15  1  0.33726890  0.40285957  0.62180978  1.0
  O  O16  1  0.33726890  0.93440933  0.37819022  1.0
  O  O17  1  0.33726890  0.93440933  0.12180978  1.0
  O  O18  1  0.59714043  0.93440933  0.87819022  1.0
  O  O19  1  0.59714043  0.93440933  0.62180978  1.0
  O  O20  1  0.59714043  0.66273110  0.37819022  1.0
  O  O21  1  0.59714043  0.66273110  0.12180978  1.0
  O  O22  1  0.85755224  0.56845239  0.25000000  1.0
  O  O23  1  0.85755224  0.28909984  0.75000000  1.0
  O  O24  1  0.71090016  0.56845239  0.75000000  1.0
  O  O25  1  0.71090016  0.14244776  0.25000000  1.0
  O  O26  1  0.43154761  0.14244776  0.75000000  1.0
  O  O27  1  0.43154761  0.28909984  0.25000000  1.0
