# generated using pymatgen
data_NaNb2PO8
_symmetry_space_group_name_H-M   'P 1'
_cell_length_a   6.79356127
_cell_length_b   5.48201908
_cell_length_c   18.11377061
_cell_angle_alpha   90.00000000
_cell_angle_beta   90.00049063
_cell_angle_gamma   90.00000000
_symmetry_Int_Tables_number   1
_chemical_formula_structural   NaNb2PO8
_chemical_formula_sum   'Na4 Nb8 P4 O32'
_cell_volume   674.60087860
_cell_formula_units_Z   4
loop_
 _symmetry_equiv_pos_site_id
 _symmetry_equiv_pos_as_xyz
  1  'x, y, z'
loop_
 _atom_site_type_symbol
 _atom_site_label
 _atom_site_symmetry_multiplicity
 _atom_site_fract_x
 _atom_site_fract_y
 _atom_site_fract_z
 _atom_site_occupancy
  Na  Na0  1  0.78793914  0.05974894  0.78428116  1.0
  Na  Na1  1  0.21206086  0.55974894  0.21571884  1.0
  Na  Na2  1  0.71218836  -0.00986619  0.28435893  1.0
  Na  Na3  1  0.28781164  0.49013381  0.71564107  1.0
  Nb  Nb4  1  0.98811365  0.53191196  0.87396828  1.0
  Nb  Nb5  1  0.01188635  0.03191196  0.12603172  1.0
  Nb  Nb6  1  0.83923155  0.01214948  0.46148575  1.0
  Nb  Nb7  1  0.16076845  0.51214948  0.53851425  1.0
  Nb  Nb8  1  0.66081708  0.03755598  0.96145758  1.0
  Nb  Nb9  1  0.33918292  0.53755598  0.03854242  1.0
  Nb  Nb10  1  0.48808908  0.01781985  0.62602300  1.0
  Nb  Nb11  1  0.51191092  0.51781985  0.37397700  1.0
  P  P12  1  0.80507092  0.54133763  0.68634183  1.0
  P  P13  1  0.19492908  0.04133763  0.31365817  1.0
  P  P14  1  0.30513437  0.00837305  0.81365446  1.0
  P  P15  1  0.69486563  0.50837305  0.18634554  1.0
  O  O16  1  0.99059989  0.52505235  0.63700621  1.0
  O  O17  1  0.00940011  0.02505235  0.36299379  1.0
  O  O18  1  0.97757890  0.31209356  0.49236828  1.0
  O  O19  1  0.02242110  0.81209356  0.50763172  1.0
  O  O20  1  0.87577667  0.50667648  0.76823877  1.0
  O  O21  1  0.12422333  0.00667648  0.23176123  1.0
  O  O22  1  0.84638316  0.80310897  0.89654076  1.0
  O  O23  1  0.15361684  0.30310897  0.10345924  1.0
  O  O24  1  0.79030999  0.25086966  0.18152924  1.0
  O  O25  1  0.20969001  0.75086966  0.81847076  1.0
  O  O26  1  0.84205510  0.02528377  0.04069419  1.0
  O  O27  1  0.15794490  0.52528377  0.95930581  1.0
  O  O28  1  0.80685831  0.29699287  0.90793140  1.0
  O  O29  1  0.19314169  0.79699287  0.09206860  1.0
  O  O30  1  0.70967070  0.79887279  0.68157804  1.0
  O  O31  1  0.29032930  0.29887279  0.31842196  1.0
  O  O32  1  0.65808639  0.02462628  0.54074463  1.0
  O  O33  1  0.34191361  0.52462628  0.45925537  1.0
  O  O34  1  0.65686748  0.33475402  0.67097600  1.0
  O  O35  1  0.34313252  0.83475402  0.32902400  1.0
  O  O36  1  0.65347472  0.24655807  0.39660579  1.0
  O  O37  1  0.34652528  0.74655807  0.60339421  1.0
  O  O38  1  0.49071128  0.02465192  0.86295772  1.0
  O  O39  1  0.50928872  0.52465192  0.13704228  1.0
  O  O40  1  0.47766306  0.23786458  1.00754225  1.0
  O  O41  1  0.52233694  0.73786458  -0.00754225  1.0
  O  O42  1  0.37572679  0.04283222  0.73173766  1.0
  O  O43  1  0.62427321  0.54283222  0.26826234  1.0
  O  O44  1  0.30675682  0.25267669  0.59203829  1.0
  O  O45  1  0.69324318  0.75267669  0.40796171  1.0
  O  O46  1  0.15703645  0.21505506  0.82903432  1.0
  O  O47  1  0.84296355  0.71505506  0.17096568  1.0
