# generated using pymatgen
data_V6O13
_symmetry_space_group_name_H-M   'P 1'
_cell_length_a   10.23564041
_cell_length_b   3.68235765
_cell_length_c   11.92323086
_cell_angle_alpha   90.00000000
_cell_angle_beta   100.72646783
_cell_angle_gamma   90.00000000
_symmetry_Int_Tables_number   1
_chemical_formula_structural   V6O13
_chemical_formula_sum   'V12 O26'
_cell_volume   441.54950311
_cell_formula_units_Z   2
loop_
 _symmetry_equiv_pos_site_id
 _symmetry_equiv_pos_as_xyz
  1  'x, y, z'
loop_
 _atom_site_type_symbol
 _atom_site_label
 _atom_site_symmetry_multiplicity
 _atom_site_fract_x
 _atom_site_fract_y
 _atom_site_fract_z
 _atom_site_occupancy
  V  V0  1  1.00279348  0.49976369  0.35329790  1.0
  V  V1  1  1.00279348  0.00023631  0.85329790  1.0
  V  V2  1  -0.00279348  0.99976369  0.14670210  1.0
  V  V3  1  -0.00279348  0.50023631  0.64670210  1.0
  V  V4  1  0.63933988  0.50000661  0.29117674  1.0
  V  V5  1  0.63933988  -0.00000661  0.79117674  1.0
  V  V6  1  0.36066012  1.00000661  0.20882326  1.0
  V  V7  1  0.36066012  0.49999339  0.70882326  1.0
  V  V8  1  0.36099162  0.50004520  0.41139075  1.0
  V  V9  1  0.36099162  -0.00004520  0.91139075  1.0
  V  V10  1  0.63900838  1.00004520  0.08860925  1.0
  V  V11  1  0.63900838  0.49995480  0.58860925  1.0
  O  O12  1  0.40313818  0.50001247  0.24630381  1.0
  O  O13  1  0.40313818  -0.00001247  0.74630381  1.0
  O  O14  1  0.59686182  1.00001247  0.25369619  1.0
  O  O15  1  0.59686182  0.49998753  0.75369619  1.0
  O  O16  1  0.80260532  0.49990731  0.32432115  1.0
  O  O17  1  0.80260532  0.00009269  0.82432115  1.0
  O  O18  1  0.19739468  0.99990731  0.17567885  1.0
  O  O19  1  0.19739468  0.50009269  0.67567885  1.0
  O  O20  1  0.80463339  0.99992256  0.11317000  1.0
  O  O21  1  0.80463339  0.50007744  0.61317000  1.0
  O  O22  1  0.19536661  0.49992256  0.38683000  1.0
  O  O23  1  0.19536661  0.00007744  0.88683000  1.0
  O  O24  1  0.99923965  0.99984213  0.32042696  1.0
  O  O25  1  0.99923965  0.50015787  0.82042696  1.0
  O  O26  1  0.00076035  0.49984213  0.17957304  1.0
  O  O27  1  0.00076035  0.00015787  0.67957304  1.0
  O  O28  1  0.61584298  0.50002028  0.12128179  1.0
  O  O29  1  0.61584298  -0.00002028  0.62128179  1.0
  O  O30  1  0.38415702  1.00002028  0.37871821  1.0
  O  O31  1  0.38415702  0.49997972  0.87871821  1.0
  O  O32  1  0.59339409  0.99997313  0.93636536  1.0
  O  O33  1  0.59339409  0.50002687  0.43636536  1.0
  O  O34  1  0.40660591  0.49997313  0.56363464  1.0
  O  O35  1  0.40660591  0.00002687  0.06363464  1.0
  O  O36  1  0.00000000  0.50000000  0.50000000  1.0
  O  O37  1  0.00000000  0.00000000  0.00000000  1.0
