# generated using pymatgen
data_La2Ge5Pd3
_symmetry_space_group_name_H-M   'P 1'
_cell_length_a   8.61857897
_cell_length_b   8.61857897
_cell_length_c   8.61857897
_cell_angle_alpha   106.52447649
_cell_angle_beta   88.87908369
_cell_angle_gamma   137.31883681
_symmetry_Int_Tables_number   1
_chemical_formula_structural   La2Ge5Pd3
_chemical_formula_sum   'La4 Ge10 Pd6'
_cell_volume   397.98503142
_cell_formula_units_Z   2
loop_
 _symmetry_equiv_pos_site_id
 _symmetry_equiv_pos_as_xyz
  1  'x, y, z'
loop_
 _atom_site_type_symbol
 _atom_site_label
 _atom_site_symmetry_multiplicity
 _atom_site_fract_x
 _atom_site_fract_y
 _atom_site_fract_z
 _atom_site_occupancy
  La  La0  1  0.87039662  0.23338000  1.10377662  1.0
  La  La1  1  0.12960338  0.76662000  0.89622338  1.0
  La  La2  1  1.37039662  1.26662000  1.63701663  1.0
  La  La3  1  0.62960338  0.73338000  0.36298337  1.0
  Ge  Ge4  1  0.75000000  0.75000000  -0.00000000  1.0
  Ge  Ge5  1  0.25000000  0.25000000  -0.00000000  1.0
  Ge  Ge6  1  0.60712459  1.15229625  0.75942084  1.0
  Ge  Ge7  1  1.39287541  0.84770375  1.24057916  1.0
  Ge  Ge8  1  0.10712459  0.34770375  0.45482834  1.0
  Ge  Ge9  1  0.89287541  0.65229625  1.54517166  1.0
  Ge  Ge10  1  1.02237607  0.75000000  1.27237607  1.0
  Ge  Ge11  1  0.47762393  0.75000000  0.72762393  1.0
  Ge  Ge12  1  0.97762393  1.25000000  0.72762393  1.0
  Ge  Ge13  1  1.52237607  1.25000000  1.27237607  1.0
  Pd  Pd14  1  0.63882876  0.38968055  1.02850930  1.0
  Pd  Pd15  1  0.36117124  0.61031945  0.97149070  1.0
  Pd  Pd16  1  1.13882876  1.11031945  1.24914821  1.0
  Pd  Pd17  1  0.86117124  0.88968055  0.75085179  1.0
  Pd  Pd18  1  0.75000000  1.25000000  0.50000000  1.0
  Pd  Pd19  1  0.25000000  0.75000000  0.50000000  1.0
