# generated using pymatgen
data_Ba3TiO5
_symmetry_space_group_name_H-M   'P 1'
_cell_length_a   7.94328061
_cell_length_b   7.94328061
_cell_length_c   7.94328061
_cell_angle_alpha   124.52483505
_cell_angle_beta   124.52483505
_cell_angle_gamma   82.32655904
_symmetry_Int_Tables_number   1
_chemical_formula_structural   Ba3TiO5
_chemical_formula_sum   'Ba6 Ti2 O10'
_cell_volume   326.93073134
_cell_formula_units_Z   2
loop_
 _symmetry_equiv_pos_site_id
 _symmetry_equiv_pos_as_xyz
  1  'x, y, z'
loop_
 _atom_site_type_symbol
 _atom_site_label
 _atom_site_symmetry_multiplicity
 _atom_site_fract_x
 _atom_site_fract_y
 _atom_site_fract_z
 _atom_site_occupancy
  Ba  Ba0  1  0.81835827  0.31835827  1.13671653  1.0
  Ba  Ba1  1  0.68164173  0.81835827  1.50000000  1.0
  Ba  Ba2  1  0.31835827  0.18164173  0.50000000  1.0
  Ba  Ba3  1  0.18164173  0.68164173  0.86328347  1.0
  Ba  Ba4  1  0.75000000  0.75000000  1.00000000  1.0
  Ba  Ba5  1  0.25000000  0.25000000  0.00000000  1.0
  Ti  Ti6  1  0.25000000  0.75000000  0.50000000  1.0
  Ti  Ti7  1  0.75000000  0.25000000  0.50000000  1.0
  O  O8  1  1.20445736  0.70445736  1.22325904  1.0
  O  O9  1  0.51880168  1.01880168  1.22325904  1.0
  O  O10  1  0.98119832  1.20445736  1.50000000  1.0
  O  O11  1  0.29554264  0.51880168  0.50000000  1.0
  O  O12  1  0.70445736  0.48119832  0.50000000  1.0
  O  O13  1  1.01880168  0.79554264  1.50000000  1.0
  O  O14  1  0.48119832  0.98119832  0.77674096  1.0
  O  O15  1  0.79554264  0.29554264  0.77674096  1.0
  O  O16  1  0.00000000  0.00000000  0.00000000  1.0
  O  O17  1  0.50000000  0.50000000  1.00000000  1.0
