# generated using pymatgen
data_TiI3
_symmetry_space_group_name_H-M   'P 1'
_cell_length_a   6.47410174
_cell_length_b   13.41255953
_cell_length_c   7.77396820
_cell_angle_alpha   90.00000000
_cell_angle_beta   90.00000000
_cell_angle_gamma   90.00000000
_symmetry_Int_Tables_number   1
_chemical_formula_structural   TiI3
_chemical_formula_sum   'Ti4 I12'
_cell_volume   675.04689265
_cell_formula_units_Z   4
loop_
 _symmetry_equiv_pos_site_id
 _symmetry_equiv_pos_as_xyz
  1  'x, y, z'
loop_
 _atom_site_type_symbol
 _atom_site_label
 _atom_site_symmetry_multiplicity
 _atom_site_fract_x
 _atom_site_fract_y
 _atom_site_fract_z
 _atom_site_occupancy
  Ti  Ti0  1  0.27557384  0.50000000  0.24681162  1.0
  Ti  Ti1  1  0.72442616  0.50000000  0.24681162  1.0
  Ti  Ti2  1  0.77557384  0.00000000  0.75318838  1.0
  Ti  Ti3  1  0.22442616  0.00000000  0.75318838  1.0
  I  I4  1  0.50000000  0.34932290  0.39750448  1.0
  I  I5  1  0.00000000  0.84932290  0.60249552  1.0
  I  I6  1  0.00000000  0.15067710  0.60249552  1.0
  I  I7  1  0.50000000  0.65067710  0.39750448  1.0
  I  I8  1  0.50000000  0.85617309  0.89603741  1.0
  I  I9  1  0.00000000  0.35617309  0.10396259  1.0
  I  I10  1  0.00000000  0.64382691  0.10396259  1.0
  I  I11  1  0.50000000  0.14382691  0.89603741  1.0
  I  I12  1  0.50000000  0.50000000  0.94678200  1.0
  I  I13  1  0.00000000  0.00000000  0.05321800  1.0
  I  I14  1  0.50000000  0.00000000  0.46628898  1.0
  I  I15  1  0.00000000  0.50000000  0.53371102  1.0
