# generated using pymatgen
data_KP
_symmetry_space_group_name_H-M   'P 1'
_cell_length_a   5.19275753
_cell_length_b   5.19275753
_cell_length_c   5.19275753
_cell_angle_alpha   116.58068785
_cell_angle_beta   116.58068785
_cell_angle_gamma   96.03204326
_symmetry_Int_Tables_number   1
_chemical_formula_structural   KP
_chemical_formula_sum   'K2 P2'
_cell_volume   103.50603201
_cell_formula_units_Z   2
loop_
 _symmetry_equiv_pos_site_id
 _symmetry_equiv_pos_as_xyz
  1  'x, y, z'
loop_
 _atom_site_type_symbol
 _atom_site_label
 _atom_site_symmetry_multiplicity
 _atom_site_fract_x
 _atom_site_fract_y
 _atom_site_fract_z
 _atom_site_occupancy
  K  K0  1  0.50000000  0.50000000  -0.00000000  1.0
  K  K1  1  1.25000000  0.75000000  0.50000000  1.0
  P  P2  1  0.00000000  0.00000000  0.00000000  1.0
  P  P3  1  0.75000000  1.25000000  0.50000000  1.0
