# generated using pymatgen
data_KMn2Cr2O10
_symmetry_space_group_name_H-M   'P 1'
_cell_length_a   5.51599574
_cell_length_b   5.51599574
_cell_length_c   8.41167821
_cell_angle_alpha   72.64058682
_cell_angle_beta   107.35941318
_cell_angle_gamma   116.37965750
_symmetry_Int_Tables_number   1
_chemical_formula_structural   KMn2Cr2O10
_chemical_formula_sum   'K1 Mn2 Cr2 O10'
_cell_volume   214.68804185
_cell_formula_units_Z   1
loop_
 _symmetry_equiv_pos_site_id
 _symmetry_equiv_pos_as_xyz
  1  'x, y, z'
loop_
 _atom_site_type_symbol
 _atom_site_label
 _atom_site_symmetry_multiplicity
 _atom_site_fract_x
 _atom_site_fract_y
 _atom_site_fract_z
 _atom_site_occupancy
  Mn  Mn0  1  1.50000000  -0.00000000  0.50000000  1.0
  Mn  Mn1  1  1.00000000  0.50000000  0.50000000  1.0
  O  O2  1  1.67527612  -0.21562870  0.70242095  1.0
  O  O3  1  1.21562870  -0.67527612  0.70242095  1.0
  O  O4  1  0.78437130  0.67527612  0.29757905  1.0
  O  O5  1  0.32472388  0.21562870  0.29757905  1.0
  O  O6  1  0.67229288  0.32770712  0.61958190  1.0
  O  O7  1  1.32770712  -0.32770712  0.38041810  1.0
  O  O8  1  1.33591927  -0.33591927  1.05752027  1.0
  O  O9  1  0.66408073  0.33591927  -0.05752027  1.0
  O  O10  1  0.81896889  0.18103111  0.42102809  1.0
  O  O11  1  1.18103111  -0.18103111  0.57897191  1.0
  K  K12  1  0.00000000  0.00000000  0.00000000  1.0
  Cr  Cr13  1  0.55866997  0.44133003  0.74558699  1.0
  Cr  Cr14  1  1.44133003  -0.44133003  0.25441301  1.0
