# generated using pymatgen
data_La4In(Ge2Ir)2
_symmetry_space_group_name_H-M   'P 1'
_cell_length_a   8.55090743
_cell_length_b   8.55090743
_cell_length_c   7.37454001
_cell_angle_alpha   74.55792937
_cell_angle_beta   105.44207063
_cell_angle_gamma   149.86612863
_symmetry_Int_Tables_number   1
_chemical_formula_structural   La4In(Ge2Ir)2
_chemical_formula_sum   'La4 In1 Ge4 Ir2'
_cell_volume   260.20168115
_cell_formula_units_Z   1
loop_
 _symmetry_equiv_pos_site_id
 _symmetry_equiv_pos_as_xyz
  1  'x, y, z'
loop_
 _atom_site_type_symbol
 _atom_site_label
 _atom_site_symmetry_multiplicity
 _atom_site_fract_x
 _atom_site_fract_y
 _atom_site_fract_z
 _atom_site_occupancy
  La  La0  1  0.65348417  -0.65348417  0.93766619  1.0
  La  La1  1  1.34651583  -0.34651583  0.06233381  1.0
  La  La2  1  1.41210967  -0.41210967  0.61993704  1.0
  La  La3  1  0.58789033  -0.58789033  0.38006296  1.0
  In  In4  1  0.00000000  0.00000000  0.00000000  1.0
  Ge  Ge5  1  0.93466247  -0.93466247  0.34424182  1.0
  Ge  Ge6  1  1.06533753  -0.06533753  0.65575818  1.0
  Ge  Ge7  1  0.78882493  -0.78882493  0.72319245  1.0
  Ge  Ge8  1  1.21117507  -0.21117507  0.27680755  1.0
  Ir  Ir9  1  0.78300744  -0.78300744  0.37448794  1.0
  Ir  Ir10  1  1.21699256  -0.21699256  0.62551206  1.0
