# generated using pymatgen
data_SrB4O7
_symmetry_space_group_name_H-M   'P 1'
_cell_length_a   10.82406410
_cell_length_b   4.46770358
_cell_length_c   4.27667019
_cell_angle_alpha   90.00000000
_cell_angle_beta   90.00000000
_cell_angle_gamma   90.00000000
_symmetry_Int_Tables_number   1
_chemical_formula_structural   SrB4O7
_chemical_formula_sum   'Sr2 B8 O14'
_cell_volume   206.81425315
_cell_formula_units_Z   2
loop_
 _symmetry_equiv_pos_site_id
 _symmetry_equiv_pos_as_xyz
  1  'x, y, z'
loop_
 _atom_site_type_symbol
 _atom_site_label
 _atom_site_symmetry_multiplicity
 _atom_site_fract_x
 _atom_site_fract_y
 _atom_site_fract_z
 _atom_site_occupancy
  Sr  Sr0  1  0.50000000  0.28912011  0.49587334  1.0
  Sr  Sr1  1  0.00000000  0.71087989  -0.00412666  1.0
  B  B2  1  0.24893582  0.32228561  0.99919171  1.0
  B  B3  1  0.74893582  0.67771439  0.49919171  1.0
  B  B4  1  0.75106418  0.32228561  0.99919171  1.0
  B  B5  1  0.25106418  0.67771439  0.49919171  1.0
  B  B6  1  0.12169404  0.17402679  0.47288036  1.0
  B  B7  1  0.62169404  0.82597321  0.97288036  1.0
  B  B8  1  0.87830596  0.17402679  0.47288036  1.0
  B  B9  1  0.37830596  0.82597321  0.97288036  1.0
  O  O10  1  0.35793934  0.14223443  0.04300572  1.0
  O  O11  1  0.85793934  0.85776557  0.54300572  1.0
  O  O12  1  0.64206066  0.14223443  0.04300572  1.0
  O  O13  1  0.14206066  0.85776557  0.54300572  1.0
  O  O14  1  0.27885369  0.63060570  0.14255453  1.0
  O  O15  1  0.77885369  0.36939430  0.64255453  1.0
  O  O16  1  0.72114631  0.63060570  0.14255453  1.0
  O  O17  1  0.22114631  0.36939430  0.64255453  1.0
  O  O18  1  0.13569577  0.22926184  0.13850074  1.0
  O  O19  1  0.63569577  0.77073816  0.63850074  1.0
  O  O20  1  0.86430423  0.22926184  0.13850074  1.0
  O  O21  1  0.36430423  0.77073816  0.63850074  1.0
  O  O22  1  0.50000000  0.73128625  0.07886052  1.0
  O  O23  1  0.00000000  0.26871375  0.57886052  1.0
