# generated using pymatgen
data_Lu5(In2Pt)2
_symmetry_space_group_name_H-M   'P 1'
_cell_length_a   7.99136995
_cell_length_b   18.00025586
_cell_length_c   3.58767400
_cell_angle_alpha   90.00000000
_cell_angle_beta   90.00000000
_cell_angle_gamma   90.00000000
_symmetry_Int_Tables_number   1
_chemical_formula_structural   Lu5(In2Pt)2
_chemical_formula_sum   'Lu10 In8 Pt4'
_cell_volume   516.07507942
_cell_formula_units_Z   2
loop_
 _symmetry_equiv_pos_site_id
 _symmetry_equiv_pos_as_xyz
  1  'x, y, z'
loop_
 _atom_site_type_symbol
 _atom_site_label
 _atom_site_symmetry_multiplicity
 _atom_site_fract_x
 _atom_site_fract_y
 _atom_site_fract_z
 _atom_site_occupancy
  Lu  Lu0  1  0.25399398  0.72115712  0.00000000  1.0
  Lu  Lu1  1  0.75399398  0.77884288  0.00000000  1.0
  Lu  Lu2  1  0.74600602  0.27884288  0.00000000  1.0
  Lu  Lu3  1  0.24600602  0.22115712  0.00000000  1.0
  Lu  Lu4  1  0.38296211  0.91571906  0.00000000  1.0
  Lu  Lu5  1  0.88296211  0.58428094  0.00000000  1.0
  Lu  Lu6  1  0.61703789  0.08428094  0.00000000  1.0
  Lu  Lu7  1  0.11703789  0.41571906  0.00000000  1.0
  Lu  Lu8  1  0.50000000  0.50000000  0.00000000  1.0
  Lu  Lu9  1  0.00000000  0.00000000  0.00000000  1.0
  In  In10  1  0.20892286  0.56619759  0.50000000  1.0
  In  In11  1  0.70892286  0.93380241  0.50000000  1.0
  In  In12  1  0.79107714  0.43380241  0.50000000  1.0
  In  In13  1  0.29107714  0.06619759  0.50000000  1.0
  In  In14  1  0.07407273  0.85273751  0.50000000  1.0
  In  In15  1  0.57407273  0.64726249  0.50000000  1.0
  In  In16  1  0.92592727  0.14726249  0.50000000  1.0
  In  In17  1  0.42592727  0.35273751  0.50000000  1.0
  Pt  Pt18  1  0.47142475  0.80388384  0.50000000  1.0
  Pt  Pt19  1  0.97142475  0.69611616  0.50000000  1.0
  Pt  Pt20  1  0.52857525  0.19611616  0.50000000  1.0
  Pt  Pt21  1  0.02857525  0.30388384  0.50000000  1.0
