# generated using pymatgen
data_MgSi(HO)6
_symmetry_space_group_name_H-M   'P 1'
_cell_length_a   5.15301520
_cell_length_b   5.24557519
_cell_length_c   7.39725885
_cell_angle_alpha   90.00000000
_cell_angle_beta   90.15092614
_cell_angle_gamma   90.00000000
_symmetry_Int_Tables_number   1
_chemical_formula_structural   MgSi(HO)6
_chemical_formula_sum   'Mg2 Si2 H12 O12'
_cell_volume   199.95112372
_cell_formula_units_Z   2
loop_
 _symmetry_equiv_pos_site_id
 _symmetry_equiv_pos_as_xyz
  1  'x, y, z'
loop_
 _atom_site_type_symbol
 _atom_site_label
 _atom_site_symmetry_multiplicity
 _atom_site_fract_x
 _atom_site_fract_y
 _atom_site_fract_z
 _atom_site_occupancy
  Mg  Mg0  1  0.74750440  0.00049047  0.75116383  1.0
  Mg  Mg1  1  0.25249560  0.50049047  0.24883617  1.0
  Si  Si2  1  0.25106776  0.50174940  0.75052248  1.0
  Si  Si3  1  0.74893224  0.00174940  0.24947752  1.0
  H  H4  1  0.48869428  0.36561529  0.50819018  1.0
  H  H5  1  0.51130572  0.86561529  0.49180982  1.0
  H  H6  1  0.99283703  0.11940769  0.01132580  1.0
  H  H7  1  0.00716297  0.61940769  0.98867420  1.0
  H  H8  1  0.27540123  0.94786695  0.76706438  1.0
  H  H9  1  0.72459877  0.44786695  0.23293562  1.0
  H  H10  1  0.81193878  0.53786259  0.71624783  1.0
  H  H11  1  0.18806122  0.03786259  0.28375217  1.0
  H  H12  1  0.90933290  0.68366617  0.44019619  1.0
  H  H13  1  0.09066710  0.18366617  0.55980381  1.0
  H  H14  1  0.43400103  0.84590088  0.04882527  1.0
  H  H15  1  0.56599897  0.34590088  0.95117473  1.0
  O  O16  1  0.37402092  0.51471421  0.52177959  1.0
  O  O17  1  0.62597908  0.01471421  0.47822041  1.0
  O  O18  1  0.87106336  0.97541099  0.02106275  1.0
  O  O19  1  0.12893664  0.47541099  0.97893725  1.0
  O  O20  1  0.90834869  0.69770156  0.30614881  1.0
  O  O21  1  0.09165131  0.19770156  0.69385119  1.0
  O  O22  1  0.45505209  0.84261410  0.18220126  1.0
  O  O23  1  0.54494791  0.34261410  0.81779874  1.0
  O  O24  1  0.95043579  0.66073433  0.68432979  1.0
  O  O25  1  0.04956421  0.16073433  0.31567021  1.0
  O  O26  1  0.39714079  0.80726536  0.80091056  1.0
  O  O27  1  0.60285921  0.30726536  0.19908944  1.0
