# generated using pymatgen
data_Na2LiBe2F7
_symmetry_space_group_name_H-M   'P 1'
_cell_length_a   7.70366726
_cell_length_b   7.70366726
_cell_length_c   4.91474364
_cell_angle_alpha   90.00000000
_cell_angle_beta   90.00000000
_cell_angle_gamma   90.00000000
_symmetry_Int_Tables_number   1
_chemical_formula_structural   Na2LiBe2F7
_chemical_formula_sum   'Na4 Li2 Be4 F14'
_cell_volume   291.67278059
_cell_formula_units_Z   2
loop_
 _symmetry_equiv_pos_site_id
 _symmetry_equiv_pos_as_xyz
  1  'x, y, z'
loop_
 _atom_site_type_symbol
 _atom_site_label
 _atom_site_symmetry_multiplicity
 _atom_site_fract_x
 _atom_site_fract_y
 _atom_site_fract_z
 _atom_site_occupancy
  Na  Na0  1  0.83264732  0.33264732  0.49322427  1.0
  Na  Na1  1  0.66735268  0.83264732  0.50677573  1.0
  Na  Na2  1  0.16735268  0.66735268  0.49322427  1.0
  Na  Na3  1  0.33264732  0.16735268  0.50677573  1.0
  Li  Li4  1  0.50000000  0.50000000  0.00000000  1.0
  Li  Li5  1  0.00000000  0.00000000  0.00000000  1.0
  Be  Be6  1  0.35949592  0.85949592  0.06744781  1.0
  Be  Be7  1  0.14050408  0.35949592  0.93255219  1.0
  Be  Be8  1  0.64050408  0.14050408  0.06744781  1.0
  Be  Be9  1  0.85949592  0.64050408  0.93255219  1.0
  F  F10  1  0.31424367  0.41660145  0.79745013  1.0
  F  F11  1  0.18575633  0.91660145  0.20254987  1.0
  F  F12  1  0.58339855  0.31424367  0.20254987  1.0
  F  F13  1  0.91660145  0.81424367  0.79745013  1.0
  F  F14  1  0.68575633  0.58339855  0.79745013  1.0
  F  F15  1  0.81424367  0.08339855  0.20254987  1.0
  F  F16  1  0.41660145  0.68575633  0.20254987  1.0
  F  F17  1  0.08339855  0.18575633  0.79745013  1.0
  F  F18  1  0.35834943  0.85834943  0.75615171  1.0
  F  F19  1  0.14165057  0.35834943  0.24384829  1.0
  F  F20  1  0.64165057  0.14165057  0.75615171  1.0
  F  F21  1  0.85834943  0.64165057  0.24384829  1.0
  F  F22  1  0.00000000  0.50000000  0.82144856  1.0
  F  F23  1  0.50000000  0.00000000  0.17855144  1.0
