# generated using pymatgen
data_CsNb(PO4)2
_symmetry_space_group_name_H-M   'P 1'
_cell_length_a   5.19278084
_cell_length_b   5.19278084
_cell_length_c   9.06919604
_cell_angle_alpha   87.87767039
_cell_angle_beta   92.12232961
_cell_angle_gamma   118.61667393
_symmetry_Int_Tables_number   1
_chemical_formula_structural   CsNb(PO4)2
_chemical_formula_sum   'Cs1 Nb1 P2 O8'
_cell_volume   214.47804230
_cell_formula_units_Z   1
loop_
 _symmetry_equiv_pos_site_id
 _symmetry_equiv_pos_as_xyz
  1  'x, y, z'
loop_
 _atom_site_type_symbol
 _atom_site_label
 _atom_site_symmetry_multiplicity
 _atom_site_fract_x
 _atom_site_fract_y
 _atom_site_fract_z
 _atom_site_occupancy
  Cs  Cs0  1  -0.00000000  0.00000000  0.50000000  1.0
  Nb  Nb1  1  0.00000000  0.00000000  0.00000000  1.0
  P  P2  1  0.64939541  -0.64939541  0.80850562  1.0
  P  P3  1  0.35060459  -0.35060459  0.19149438  1.0
  O  O4  1  1.32104007  0.20549973  0.85734476  1.0
  O  O5  1  0.79450027  -0.32104007  0.85734476  1.0
  O  O6  1  1.20549973  0.32104007  0.14265524  1.0
  O  O7  1  0.67895993  -0.20549973  0.14265524  1.0
  O  O8  1  0.79759480  -0.79759480  0.90965610  1.0
  O  O9  1  0.20240520  -0.20240520  0.09034390  1.0
  O  O10  1  0.67725300  -0.67725300  0.64693454  1.0
  O  O11  1  0.32274700  -0.32274700  0.35306546  1.0
