# generated using pymatgen
data_CuH8C4(NO3)2
_symmetry_space_group_name_H-M   'P 1'
_cell_length_a   8.25618593
_cell_length_b   7.96559082
_cell_length_c   8.09716977
_cell_angle_alpha   90.00000000
_cell_angle_beta   116.37225368
_cell_angle_gamma   90.00000000
_symmetry_Int_Tables_number   1
_chemical_formula_structural   CuH8C4(NO3)2
_chemical_formula_sum   'Cu2 H16 C8 N4 O12'
_cell_volume   477.09329935
_cell_formula_units_Z   2
loop_
 _symmetry_equiv_pos_site_id
 _symmetry_equiv_pos_as_xyz
  1  'x, y, z'
loop_
 _atom_site_type_symbol
 _atom_site_label
 _atom_site_symmetry_multiplicity
 _atom_site_fract_x
 _atom_site_fract_y
 _atom_site_fract_z
 _atom_site_occupancy
  Cu  Cu0  1  0.50000000  0.00000000  -0.00000000  1.0
  Cu  Cu1  1  0.50000000  0.50000000  0.50000000  1.0
  H  H2  1  0.41581310  0.21590725  0.66978385  1.0
  H  H3  1  0.58418690  0.71590725  0.83021615  1.0
  H  H4  1  0.58418690  0.78409275  0.33021615  1.0
  H  H5  1  0.41581310  0.28409275  0.16978385  1.0
  H  H6  1  0.93596113  0.82298209  0.31819307  1.0
  H  H7  1  0.06403887  0.32298209  0.18180693  1.0
  H  H8  1  0.06403887  0.17701791  0.68180693  1.0
  H  H9  1  0.93596113  0.67701791  0.81819307  1.0
  H  H10  1  0.22808472  0.85433340  0.35206609  1.0
  H  H11  1  0.77191528  0.35433340  0.14793391  1.0
  H  H12  1  0.77191528  0.14566660  0.64793391  1.0
  H  H13  1  0.22808472  0.64566660  0.85206609  1.0
  H  H14  1  0.15300347  0.95653825  0.13475053  1.0
  H  H15  1  0.84699653  0.45653825  0.36524947  1.0
  H  H16  1  0.84699653  0.04346175  0.86524947  1.0
  H  H17  1  0.15300347  0.54346175  0.63475053  1.0
  C  C18  1  0.51354691  0.28950036  0.78704026  1.0
  C  C19  1  0.48645309  0.78950036  0.71295974  1.0
  C  C20  1  0.48645309  0.71049964  0.21295974  1.0
  C  C21  1  0.51354691  0.21049964  0.28704026  1.0
  C  C22  1  0.95379217  0.88346332  0.20423528  1.0
  C  C23  1  0.04620783  0.38346332  0.29576472  1.0
  C  C24  1  0.04620783  0.11653668  0.79576472  1.0
  C  C25  1  0.95379217  0.61653668  0.70423528  1.0
  N  N26  1  0.12507426  0.90150081  0.23459509  1.0
  N  N27  1  0.87492574  0.40150081  0.26540491  1.0
  N  N28  1  0.87492574  0.09849919  0.76540491  1.0
  N  N29  1  0.12507426  0.59849919  0.73459509  1.0
  O  O30  1  0.56631545  0.23154366  0.94914189  1.0
  O  O31  1  0.43368455  0.73154366  0.55085811  1.0
  O  O32  1  0.43368455  0.76845634  0.05085811  1.0
  O  O33  1  0.56631545  0.26845634  0.44914189  1.0
  O  O34  1  0.42911123  0.92800675  0.74351330  1.0
  O  O35  1  0.57088877  0.42800675  0.75648670  1.0
  O  O36  1  0.57088877  0.07199325  0.25648670  1.0
  O  O37  1  0.42911123  0.57199325  0.24351330  1.0
  O  O38  1  0.81987230  0.92935458  0.06083643  1.0
  O  O39  1  0.18012770  0.42935458  0.43916357  1.0
  O  O40  1  0.18012770  0.07064542  0.93916357  1.0
  O  O41  1  0.81987230  0.57064542  0.56083643  1.0
