# generated using pymatgen
data_LuSiRu
_symmetry_space_group_name_H-M   'P 1'
_cell_length_a   6.85768476
_cell_length_b   4.23058435
_cell_length_c   7.14093807
_cell_angle_alpha   90.00000000
_cell_angle_beta   90.00000000
_cell_angle_gamma   90.00000000
_symmetry_Int_Tables_number   1
_chemical_formula_structural   LuSiRu
_chemical_formula_sum   'Lu4 Si4 Ru4'
_cell_volume   207.17299396
_cell_formula_units_Z   4
loop_
 _symmetry_equiv_pos_site_id
 _symmetry_equiv_pos_as_xyz
  1  'x, y, z'
loop_
 _atom_site_type_symbol
 _atom_site_label
 _atom_site_symmetry_multiplicity
 _atom_site_fract_x
 _atom_site_fract_y
 _atom_site_fract_z
 _atom_site_occupancy
  Lu  Lu0  1  0.00688826  0.75000000  0.68697525  1.0
  Lu  Lu1  1  0.50688826  0.75000000  0.81302475  1.0
  Lu  Lu2  1  0.99311174  0.25000000  0.31302475  1.0
  Lu  Lu3  1  0.49311174  0.25000000  0.18697525  1.0
  Si  Si4  1  0.69987722  0.75000000  0.39181833  1.0
  Si  Si5  1  0.19987722  0.75000000  0.10818167  1.0
  Si  Si6  1  0.30012278  0.25000000  0.60818167  1.0
  Si  Si7  1  0.80012278  0.25000000  0.89181833  1.0
  Ru  Ru8  1  0.84406614  0.75000000  0.06403303  1.0
  Ru  Ru9  1  0.34406614  0.75000000  0.43596697  1.0
  Ru  Ru10  1  0.15593386  0.25000000  0.93596697  1.0
  Ru  Ru11  1  0.65593386  0.25000000  0.56403303  1.0
