# generated using pymatgen
data_LiZnBO3
_symmetry_space_group_name_H-M   'P 1'
_cell_length_a   5.07931819
_cell_length_b   8.16513056
_cell_length_c   6.28391635
_cell_angle_alpha   74.11966436
_cell_angle_beta   89.71880263
_cell_angle_gamma   90.20781987
_symmetry_Int_Tables_number   1
_chemical_formula_structural   LiZnBO3
_chemical_formula_sum   'Li4 Zn4 B4 O12'
_cell_volume   250.66207014
_cell_formula_units_Z   4
loop_
 _symmetry_equiv_pos_site_id
 _symmetry_equiv_pos_as_xyz
  1  'x, y, z'
loop_
 _atom_site_type_symbol
 _atom_site_label
 _atom_site_symmetry_multiplicity
 _atom_site_fract_x
 _atom_site_fract_y
 _atom_site_fract_z
 _atom_site_occupancy
  Li  Li0  1  -0.81926132  -0.72228819  -0.45918571  1.0
  Li  Li1  1  -0.18073868  -0.27771181  -0.54081429  1.0
  Li  Li2  1  -0.17513814  -0.60540352  -0.22860995  1.0
  Li  Li3  1  -0.82486186  -0.39459648  -0.77139005  1.0
  Zn  Zn4  1  -0.65713447  -0.71200014  -0.95478018  1.0
  Zn  Zn5  1  -0.34286553  -0.28799986  -0.04521982  1.0
  Zn  Zn6  1  -0.68208790  -0.07450070  -0.63144520  1.0
  Zn  Zn7  1  -0.31791210  -0.92549930  -0.36855480  1.0
  B  B8  1  -0.33670447  -0.57551467  -0.66137707  1.0
  B  B9  1  -0.66329553  -0.42448533  -0.33862293  1.0
  B  B10  1  -0.17183035  -0.90901321  -0.83052999  1.0
  B  B11  1  -0.82816965  -0.09098679  -0.16947001  1.0
  O  O12  1  -0.59894300  -0.59989942  -0.70945406  1.0
  O  O13  1  -0.40105700  -0.40010058  -0.29054594  1.0
  O  O14  1  -0.20407109  -0.42615687  -0.76550123  1.0
  O  O15  1  -0.79592891  -0.57384313  -0.23449877  1.0
  O  O16  1  -0.20195696  -0.69435251  -0.49763545  1.0
  O  O17  1  -0.79804304  -0.30564749  -0.50236455  1.0
  O  O18  1  -0.30180855  -0.79308486  0.00670711  1.0
  O  O19  1  -0.69819145  -0.20691514  -1.00670711  1.0
  O  O20  1  -0.89784543  -0.90467524  -0.82583729  1.0
  O  O21  1  -0.10215457  -0.09532476  -0.17416271  1.0
  O  O22  1  -0.29788562  -0.03222673  -0.65883792  1.0
  O  O23  1  -0.70211438  -0.96777327  -0.34116208  1.0
