# generated using pymatgen
data_FeH4SO6
_symmetry_space_group_name_H-M   'P 1'
_cell_length_a   5.98273761
_cell_length_b   8.68576145
_cell_length_c   8.96505333
_cell_angle_alpha   90.00000000
_cell_angle_beta   90.00000000
_cell_angle_gamma   90.00000000
_symmetry_Int_Tables_number   1
_chemical_formula_structural   FeH4SO6
_chemical_formula_sum   'Fe4 H16 S4 O24'
_cell_volume   465.86569451
_cell_formula_units_Z   4
loop_
 _symmetry_equiv_pos_site_id
 _symmetry_equiv_pos_as_xyz
  1  'x, y, z'
loop_
 _atom_site_type_symbol
 _atom_site_label
 _atom_site_symmetry_multiplicity
 _atom_site_fract_x
 _atom_site_fract_y
 _atom_site_fract_z
 _atom_site_occupancy
  Fe  Fe0  1  0.50000000  0.50000000  0.00000000  1.0
  Fe  Fe1  1  0.50000000  0.00000000  0.50000000  1.0
  Fe  Fe2  1  0.00000000  0.00000000  0.00000000  1.0
  Fe  Fe3  1  0.00000000  0.50000000  0.50000000  1.0
  O  O4  1  0.44750705  0.29395126  0.12913066  1.0
  O  O5  1  0.44750705  0.20604874  0.62913066  1.0
  O  O6  1  0.94750705  0.79395126  0.87086934  1.0
  O  O7  1  0.94750705  0.70604874  0.37086934  1.0
  O  O8  1  0.55249295  0.79395126  0.37086934  1.0
  O  O9  1  0.55249295  0.70604874  0.87086934  1.0
  O  O10  1  0.05249295  0.29395126  0.62913066  1.0
  O  O11  1  0.05249295  0.20604874  0.12913066  1.0
  O  O12  1  0.18750750  0.38596868  0.31783943  1.0
  O  O13  1  0.18750750  0.11403132  0.81783943  1.0
  O  O14  1  0.68750750  0.88596868  0.68216057  1.0
  O  O15  1  0.68750750  0.61403132  0.18216057  1.0
  O  O16  1  0.81249250  0.88596868  0.18216057  1.0
  O  O17  1  0.81249250  0.61403132  0.68216057  1.0
  O  O18  1  0.31249250  0.38596868  0.81783943  1.0
  O  O19  1  0.31249250  0.11403132  0.31783943  1.0
  O  O20  1  0.30421625  0.91169222  0.06118945  1.0
  O  O21  1  0.30421625  0.58830778  0.56118945  1.0
  O  O22  1  0.80421625  0.41169222  0.93881055  1.0
  O  O23  1  0.80421625  0.08830778  0.43881055  1.0
  O  O24  1  0.69578375  0.41169222  0.43881055  1.0
  O  O25  1  0.69578375  0.08830778  0.93881055  1.0
  O  O26  1  0.19578375  0.91169222  0.56118945  1.0
  O  O27  1  0.19578375  0.58830778  0.06118945  1.0
  S  S28  1  0.25000000  0.25000000  0.22569724  1.0
  S  S29  1  0.25000000  0.25000000  0.72569724  1.0
  S  S30  1  0.75000000  0.75000000  0.77430276  1.0
  S  S31  1  0.75000000  0.75000000  0.27430276  1.0
  H  H32  1  0.40606015  0.84977530  -0.00067146  1.0
  H  H33  1  0.40606015  0.65022470  0.49932854  1.0
  H  H34  1  0.90606015  0.34977530  1.00067146  1.0
  H  H35  1  0.90606015  0.15022470  0.50067146  1.0
  H  H36  1  0.59393985  0.34977530  0.50067146  1.0
  H  H37  1  0.59393985  0.15022470  1.00067146  1.0
  H  H38  1  0.09393985  0.84977530  0.49932854  1.0
  H  H39  1  0.09393985  0.65022470  -0.00067146  1.0
  H  H40  1  0.36679767  0.92281505  0.16095610  1.0
  H  H41  1  0.36679767  0.57718495  0.66095610  1.0
  H  H42  1  0.86679767  0.42281505  0.83904390  1.0
  H  H43  1  0.86679767  0.07718495  0.33904390  1.0
  H  H44  1  0.63320233  0.42281505  0.33904390  1.0
  H  H45  1  0.63320233  0.07718495  0.83904390  1.0
  H  H46  1  0.13320233  0.92281505  0.66095610  1.0
  H  H47  1  0.13320233  0.57718495  0.16095610  1.0
