# generated using pymatgen
data_Gd2SeOF2
_symmetry_space_group_name_H-M   'P 1'
_cell_length_a   13.64907095
_cell_length_b   13.64907095
_cell_length_c   3.81142102
_cell_angle_alpha   90.00000000
_cell_angle_beta   90.00000000
_cell_angle_gamma   120.00000000
_symmetry_Int_Tables_number   1
_chemical_formula_structural   Gd2SeOF2
_chemical_formula_sum   'Gd12 Se6 O6 F12'
_cell_volume   614.92725105
_cell_formula_units_Z   6
loop_
 _symmetry_equiv_pos_site_id
 _symmetry_equiv_pos_as_xyz
  1  'x, y, z'
loop_
 _atom_site_type_symbol
 _atom_site_label
 _atom_site_symmetry_multiplicity
 _atom_site_fract_x
 _atom_site_fract_y
 _atom_site_fract_z
 _atom_site_occupancy
  Gd  Gd0  1  0.23516467  0.94424865  0.25000000  1.0
  Gd  Gd1  1  0.94424865  0.70908398  0.75000000  1.0
  Gd  Gd2  1  0.70908398  0.76483533  0.25000000  1.0
  Gd  Gd3  1  0.05575135  0.29091602  0.25000000  1.0
  Gd  Gd4  1  0.76483533  0.05575135  0.75000000  1.0
  Gd  Gd5  1  0.29091602  0.23516467  0.75000000  1.0
  Gd  Gd6  1  0.48412042  0.88194591  0.25000000  1.0
  Gd  Gd7  1  0.88194591  0.39782549  0.75000000  1.0
  Gd  Gd8  1  0.39782549  0.51587958  0.25000000  1.0
  Gd  Gd9  1  0.11805409  0.60217451  0.25000000  1.0
  Gd  Gd10  1  0.51587958  0.11805409  0.75000000  1.0
  Gd  Gd11  1  0.60217451  0.48412042  0.75000000  1.0
  Se  Se12  1  0.79378688  0.51176340  0.25000000  1.0
  Se  Se13  1  0.51176340  0.71797652  0.75000000  1.0
  Se  Se14  1  0.71797652  0.20621312  0.25000000  1.0
  Se  Se15  1  0.48823660  0.28202348  0.25000000  1.0
  Se  Se16  1  0.20621312  0.48823660  0.75000000  1.0
  Se  Se17  1  0.28202348  0.79378688  0.75000000  1.0
  O  O18  1  0.58679906  0.57225572  0.25000000  1.0
  O  O19  1  0.57225572  0.98545666  0.75000000  1.0
  O  O20  1  0.98545666  0.41320094  0.25000000  1.0
  O  O21  1  0.42774428  0.01454334  0.25000000  1.0
  O  O22  1  0.41320094  0.42774428  0.75000000  1.0
  O  O23  1  0.01454334  0.58679906  0.75000000  1.0
  F  F24  1  0.89761926  0.78956974  0.25000000  1.0
  F  F25  1  0.78956974  0.89195048  0.75000000  1.0
  F  F26  1  0.89195048  0.10238074  0.25000000  1.0
  F  F27  1  0.21043026  0.10804952  0.25000000  1.0
  F  F28  1  0.10238074  0.21043026  0.75000000  1.0
  F  F29  1  0.10804952  0.89761926  0.75000000  1.0
  F  F30  1  0.06720209  0.75064232  0.25000000  1.0
  F  F31  1  0.75064232  0.68344023  0.75000000  1.0
  F  F32  1  0.68344023  0.93279791  0.25000000  1.0
  F  F33  1  0.24935768  0.31655977  0.25000000  1.0
  F  F34  1  0.93279791  0.24935768  0.75000000  1.0
  F  F35  1  0.31655977  0.06720209  0.75000000  1.0
