# generated using pymatgen
data_LiCa2Ge3
_symmetry_space_group_name_H-M   'P 1'
_cell_length_a   10.77504441
_cell_length_b   11.40683040
_cell_length_c   4.42665718
_cell_angle_alpha   90.00000000
_cell_angle_beta   90.00000000
_cell_angle_gamma   90.00000000
_symmetry_Int_Tables_number   1
_chemical_formula_structural   LiCa2Ge3
_chemical_formula_sum   'Li4 Ca8 Ge12'
_cell_volume   544.07646780
_cell_formula_units_Z   4
loop_
 _symmetry_equiv_pos_site_id
 _symmetry_equiv_pos_as_xyz
  1  'x, y, z'
loop_
 _atom_site_type_symbol
 _atom_site_label
 _atom_site_symmetry_multiplicity
 _atom_site_fract_x
 _atom_site_fract_y
 _atom_site_fract_z
 _atom_site_occupancy
  Li  Li0  1  0.86317395  0.78229362  0.50000000  1.0
  Li  Li1  1  0.36317395  0.71770638  0.00000000  1.0
  Li  Li2  1  0.13682605  0.21770638  0.50000000  1.0
  Li  Li3  1  0.63682605  0.28229362  0.00000000  1.0
  Ca  Ca4  1  0.44705201  0.14749339  0.50000000  1.0
  Ca  Ca5  1  0.94705201  0.35250661  0.00000000  1.0
  Ca  Ca6  1  0.55294799  0.85250661  0.50000000  1.0
  Ca  Ca7  1  0.05294799  0.64749339  0.00000000  1.0
  Ca  Ca8  1  0.17787271  0.92903556  0.50000000  1.0
  Ca  Ca9  1  0.67787271  0.57096444  0.00000000  1.0
  Ca  Ca10  1  0.82212729  0.07096444  0.50000000  1.0
  Ca  Ca11  1  0.32212729  0.42903556  0.00000000  1.0
  Ge  Ge12  1  0.47249861  0.60546979  0.50000000  1.0
  Ge  Ge13  1  0.97249861  0.89453021  0.00000000  1.0
  Ge  Ge14  1  0.52750139  0.39453021  0.50000000  1.0
  Ge  Ge15  1  0.02750139  0.10546979  0.00000000  1.0
  Ge  Ge16  1  0.24343029  0.64319465  0.50000000  1.0
  Ge  Ge17  1  0.74343029  0.85680535  0.00000000  1.0
  Ge  Ge18  1  0.75656971  0.35680535  0.50000000  1.0
  Ge  Ge19  1  0.25656971  0.14319465  0.00000000  1.0
  Ge  Ge20  1  0.88858433  0.54545651  0.50000000  1.0
  Ge  Ge21  1  0.38858433  0.95454349  -0.00000000  1.0
  Ge  Ge22  1  0.11141567  0.45454349  0.50000000  1.0
  Ge  Ge23  1  0.61141567  0.04545651  -0.00000000  1.0
