# generated using pymatgen
data_ZrP2(HO3)2
_symmetry_space_group_name_H-M   'P 1'
_cell_length_a   5.49736474
_cell_length_b   5.49736474
_cell_length_c   6.24156353
_cell_angle_alpha   90.00000000
_cell_angle_beta   90.00000000
_cell_angle_gamma   120.00000000
_symmetry_Int_Tables_number   1
_chemical_formula_structural   ZrP2(HO3)2
_chemical_formula_sum   'Zr1 P2 H2 O6'
_cell_volume   163.35526297
_cell_formula_units_Z   1
loop_
 _symmetry_equiv_pos_site_id
 _symmetry_equiv_pos_as_xyz
  1  'x, y, z'
loop_
 _atom_site_type_symbol
 _atom_site_label
 _atom_site_symmetry_multiplicity
 _atom_site_fract_x
 _atom_site_fract_y
 _atom_site_fract_z
 _atom_site_occupancy
  Zr  Zr0  1  0.00000000  0.00000000  0.00000000  1.0
  P  P1  1  0.33333333  0.66666667  0.26326316  1.0
  P  P2  1  0.66666667  0.33333333  0.73673684  1.0
  H  H3  1  0.33333333  0.66666667  0.48869192  1.0
  H  H4  1  0.66666667  0.33333333  0.51130808  1.0
  O  O5  1  0.17853071  0.82146929  0.19241100  1.0
  O  O6  1  0.82146929  0.64293857  0.80758900  1.0
  O  O7  1  0.64293857  0.82146929  0.19241100  1.0
  O  O8  1  0.17853071  0.35706143  0.19241100  1.0
  O  O9  1  0.82146929  0.17853071  0.80758900  1.0
  O  O10  1  0.35706143  0.17853071  0.80758900  1.0
