# generated using pymatgen
data_ZrTe3
_symmetry_space_group_name_H-M   'P 1'
_cell_length_a   5.94577663
_cell_length_b   3.93639536
_cell_length_c   10.58494455
_cell_angle_alpha   90.00000000
_cell_angle_beta   86.77842659
_cell_angle_gamma   90.00000000
_symmetry_Int_Tables_number   1
_chemical_formula_structural   ZrTe3
_chemical_formula_sum   'Zr2 Te6'
_cell_volume   247.34835108
_cell_formula_units_Z   2
loop_
 _symmetry_equiv_pos_site_id
 _symmetry_equiv_pos_as_xyz
  1  'x, y, z'
loop_
 _atom_site_type_symbol
 _atom_site_label
 _atom_site_symmetry_multiplicity
 _atom_site_fract_x
 _atom_site_fract_y
 _atom_site_fract_z
 _atom_site_occupancy
  Zr  Zr0  1  0.26641017  0.25000000  0.33749444  1.0
  Zr  Zr1  1  0.73358983  0.75000000  0.66250556  1.0
  Te  Te2  1  0.95955269  0.25000000  0.82248165  1.0
  Te  Te3  1  0.04044731  0.75000000  0.17751835  1.0
  Te  Te4  1  0.75548353  0.25000000  0.44863341  1.0
  Te  Te5  1  0.24451647  0.75000000  0.55136659  1.0
  Te  Te6  1  0.47493746  0.25000000  0.82156338  1.0
  Te  Te7  1  0.52506254  0.75000000  0.17843662  1.0
