# generated using pymatgen
data_FePS3
_symmetry_space_group_name_H-M   'P 1'
_cell_length_a   5.94060902
_cell_length_b   5.94060902
_cell_length_c   7.50444220
_cell_angle_alpha   82.38127183
_cell_angle_beta   97.61872817
_cell_angle_gamma   59.71627294
_symmetry_Int_Tables_number   1
_chemical_formula_structural   FePS3
_chemical_formula_sum   'Fe2 P2 S6'
_cell_volume   220.43945568
_cell_formula_units_Z   2
loop_
 _symmetry_equiv_pos_site_id
 _symmetry_equiv_pos_as_xyz
  1  'x, y, z'
loop_
 _atom_site_type_symbol
 _atom_site_label
 _atom_site_symmetry_multiplicity
 _atom_site_fract_x
 _atom_site_fract_y
 _atom_site_fract_z
 _atom_site_occupancy
  Fe  Fe0  1  0.82919991  -0.17080009  0.00000000  1.0
  Fe  Fe1  1  1.17080009  0.17080009  0.00000000  1.0
  P  P2  1  0.44999521  -0.44999521  0.84806700  1.0
  P  P3  1  0.55000479  -0.55000479  0.15193300  1.0
  S  S4  1  0.76551127  -0.76551127  0.78359690  1.0
  S  S5  1  0.23448873  -0.23448873  0.21640310  1.0
  S  S6  1  0.42629239  -0.09098133  0.78139141  1.0
  S  S7  1  1.09098133  0.57370761  0.78139141  1.0
  S  S8  1  0.90901867  -0.57370761  0.21860859  1.0
  S  S9  1  1.57370761  0.09098133  0.21860859  1.0
