# generated using pymatgen
data_Cs2FeF5
_symmetry_space_group_name_H-M   'P 1'
_cell_length_a   8.05348203
_cell_length_b   6.14466794
_cell_length_c   12.85915633
_cell_angle_alpha   90.00000000
_cell_angle_beta   90.00000000
_cell_angle_gamma   90.00000000
_symmetry_Int_Tables_number   1
_chemical_formula_structural   Cs2FeF5
_chemical_formula_sum   'Cs8 Fe4 F20'
_cell_volume   636.34786104
_cell_formula_units_Z   4
loop_
 _symmetry_equiv_pos_site_id
 _symmetry_equiv_pos_as_xyz
  1  'x, y, z'
loop_
 _atom_site_type_symbol
 _atom_site_label
 _atom_site_symmetry_multiplicity
 _atom_site_fract_x
 _atom_site_fract_y
 _atom_site_fract_z
 _atom_site_occupancy
  Fe  Fe0  1  0.84286833  0.75000000  0.06172638  1.0
  Fe  Fe1  1  0.34286833  0.75000000  0.43827362  1.0
  Fe  Fe2  1  0.15713167  0.25000000  0.93827362  1.0
  Fe  Fe3  1  0.65713167  0.25000000  0.56172638  1.0
  Cs  Cs4  1  0.84388213  0.75000000  0.41747461  1.0
  Cs  Cs5  1  0.34388213  0.75000000  0.08252539  1.0
  Cs  Cs6  1  0.15611787  0.25000000  0.58252539  1.0
  Cs  Cs7  1  0.65611787  0.25000000  0.91747461  1.0
  Cs  Cs8  1  0.51375893  0.75000000  0.72099551  1.0
  Cs  Cs9  1  0.01375893  0.75000000  0.77900449  1.0
  Cs  Cs10  1  0.48624107  0.25000000  0.27900449  1.0
  Cs  Cs11  1  0.98624107  0.25000000  0.22099551  1.0
  F  F12  1  0.73011541  0.75000000  0.92715291  1.0
  F  F13  1  0.23011541  0.75000000  0.57284709  1.0
  F  F14  1  0.26988459  0.25000000  0.07284709  1.0
  F  F15  1  0.76988459  0.25000000  0.42715291  1.0
  F  F16  1  0.00000000  0.00000000  0.00000000  1.0
  F  F17  1  0.00000000  0.50000000  0.00000000  1.0
  F  F18  1  0.50000000  0.00000000  0.50000000  1.0
  F  F19  1  0.50000000  0.50000000  0.50000000  1.0
  F  F20  1  0.70231638  0.97779927  0.11476637  1.0
  F  F21  1  0.70231638  0.52220073  0.11476637  1.0
  F  F22  1  0.20231638  0.97779927  0.38523363  1.0
  F  F23  1  0.20231638  0.52220073  0.38523363  1.0
  F  F24  1  0.29768362  0.47779927  0.88523363  1.0
  F  F25  1  0.29768362  0.02220073  0.88523363  1.0
  F  F26  1  0.79768362  0.47779927  0.61476637  1.0
  F  F27  1  0.79768362  0.02220073  0.61476637  1.0
  F  F28  1  0.98536582  0.75000000  0.18080545  1.0
  F  F29  1  0.48536582  0.75000000  0.31919455  1.0
  F  F30  1  0.01463418  0.25000000  0.81919455  1.0
  F  F31  1  0.51463418  0.25000000  0.68080545  1.0
