# generated using pymatgen
data_K(NaIn3)3
_symmetry_space_group_name_H-M   'P 1'
_cell_length_a   9.83732349
_cell_length_b   9.83732349
_cell_length_c   17.79454144
_cell_angle_alpha   90.00000000
_cell_angle_beta   90.00000000
_cell_angle_gamma   118.00066672
_symmetry_Int_Tables_number   1
_chemical_formula_structural   K(NaIn3)3
_chemical_formula_sum   'K4 Na12 In36'
_cell_volume   1520.45281221
_cell_formula_units_Z   4
loop_
 _symmetry_equiv_pos_site_id
 _symmetry_equiv_pos_as_xyz
  1  'x, y, z'
loop_
 _atom_site_type_symbol
 _atom_site_label
 _atom_site_symmetry_multiplicity
 _atom_site_fract_x
 _atom_site_fract_y
 _atom_site_fract_z
 _atom_site_occupancy
  K  K0  1  -0.46611518  1.46611518  0.16090895  1.0
  K  K1  1  0.03388482  0.96611518  0.33909105  1.0
  K  K2  1  0.46611518  0.53388482  0.83909105  1.0
  K  K3  1  -0.03388482  1.03388482  0.66090895  1.0
  Na  Na4  1  0.42376658  0.95974240  0.41094420  1.0
  Na  Na5  1  -0.07623342  1.45974240  0.08905580  1.0
  Na  Na6  1  -0.04025760  1.42376658  0.58905580  1.0
  Na  Na7  1  0.45974240  0.92376658  0.91094420  1.0
  Na  Na8  1  0.04025760  0.57623342  0.41094420  1.0
  Na  Na9  1  -0.45974240  1.07623342  0.08905580  1.0
  Na  Na10  1  -0.42376658  1.04025760  0.58905580  1.0
  Na  Na11  1  0.07623342  0.54025760  0.91094420  1.0
  Na  Na12  1  -0.36808156  0.86808156  0.25000000  1.0
  Na  Na13  1  0.13191844  1.36808156  0.25000000  1.0
  Na  Na14  1  -0.13191844  0.63191844  0.75000000  1.0
  Na  Na15  1  0.36808156  1.13191844  0.75000000  1.0
  In  In16  1  0.40539882  1.29132281  0.36901003  1.0
  In  In17  1  -0.09460118  0.79132281  0.13098997  1.0
  In  In18  1  0.29132281  1.40539882  0.63098997  1.0
  In  In19  1  -0.20867719  0.90539882  0.86901003  1.0
  In  In20  1  -0.29132281  0.59460118  0.36901003  1.0
  In  In21  1  0.20867719  1.09460118  0.13098997  1.0
  In  In22  1  -0.40539882  0.70867719  0.63098997  1.0
  In  In23  1  0.09460118  1.20867719  0.86901003  1.0
  In  In24  1  -0.32210886  0.84083140  0.46270391  1.0
  In  In25  1  0.17789114  1.34083140  0.03729609  1.0
  In  In26  1  -0.15916860  0.67789114  0.53729609  1.0
  In  In27  1  0.34083140  1.17789114  0.96270391  1.0
  In  In28  1  0.15916860  1.32210886  0.46270391  1.0
  In  In29  1  -0.34083140  0.82210886  0.03729609  1.0
  In  In30  1  0.32210886  1.15916860  0.53729609  1.0
  In  In31  1  -0.17789114  0.65916860  0.96270391  1.0
  In  In32  1  -0.33678682  1.33678682  0.47736750  1.0
  In  In33  1  0.16321318  0.83678682  0.02263250  1.0
  In  In34  1  0.33678682  0.66321318  0.52263250  1.0
  In  In35  1  -0.16321318  1.16321318  0.97736750  1.0
  In  In36  1  -0.24210026  1.24210026  0.25429669  1.0
  In  In37  1  0.25789974  0.74210026  0.24570331  1.0
  In  In38  1  0.24210026  0.75789974  0.74570331  1.0
  In  In39  1  -0.25789974  1.25789974  0.75429669  1.0
  In  In40  1  -0.17400005  1.17400005  0.41354561  1.0
  In  In41  1  0.32599995  0.67400005  0.08645439  1.0
  In  In42  1  0.17400005  0.82599995  0.58645439  1.0
  In  In43  1  -0.32599995  1.32599995  0.91354561  1.0
  In  In44  1  -0.10365857  1.10365857  0.13896037  1.0
  In  In45  1  0.39634143  0.60365857  0.36103963  1.0
  In  In46  1  0.10365857  0.89634143  0.86103963  1.0
  In  In47  1  -0.39634143  1.39634143  0.63896037  1.0
  In  In48  1  0.41363851  1.08636149  0.25000000  1.0
  In  In49  1  -0.08636149  0.58636149  0.25000000  1.0
  In  In50  1  0.08636149  1.41363851  0.75000000  1.0
  In  In51  1  -0.41363851  0.91363851  0.75000000  1.0
