# generated using pymatgen
data_CeAsN(O2F)2
_symmetry_space_group_name_H-M   'P 1'
_cell_length_a   7.18204318
_cell_length_b   5.96773166
_cell_length_c   7.74347270
_cell_angle_alpha   90.00000000
_cell_angle_beta   114.75602485
_cell_angle_gamma   90.00000000
_symmetry_Int_Tables_number   1
_chemical_formula_structural   CeAsN(O2F)2
_chemical_formula_sum   'Ce2 As2 N2 O8 F4'
_cell_volume   301.38826393
_cell_formula_units_Z   2
loop_
 _symmetry_equiv_pos_site_id
 _symmetry_equiv_pos_as_xyz
  1  'x, y, z'
loop_
 _atom_site_type_symbol
 _atom_site_label
 _atom_site_symmetry_multiplicity
 _atom_site_fract_x
 _atom_site_fract_y
 _atom_site_fract_z
 _atom_site_occupancy
  Ce  Ce0  1  0.09928373  0.75000000  0.17871687  1.0
  Ce  Ce1  1  0.90071627  0.25000000  0.82128313  1.0
  As  As2  1  0.72395669  0.75000000  0.45339267  1.0
  As  As3  1  0.27604331  0.25000000  0.54660733  1.0
  N  N4  1  0.44404210  0.75000000  0.81815731  1.0
  N  N5  1  0.55595790  0.25000000  0.18184270  1.0
  O  O6  1  0.76929478  0.98466429  0.59620158  1.0
  O  O7  1  0.76929478  0.51533571  0.59620158  1.0
  O  O8  1  0.23070522  0.48466429  0.40379842  1.0
  O  O9  1  0.23070522  0.01533571  0.40379842  1.0
  O  O10  1  0.47453661  0.75000000  0.28238726  1.0
  O  O11  1  0.52546339  0.25000000  0.71761274  1.0
  O  O12  1  0.88802568  0.75000000  0.34388378  1.0
  O  O13  1  0.11197432  0.25000000  0.65611622  1.0
  F  F14  1  0.83936131  0.49641473  0.02033255  1.0
  F  F15  1  0.83936131  0.00358527  0.02033255  1.0
  F  F16  1  0.16063869  0.99641473  0.97966745  1.0
  F  F17  1  0.16063869  0.50358527  0.97966745  1.0
