# generated using pymatgen
data_InWS2
_symmetry_space_group_name_H-M   'P 1'
_cell_length_a   3.23718515
_cell_length_b   3.23718515
_cell_length_c   18.13319979
_cell_angle_alpha   90.00000000
_cell_angle_beta   90.00000000
_cell_angle_gamma   120.00000000
_symmetry_Int_Tables_number   1
_chemical_formula_structural   InWS2
_chemical_formula_sum   'In2 W2 S4'
_cell_volume   164.56601717
_cell_formula_units_Z   2
loop_
 _symmetry_equiv_pos_site_id
 _symmetry_equiv_pos_as_xyz
  1  'x, y, z'
loop_
 _atom_site_type_symbol
 _atom_site_label
 _atom_site_symmetry_multiplicity
 _atom_site_fract_x
 _atom_site_fract_y
 _atom_site_fract_z
 _atom_site_occupancy
  In  In0  1  -0.00000000  -0.00000000  0.25000000  1.0
  In  In1  1  -0.00000000  -0.00000000  0.75000000  1.0
  W  W2  1  -0.00000000  -0.00000000  0.50000000  1.0
  W  W3  1  0.00000000  0.00000000  -0.00000000  1.0
  S  S4  1  0.33333333  0.66666667  0.41311286  1.0
  S  S5  1  0.66666667  0.33333333  0.58688714  1.0
  S  S6  1  0.66666667  0.33333333  0.91311286  1.0
  S  S7  1  0.33333333  0.66666667  0.08688714  1.0
