# generated using pymatgen
data_NbSb2
_symmetry_space_group_name_H-M   'P 1'
_cell_length_a   5.49018907
_cell_length_b   5.49018907
_cell_length_c   8.41695326
_cell_angle_alpha   61.81627701
_cell_angle_beta   118.18372299
_cell_angle_gamma   140.91498477
_symmetry_Int_Tables_number   1
_chemical_formula_structural   NbSb2
_chemical_formula_sum   'Nb2 Sb4'
_cell_volume   138.41616229
_cell_formula_units_Z   2
loop_
 _symmetry_equiv_pos_site_id
 _symmetry_equiv_pos_as_xyz
  1  'x, y, z'
loop_
 _atom_site_type_symbol
 _atom_site_label
 _atom_site_symmetry_multiplicity
 _atom_site_fract_x
 _atom_site_fract_y
 _atom_site_fract_z
 _atom_site_occupancy
  Nb  Nb0  1  0.84851882  0.15148118  0.81007223  1.0
  Nb  Nb1  1  1.15148118  -0.15148118  0.18992777  1.0
  Sb  Sb2  1  0.85112185  -0.85112185  0.46435023  1.0
  Sb  Sb3  1  0.14887815  -0.14887815  0.53564977  1.0
  Sb  Sb4  1  0.59491820  0.40508180  0.88821111  1.0
  Sb  Sb5  1  1.40508180  -0.40508180  0.11178889  1.0
