# generated using pymatgen
data_LiAsS2
_symmetry_space_group_name_H-M   'P 1'
_cell_length_a   6.58817680
_cell_length_b   6.58817680
_cell_length_c   5.37062624
_cell_angle_alpha   68.96511189
_cell_angle_beta   111.03488811
_cell_angle_gamma   131.62880984
_symmetry_Int_Tables_number   1
_chemical_formula_structural   LiAsS2
_chemical_formula_sum   'Li2 As2 S4'
_cell_volume   160.18427518
_cell_formula_units_Z   2
loop_
 _symmetry_equiv_pos_site_id
 _symmetry_equiv_pos_as_xyz
  1  'x, y, z'
loop_
 _atom_site_type_symbol
 _atom_site_label
 _atom_site_symmetry_multiplicity
 _atom_site_fract_x
 _atom_site_fract_y
 _atom_site_fract_z
 _atom_site_occupancy
  Li  Li0  1  0.73400124  0.73738683  0.49978246  1.0
  Li  Li1  1  0.26261317  0.26599876  -0.00021754  1.0
  As  As2  1  1.55947649  0.00084347  0.81704726  1.0
  As  As3  1  0.99915653  -0.55947649  0.31704726  1.0
  S  S4  1  1.74060981  -0.21759070  0.97602136  1.0
  S  S5  1  1.21759070  -0.74060981  0.47602136  1.0
  S  S6  1  1.53048541  0.05033335  0.21734892  1.0
  S  S7  1  0.94966665  -0.53048541  0.71734892  1.0
