# generated using pymatgen
data_S4N2O3F
_symmetry_space_group_name_H-M   'P 1'
_cell_length_a   6.46464028
_cell_length_b   11.59733495
_cell_length_c   10.87245285
_cell_angle_alpha   90.00000000
_cell_angle_beta   113.27833664
_cell_angle_gamma   90.00000000
_symmetry_Int_Tables_number   1
_chemical_formula_structural   S4N2O3F
_chemical_formula_sum   'S16 N8 O12 F4'
_cell_volume   748.78060331
_cell_formula_units_Z   4
loop_
 _symmetry_equiv_pos_site_id
 _symmetry_equiv_pos_as_xyz
  1  'x, y, z'
loop_
 _atom_site_type_symbol
 _atom_site_label
 _atom_site_symmetry_multiplicity
 _atom_site_fract_x
 _atom_site_fract_y
 _atom_site_fract_z
 _atom_site_occupancy
  S  S0  1  0.16599194  0.37027240  0.00306583  1.0
  S  S1  1  0.16599194  0.12972760  0.50306583  1.0
  S  S2  1  0.83400806  0.62972760  0.99693417  1.0
  S  S3  1  0.83400806  0.87027240  0.49693417  1.0
  S  S4  1  0.01326981  0.41573887  0.14639163  1.0
  S  S5  1  0.01326981  0.08426113  0.64639163  1.0
  S  S6  1  0.98673019  0.58426113  0.85360837  1.0
  S  S7  1  0.98673019  0.91573887  0.35360837  1.0
  S  S8  1  0.80994086  0.22824387  0.98435190  1.0
  S  S9  1  0.80994086  0.27175613  0.48435190  1.0
  S  S10  1  0.19005914  0.77175613  0.01564810  1.0
  S  S11  1  0.19005914  0.72824387  0.51564810  1.0
  S  S12  1  0.41232070  0.42784484  0.73304446  1.0
  S  S13  1  0.41232070  0.07215516  0.23304446  1.0
  S  S14  1  0.58767930  0.57215516  0.26695554  1.0
  S  S15  1  0.58767930  0.92784484  0.76695554  1.0
  N  N16  1  0.00514959  0.26189400  0.93718787  1.0
  N  N17  1  0.00514959  0.23810600  0.43718787  1.0
  N  N18  1  0.99485041  0.73810600  0.06281213  1.0
  N  N19  1  0.99485041  0.76189400  0.56281213  1.0
  N  N20  1  0.82874842  0.31438522  0.10138333  1.0
  N  N21  1  0.82874842  0.18561478  0.60138333  1.0
  N  N22  1  0.17125158  0.68561478  0.89861667  1.0
  N  N23  1  0.17125158  0.81438522  0.39861667  1.0
  O  O24  1  0.32264246  0.31909414  0.75763819  1.0
  O  O25  1  0.32264246  0.18090586  0.25763819  1.0
  O  O26  1  0.67735754  0.68090586  0.24236181  1.0
  O  O27  1  0.67735754  0.81909414  0.74236181  1.0
  O  O28  1  0.63777759  0.45579249  0.83455656  1.0
  O  O29  1  0.63777759  0.04420751  0.33455656  1.0
  O  O30  1  0.36222241  0.54420751  0.16544344  1.0
  O  O31  1  0.36222241  0.95579249  0.66544344  1.0
  O  O32  1  0.25576970  0.52410318  0.69091603  1.0
  O  O33  1  0.25576970  0.97589682  0.19091603  1.0
  O  O34  1  0.74423030  0.47589682  0.30908397  1.0
  O  O35  1  0.74423030  0.02410318  0.80908397  1.0
  F  F36  1  0.46678903  0.40117052  0.60099189  1.0
  F  F37  1  0.46678903  0.09882948  0.10099189  1.0
  F  F38  1  0.53321097  0.59882948  0.39900811  1.0
  F  F39  1  0.53321097  0.90117052  0.89900811  1.0
