# generated using pymatgen
data_Ba3Y(BO3)3
_symmetry_space_group_name_H-M   'P 1'
_cell_length_a   8.19088727
_cell_length_b   8.19088727
_cell_length_c   8.19088727
_cell_angle_alpha   105.58248639
_cell_angle_beta   105.58248639
_cell_angle_gamma   105.58248638
_symmetry_Int_Tables_number   1
_chemical_formula_structural   Ba3Y(BO3)3
_chemical_formula_sum   'Ba6 Y2 B6 O18'
_cell_volume   474.24099052
_cell_formula_units_Z   2
loop_
 _symmetry_equiv_pos_site_id
 _symmetry_equiv_pos_as_xyz
  1  'x, y, z'
loop_
 _atom_site_type_symbol
 _atom_site_label
 _atom_site_symmetry_multiplicity
 _atom_site_fract_x
 _atom_site_fract_y
 _atom_site_fract_z
 _atom_site_occupancy
  Ba  Ba0  1  0.76410852  0.65915520  0.15106269  1.0
  Ba  Ba1  1  1.34084480  -0.15106269  0.23589148  1.0
  Ba  Ba2  1  0.84893731  0.23589148  0.34084480  1.0
  Ba  Ba3  1  1.23589148  0.34084480  -0.15106269  1.0
  Ba  Ba4  1  0.65915520  1.15106269  -0.23589148  1.0
  Ba  Ba5  1  1.15106269  0.76410852  -0.34084480  1.0
  Y  Y6  1  0.50000000  0.50000000  0.50000000  1.0
  Y  Y7  1  0.00000000  0.00000000  0.00000000  1.0
  B  B8  1  1.54290235  0.79050190  -0.12565134  1.0
  B  B9  1  1.20949810  0.12565134  -0.54290235  1.0
  B  B10  1  1.12565134  -0.54290235  0.20949810  1.0
  B  B11  1  0.45709765  0.20949810  0.12565134  1.0
  B  B12  1  0.79050190  0.87434866  0.54290235  1.0
  B  B13  1  0.87434866  1.54290235  -0.20949810  1.0
  O  O14  1  1.48555346  0.75825907  -0.31214191  1.0
  O  O15  1  1.24174093  0.31214191  -0.48555346  1.0
  O  O16  1  1.31214191  -0.48555346  0.24174093  1.0
  O  O17  1  0.51444654  0.24174093  0.31214191  1.0
  O  O18  1  0.75825907  0.68785809  0.48555346  1.0
  O  O19  1  0.68785809  1.48555346  -0.24174093  1.0
  O  O20  1  1.71162548  0.92730107  -0.00970474  1.0
  O  O21  1  1.07269893  0.00970474  -0.71162548  1.0
  O  O22  1  1.00970474  -0.71162548  0.07269893  1.0
  O  O23  1  0.28837452  0.07269893  0.00970474  1.0
  O  O24  1  0.92730107  0.99029526  0.71162548  1.0
  O  O25  1  0.99029526  1.71162548  -0.07269893  1.0
  O  O26  1  0.56663344  0.30473929  0.05465509  1.0
  O  O27  1  0.69526071  0.94534491  0.43336656  1.0
  O  O28  1  0.94534491  1.43336656  -0.30473929  1.0
  O  O29  1  1.43336656  0.69526071  -0.05465509  1.0
  O  O30  1  1.30473929  0.05465509  -0.43336656  1.0
  O  O31  1  1.05465509  -0.43336656  0.30473929  1.0
