# generated using pymatgen
data_BaZnCl4
_symmetry_space_group_name_H-M   'P 1'
_cell_length_a   6.57495880
_cell_length_b   15.54723724
_cell_length_c   6.95949015
_cell_angle_alpha   90.00000000
_cell_angle_beta   90.00000000
_cell_angle_gamma   90.00000000
_symmetry_Int_Tables_number   1
_chemical_formula_structural   BaZnCl4
_chemical_formula_sum   'Ba4 Zn4 Cl16'
_cell_volume   711.41609438
_cell_formula_units_Z   4
loop_
 _symmetry_equiv_pos_site_id
 _symmetry_equiv_pos_as_xyz
  1  'x, y, z'
loop_
 _atom_site_type_symbol
 _atom_site_label
 _atom_site_symmetry_multiplicity
 _atom_site_fract_x
 _atom_site_fract_y
 _atom_site_fract_z
 _atom_site_occupancy
  Ba  Ba0  1  0.50000000  0.12849388  0.25000000  1.0
  Ba  Ba1  1  0.50000000  0.87150612  0.75000000  1.0
  Ba  Ba2  1  0.00000000  0.62849388  0.25000000  1.0
  Ba  Ba3  1  0.00000000  0.37150612  0.75000000  1.0
  Zn  Zn4  1  0.50000000  0.38976088  0.25000000  1.0
  Zn  Zn5  1  0.50000000  0.61023912  0.75000000  1.0
  Zn  Zn6  1  0.00000000  0.88976088  0.25000000  1.0
  Zn  Zn7  1  0.00000000  0.11023912  0.75000000  1.0
  Cl  Cl8  1  0.34722464  0.29900813  0.03091417  1.0
  Cl  Cl9  1  0.34722464  0.70099187  0.53091417  1.0
  Cl  Cl10  1  0.84722464  0.79900813  0.46908583  1.0
  Cl  Cl11  1  0.84722464  0.20099187  0.96908583  1.0
  Cl  Cl12  1  0.65277536  0.29900813  0.46908583  1.0
  Cl  Cl13  1  0.65277536  0.70099187  0.96908583  1.0
  Cl  Cl14  1  0.15277536  0.79900813  0.03091417  1.0
  Cl  Cl15  1  0.15277536  0.20099187  0.53091417  1.0
  Cl  Cl16  1  0.24650371  0.46213617  0.40836134  1.0
  Cl  Cl17  1  0.24650371  0.53786383  0.90836134  1.0
  Cl  Cl18  1  0.74650371  0.96213617  0.09163866  1.0
  Cl  Cl19  1  0.74650371  0.03786383  0.59163866  1.0
  Cl  Cl20  1  0.75349629  0.46213617  0.09163866  1.0
  Cl  Cl21  1  0.75349629  0.53786383  0.59163866  1.0
  Cl  Cl22  1  0.25349629  0.96213617  0.40836134  1.0
  Cl  Cl23  1  0.25349629  0.03786383  0.90836134  1.0
