# generated using pymatgen
data_Li3Gd(BO3)2
_symmetry_space_group_name_H-M   'P 1'
_cell_length_a   8.80508722
_cell_length_b   6.48409810
_cell_length_c   10.16114820
_cell_angle_alpha   90.00000000
_cell_angle_beta   116.95755476
_cell_angle_gamma   90.00000000
_symmetry_Int_Tables_number   1
_chemical_formula_structural   Li3Gd(BO3)2
_chemical_formula_sum   'Li12 Gd4 B8 O24'
_cell_volume   517.09541595
_cell_formula_units_Z   4
loop_
 _symmetry_equiv_pos_site_id
 _symmetry_equiv_pos_as_xyz
  1  'x, y, z'
loop_
 _atom_site_type_symbol
 _atom_site_label
 _atom_site_symmetry_multiplicity
 _atom_site_fract_x
 _atom_site_fract_y
 _atom_site_fract_z
 _atom_site_occupancy
  Li  Li0  1  0.89323806  0.75577477  0.02149365  1.0
  Li  Li1  1  0.89323806  0.74422523  0.52149365  1.0
  Li  Li2  1  0.10676194  0.25577477  0.47850635  1.0
  Li  Li3  1  0.10676194  0.24422523  0.97850635  1.0
  Li  Li4  1  0.79707065  0.43705903  0.33413409  1.0
  Li  Li5  1  0.79707065  0.06294097  0.83413409  1.0
  Li  Li6  1  0.20292935  0.93705903  0.16586591  1.0
  Li  Li7  1  0.20292935  0.56294097  0.66586591  1.0
  Li  Li8  1  0.66228633  0.21889806  0.45804141  1.0
  Li  Li9  1  0.66228633  0.28110194  0.95804141  1.0
  Li  Li10  1  0.33771367  0.71889806  0.04195859  1.0
  Li  Li11  1  0.33771367  0.78110194  0.54195859  1.0
  Gd  Gd12  1  0.68341343  0.97290097  0.20009868  1.0
  Gd  Gd13  1  0.68341343  0.52709903  0.70009868  1.0
  Gd  Gd14  1  0.31658657  0.47290097  0.29990132  1.0
  Gd  Gd15  1  0.31658657  0.02709903  0.79990132  1.0
  B  B16  1  0.95980058  0.16286161  0.17712037  1.0
  B  B17  1  0.95980058  0.33713839  0.67712037  1.0
  B  B18  1  0.04019942  0.66286161  0.32287963  1.0
  B  B19  1  0.04019942  0.83713839  0.82287963  1.0
  B  B20  1  0.44923533  0.32793161  0.10819760  1.0
  B  B21  1  0.44923533  0.17206839  0.60819760  1.0
  B  B22  1  0.55076467  0.82793161  0.39180240  1.0
  B  B23  1  0.55076467  0.67206839  0.89180240  1.0
  O  O24  1  0.91252569  0.20854070  0.28768777  1.0
  O  O25  1  0.91252569  0.29145930  0.78768777  1.0
  O  O26  1  0.08747431  0.70854070  0.21231223  1.0
  O  O27  1  0.08747431  0.79145930  0.71231223  1.0
  O  O28  1  0.88199667  0.70856517  0.31244879  1.0
  O  O29  1  0.88199667  0.79143483  0.81244879  1.0
  O  O30  1  0.11800333  0.20856517  0.18755121  1.0
  O  O31  1  0.11800333  0.29143483  0.68755121  1.0
  O  O32  1  0.83616882  0.06159620  0.05232810  1.0
  O  O33  1  0.83616882  0.43840380  0.55232810  1.0
  O  O34  1  0.16383118  0.56159620  0.44767190  1.0
  O  O35  1  0.16383118  0.93840380  0.94767190  1.0
  O  O36  1  0.70127050  0.93489698  0.43819999  1.0
  O  O37  1  0.70127050  0.56510302  0.93819999  1.0
  O  O38  1  0.29872950  0.43489698  0.06180001  1.0
  O  O39  1  0.29872950  0.06510302  0.56180001  1.0
  O  O40  1  0.56149958  0.32023269  0.25819127  1.0
  O  O41  1  0.56149958  0.17976731  0.75819127  1.0
  O  O42  1  0.43850042  0.82023269  0.24180873  1.0
  O  O43  1  0.43850042  0.67976731  0.74180873  1.0
  O  O44  1  0.48997302  0.21453664  0.01355705  1.0
  O  O45  1  0.48997302  0.28546336  0.51355705  1.0
  O  O46  1  0.51002698  0.71453664  0.48644295  1.0
  O  O47  1  0.51002698  0.78546336  0.98644295  1.0
