# generated using pymatgen
data_LaGe5
_symmetry_space_group_name_H-M   'P 1'
_cell_length_a   6.28239362
_cell_length_b   6.28239362
_cell_length_c   6.28239362
_cell_angle_alpha   142.50921192
_cell_angle_beta   119.11910831
_cell_angle_gamma   73.73514206
_symmetry_Int_Tables_number   1
_chemical_formula_structural   LaGe5
_chemical_formula_sum   'La1 Ge5'
_cell_volume   129.19228651
_cell_formula_units_Z   1
loop_
 _symmetry_equiv_pos_site_id
 _symmetry_equiv_pos_as_xyz
  1  'x, y, z'
loop_
 _atom_site_type_symbol
 _atom_site_label
 _atom_site_symmetry_multiplicity
 _atom_site_fract_x
 _atom_site_fract_y
 _atom_site_fract_z
 _atom_site_occupancy
  La  La0  1  0.00000000  0.00000000  0.00000000  1.0
  Ge  Ge1  1  0.47002283  0.67091197  0.79911086  1.0
  Ge  Ge2  1  1.12819888  1.32908803  0.79911086  1.0
  Ge  Ge3  1  0.87180112  0.67091197  1.20088914  1.0
  Ge  Ge4  1  1.52997717  1.32908803  1.20088914  1.0
  Ge  Ge5  1  0.50000000  -0.00000000  0.50000000  1.0
