# generated using pymatgen
data_Y2Ge4Mo3
_symmetry_space_group_name_H-M   'P 1'
_cell_length_a   6.92918648
_cell_length_b   13.15824624
_cell_length_c   7.07182700
_cell_angle_alpha   90.00000000
_cell_angle_beta   90.00000000
_cell_angle_gamma   90.00000000
_symmetry_Int_Tables_number   1
_chemical_formula_structural   Y2Ge4Mo3
_chemical_formula_sum   'Y8 Ge16 Mo12'
_cell_volume   644.78048837
_cell_formula_units_Z   4
loop_
 _symmetry_equiv_pos_site_id
 _symmetry_equiv_pos_as_xyz
  1  'x, y, z'
loop_
 _atom_site_type_symbol
 _atom_site_label
 _atom_site_symmetry_multiplicity
 _atom_site_fract_x
 _atom_site_fract_y
 _atom_site_fract_z
 _atom_site_occupancy
  Ge  Ge0  1  0.16909545  0.45192523  0.45259615  1.0
  Ge  Ge1  1  0.16909545  0.04807477  0.45259615  1.0
  Ge  Ge2  1  0.66909545  0.45192523  1.04740385  1.0
  Ge  Ge3  1  0.66909545  0.04807477  1.04740385  1.0
  Ge  Ge4  1  0.83090455  0.95192523  0.54740385  1.0
  Ge  Ge5  1  0.83090455  0.54807477  0.54740385  1.0
  Ge  Ge6  1  0.33090455  0.95192523  -0.04740385  1.0
  Ge  Ge7  1  0.33090455  0.54807477  -0.04740385  1.0
  Ge  Ge8  1  0.31118295  0.25000000  0.85714274  1.0
  Ge  Ge9  1  0.81118295  0.25000000  0.64285726  1.0
  Ge  Ge10  1  0.68881705  0.75000000  0.14285726  1.0
  Ge  Ge11  1  0.18881705  0.75000000  0.35714274  1.0
  Ge  Ge12  1  0.03051364  0.25000000  0.13424217  1.0
  Ge  Ge13  1  0.53051364  0.25000000  0.36575783  1.0
  Ge  Ge14  1  0.96948636  0.75000000  0.86575783  1.0
  Ge  Ge15  1  0.46948636  0.75000000  0.63424217  1.0
  Mo  Mo16  1  0.16636546  0.25000000  0.49416347  1.0
  Mo  Mo17  1  0.66636546  0.25000000  1.00583653  1.0
  Mo  Mo18  1  0.83363454  0.75000000  0.50583653  1.0
  Mo  Mo19  1  0.33363454  0.75000000  -0.00583653  1.0
  Mo  Mo20  1  0.33093426  0.37316303  0.15621605  1.0
  Mo  Mo21  1  0.33093426  0.12683697  0.15621605  1.0
  Mo  Mo22  1  0.83093426  0.37316303  0.34378395  1.0
  Mo  Mo23  1  0.83093426  0.12683697  0.34378395  1.0
  Mo  Mo24  1  0.66906574  0.87316303  0.84378395  1.0
  Mo  Mo25  1  0.66906574  0.62683697  0.84378395  1.0
  Mo  Mo26  1  0.16906574  0.87316303  0.65621605  1.0
  Mo  Mo27  1  0.16906574  0.62683697  0.65621605  1.0
  Y  Y28  1  0.00968860  0.40778916  0.83016803  1.0
  Y  Y29  1  0.00968860  0.09221084  0.83016803  1.0
  Y  Y30  1  0.50968860  0.40778916  0.66983197  1.0
  Y  Y31  1  0.50968860  0.09221084  0.66983197  1.0
  Y  Y32  1  0.99031140  0.90778916  0.16983197  1.0
  Y  Y33  1  0.99031140  0.59221084  0.16983197  1.0
  Y  Y34  1  0.49031140  0.90778916  0.33016803  1.0
  Y  Y35  1  0.49031140  0.59221084  0.33016803  1.0
