# generated using pymatgen
data_Gd2PdO4
_symmetry_space_group_name_H-M   'P 1'
_cell_length_a   6.85062250
_cell_length_b   6.85062250
_cell_length_c   6.85062250
_cell_angle_alpha   120.04578594
_cell_angle_beta   120.04578594
_cell_angle_gamma   89.92071470
_symmetry_Int_Tables_number   1
_chemical_formula_structural   Gd2PdO4
_chemical_formula_sum   'Gd4 Pd2 O8'
_cell_volume   227.18204341
_cell_formula_units_Z   2
loop_
 _symmetry_equiv_pos_site_id
 _symmetry_equiv_pos_as_xyz
  1  'x, y, z'
loop_
 _atom_site_type_symbol
 _atom_site_label
 _atom_site_symmetry_multiplicity
 _atom_site_fract_x
 _atom_site_fract_y
 _atom_site_fract_z
 _atom_site_occupancy
  Gd  Gd0  1  0.37500000  0.62500000  0.75000000  1.0
  Gd  Gd1  1  0.87500000  0.62500000  1.25000000  1.0
  Gd  Gd2  1  0.37500000  1.12500000  0.75000000  1.0
  Gd  Gd3  1  0.37500000  0.62500000  0.25000000  1.0
  Pd  Pd4  1  0.00000000  0.00000000  0.00000000  1.0
  Pd  Pd5  1  0.75000000  0.25000000  0.50000000  1.0
  O  O6  1  1.13632365  0.86436591  1.72804428  1.0
  O  O7  1  0.61367836  0.84172062  1.22804428  1.0
  O  O8  1  1.13563409  0.86367836  1.27195774  1.0
  O  O9  1  1.15827938  1.38632365  1.77195774  1.0
  O  O10  1  0.13632164  0.40827938  0.27195572  1.0
  O  O11  1  0.61367635  0.38563409  0.77195572  1.0
  O  O12  1  0.59172062  0.86367635  0.72804226  1.0
  O  O13  1  0.61436591  0.38632164  0.22804226  1.0
