# generated using pymatgen
data_Zr2Pt
_symmetry_space_group_name_H-M   'P 1'
_cell_length_a   8.90768721
_cell_length_b   8.90768721
_cell_length_c   8.90768721
_cell_angle_alpha   60.00000000
_cell_angle_beta   60.00000000
_cell_angle_gamma   60.00000000
_symmetry_Int_Tables_number   1
_chemical_formula_structural   Zr2Pt
_chemical_formula_sum   'Zr16 Pt8'
_cell_volume   499.78115704
_cell_formula_units_Z   8
loop_
 _symmetry_equiv_pos_site_id
 _symmetry_equiv_pos_as_xyz
  1  'x, y, z'
loop_
 _atom_site_type_symbol
 _atom_site_label
 _atom_site_symmetry_multiplicity
 _atom_site_fract_x
 _atom_site_fract_y
 _atom_site_fract_z
 _atom_site_occupancy
  Zr  Zr0  1  1.12500000  0.62500000  0.62500000  1.0
  Zr  Zr1  1  0.62500000  1.12500000  -0.37500000  1.0
  Zr  Zr2  1  -0.37500000  0.62500000  1.12500000  1.0
  Zr  Zr3  1  -0.37500000  0.62500000  0.62500000  1.0
  Zr  Zr4  1  0.81267837  0.81267837  -0.81267837  1.0
  Zr  Zr5  1  0.18732163  1.18732163  -0.18732163  1.0
  Zr  Zr6  1  0.81267837  -0.81267837  0.81267837  1.0
  Zr  Zr7  1  0.18732163  -0.18732163  0.18732163  1.0
  Zr  Zr8  1  -0.81267837  0.81267837  0.81267837  1.0
  Zr  Zr9  1  -0.18732163  0.18732163  0.18732163  1.0
  Zr  Zr10  1  0.43732163  1.43732163  0.06267837  1.0
  Zr  Zr11  1  0.06267837  0.06267837  0.43732163  1.0
  Zr  Zr12  1  0.43732163  1.06267837  0.43732163  1.0
  Zr  Zr13  1  0.06267837  1.43732163  0.06267837  1.0
  Zr  Zr14  1  0.06267837  1.43732163  0.43732163  1.0
  Zr  Zr15  1  0.43732163  1.06267837  0.06267837  1.0
  Pt  Pt16  1  -0.20963139  0.40321046  0.40321046  1.0
  Pt  Pt17  1  0.40321046  -0.20963139  0.40321046  1.0
  Pt  Pt18  1  0.40321046  1.40321046  -0.20963139  1.0
  Pt  Pt19  1  0.40321046  1.40321046  0.40321046  1.0
  Pt  Pt20  1  0.45963139  0.84678954  -0.15321046  1.0
  Pt  Pt21  1  0.84678954  0.45963139  0.84678954  1.0
  Pt  Pt22  1  0.84678954  0.84678954  -0.54036861  1.0
  Pt  Pt23  1  0.84678954  0.84678954  0.84678954  1.0
