# generated using pymatgen
data_KYP2O7
_symmetry_space_group_name_H-M   'P 1'
_cell_length_a   7.75176433
_cell_length_b   11.06972469
_cell_length_c   8.74350267
_cell_angle_alpha   90.00000000
_cell_angle_beta   107.81916125
_cell_angle_gamma   90.00000000
_symmetry_Int_Tables_number   1
_chemical_formula_structural   KYP2O7
_chemical_formula_sum   'K4 Y4 P8 O28'
_cell_volume   714.28600637
_cell_formula_units_Z   4
loop_
 _symmetry_equiv_pos_site_id
 _symmetry_equiv_pos_as_xyz
  1  'x, y, z'
loop_
 _atom_site_type_symbol
 _atom_site_label
 _atom_site_symmetry_multiplicity
 _atom_site_fract_x
 _atom_site_fract_y
 _atom_site_fract_z
 _atom_site_occupancy
  K  K0  1  0.82713579  0.81994578  0.42271676  1.0
  K  K1  1  0.82713579  0.68005422  0.92271676  1.0
  K  K2  1  0.17286421  0.31994578  0.07728324  1.0
  K  K3  1  0.17286421  0.18005422  0.57728324  1.0
  Y  Y4  1  0.76624710  0.40267993  0.24909426  1.0
  Y  Y5  1  0.76624710  0.09732007  0.74909426  1.0
  Y  Y6  1  0.23375290  0.90267993  0.25090574  1.0
  Y  Y7  1  0.23375290  0.59732007  0.75090574  1.0
  P  P8  1  0.87246587  0.10179215  0.19006167  1.0
  P  P9  1  0.87246587  0.39820785  0.69006167  1.0
  P  P10  1  0.12753413  0.60179215  0.30993833  1.0
  P  P11  1  0.12753413  0.89820785  0.80993833  1.0
  P  P12  1  0.55817514  0.14039324  0.30608663  1.0
  P  P13  1  0.55817514  0.35960676  0.80608663  1.0
  P  P14  1  0.44182486  0.64039324  0.19391337  1.0
  P  P15  1  0.44182486  0.85960676  0.69391337  1.0
  O  O16  1  0.00833964  0.50042408  0.21041054  1.0
  O  O17  1  0.00833964  -0.00042408  0.71041054  1.0
  O  O18  1  0.99166036  1.00042408  0.28958946  1.0
  O  O19  1  0.99166036  0.49957592  0.78958946  1.0
  O  O20  1  0.93095529  0.22709373  0.26592994  1.0
  O  O21  1  0.93095529  0.27290627  0.76592994  1.0
  O  O22  1  0.06904471  0.72709373  0.23407006  1.0
  O  O23  1  0.06904471  0.77290627  0.73407006  1.0
  O  O24  1  0.86534688  0.40216603  0.51415979  1.0
  O  O25  1  0.86534688  0.09783397  0.01415979  1.0
  O  O26  1  0.13465312  0.90216603  0.98584021  1.0
  O  O27  1  0.13465312  0.59783397  0.48584021  1.0
  O  O28  1  0.66682493  0.11409158  0.48088166  1.0
  O  O29  1  0.66682493  0.38590842  0.98088166  1.0
  O  O30  1  0.33317507  0.61409158  0.01911834  1.0
  O  O31  1  0.33317507  0.88590842  0.51911834  1.0
  O  O32  1  0.66720803  0.07380064  0.19486891  1.0
  O  O33  1  0.66720803  0.42619936  0.69486891  1.0
  O  O34  1  0.33279197  0.57380064  0.30513109  1.0
  O  O35  1  0.33279197  0.92619936  0.80513109  1.0
  O  O36  1  0.54244378  0.27507290  0.26044425  1.0
  O  O37  1  0.54244378  0.22492710  0.76044425  1.0
  O  O38  1  0.45755622  0.77507290  0.23955575  1.0
  O  O39  1  0.45755622  0.72492710  0.73955575  1.0
  O  O40  1  0.37064965  0.08068337  0.25497459  1.0
  O  O41  1  0.37064965  0.41931663  0.75497459  1.0
  O  O42  1  0.62935035  0.58068337  0.24502541  1.0
  O  O43  1  0.62935035  0.91931663  0.74502541  1.0
