# generated using pymatgen
data_NaAlH4
_symmetry_space_group_name_H-M   'P 1'
_cell_length_a   6.62065188
_cell_length_b   6.62065188
_cell_length_c   6.62065188
_cell_angle_alpha   135.61635484
_cell_angle_beta   135.61635484
_cell_angle_gamma   64.57401756
_symmetry_Int_Tables_number   1
_chemical_formula_structural   NaAlH4
_chemical_formula_sum   'Na2 Al2 H8'
_cell_volume   140.00049883
_cell_formula_units_Z   2
loop_
 _symmetry_equiv_pos_site_id
 _symmetry_equiv_pos_as_xyz
  1  'x, y, z'
loop_
 _atom_site_type_symbol
 _atom_site_label
 _atom_site_symmetry_multiplicity
 _atom_site_fract_x
 _atom_site_fract_y
 _atom_site_fract_z
 _atom_site_occupancy
  Na  Na0  1  0.75000000  0.25000000  0.50000000  1.0
  Na  Na1  1  1.00000000  1.00000000  1.00000000  1.0
  Al  Al2  1  0.25000000  0.75000000  0.50000000  1.0
  Al  Al3  1  0.50000000  0.50000000  -0.00000000  1.0
  H  H4  1  0.56549864  0.68853758  0.59315567  1.0
  H  H5  1  1.09538191  0.97234298  1.40684433  1.0
  H  H6  1  0.72234298  0.81549864  0.37696106  1.0
  H  H7  1  1.43853758  1.34538191  1.62303894  1.0
  H  H8  1  1.18450136  0.56146242  0.90684433  1.0
  H  H9  1  0.65461809  1.27765702  1.09315567  1.0
  H  H10  1  1.02765702  0.43450136  1.12303894  1.0
  H  H11  1  0.31146242  0.90461809  0.87696106  1.0
