# generated using pymatgen
data_NaSn4(PO4)3
_symmetry_space_group_name_H-M   'P 1'
_cell_length_a   10.06274971
_cell_length_b   10.06274971
_cell_length_c   10.06274971
_cell_angle_alpha   58.57055632
_cell_angle_beta   58.57055632
_cell_angle_gamma   58.57055632
_symmetry_Int_Tables_number   1
_chemical_formula_structural   NaSn4(PO4)3
_chemical_formula_sum   'Na2 Sn8 P6 O24'
_cell_volume   696.95083489
_cell_formula_units_Z   2
loop_
 _symmetry_equiv_pos_site_id
 _symmetry_equiv_pos_as_xyz
  1  'x, y, z'
loop_
 _atom_site_type_symbol
 _atom_site_label
 _atom_site_symmetry_multiplicity
 _atom_site_fract_x
 _atom_site_fract_y
 _atom_site_fract_z
 _atom_site_occupancy
  Na  Na0  1  0.85039277  -0.14960723  -0.14960723  1.0
  Na  Na1  1  0.35039277  0.35039277  -0.64960723  1.0
  Sn  Sn2  1  1.06697342  -0.60094216  -0.06859241  1.0
  Sn  Sn3  1  0.56697342  0.43140759  -0.10094216  1.0
  Sn  Sn4  1  0.43140759  0.89905784  -0.43302658  1.0
  Sn  Sn5  1  0.93140759  0.06697342  -0.60094216  1.0
  Sn  Sn6  1  0.89905784  0.56697342  -0.56859241  1.0
  Sn  Sn7  1  0.39905784  -0.06859241  0.06697342  1.0
  Sn  Sn8  1  0.00041886  0.00041886  0.00041886  1.0
  Sn  Sn9  1  0.50041886  0.50041886  -0.49958114  1.0
  P  P10  1  1.14065040  -0.39976534  0.03681271  1.0
  P  P11  1  0.64065040  0.53681271  -0.89976534  1.0
  P  P12  1  0.53681271  0.10023466  -0.35934960  1.0
  P  P13  1  1.03681271  0.14065040  -0.39976534  1.0
  P  P14  1  0.10023466  0.64065040  -0.46318729  1.0
  P  P15  1  0.60023466  0.03681271  0.14065040  1.0
  O  O16  1  0.78515143  -0.06855974  0.12796618  1.0
  O  O17  1  0.28515143  0.62796618  -0.56855974  1.0
  O  O18  1  0.62796618  0.43144026  -0.71484857  1.0
  O  O19  1  1.12796618  -0.21484857  -0.06855974  1.0
  O  O20  1  0.43144026  0.28515143  -0.37203382  1.0
  O  O21  1  0.93144026  0.12796618  -0.21484857  1.0
  O  O22  1  0.62222274  -0.28309549  0.05897196  1.0
  O  O23  1  1.12222274  -0.44102804  0.21690451  1.0
  O  O24  1  0.55897196  0.21690451  0.12222274  1.0
  O  O25  1  1.05897196  -0.37777726  -0.28309549  1.0
  O  O26  1  1.21690451  0.12222274  -0.44102804  1.0
  O  O27  1  0.71690451  0.05897196  -0.37777726  1.0
  O  O28  1  0.81019185  -0.54698665  -0.01481025  1.0
  O  O29  1  0.31019185  0.48518975  -0.04698665  1.0
  O  O30  1  0.48518975  0.95301335  -0.68980815  1.0
  O  O31  1  0.98518975  -0.18980815  -0.54698665  1.0
  O  O32  1  0.95301335  0.31019185  -0.51481025  1.0
  O  O33  1  0.45301335  -0.01481025  -0.18980815  1.0
  O  O34  1  0.99957857  -0.42948633  0.04200750  1.0
  O  O35  1  0.49957857  0.54200750  -0.92948633  1.0
  O  O36  1  0.54200750  0.07051367  -0.50042143  1.0
  O  O37  1  1.04200750  -0.00042143  -0.42948633  1.0
  O  O38  1  0.07051367  0.49957857  -0.45799250  1.0
  O  O39  1  0.57051367  0.04200750  -0.00042143  1.0
