# generated using pymatgen
data_Mn4Nb2O9
_symmetry_space_group_name_H-M   'P 1'
_cell_length_a   5.34060699
_cell_length_b   5.34060699
_cell_length_c   14.37033757
_cell_angle_alpha   90.00000000
_cell_angle_beta   90.00000000
_cell_angle_gamma   120.00000000
_symmetry_Int_Tables_number   1
_chemical_formula_structural   Mn4Nb2O9
_chemical_formula_sum   'Mn8 Nb4 O18'
_cell_volume   354.95953013
_cell_formula_units_Z   2
loop_
 _symmetry_equiv_pos_site_id
 _symmetry_equiv_pos_as_xyz
  1  'x, y, z'
loop_
 _atom_site_type_symbol
 _atom_site_label
 _atom_site_symmetry_multiplicity
 _atom_site_fract_x
 _atom_site_fract_y
 _atom_site_fract_z
 _atom_site_occupancy
  Mn  Mn0  1  0.33333333  0.66666667  0.01894636  1.0
  Mn  Mn1  1  0.33333333  0.66666667  0.51894636  1.0
  Mn  Mn2  1  0.66666667  0.33333333  0.48105364  1.0
  Mn  Mn3  1  0.66666667  0.33333333  0.98105364  1.0
  Mn  Mn4  1  0.33333333  0.66666667  0.30192249  1.0
  Mn  Mn5  1  0.33333333  0.66666667  0.80192249  1.0
  Mn  Mn6  1  0.66666667  0.33333333  0.19807751  1.0
  Mn  Mn7  1  0.66666667  0.33333333  0.69807751  1.0
  Nb  Nb8  1  0.00000000  0.00000000  0.14181840  1.0
  Nb  Nb9  1  0.00000000  0.00000000  0.64181840  1.0
  Nb  Nb10  1  0.00000000  0.00000000  0.35818160  1.0
  Nb  Nb11  1  0.00000000  0.00000000  0.85818160  1.0
  O  O12  1  0.97465005  0.66337656  0.08476605  1.0
  O  O13  1  0.97465005  0.31127350  0.58476605  1.0
  O  O14  1  0.66337656  0.97465005  0.41523395  1.0
  O  O15  1  0.66337656  0.68872650  0.91523395  1.0
  O  O16  1  0.68872650  0.66337656  0.58476605  1.0
  O  O17  1  0.68872650  0.02534995  0.08476605  1.0
  O  O18  1  0.33662344  0.02534995  0.58476605  1.0
  O  O19  1  0.33662344  0.31127350  0.08476605  1.0
  O  O20  1  0.02534995  0.68872650  0.41523395  1.0
  O  O21  1  0.02534995  0.33662344  0.91523395  1.0
  O  O22  1  0.31127350  0.97465005  0.91523395  1.0
  O  O23  1  0.31127350  0.33662344  0.41523395  1.0
  O  O24  1  0.71960219  0.71960219  0.25000000  1.0
  O  O25  1  0.71960219  0.00000000  0.75000000  1.0
  O  O26  1  0.00000000  0.71960219  0.75000000  1.0
  O  O27  1  -0.00000000  0.28039781  0.25000000  1.0
  O  O28  1  0.28039781  0.28039781  0.75000000  1.0
  O  O29  1  0.28039781  0.00000000  0.25000000  1.0
