# generated using pymatgen
data_Co3N
_symmetry_space_group_name_H-M   'P 1'
_cell_length_a   4.54177833
_cell_length_b   4.54177833
_cell_length_c   4.32089435
_cell_angle_alpha   90.00000000
_cell_angle_beta   90.00000000
_cell_angle_gamma   120.00000000
_symmetry_Int_Tables_number   1
_chemical_formula_structural   Co3N
_chemical_formula_sum   'Co6 N2'
_cell_volume   77.18913020
_cell_formula_units_Z   2
loop_
 _symmetry_equiv_pos_site_id
 _symmetry_equiv_pos_as_xyz
  1  'x, y, z'
loop_
 _atom_site_type_symbol
 _atom_site_label
 _atom_site_symmetry_multiplicity
 _atom_site_fract_x
 _atom_site_fract_y
 _atom_site_fract_z
 _atom_site_occupancy
  Co  Co0  1  0.67354085  0.67354085  0.00000000  1.0
  Co  Co1  1  0.67354085  0.00000000  0.50000000  1.0
  Co  Co2  1  0.00000000  0.67354085  0.50000000  1.0
  Co  Co3  1  0.00000000  0.32645915  0.00000000  1.0
  Co  Co4  1  0.32645915  0.32645915  0.50000000  1.0
  Co  Co5  1  0.32645915  0.00000000  0.00000000  1.0
  N  N6  1  0.33333333  0.66666667  0.25000000  1.0
  N  N7  1  0.66666667  0.33333333  0.75000000  1.0
