# generated using pymatgen
data_CoH4(NO4)2
_symmetry_space_group_name_H-M   'P 1'
_cell_length_a   5.68760248
_cell_length_b   8.93329897
_cell_length_c   8.10838348
_cell_angle_alpha   90.00000000
_cell_angle_beta   128.54433055
_cell_angle_gamma   90.00000000
_symmetry_Int_Tables_number   1
_chemical_formula_structural   CoH4(NO4)2
_chemical_formula_sum   'Co2 H8 N4 O16'
_cell_volume   322.21982613
_cell_formula_units_Z   2
loop_
 _symmetry_equiv_pos_site_id
 _symmetry_equiv_pos_as_xyz
  1  'x, y, z'
loop_
 _atom_site_type_symbol
 _atom_site_label
 _atom_site_symmetry_multiplicity
 _atom_site_fract_x
 _atom_site_fract_y
 _atom_site_fract_z
 _atom_site_occupancy
  Co  Co0  1  -0.00000000  0.50000000  0.50000000  1.0
  Co  Co1  1  0.00000000  0.00000000  0.00000000  1.0
  H  H2  1  0.59151247  -0.04844190  0.19954162  1.0
  H  H3  1  0.59151247  0.54844190  0.69954162  1.0
  H  H4  1  0.40848753  0.45155810  0.30045838  1.0
  H  H5  1  0.40848753  1.04844190  0.80045838  1.0
  H  H6  1  0.54632007  0.36712665  0.20635604  1.0
  H  H7  1  0.54632007  0.13287335  0.70635604  1.0
  H  H8  1  0.45367993  0.86712665  0.29364396  1.0
  H  H9  1  0.45367993  0.63287335  0.79364396  1.0
  N  N10  1  0.96152666  0.28421207  0.18847493  1.0
  N  N11  1  0.96152666  0.21578793  0.68847493  1.0
  N  N12  1  0.03847334  0.78421207  0.31152507  1.0
  N  N13  1  0.03847334  0.71578793  0.81152507  1.0
  O  O14  1  0.91776179  0.90616784  0.20707333  1.0
  O  O15  1  0.91776179  0.59383216  0.70707333  1.0
  O  O16  1  0.08223821  0.40616784  0.29292667  1.0
  O  O17  1  0.08223821  0.09383216  0.79292667  1.0
  O  O18  1  0.90534053  0.71836561  0.37181951  1.0
  O  O19  1  0.90534053  0.78163439  0.87181951  1.0
  O  O20  1  0.09465947  0.21836561  0.12818049  1.0
  O  O21  1  0.09465947  0.28163439  0.62818049  1.0
  O  O22  1  0.72725864  0.23388579  0.14758284  1.0
  O  O23  1  0.72725864  0.26611421  0.64758284  1.0
  O  O24  1  0.27274136  0.73388579  0.35241716  1.0
  O  O25  1  0.27274136  0.76611421  0.85241716  1.0
  O  O26  1  0.55534100  0.46116308  0.27387097  1.0
  O  O27  1  0.55534100  0.03883692  0.77387097  1.0
  O  O28  1  0.44465900  0.96116308  0.22612903  1.0
  O  O29  1  0.44465900  0.53883692  0.72612903  1.0
