# generated using pymatgen
data_KBiO2
_symmetry_space_group_name_H-M   'P 1'
_cell_length_a   5.69080714
_cell_length_b   5.69080714
_cell_length_c   6.07355106
_cell_angle_alpha   66.43714690
_cell_angle_beta   113.56285310
_cell_angle_gamma   88.15477430
_symmetry_Int_Tables_number   1
_chemical_formula_structural   KBiO2
_chemical_formula_sum   'K2 Bi2 O4'
_cell_volume   160.88822754
_cell_formula_units_Z   2
loop_
 _symmetry_equiv_pos_site_id
 _symmetry_equiv_pos_as_xyz
  1  'x, y, z'
loop_
 _atom_site_type_symbol
 _atom_site_label
 _atom_site_symmetry_multiplicity
 _atom_site_fract_x
 _atom_site_fract_y
 _atom_site_fract_z
 _atom_site_occupancy
  K  K0  1  0.86906892  -0.13093108  0.75000000  1.0
  K  K1  1  1.13093108  0.13093108  0.25000000  1.0
  Bi  Bi2  1  1.40058571  0.40058571  0.75000000  1.0
  Bi  Bi3  1  0.59941429  -0.40058571  0.25000000  1.0
  O  O4  1  0.37527994  -0.24109198  0.77657246  1.0
  O  O5  1  1.24109198  0.62472006  0.27657246  1.0
  O  O6  1  0.75890802  -0.62472006  0.72342754  1.0
  O  O7  1  1.62472006  0.24109198  0.22342754  1.0
