# generated using pymatgen
data_KNiH9(CO5)2
_symmetry_space_group_name_H-M   'P 1'
_cell_length_a   5.37397879
_cell_length_b   7.46375722
_cell_length_c   6.64920511
_cell_angle_alpha   59.73900761
_cell_angle_beta   72.62613281
_cell_angle_gamma   73.24073923
_symmetry_Int_Tables_number   1
_chemical_formula_structural   KNiH9(CO5)2
_chemical_formula_sum   'K1 Ni1 H9 C2 O10'
_cell_volume   216.75268032
_cell_formula_units_Z   1
loop_
 _symmetry_equiv_pos_site_id
 _symmetry_equiv_pos_as_xyz
  1  'x, y, z'
loop_
 _atom_site_type_symbol
 _atom_site_label
 _atom_site_symmetry_multiplicity
 _atom_site_fract_x
 _atom_site_fract_y
 _atom_site_fract_z
 _atom_site_occupancy
  K  K0  1  0.00000000  0.00000000  0.50000000  1.0
  Ni  Ni1  1  -0.50000000  0.50000000  -0.50000000  1.0
  H  H2  1  0.01336826  0.42466085  -0.26028524  1.0
  H  H3  1  -1.01336826  0.57533915  0.26028524  1.0
  H  H4  1  -0.78897540  0.40293291  -0.10636848  1.0
  H  H5  1  -0.21102460  0.59706709  0.10636848  1.0
  H  H6  1  -0.63435664  0.13366894  0.63313065  1.0
  H  H7  1  -0.36564336  0.86633106  -0.63313065  1.0
  H  H8  1  -0.42860518  0.75015530  -0.34601381  1.0
  H  H9  1  -0.57139482  0.24984470  0.34601381  1.0
  H  H10  1  0.00000000  0.00000000  0.00000000  1.0
  C  C11  1  -0.63476016  0.79241289  0.01142333  1.0
  C  C12  1  -0.36523984  0.20758711  -0.01142333  1.0
  O  O13  1  -0.85606121  0.49449755  -0.26046144  1.0
  O  O14  1  -0.14393879  0.50550245  0.26046144  1.0
  O  O15  1  -0.80056123  0.95085162  -0.11992273  1.0
  O  O16  1  -0.19943877  0.04914838  0.11992273  1.0
  O  O17  1  -0.72313816  0.69261398  0.23493931  1.0
  O  O18  1  -0.27686184  0.30738602  -0.23493931  1.0
  O  O19  1  -0.47483823  0.76825151  -0.49062923  1.0
  O  O20  1  -0.52516177  0.23174849  0.49062923  1.0
  O  O21  1  -0.40083143  0.74897959  -0.09251451  1.0
  O  O22  1  -0.59916857  0.25102041  0.09251451  1.0
