# generated using pymatgen
data_Y7C3I6O
_symmetry_space_group_name_H-M   'P 1'
_cell_length_a   22.53025435
_cell_length_b   3.85395125
_cell_length_c   11.77928046
_cell_angle_alpha   90.00000000
_cell_angle_beta   90.00000000
_cell_angle_gamma   90.00000000
_symmetry_Int_Tables_number   1
_chemical_formula_structural   Y7C3I6O
_chemical_formula_sum   'Y14 C6 I12 O2'
_cell_volume   1022.80083565
_cell_formula_units_Z   2
loop_
 _symmetry_equiv_pos_site_id
 _symmetry_equiv_pos_as_xyz
  1  'x, y, z'
loop_
 _atom_site_type_symbol
 _atom_site_label
 _atom_site_symmetry_multiplicity
 _atom_site_fract_x
 _atom_site_fract_y
 _atom_site_fract_z
 _atom_site_occupancy
  Y  Y0  1  0.47016928  0.50000000  0.13423793  1.0
  Y  Y1  1  0.97016928  0.50000000  0.86576207  1.0
  Y  Y2  1  0.52983072  0.50000000  0.86576207  1.0
  Y  Y3  1  0.02983072  0.50000000  0.13423793  1.0
  Y  Y4  1  0.33533542  0.00000000  0.19998188  1.0
  Y  Y5  1  0.83533542  0.00000000  0.80001812  1.0
  Y  Y6  1  0.66466458  0.00000000  0.80001812  1.0
  Y  Y7  1  0.16466458  0.00000000  0.19998188  1.0
  Y  Y8  1  0.89432462  0.00000000  0.05882172  1.0
  Y  Y9  1  0.39432462  0.00000000  0.94117828  1.0
  Y  Y10  1  0.10567538  0.00000000  0.94117828  1.0
  Y  Y11  1  0.60567538  0.00000000  0.05882172  1.0
  Y  Y12  1  0.25000000  0.50000000  0.01976351  1.0
  Y  Y13  1  0.75000000  0.50000000  0.98023649  1.0
  C  C14  1  0.36328051  0.50000000  0.07692241  1.0
  C  C15  1  0.86328051  0.50000000  0.92307759  1.0
  C  C16  1  0.63671949  0.50000000  0.92307759  1.0
  C  C17  1  0.13671949  0.50000000  0.07692241  1.0
  C  C18  1  0.50000000  0.00000000  0.00000000  1.0
  C  C19  1  0.00000000  0.00000000  0.00000000  1.0
  I  I20  1  0.90621006  0.50000000  0.26370051  1.0
  I  I21  1  0.40621006  0.50000000  0.73629949  1.0
  I  I22  1  0.09378994  0.50000000  0.73629949  1.0
  I  I23  1  0.59378994  0.50000000  0.26370051  1.0
  I  I24  1  0.44393421  0.00000000  0.34907840  1.0
  I  I25  1  0.94393421  0.00000000  0.65092160  1.0
  I  I26  1  0.55606579  0.00000000  0.65092160  1.0
  I  I27  1  0.05606579  0.00000000  0.34907840  1.0
  I  I28  1  0.25000000  0.50000000  0.36408006  1.0
  I  I29  1  0.75000000  0.50000000  0.63591994  1.0
  I  I30  1  0.25000000  0.00000000  0.81564800  1.0
  I  I31  1  0.75000000  0.00000000  0.18435200  1.0
  O  O32  1  0.25000000  0.00000000  0.11334851  1.0
  O  O33  1  0.75000000  0.00000000  0.88665149  1.0
