# generated using pymatgen
data_Cs2MgH12(SeO7)2
_symmetry_space_group_name_H-M   'P 1'
_cell_length_a   6.58119040
_cell_length_b   13.14700955
_cell_length_c   9.58122508
_cell_angle_alpha   90.00000000
_cell_angle_beta   105.65712559
_cell_angle_gamma   90.00000000
_symmetry_Int_Tables_number   1
_chemical_formula_structural   Cs2MgH12(SeO7)2
_chemical_formula_sum   'Cs4 Mg2 H24 Se4 O28'
_cell_volume   798.23532275
_cell_formula_units_Z   2
loop_
 _symmetry_equiv_pos_site_id
 _symmetry_equiv_pos_as_xyz
  1  'x, y, z'
loop_
 _atom_site_type_symbol
 _atom_site_label
 _atom_site_symmetry_multiplicity
 _atom_site_fract_x
 _atom_site_fract_y
 _atom_site_fract_z
 _atom_site_occupancy
  Cs  Cs0  1  0.84491352  0.64740638  0.12901543  1.0
  Cs  Cs1  1  0.84491352  0.85259362  0.62901543  1.0
  Cs  Cs2  1  0.15508648  0.14740638  0.37098457  1.0
  Cs  Cs3  1  0.15508648  0.35259362  0.87098457  1.0
  Mg  Mg4  1  0.50000000  0.50000000  0.50000000  1.0
  Mg  Mg5  1  0.50000000  0.00000000  0.00000000  1.0
  H  H6  1  0.82524587  0.43780448  0.39757369  1.0
  H  H7  1  0.82524587  0.06219552  0.89757369  1.0
  H  H8  1  0.17475413  0.93780448  0.10242631  1.0
  H  H9  1  0.17475413  0.56219552  0.60242631  1.0
  H  H10  1  0.81050259  0.13631955  0.02278457  1.0
  H  H11  1  0.81050259  0.36368045  0.52278457  1.0
  H  H12  1  0.18949741  0.63631955  0.47721543  1.0
  H  H13  1  0.18949741  0.86368045  0.97721543  1.0
  H  H14  1  0.81665688  0.90613388  0.20486106  1.0
  H  H15  1  0.81665688  0.59386612  0.70486106  1.0
  H  H16  1  0.18334312  0.40613388  0.29513894  1.0
  H  H17  1  0.18334312  0.09386612  0.79513894  1.0
  H  H18  1  0.57297821  0.09421648  0.26927180  1.0
  H  H19  1  0.57297821  0.40578352  0.76927180  1.0
  H  H20  1  0.42702179  0.59421648  0.23072820  1.0
  H  H21  1  0.42702179  0.90578352  0.73072820  1.0
  H  H22  1  0.51042973  0.18026015  0.15105805  1.0
  H  H23  1  0.51042973  0.31973985  0.65105805  1.0
  H  H24  1  0.48957027  0.68026015  0.34894195  1.0
  H  H25  1  0.48957027  0.81973985  0.84894195  1.0
  H  H26  1  0.40479726  0.37203438  0.26812571  1.0
  H  H27  1  0.40479726  0.12796562  0.76812571  1.0
  H  H28  1  0.59520274  0.87203438  0.23187429  1.0
  H  H29  1  0.59520274  0.62796562  0.73187429  1.0
  Se  Se30  1  0.75832983  0.35306495  0.10481353  1.0
  Se  Se31  1  0.75832983  0.14693505  0.60481353  1.0
  Se  Se32  1  0.24167017  0.85306495  0.39518647  1.0
  Se  Se33  1  0.24167017  0.64693505  0.89518647  1.0
  O  O34  1  0.90649160  0.25455247  0.08223313  1.0
  O  O35  1  0.90649160  0.24544753  0.58223313  1.0
  O  O36  1  0.09350840  0.75455247  0.41776687  1.0
  O  O37  1  0.09350840  0.74544753  0.91776687  1.0
  O  O38  1  0.90372688  0.42471267  0.24016051  1.0
  O  O39  1  0.90372688  0.07528733  0.74016051  1.0
  O  O40  1  0.09627312  0.92471267  0.25983949  1.0
  O  O41  1  0.09627312  0.57528733  0.75983949  1.0
  O  O42  1  0.77798542  0.43448724  0.48753125  1.0
  O  O43  1  0.77798542  0.06551276  0.98753125  1.0
  O  O44  1  0.22201458  0.93448724  0.01246875  1.0
  O  O45  1  0.22201458  0.56551276  0.51246875  1.0
  O  O46  1  0.69945096  0.07557780  0.45494466  1.0
  O  O47  1  0.69945096  0.42442220  0.95494466  1.0
  O  O48  1  0.30054904  0.57557780  0.04505534  1.0
  O  O49  1  0.30054904  0.92442220  0.54505534  1.0
  O  O50  1  0.53780332  0.31244137  0.14306739  1.0
  O  O51  1  0.53780332  0.18755863  0.64306739  1.0
  O  O52  1  0.46219668  0.81244137  0.35693261  1.0
  O  O53  1  0.46219668  0.68755863  0.85693261  1.0
  O  O54  1  0.49181499  0.10640622  0.16737026  1.0
  O  O55  1  0.49181499  0.39359378  0.66737026  1.0
  O  O56  1  0.50818501  0.60640622  0.33262974  1.0
  O  O57  1  0.50818501  0.89359378  0.83262974  1.0
  O  O58  1  0.33544551  0.39453777  0.34248919  1.0
  O  O59  1  0.33544551  0.10546223  0.84248919  1.0
  O  O60  1  0.66455449  0.89453777  0.15751081  1.0
  O  O61  1  0.66455449  0.60546223  0.65751081  1.0
