# generated using pymatgen
data_Y3Cu11Si4
_symmetry_space_group_name_H-M   'P 1'
_cell_length_a   8.43943381
_cell_length_b   8.43943381
_cell_length_c   8.62364644
_cell_angle_alpha   90.00000000
_cell_angle_beta   90.00000000
_cell_angle_gamma   120.00000000
_symmetry_Int_Tables_number   1
_chemical_formula_structural   Y3Cu11Si4
_chemical_formula_sum   'Y6 Cu22 Si8'
_cell_volume   531.92229895
_cell_formula_units_Z   2
loop_
 _symmetry_equiv_pos_site_id
 _symmetry_equiv_pos_as_xyz
  1  'x, y, z'
loop_
 _atom_site_type_symbol
 _atom_site_label
 _atom_site_symmetry_multiplicity
 _atom_site_fract_x
 _atom_site_fract_y
 _atom_site_fract_z
 _atom_site_occupancy
  Y  Y0  1  0.19849788  0.80150212  0.25000000  1.0
  Y  Y1  1  0.19849788  0.39699576  0.25000000  1.0
  Y  Y2  1  0.80150212  0.19849788  0.75000000  1.0
  Y  Y3  1  0.80150212  0.60300424  0.75000000  1.0
  Y  Y4  1  0.60300424  0.80150212  0.25000000  1.0
  Y  Y5  1  0.39699576  0.19849788  0.75000000  1.0
  Cu  Cu6  1  0.14957463  0.85042537  0.90946926  1.0
  Cu  Cu7  1  0.14957463  0.85042537  0.59053074  1.0
  Cu  Cu8  1  0.14957463  0.29914925  0.90946926  1.0
  Cu  Cu9  1  0.14957463  0.29914925  0.59053074  1.0
  Cu  Cu10  1  0.85042537  0.14957463  0.40946926  1.0
  Cu  Cu11  1  0.85042537  0.14957463  0.09053074  1.0
  Cu  Cu12  1  0.85042537  0.70085075  0.40946926  1.0
  Cu  Cu13  1  0.85042537  0.70085075  0.09053074  1.0
  Cu  Cu14  1  0.70085075  0.85042537  0.90946926  1.0
  Cu  Cu15  1  0.70085075  0.85042537  0.59053074  1.0
  Cu  Cu16  1  0.29914925  0.14957463  0.40946926  1.0
  Cu  Cu17  1  0.29914925  0.14957463  0.09053074  1.0
  Cu  Cu18  1  0.56588370  0.43411630  0.25000000  1.0
  Cu  Cu19  1  0.56588370  0.13176740  0.25000000  1.0
  Cu  Cu20  1  0.43411630  0.56588370  0.75000000  1.0
  Cu  Cu21  1  0.43411630  0.86823260  0.75000000  1.0
  Cu  Cu22  1  0.86823260  0.43411630  0.25000000  1.0
  Cu  Cu23  1  0.13176740  0.56588370  0.75000000  1.0
  Cu  Cu24  1  0.33333333  0.66666667  0.50983748  1.0
  Cu  Cu25  1  0.33333333  0.66666667  -0.00983748  1.0
  Cu  Cu26  1  0.66666667  0.33333333  1.00983748  1.0
  Cu  Cu27  1  0.66666667  0.33333333  0.49016252  1.0
  Si  Si28  1  0.50000000  0.50000000  0.50000000  1.0
  Si  Si29  1  0.50000000  0.50000000  0.00000000  1.0
  Si  Si30  1  0.50000000  -0.00000000  0.50000000  1.0
  Si  Si31  1  0.50000000  0.00000000  -0.00000000  1.0
  Si  Si32  1  0.00000000  0.50000000  0.50000000  1.0
  Si  Si33  1  0.00000000  0.50000000  -0.00000000  1.0
  Si  Si34  1  0.00000000  -0.00000000  0.25000000  1.0
  Si  Si35  1  -0.00000000  0.00000000  0.75000000  1.0
