# generated using pymatgen
data_NaAs4BrO6
_symmetry_space_group_name_H-M   'P 1'
_cell_length_a   19.76960281
_cell_length_b   5.35922745
_cell_length_c   8.25364508
_cell_angle_alpha   90.00000000
_cell_angle_beta   90.00000000
_cell_angle_gamma   90.00000000
_symmetry_Int_Tables_number   1
_chemical_formula_structural   NaAs4BrO6
_chemical_formula_sum   'Na4 As16 Br4 O24'
_cell_volume   874.47203049
_cell_formula_units_Z   4
loop_
 _symmetry_equiv_pos_site_id
 _symmetry_equiv_pos_as_xyz
  1  'x, y, z'
loop_
 _atom_site_type_symbol
 _atom_site_label
 _atom_site_symmetry_multiplicity
 _atom_site_fract_x
 _atom_site_fract_y
 _atom_site_fract_z
 _atom_site_occupancy
  Na  Na0  1  0.44303658  0.75000000  0.61296264  1.0
  Na  Na1  1  0.94303658  0.75000000  0.88703736  1.0
  Na  Na2  1  0.55696342  0.25000000  0.38703736  1.0
  Na  Na3  1  0.05696342  0.25000000  0.11296264  1.0
  As  As4  1  0.44848754  0.75000000  0.16755528  1.0
  As  As5  1  0.94848754  0.75000000  0.33244472  1.0
  As  As6  1  0.55151246  0.25000000  0.83244472  1.0
  As  As7  1  0.05151246  0.25000000  0.66755528  1.0
  As  As8  1  0.32135070  0.75000000  0.92158768  1.0
  As  As9  1  0.82135070  0.75000000  0.57841232  1.0
  As  As10  1  0.67864930  0.25000000  0.07841232  1.0
  As  As11  1  0.17864930  0.25000000  0.42158768  1.0
  As  As12  1  0.16604074  0.75000000  0.22661943  1.0
  As  As13  1  0.66604074  0.75000000  0.27338057  1.0
  As  As14  1  0.83395926  0.25000000  0.77338057  1.0
  As  As15  1  0.33395926  0.25000000  0.72661943  1.0
  As  As16  1  0.11580819  0.75000000  0.85271540  1.0
  As  As17  1  0.61580819  0.75000000  0.64728460  1.0
  As  As18  1  0.88419181  0.25000000  0.14728460  1.0
  As  As19  1  0.38419181  0.25000000  0.35271540  1.0
  Br  Br20  1  0.28093961  0.75000000  0.52285216  1.0
  Br  Br21  1  0.78093961  0.75000000  0.97714784  1.0
  Br  Br22  1  0.71906039  0.25000000  0.47714784  1.0
  Br  Br23  1  0.21906039  0.25000000  0.02285216  1.0
  O  O24  1  0.37826100  0.99730209  0.83960063  1.0
  O  O25  1  0.37826100  0.50269791  0.83960063  1.0
  O  O26  1  0.87826100  0.99730209  0.66039937  1.0
  O  O27  1  0.87826100  0.50269791  0.66039937  1.0
  O  O28  1  0.62173900  0.49730209  0.16039937  1.0
  O  O29  1  0.62173900  0.00269791  0.16039937  1.0
  O  O30  1  0.12173900  0.49730209  0.33960063  1.0
  O  O31  1  0.12173900  0.00269791  0.33960063  1.0
  O  O32  1  0.05037285  0.99780009  0.82084201  1.0
  O  O33  1  0.05037285  0.50219991  0.82084201  1.0
  O  O34  1  0.55037285  0.99780009  0.67915799  1.0
  O  O35  1  0.55037285  0.50219991  0.67915799  1.0
  O  O36  1  0.94962715  0.49780009  0.17915799  1.0
  O  O37  1  0.94962715  0.00219991  0.17915799  1.0
  O  O38  1  0.44962715  0.49780009  0.32084201  1.0
  O  O39  1  0.44962715  0.00219991  0.32084201  1.0
  O  O40  1  0.35762723  0.75000000  0.12784103  1.0
  O  O41  1  0.85762723  0.75000000  0.37215897  1.0
  O  O42  1  0.64237277  0.25000000  0.87215897  1.0
  O  O43  1  0.14237277  0.25000000  0.62784103  1.0
  O  O44  1  0.09680460  0.75000000  0.07038810  1.0
  O  O45  1  0.59680460  0.75000000  0.42961190  1.0
  O  O46  1  0.90319540  0.25000000  0.92961190  1.0
  O  O47  1  0.40319540  0.25000000  0.57038810  1.0
