# generated using pymatgen
data_SbNF6
_symmetry_space_group_name_H-M   'P 1'
_cell_length_a   5.89079485
_cell_length_b   5.89079485
_cell_length_c   5.89079485
_cell_angle_alpha   60.06592835
_cell_angle_beta   60.06592835
_cell_angle_gamma   60.06592835
_symmetry_Int_Tables_number   1
_chemical_formula_structural   SbNF6
_chemical_formula_sum   'Sb1 N1 F6'
_cell_volume   144.76217790
_cell_formula_units_Z   1
loop_
 _symmetry_equiv_pos_site_id
 _symmetry_equiv_pos_as_xyz
  1  'x, y, z'
loop_
 _atom_site_type_symbol
 _atom_site_label
 _atom_site_symmetry_multiplicity
 _atom_site_fract_x
 _atom_site_fract_y
 _atom_site_fract_z
 _atom_site_occupancy
  Sb  Sb0  1  -0.00000000  0.00000000  -0.00000000  1.0
  N  N1  1  0.50000000  0.50000000  0.50000000  1.0
  F  F2  1  1.23185379  0.23185379  -0.23161153  1.0
  F  F3  1  1.23185379  -0.23161153  0.23185379  1.0
  F  F4  1  1.23161153  0.76814621  -0.23185379  1.0
  F  F5  1  0.76814621  1.23161153  -0.23185379  1.0
  F  F6  1  0.76814621  0.76814621  0.23161153  1.0
  F  F7  1  0.76838847  0.23185379  0.23185379  1.0
