# generated using pymatgen
data_CsBSe3
_symmetry_space_group_name_H-M   'P 1'
_cell_length_a   7.78274713
_cell_length_b   13.07676344
_cell_length_c   6.28922537
_cell_angle_alpha   90.00000000
_cell_angle_beta   104.59347599
_cell_angle_gamma   90.00000000
_symmetry_Int_Tables_number   1
_chemical_formula_structural   CsBSe3
_chemical_formula_sum   'Cs4 B4 Se12'
_cell_volume   619.42407326
_cell_formula_units_Z   4
loop_
 _symmetry_equiv_pos_site_id
 _symmetry_equiv_pos_as_xyz
  1  'x, y, z'
loop_
 _atom_site_type_symbol
 _atom_site_label
 _atom_site_symmetry_multiplicity
 _atom_site_fract_x
 _atom_site_fract_y
 _atom_site_fract_z
 _atom_site_occupancy
  Cs  Cs0  1  0.76098180  0.42162949  0.70922116  1.0
  Cs  Cs1  1  0.76098180  0.07837051  0.20922116  1.0
  Cs  Cs2  1  0.23901820  0.92162949  0.79077884  1.0
  Cs  Cs3  1  0.23901820  0.57837051  0.29077884  1.0
  B  B4  1  0.78768445  0.76734785  0.81645944  1.0
  B  B5  1  0.78768445  0.73265215  0.31645944  1.0
  B  B6  1  0.21231555  0.26734785  0.68354056  1.0
  B  B7  1  0.21231555  0.23265215  0.18354056  1.0
  Se  Se8  1  0.93978234  0.69829794  0.62632046  1.0
  Se  Se9  1  0.93978234  0.80170206  0.12632046  1.0
  Se  Se10  1  0.06021766  0.19829794  0.87367954  1.0
  Se  Se11  1  0.06021766  0.30170206  0.37367954  1.0
  Se  Se12  1  0.69416917  0.90294990  0.66686894  1.0
  Se  Se13  1  0.69416917  0.59705010  0.16686894  1.0
  Se  Se14  1  0.30583083  0.40294990  0.83313106  1.0
  Se  Se15  1  0.30583083  0.09705010  0.33313106  1.0
  Se  Se16  1  0.56333069  0.68024840  0.82472708  1.0
  Se  Se17  1  0.56333069  0.81975160  0.32472708  1.0
  Se  Se18  1  0.43666931  0.18024840  0.67527292  1.0
  Se  Se19  1  0.43666931  0.31975160  0.17527292  1.0
