# generated using pymatgen
data_Zn3(AsO3)2
_symmetry_space_group_name_H-M   'P 1'
_cell_length_a   8.47645455
_cell_length_b   5.29540563
_cell_length_c   16.27073409
_cell_angle_alpha   90.00000000
_cell_angle_beta   97.56439875
_cell_angle_gamma   90.00000000
_symmetry_Int_Tables_number   1
_chemical_formula_structural   Zn3(AsO3)2
_chemical_formula_sum   'Zn12 As8 O24'
_cell_volume   723.97678642
_cell_formula_units_Z   4
loop_
 _symmetry_equiv_pos_site_id
 _symmetry_equiv_pos_as_xyz
  1  'x, y, z'
loop_
 _atom_site_type_symbol
 _atom_site_label
 _atom_site_symmetry_multiplicity
 _atom_site_fract_x
 _atom_site_fract_y
 _atom_site_fract_z
 _atom_site_occupancy
  Zn  Zn0  1  0.98626479  0.47710056  0.18995861  1.0
  Zn  Zn1  1  0.98626479  0.02289944  0.68995861  1.0
  Zn  Zn2  1  0.01373521  0.97710056  0.31004139  1.0
  Zn  Zn3  1  0.01373521  0.52289944  0.81004139  1.0
  Zn  Zn4  1  0.88857839  0.39042218  0.43105890  1.0
  Zn  Zn5  1  0.88857839  0.10957782  0.93105890  1.0
  Zn  Zn6  1  0.11142161  0.89042218  0.06894110  1.0
  Zn  Zn7  1  0.11142161  0.60957782  0.56894110  1.0
  Zn  Zn8  1  0.63112007  0.37187883  0.25835359  1.0
  Zn  Zn9  1  0.63112007  0.12812117  0.75835359  1.0
  Zn  Zn10  1  0.36887993  0.87187883  0.24164641  1.0
  Zn  Zn11  1  0.36887993  0.62812117  0.74164641  1.0
  As  As12  1  0.76167264  0.98269778  0.13039174  1.0
  As  As13  1  0.76167264  0.51730222  0.63039174  1.0
  As  As14  1  0.23832736  0.48269778  0.36960826  1.0
  As  As15  1  0.23832736  0.01730222  0.86960826  1.0
  As  As16  1  0.66973857  0.88652173  0.39008078  1.0
  As  As17  1  0.66973857  0.61347827  0.89008078  1.0
  As  As18  1  0.33026143  0.38652173  0.10991922  1.0
  As  As19  1  0.33026143  0.11347827  0.60991922  1.0
  O  O20  1  0.91644762  0.83333029  0.20318546  1.0
  O  O21  1  0.91644762  0.66666971  0.70318546  1.0
  O  O22  1  0.08355238  0.33333029  0.29681454  1.0
  O  O23  1  0.08355238  0.16666971  0.79681454  1.0
  O  O24  1  0.88971098  0.02401256  0.05041676  1.0
  O  O25  1  0.88971098  0.47598744  0.55041676  1.0
  O  O26  1  0.11028902  0.52401256  0.44958324  1.0
  O  O27  1  0.11028902  0.97598744  0.94958324  1.0
  O  O28  1  0.86404576  0.03762292  0.39175938  1.0
  O  O29  1  0.86404576  0.46237708  0.89175938  1.0
  O  O30  1  0.13595424  0.53762292  0.10824062  1.0
  O  O31  1  0.13595424  0.96237708  0.60824062  1.0
  O  O32  1  0.77812846  0.30102417  0.17505151  1.0
  O  O33  1  0.77812846  0.19897583  0.67505151  1.0
  O  O34  1  0.22187154  0.80102417  0.32494849  1.0
  O  O35  1  0.22187154  0.69897583  0.82494849  1.0
  O  O36  1  0.72279408  0.92795289  0.85524153  1.0
  O  O37  1  0.72279408  0.57204711  0.35524153  1.0
  O  O38  1  0.27720592  0.42795289  0.64475847  1.0
  O  O39  1  0.27720592  0.07204711  0.14475847  1.0
  O  O40  1  0.42618091  0.51748996  0.20804514  1.0
  O  O41  1  0.42618091  -0.01748996  0.70804514  1.0
  O  O42  1  0.57381909  1.01748996  0.29195486  1.0
  O  O43  1  0.57381909  0.48251004  0.79195486  1.0
