# generated using pymatgen
data_FeB
_symmetry_space_group_name_H-M   'P 1'
_cell_length_a   5.41064357
_cell_length_b   2.94597240
_cell_length_c   3.99276931
_cell_angle_alpha   90.00000000
_cell_angle_beta   90.00000000
_cell_angle_gamma   90.00000000
_symmetry_Int_Tables_number   1
_chemical_formula_structural   FeB
_chemical_formula_sum   'Fe4 B4'
_cell_volume   63.64317228
_cell_formula_units_Z   4
loop_
 _symmetry_equiv_pos_site_id
 _symmetry_equiv_pos_as_xyz
  1  'x, y, z'
loop_
 _atom_site_type_symbol
 _atom_site_label
 _atom_site_symmetry_multiplicity
 _atom_site_fract_x
 _atom_site_fract_y
 _atom_site_fract_z
 _atom_site_occupancy
  Fe  Fe0  1  0.32222289  0.75000000  0.12053129  1.0
  Fe  Fe1  1  0.82222289  0.75000000  0.37946871  1.0
  Fe  Fe2  1  0.67777711  0.25000000  0.87946871  1.0
  Fe  Fe3  1  0.17777711  0.25000000  0.62053129  1.0
  B  B4  1  0.46546693  0.75000000  0.61884153  1.0
  B  B5  1  0.96546693  0.75000000  0.88115847  1.0
  B  B6  1  0.53453307  0.25000000  0.38115847  1.0
  B  B7  1  0.03453307  0.25000000  0.11884153  1.0
