# generated using pymatgen
data_CaAl2(SiO4)2
_symmetry_space_group_name_H-M   'P 1'
_cell_length_a   9.59481844
_cell_length_b   8.85630769
_cell_length_c   8.25067304
_cell_angle_alpha   95.34360088
_cell_angle_beta   97.43746329
_cell_angle_gamma   89.59488179
_symmetry_Int_Tables_number   1
_chemical_formula_structural   CaAl2(SiO4)2
_chemical_formula_sum   'Ca4 Al8 Si8 O32'
_cell_volume   692.16957146
_cell_formula_units_Z   4
loop_
 _symmetry_equiv_pos_site_id
 _symmetry_equiv_pos_as_xyz
  1  'x, y, z'
loop_
 _atom_site_type_symbol
 _atom_site_label
 _atom_site_symmetry_multiplicity
 _atom_site_fract_x
 _atom_site_fract_y
 _atom_site_fract_z
 _atom_site_occupancy
  Ca  Ca0  1  1.00230971  0.91998912  -0.76555603  1.0
  Ca  Ca1  1  -0.00230971  0.08001088  -0.23444397  1.0
  Ca  Ca2  1  0.42518821  0.41909625  -0.30847733  1.0
  Ca  Ca3  1  0.57481179  0.58090375  -0.69152267  1.0
  Al  Al4  1  0.54835761  0.22718860  -0.61034016  1.0
  Al  Al5  1  0.45164239  0.77281140  -0.38965984  1.0
  Al  Al6  1  0.68982168  0.06743709  -0.11941535  1.0
  Al  Al7  1  0.31017832  0.93256291  -0.88058465  1.0
  Al  Al8  1  0.94605538  0.72215417  -0.47380126  1.0
  Al  Al9  1  0.05394462  0.27784583  -0.52619874  1.0
  Al  Al10  1  0.18916562  0.43988457  0.00110475  1.0
  Al  Al11  1  0.81083438  0.56011543  -1.00110475  1.0
  Si  Si12  1  0.05455757  0.73879298  -0.09463203  1.0
  Si  Si13  1  0.94544243  0.26120702  -0.90536797  1.0
  Si  Si14  1  0.20599171  0.56968404  -0.60622196  1.0
  Si  Si15  1  0.79400829  0.43031596  -0.39377804  1.0
  Si  Si16  1  0.45358425  0.24539290  -0.97547565  1.0
  Si  Si17  1  0.54641575  0.75460710  -0.02452435  1.0
  Si  Si18  1  0.70596907  0.94444445  -0.50127760  1.0
  Si  Si19  1  0.29403093  0.05555555  -0.49872240  1.0
  O  O20  1  0.14155362  0.88645312  0.00660870  1.0
  O  O21  1  0.85844638  0.11354688  -1.00660870  1.0
  O  O22  1  0.63027295  0.38085869  -0.47524724  1.0
  O  O23  1  0.36972705  0.61914131  -0.52475276  1.0
  O  O24  1  0.85356388  0.87665610  -0.56512441  1.0
  O  O25  1  0.14643612  0.12334390  -0.43487559  1.0
  O  O26  1  0.34742299  0.36910618  -0.06624628  1.0
  O  O27  1  0.65257701  0.63089382  -0.93375372  1.0
  O  O28  1  0.99316508  0.80304614  -0.27031664  1.0
  O  O29  1  0.00683492  0.19695386  -0.72968336  1.0
  O  O30  1  0.52061750  0.32384197  -0.79145927  1.0
  O  O31  1  0.47938250  0.67615803  -0.20854073  1.0
  O  O32  1  0.74596251  0.03193579  -0.31676758  1.0
  O  O33  1  0.25403749  0.96806421  -0.68323242  1.0
  O  O34  1  0.21454145  0.51174656  -0.79454048  1.0
  O  O35  1  0.78545855  0.48825344  -0.20545952  1.0
  O  O36  1  0.13958353  0.58369371  -0.12645598  1.0
  O  O37  1  0.86041647  0.41630629  -0.87354402  1.0
  O  O38  1  0.63935582  0.05888642  -0.63192795  1.0
  O  O39  1  0.36064418  0.94111358  -0.36807205  1.0
  O  O40  1  0.57035714  0.21878764  -0.10355011  1.0
  O  O41  1  0.42964286  0.78121236  -0.89644989  1.0
  O  O42  1  0.09014339  0.70696804  -0.58864158  1.0
  O  O43  1  0.90985661  0.29303196  -0.41135842  1.0
  O  O44  1  0.93111402  0.71632962  -0.97588675  1.0
  O  O45  1  0.06888598  0.28367038  -0.02411325  1.0
  O  O46  1  0.39944960  0.20115700  -0.50616323  1.0
  O  O47  1  0.60055040  0.79884300  -0.49383677  1.0
  O  O48  1  0.62979206  0.90422527  -0.05266983  1.0
  O  O49  1  0.37020794  0.09577473  -0.94733017  1.0
  O  O50  1  0.16808645  0.43431161  -0.49559604  1.0
  O  O51  1  0.83191355  0.56568839  -0.50440396  1.0
