# generated using pymatgen
data_LuB4
_symmetry_space_group_name_H-M   'P 1'
_cell_length_a   7.02610175
_cell_length_b   7.02610175
_cell_length_c   3.97260325
_cell_angle_alpha   90.00000000
_cell_angle_beta   90.00000000
_cell_angle_gamma   90.00000000
_symmetry_Int_Tables_number   1
_chemical_formula_structural   LuB4
_chemical_formula_sum   'Lu4 B16'
_cell_volume   196.11195259
_cell_formula_units_Z   4
loop_
 _symmetry_equiv_pos_site_id
 _symmetry_equiv_pos_as_xyz
  1  'x, y, z'
loop_
 _atom_site_type_symbol
 _atom_site_label
 _atom_site_symmetry_multiplicity
 _atom_site_fract_x
 _atom_site_fract_y
 _atom_site_fract_z
 _atom_site_occupancy
  Lu  Lu0  1  0.31980603  0.18019397  0.50000000  1.0
  Lu  Lu1  1  0.81980603  0.31980603  0.50000000  1.0
  Lu  Lu2  1  0.68019397  0.81980603  0.50000000  1.0
  Lu  Lu3  1  0.18019397  0.68019397  0.50000000  1.0
  B  B4  1  0.46133058  0.67700081  0.00000000  1.0
  B  B5  1  0.96133058  0.82299919  0.00000000  1.0
  B  B6  1  0.32299919  0.46133058  0.00000000  1.0
  B  B7  1  0.82299919  0.03866942  0.00000000  1.0
  B  B8  1  0.53866942  0.32299919  0.00000000  1.0
  B  B9  1  0.03866942  0.17700081  0.00000000  1.0
  B  B10  1  0.67700081  0.53866942  0.00000000  1.0
  B  B11  1  0.17700081  0.96133058  0.00000000  1.0
  B  B12  1  0.91336009  0.58663991  0.00000000  1.0
  B  B13  1  0.41336009  0.91336009  0.00000000  1.0
  B  B14  1  0.08663991  0.41336009  0.00000000  1.0
  B  B15  1  0.58663991  0.08663991  0.00000000  1.0
  B  B16  1  0.50000000  0.50000000  0.70216035  1.0
  B  B17  1  0.50000000  0.50000000  0.29783965  1.0
  B  B18  1  0.00000000  0.00000000  0.70216035  1.0
  B  B19  1  0.00000000  0.00000000  0.29783965  1.0
