# generated using pymatgen
data_CdI2
_symmetry_space_group_name_H-M   'P 1'
_cell_length_a   4.32767487
_cell_length_b   4.32767487
_cell_length_c   75.83299198
_cell_angle_alpha   90.00000000
_cell_angle_beta   90.00000000
_cell_angle_gamma   120.00000000
_symmetry_Int_Tables_number   1
_chemical_formula_structural   CdI2
_chemical_formula_sum   'Cd10 I20'
_cell_volume   1229.98006793
_cell_formula_units_Z   10
loop_
 _symmetry_equiv_pos_site_id
 _symmetry_equiv_pos_as_xyz
  1  'x, y, z'
loop_
 _atom_site_type_symbol
 _atom_site_label
 _atom_site_symmetry_multiplicity
 _atom_site_fract_x
 _atom_site_fract_y
 _atom_site_fract_z
 _atom_site_occupancy
  Cd  Cd0  1  0.00000000  0.00000000  0.02501340  1.0
  Cd  Cd1  1  0.00000000  0.00000000  0.12499583  1.0
  Cd  Cd2  1  0.00000000  0.00000000  0.22499822  1.0
  Cd  Cd3  1  0.00000000  0.00000000  0.32499836  1.0
  Cd  Cd4  1  0.00000000  0.00000000  0.42499954  1.0
  Cd  Cd5  1  0.00000000  0.00000000  0.52498578  1.0
  Cd  Cd6  1  0.66666667  0.33333333  0.62501059  1.0
  Cd  Cd7  1  0.66666667  0.33333333  0.72499835  1.0
  Cd  Cd8  1  0.66666667  0.33333333  0.82499773  1.0
  Cd  Cd9  1  0.66666667  0.33333333  0.92498568  1.0
  I  I10  1  0.00000000  0.00000000  0.64768166  1.0
  I  I11  1  0.00000000  0.00000000  0.74767308  1.0
  I  I12  1  0.00000000  0.00000000  0.84767175  1.0
  I  I13  1  0.00000000  0.00000000  0.94766130  1.0
  I  I14  1  0.66666667  0.33333333  0.04768743  1.0
  I  I15  1  0.66666667  0.33333333  0.14766789  1.0
  I  I16  1  0.66666667  0.33333333  0.24767299  1.0
  I  I17  1  0.66666667  0.33333333  0.34767352  1.0
  I  I18  1  0.66666667  0.33333333  0.44767421  1.0
  I  I19  1  0.66666667  0.33333333  0.54766063  1.0
  I  I20  1  0.33333333  0.66666667  0.00234996  1.0
  I  I21  1  0.33333333  0.66666667  0.10232459  1.0
  I  I22  1  0.33333333  0.66666667  0.20232815  1.0
  I  I23  1  0.33333333  0.66666667  0.30232848  1.0
  I  I24  1  0.33333333  0.66666667  0.40232986  1.0
  I  I25  1  0.33333333  0.66666667  0.50231407  1.0
  I  I26  1  0.33333333  0.66666667  0.60234441  1.0
  I  I27  1  0.33333333  0.66666667  0.70232996  1.0
  I  I28  1  0.33333333  0.66666667  0.80232756  1.0
  I  I29  1  0.33333333  0.66666667  0.90231501  1.0
