# generated using pymatgen
data_CsLiBeF4
_symmetry_space_group_name_H-M   'P 1'
_cell_length_a   5.43721105
_cell_length_b   9.01422886
_cell_length_c   10.84339776
_cell_angle_alpha   90.00000000
_cell_angle_beta   120.15776093
_cell_angle_gamma   90.00000000
_symmetry_Int_Tables_number   1
_chemical_formula_structural   CsLiBeF4
_chemical_formula_sum   'Cs4 Li4 Be4 F16'
_cell_volume   459.52399556
_cell_formula_units_Z   4
loop_
 _symmetry_equiv_pos_site_id
 _symmetry_equiv_pos_as_xyz
  1  'x, y, z'
loop_
 _atom_site_type_symbol
 _atom_site_label
 _atom_site_symmetry_multiplicity
 _atom_site_fract_x
 _atom_site_fract_y
 _atom_site_fract_z
 _atom_site_occupancy
  Cs  Cs0  1  0.98335220  0.49662135  0.22472447  1.0
  Cs  Cs1  1  0.98335220  0.00337865  0.72472447  1.0
  Cs  Cs2  1  0.01664780  0.99662135  0.27527553  1.0
  Cs  Cs3  1  0.01664780  0.50337865  0.77527553  1.0
  Li  Li4  1  0.33040833  0.18180684  0.08690179  1.0
  Li  Li5  1  0.33040833  0.31819316  0.58690179  1.0
  Li  Li6  1  0.66959167  0.68180684  0.41309821  1.0
  Li  Li7  1  0.66959167  0.81819316  0.91309821  1.0
  Be  Be8  1  0.66550660  0.30132658  0.41931453  1.0
  Be  Be9  1  0.66550660  0.19867342  0.91931453  1.0
  Be  Be10  1  0.33449340  0.80132658  0.08068547  1.0
  Be  Be11  1  0.33449340  0.69867342  0.58068547  1.0
  F  F12  1  0.96791162  0.24113439  0.45759768  1.0
  F  F13  1  0.96791162  0.25886561  0.95759768  1.0
  F  F14  1  0.03208838  0.74113439  0.04240232  1.0
  F  F15  1  0.03208838  0.75886561  0.54240232  1.0
  F  F16  1  0.66415551  0.47474485  0.40970487  1.0
  F  F17  1  0.66415551  0.02525515  0.90970487  1.0
  F  F18  1  0.33584449  0.97474485  0.09029513  1.0
  F  F19  1  0.33584449  0.52525515  0.59029513  1.0
  F  F20  1  0.59821191  0.24804420  0.03877119  1.0
  F  F21  1  0.59821191  0.25195580  0.53877119  1.0
  F  F22  1  0.40178809  0.74804420  0.46122881  1.0
  F  F23  1  0.40178809  0.75195580  0.96122881  1.0
  F  F24  1  0.43011233  0.23794229  0.27193746  1.0
  F  F25  1  0.43011233  0.26205771  0.77193746  1.0
  F  F26  1  0.56988767  0.73794229  0.22806254  1.0
  F  F27  1  0.56988767  0.76205771  0.72806254  1.0
