# generated using pymatgen
data_Ta4Fe4Si7
_symmetry_space_group_name_H-M   'P 1'
_cell_length_a   9.21451254
_cell_length_b   9.21451254
_cell_length_c   9.21451254
_cell_angle_alpha   94.22780629
_cell_angle_beta   94.22780629
_cell_angle_gamma   148.49072889
_symmetry_Int_Tables_number   1
_chemical_formula_structural   Ta4Fe4Si7
_chemical_formula_sum   'Ta8 Fe8 Si14'
_cell_volume   393.53873191
_cell_formula_units_Z   2
loop_
 _symmetry_equiv_pos_site_id
 _symmetry_equiv_pos_as_xyz
  1  'x, y, z'
loop_
 _atom_site_type_symbol
 _atom_site_label
 _atom_site_symmetry_multiplicity
 _atom_site_fract_x
 _atom_site_fract_y
 _atom_site_fract_z
 _atom_site_occupancy
  Ta  Ta0  1  -0.00000000  0.80786613  0.80786613  1.0
  Ta  Ta1  1  0.80786613  1.00000000  0.80786613  1.0
  Ta  Ta2  1  1.19213387  1.00000000  1.19213387  1.0
  Ta  Ta3  1  -0.00000000  0.19213387  0.19213387  1.0
  Ta  Ta4  1  0.63488852  0.63488852  0.26977703  1.0
  Ta  Ta5  1  1.36511148  0.63488852  1.00000000  1.0
  Ta  Ta6  1  0.63488852  0.36511148  1.00000000  1.0
  Ta  Ta7  1  0.36511148  0.36511148  0.73022297  1.0
  Fe  Fe8  1  1.10015974  0.60015974  1.20031948  1.0
  Fe  Fe9  1  1.60015974  1.10015974  1.20031948  1.0
  Fe  Fe10  1  0.39984026  0.60015974  0.50000000  1.0
  Fe  Fe11  1  0.89984026  1.10015974  0.50000000  1.0
  Fe  Fe12  1  1.10015974  0.89984026  1.50000000  1.0
  Fe  Fe13  1  1.60015974  1.39984026  1.50000000  1.0
  Fe  Fe14  1  0.39984026  0.89984026  0.79968052  1.0
  Fe  Fe15  1  0.89984026  1.39984026  0.79968052  1.0
  Si  Si16  1  0.50000000  0.79890024  0.29890024  1.0
  Si  Si17  1  0.79890024  0.50000000  1.29890024  1.0
  Si  Si18  1  0.20109976  0.50000000  0.70109976  1.0
  Si  Si19  1  0.50000000  1.20109976  0.70109976  1.0
  Si  Si20  1  -0.00000000  0.59443964  0.59443964  1.0
  Si  Si21  1  0.59443964  1.00000000  0.59443964  1.0
  Si  Si22  1  1.40556036  1.00000000  1.40556036  1.0
  Si  Si23  1  -0.00000000  0.40556036  0.40556036  1.0
  Si  Si24  1  0.79081050  0.79081050  0.58162100  1.0
  Si  Si25  1  1.20918950  0.79081050  1.00000000  1.0
  Si  Si26  1  0.79081050  0.20918950  1.00000000  1.0
  Si  Si27  1  0.20918950  0.20918950  0.41837900  1.0
  Si  Si28  1  0.74912124  0.74912124  -0.00000000  1.0
  Si  Si29  1  0.25087876  0.25087876  -0.00000000  1.0
