# generated using pymatgen
data_CdH8C4(N4Cl)2
_symmetry_space_group_name_H-M   'P 1'
_cell_length_a   3.94331794
_cell_length_b   8.54969828
_cell_length_c   17.61549981
_cell_angle_alpha   90.00000000
_cell_angle_beta   93.92810308
_cell_angle_gamma   90.00000000
_symmetry_Int_Tables_number   1
_chemical_formula_structural   CdH8C4(N4Cl)2
_chemical_formula_sum   'Cd2 H16 C8 N16 Cl4'
_cell_volume   592.49693492
_cell_formula_units_Z   2
loop_
 _symmetry_equiv_pos_site_id
 _symmetry_equiv_pos_as_xyz
  1  'x, y, z'
loop_
 _atom_site_type_symbol
 _atom_site_label
 _atom_site_symmetry_multiplicity
 _atom_site_fract_x
 _atom_site_fract_y
 _atom_site_fract_z
 _atom_site_occupancy
  Cd  Cd0  1  -0.00000000  0.50000000  0.50000000  1.0
  Cd  Cd1  1  0.00000000  0.00000000  0.00000000  1.0
  H  H2  1  0.82273054  0.79021803  0.36865049  1.0
  H  H3  1  0.82273054  0.70978197  0.86865049  1.0
  H  H4  1  0.17726946  0.29021803  0.13134951  1.0
  H  H5  1  0.17726946  0.20978197  0.63134951  1.0
  H  H6  1  0.80587590  0.22736450  0.27505666  1.0
  H  H7  1  0.80587590  0.27263550  0.77505666  1.0
  H  H8  1  0.19412410  0.72736450  0.22494334  1.0
  H  H9  1  0.19412410  0.77263550  0.72494334  1.0
  H  H10  1  0.65696850  0.94663926  0.41759755  1.0
  H  H11  1  0.65696850  0.55336074  0.91759755  1.0
  H  H12  1  0.34303150  0.44663926  0.08240245  1.0
  H  H13  1  0.34303150  0.05336074  0.58240245  1.0
  H  H14  1  0.63015236  0.19666894  0.36193970  1.0
  H  H15  1  0.63015236  0.30333106  0.86193970  1.0
  H  H16  1  0.36984764  0.69666894  0.13806030  1.0
  H  H17  1  0.36984764  0.80333106  0.63806030  1.0
  C  C18  1  1.00543409  0.50959631  0.31070715  1.0
  C  C19  1  1.00543409  -0.00959631  0.81070715  1.0
  C  C20  1  -0.00543409  1.00959631  0.18929285  1.0
  C  C21  1  -0.00543409  0.49040369  0.68929285  1.0
  C  C22  1  0.81315600  0.00016774  0.31174695  1.0
  C  C23  1  0.81315600  0.49983226  0.81174695  1.0
  C  C24  1  0.18684400  0.50016774  0.18825305  1.0
  C  C25  1  0.18684400  0.99983226  0.68825305  1.0
  N  N26  1  0.96078983  0.93600260  0.25207722  1.0
  N  N27  1  0.96078983  0.56399740  0.75207722  1.0
  N  N28  1  0.03921017  0.43600260  0.24792278  1.0
  N  N29  1  0.03921017  0.06399740  0.74792278  1.0
  N  N30  1  0.95375111  0.93616859  0.87067568  1.0
  N  N31  1  0.95375111  0.56383141  0.37067568  1.0
  N  N32  1  0.04624889  0.43616859  0.62932432  1.0
  N  N33  1  0.04624889  0.06383141  0.12932432  1.0
  N  N34  1  0.76552047  0.90689701  0.37081009  1.0
  N  N35  1  0.76552047  0.59310299  0.87081009  1.0
  N  N36  1  0.23447953  0.40689701  0.12918991  1.0
  N  N37  1  0.23447953  0.09310299  0.62918991  1.0
  N  N38  1  0.71469272  0.14996271  0.31297722  1.0
  N  N39  1  0.71469272  0.35003729  0.81297722  1.0
  N  N40  1  0.28530728  0.64996271  0.18702278  1.0
  N  N41  1  0.28530728  0.85003729  0.68702278  1.0
  Cl  Cl42  1  0.49623073  0.28965090  0.47622845  1.0
  Cl  Cl43  1  0.49623073  0.21034910  0.97622845  1.0
  Cl  Cl44  1  0.50376927  0.78965090  0.02377155  1.0
  Cl  Cl45  1  0.50376927  0.71034910  0.52377155  1.0
