# generated using pymatgen
data_HfCoP
_symmetry_space_group_name_H-M   'P 1'
_cell_length_a   6.27138519
_cell_length_b   3.67053340
_cell_length_c   7.10489023
_cell_angle_alpha   90.00000000
_cell_angle_beta   90.00000000
_cell_angle_gamma   90.00000000
_symmetry_Int_Tables_number   1
_chemical_formula_structural   HfCoP
_chemical_formula_sum   'Hf4 Co4 P4'
_cell_volume   163.54980434
_cell_formula_units_Z   4
loop_
 _symmetry_equiv_pos_site_id
 _symmetry_equiv_pos_as_xyz
  1  'x, y, z'
loop_
 _atom_site_type_symbol
 _atom_site_label
 _atom_site_symmetry_multiplicity
 _atom_site_fract_x
 _atom_site_fract_y
 _atom_site_fract_z
 _atom_site_occupancy
  Hf  Hf0  1  0.97913195  0.75000000  0.68235200  1.0
  Hf  Hf1  1  0.47913195  0.75000000  0.81764800  1.0
  Hf  Hf2  1  0.02086805  0.25000000  0.31764800  1.0
  Hf  Hf3  1  0.52086805  0.25000000  0.18235200  1.0
  Co  Co4  1  0.86085201  0.75000000  0.06192058  1.0
  Co  Co5  1  0.36085201  0.75000000  0.43807942  1.0
  Co  Co6  1  0.13914799  0.25000000  0.93807942  1.0
  Co  Co7  1  0.63914799  0.25000000  0.56192058  1.0
  P  P8  1  0.72735360  0.75000000  0.38429574  1.0
  P  P9  1  0.22735360  0.75000000  0.11570426  1.0
  P  P10  1  0.27264640  0.25000000  0.61570426  1.0
  P  P11  1  0.77264640  0.25000000  0.88429574  1.0
