# generated using pymatgen
data_BaZnFeF7
_symmetry_space_group_name_H-M   'P 1'
_cell_length_a   5.70111104
_cell_length_b   10.13395536
_cell_length_c   9.69871453
_cell_angle_alpha   90.00000000
_cell_angle_beta   93.21461941
_cell_angle_gamma   90.00000000
_symmetry_Int_Tables_number   1
_chemical_formula_structural   BaZnFeF7
_chemical_formula_sum   'Ba4 Zn4 Fe4 F28'
_cell_volume   559.45963475
_cell_formula_units_Z   4
loop_
 _symmetry_equiv_pos_site_id
 _symmetry_equiv_pos_as_xyz
  1  'x, y, z'
loop_
 _atom_site_type_symbol
 _atom_site_label
 _atom_site_symmetry_multiplicity
 _atom_site_fract_x
 _atom_site_fract_y
 _atom_site_fract_z
 _atom_site_occupancy
  Fe  Fe0  1  0.69728560  0.10884462  0.31088592  1.0
  Fe  Fe1  1  0.69728560  0.39115538  0.81088592  1.0
  Fe  Fe2  1  0.30271440  0.60884462  0.18911408  1.0
  Fe  Fe3  1  0.30271440  0.89115538  0.68911408  1.0
  Ba  Ba4  1  0.76472432  0.67883128  0.49919106  1.0
  Ba  Ba5  1  0.76472432  0.82116872  0.99919106  1.0
  Ba  Ba6  1  0.23527568  0.17883128  0.00080894  1.0
  Ba  Ba7  1  0.23527568  0.32116872  0.50080894  1.0
  F  F8  1  0.97288199  0.21038475  0.25268268  1.0
  F  F9  1  0.97288199  0.28961525  0.75268268  1.0
  F  F10  1  0.02711801  0.71038475  0.24731732  1.0
  F  F11  1  0.02711801  0.78961525  0.74731732  1.0
  F  F12  1  0.88859992  0.45892337  0.37511063  1.0
  F  F13  1  0.88859992  0.04107663  0.87511063  1.0
  F  F14  1  0.11140008  0.95892337  0.12488937  1.0
  F  F15  1  0.11140008  0.54107663  0.62488937  1.0
  F  F16  1  0.76090147  0.18839525  0.49841925  1.0
  F  F17  1  0.76090147  0.31160475  0.99841925  1.0
  F  F18  1  0.23909853  0.68839525  0.00158075  1.0
  F  F19  1  0.23909853  0.81160475  0.50158075  1.0
  F  F20  1  0.52331695  0.27782978  0.25159801  1.0
  F  F21  1  0.52331695  0.22217022  0.75159801  1.0
  F  F22  1  0.47668305  0.77782978  0.24840199  1.0
  F  F23  1  0.47668305  0.72217022  0.74840199  1.0
  F  F24  1  0.38847065  0.05878061  0.37595090  1.0
  F  F25  1  0.38847065  0.44121939  0.87595090  1.0
  F  F26  1  0.61152935  0.55878061  0.12404910  1.0
  F  F27  1  0.61152935  0.94121939  0.62404910  1.0
  F  F28  1  0.60943081  0.04190445  0.13178373  1.0
  F  F29  1  0.60943081  0.45809555  0.63178373  1.0
  F  F30  1  0.39056919  0.54190445  0.36821627  1.0
  F  F31  1  0.39056919  0.95809555  0.86821627  1.0
  F  F32  1  0.86619163  0.95078473  0.36823604  1.0
  F  F33  1  0.86619163  0.54921527  0.86823604  1.0
  F  F34  1  0.13380837  0.45078473  0.13176396  1.0
  F  F35  1  0.13380837  0.04921527  0.63176396  1.0
  Zn  Zn36  1  0.79718388  0.39818265  0.18977641  1.0
  Zn  Zn37  1  0.79718388  0.10181735  0.68977641  1.0
  Zn  Zn38  1  0.20281612  0.89818265  0.31022359  1.0
  Zn  Zn39  1  0.20281612  0.60181735  0.81022359  1.0
