# generated using pymatgen
data_CaAl2B2O7
_symmetry_space_group_name_H-M   'P 1'
_cell_length_a   15.99473657
_cell_length_b   15.99473657
_cell_length_c   15.99473657
_cell_angle_alpha   17.48178828
_cell_angle_beta   17.48178828
_cell_angle_gamma   17.48178828
_symmetry_Int_Tables_number   1
_chemical_formula_structural   CaAl2B2O7
_chemical_formula_sum   'Ca2 Al4 B4 O14'
_cell_volume   322.27386158
_cell_formula_units_Z   2
loop_
 _symmetry_equiv_pos_site_id
 _symmetry_equiv_pos_as_xyz
  1  'x, y, z'
loop_
 _atom_site_type_symbol
 _atom_site_label
 _atom_site_symmetry_multiplicity
 _atom_site_fract_x
 _atom_site_fract_y
 _atom_site_fract_z
 _atom_site_occupancy
  Ca  Ca0  1  1.00000000  0.00000000  -0.00000000  1.0
  Ca  Ca1  1  0.50000000  0.50000000  0.50000000  1.0
  Al  Al2  1  0.78583811  0.78583811  -0.21416189  1.0
  Al  Al3  1  0.28583811  0.28583811  0.28583811  1.0
  Al  Al4  1  0.71416189  0.71416189  -0.28583811  1.0
  Al  Al5  1  0.21416189  0.21416189  0.21416189  1.0
  B  B6  1  0.86586392  -0.13413608  -0.13413608  1.0
  B  B7  1  0.36586392  0.36586392  0.36586392  1.0
  B  B8  1  0.63413608  0.63413608  -0.36586392  1.0
  B  B9  1  1.13413608  0.13413608  0.13413608  1.0
  O  O10  1  0.56409021  -0.09782131  0.12837276  1.0
  O  O11  1  1.06409021  0.62837276  -0.59782131  1.0
  O  O12  1  0.37162724  0.59782131  -0.06409021  1.0
  O  O13  1  0.87162724  0.43590979  0.09782131  1.0
  O  O14  1  1.09782131  -0.12837276  0.43590979  1.0
  O  O15  1  0.59782131  0.93590979  -0.62837276  1.0
  O  O16  1  1.43590979  0.09782131  -0.12837276  1.0
  O  O17  1  0.93590979  0.37162724  -0.40217869  1.0
  O  O18  1  1.12837276  -0.43590979  -0.09782131  1.0
  O  O19  1  0.62837276  0.40217869  0.06409021  1.0
  O  O20  1  0.40217869  1.06409021  -0.37162724  1.0
  O  O21  1  0.90217869  0.12837276  -0.43590979  1.0
  O  O22  1  0.75000000  0.75000000  -0.25000000  1.0
  O  O23  1  0.25000000  0.25000000  0.25000000  1.0
