# generated using pymatgen
data_Li10BrN3
_symmetry_space_group_name_H-M   'P 1'
_cell_length_a   7.39426340
_cell_length_b   7.39426340
_cell_length_c   3.85643801
_cell_angle_alpha   90.00000000
_cell_angle_beta   90.00000000
_cell_angle_gamma   120.00000000
_symmetry_Int_Tables_number   1
_chemical_formula_structural   Li10BrN3
_chemical_formula_sum   'Li10 Br1 N3'
_cell_volume   182.60254275
_cell_formula_units_Z   1
loop_
 _symmetry_equiv_pos_site_id
 _symmetry_equiv_pos_as_xyz
  1  'x, y, z'
loop_
 _atom_site_type_symbol
 _atom_site_label
 _atom_site_symmetry_multiplicity
 _atom_site_fract_x
 _atom_site_fract_y
 _atom_site_fract_z
 _atom_site_occupancy
  Li  Li0  1  1.01619728  0.50809864  0.50000000  1.0
  Li  Li1  1  0.49190136  0.50809864  0.50000000  1.0
  Li  Li2  1  0.49190136  -0.01619728  0.50000000  1.0
  Li  Li3  1  0.44311210  0.22155605  0.00000000  1.0
  Li  Li4  1  0.77844395  0.22155605  0.00000000  1.0
  Li  Li5  1  0.77844395  0.55688790  0.00000000  1.0
  Li  Li6  1  0.66455477  0.83227739  0.00000000  1.0
  Li  Li7  1  0.16772261  0.83227739  0.00000000  1.0
  Li  Li8  1  0.16772261  0.33544523  0.00000000  1.0
  Li  Li9  1  0.33333333  0.66666667  0.00000000  1.0
  Br  Br10  1  0.00000000  0.00000000  0.50000000  1.0
  N  N11  1  0.01702723  0.50851362  0.00000000  1.0
  N  N12  1  0.49148638  0.50851362  0.00000000  1.0
  N  N13  1  0.49148638  0.98297277  0.00000000  1.0
