# generated using pymatgen
data_BiCl3O
_symmetry_space_group_name_H-M   'P 1'
_cell_length_a   8.29156857
_cell_length_b   8.29156857
_cell_length_c   5.53116756
_cell_angle_alpha   68.01640004
_cell_angle_beta   111.98359996
_cell_angle_gamma   117.58827534
_symmetry_Int_Tables_number   1
_chemical_formula_structural   BiCl3O
_chemical_formula_sum   'Bi2 Cl6 O2'
_cell_volume   303.03736701
_cell_formula_units_Z   2
loop_
 _symmetry_equiv_pos_site_id
 _symmetry_equiv_pos_as_xyz
  1  'x, y, z'
loop_
 _atom_site_type_symbol
 _atom_site_label
 _atom_site_symmetry_multiplicity
 _atom_site_fract_x
 _atom_site_fract_y
 _atom_site_fract_z
 _atom_site_occupancy
  Bi  Bi0  1  0.82920053  -0.82920053  0.12140398  1.0
  Bi  Bi1  1  0.17079947  -0.17079947  0.87859602  1.0
  Cl  Cl2  1  0.90782088  -0.90782088  0.64893549  1.0
  Cl  Cl3  1  0.09217912  -0.09217912  0.35106451  1.0
  Cl  Cl4  1  0.82772777  -0.45197499  0.73651758  1.0
  Cl  Cl5  1  1.45197499  0.17227223  0.73651758  1.0
  Cl  Cl6  1  1.17227223  0.45197499  0.26348242  1.0
  Cl  Cl7  1  0.54802501  -0.17227223  0.26348242  1.0
  O  O8  1  0.67075388  -0.67075388  0.09182756  1.0
  O  O9  1  0.32924612  -0.32924612  0.90817244  1.0
