# generated using pymatgen
data_MnH8(NF3)2
_symmetry_space_group_name_H-M   'P 1'
_cell_length_a   6.00918949
_cell_length_b   6.00918949
_cell_length_c   9.56645090
_cell_angle_alpha   90.00000000
_cell_angle_beta   90.00000000
_cell_angle_gamma   120.00000000
_symmetry_Int_Tables_number   1
_chemical_formula_structural   MnH8(NF3)2
_chemical_formula_sum   'Mn2 H16 N4 F12'
_cell_volume   299.16671743
_cell_formula_units_Z   2
loop_
 _symmetry_equiv_pos_site_id
 _symmetry_equiv_pos_as_xyz
  1  'x, y, z'
loop_
 _atom_site_type_symbol
 _atom_site_label
 _atom_site_symmetry_multiplicity
 _atom_site_fract_x
 _atom_site_fract_y
 _atom_site_fract_z
 _atom_site_occupancy
  Mn  Mn0  1  0.33333333  0.66666667  0.65534311  1.0
  Mn  Mn1  1  0.66666667  0.33333333  0.15534311  1.0
  H  H2  1  0.14699922  0.57349961  0.31478245  1.0
  H  H3  1  0.57349961  0.14699922  0.81478245  1.0
  H  H4  1  0.57349961  0.42650039  0.81478245  1.0
  H  H5  1  0.42650039  0.57349961  0.31478245  1.0
  H  H6  1  0.42650039  0.85300078  0.31478245  1.0
  H  H7  1  0.85300078  0.42650039  0.81478245  1.0
  H  H8  1  0.18682078  0.09341039  0.46670977  1.0
  H  H9  1  0.09341039  0.18682078  0.96670977  1.0
  H  H10  1  0.09341039  0.90658961  0.96670977  1.0
  H  H11  1  0.90658961  0.09341039  0.46670977  1.0
  H  H12  1  0.90658961  0.81317922  0.46670977  1.0
  H  H13  1  0.81317922  0.90658961  0.96670977  1.0
  H  H14  1  0.33333333  0.66666667  0.17131157  1.0
  H  H15  1  0.66666667  0.33333333  0.67131157  1.0
  H  H16  1  -0.00000000  -0.00000000  0.10991657  1.0
  H  H17  1  0.00000000  0.00000000  0.60991657  1.0
  N  N18  1  0.33333333  0.66666667  0.27875957  1.0
  N  N19  1  0.66666667  0.33333333  0.77875957  1.0
  N  N20  1  0.00000000  0.00000000  0.00242584  1.0
  N  N21  1  0.00000000  -0.00000000  0.50242584  1.0
  F  F22  1  0.95396389  0.47698195  0.04484546  1.0
  F  F23  1  0.47698195  0.95396389  0.54484546  1.0
  F  F24  1  0.47698195  0.52301805  0.54484546  1.0
  F  F25  1  0.52301805  0.47698195  0.04484546  1.0
  F  F26  1  0.52301805  0.04603611  0.04484546  1.0
  F  F27  1  0.04603611  0.52301805  0.54484546  1.0
  F  F28  1  0.37689348  0.18844674  0.26557676  1.0
  F  F29  1  0.18844674  0.37689348  0.76557676  1.0
  F  F30  1  0.18844674  0.81155326  0.76557676  1.0
  F  F31  1  0.81155326  0.18844674  0.26557676  1.0
  F  F32  1  0.81155326  0.62310652  0.26557676  1.0
  F  F33  1  0.62310652  0.81155326  0.76557676  1.0
