# generated using pymatgen
data_YGe2Ir
_symmetry_space_group_name_H-M   'P 1'
_cell_length_a   9.45965670
_cell_length_b   9.45965670
_cell_length_c   9.45965670
_cell_angle_alpha   153.80716479
_cell_angle_beta   123.83188127
_cell_angle_gamma   62.99479189
_symmetry_Int_Tables_number   1
_chemical_formula_structural   YGe2Ir
_chemical_formula_sum   'Y4 Ge8 Ir4'
_cell_volume   307.97184900
_cell_formula_units_Z   4
loop_
 _symmetry_equiv_pos_site_id
 _symmetry_equiv_pos_as_xyz
  1  'x, y, z'
loop_
 _atom_site_type_symbol
 _atom_site_label
 _atom_site_symmetry_multiplicity
 _atom_site_fract_x
 _atom_site_fract_y
 _atom_site_fract_z
 _atom_site_occupancy
  Y  Y0  1  0.79460873  0.79460873  1.00000000  1.0
  Y  Y1  1  0.20539127  0.20539127  0.00000000  1.0
  Y  Y2  1  0.76254350  -0.00000000  0.76254350  1.0
  Y  Y3  1  0.23745650  -0.00000000  0.23745650  1.0
  Ge  Ge4  1  0.45236946  0.79944918  0.65292028  1.0
  Ge  Ge5  1  0.85347110  0.20055082  0.65292028  1.0
  Ge  Ge6  1  1.14652890  0.79944918  1.34707972  1.0
  Ge  Ge7  1  0.54763054  0.20055082  0.34707972  1.0
  Ge  Ge8  1  0.92299233  0.42299233  0.50000000  1.0
  Ge  Ge9  1  0.07700767  0.57700767  0.50000000  1.0
  Ge  Ge10  1  0.57815328  0.57815328  1.00000000  1.0
  Ge  Ge11  1  0.42184672  0.42184672  -0.00000000  1.0
  Ir  Ir12  1  0.39627848  0.64562175  0.75065672  1.0
  Ir  Ir13  1  1.10503497  0.35437825  0.75065672  1.0
  Ir  Ir14  1  0.89496503  0.64562175  1.24934328  1.0
  Ir  Ir15  1  0.60372152  0.35437825  0.24934328  1.0
