# generated using pymatgen
data_Cr5B3
_symmetry_space_group_name_H-M   'P 1'
_cell_length_a   6.28388092
_cell_length_b   6.28388092
_cell_length_c   6.28388092
_cell_angle_alpha   128.77272883
_cell_angle_beta   128.77272883
_cell_angle_gamma   75.37653850
_symmetry_Int_Tables_number   1
_chemical_formula_structural   Cr5B3
_chemical_formula_sum   'Cr10 B6'
_cell_volume   146.78542368
_cell_formula_units_Z   2
loop_
 _symmetry_equiv_pos_site_id
 _symmetry_equiv_pos_as_xyz
  1  'x, y, z'
loop_
 _atom_site_type_symbol
 _atom_site_label
 _atom_site_symmetry_multiplicity
 _atom_site_fract_x
 _atom_site_fract_y
 _atom_site_fract_z
 _atom_site_occupancy
  Cr  Cr0  1  1.18276701  0.68276701  1.15757258  1.0
  Cr  Cr1  1  0.47480556  0.97480556  1.15757258  1.0
  Cr  Cr2  1  1.02519444  1.18276701  1.50000000  1.0
  Cr  Cr3  1  0.31723299  0.47480556  0.50000000  1.0
  Cr  Cr4  1  0.68276701  0.52519444  0.50000000  1.0
  Cr  Cr5  1  0.97480556  0.81723299  1.50000000  1.0
  Cr  Cr6  1  0.52519444  1.02519444  0.84242742  1.0
  Cr  Cr7  1  0.81723299  0.31723299  0.84242742  1.0
  Cr  Cr8  1  0.00000000  0.00000000  0.00000000  1.0
  Cr  Cr9  1  0.50000000  0.50000000  1.00000000  1.0
  B  B10  1  0.88214759  0.38214759  1.26429519  1.0
  B  B11  1  0.61785241  0.88214759  1.50000000  1.0
  B  B12  1  0.38214759  0.11785241  0.50000000  1.0
  B  B13  1  0.11785241  0.61785241  0.73570481  1.0
  B  B14  1  0.75000000  0.75000000  1.00000000  1.0
  B  B15  1  0.25000000  0.25000000  0.00000000  1.0
