# generated using pymatgen
data_Rb2Se3
_symmetry_space_group_name_H-M   'P 1'
_cell_length_a   6.85268670
_cell_length_b   6.85268670
_cell_length_c   8.08585074
_cell_angle_alpha   90.00000000
_cell_angle_beta   90.00000000
_cell_angle_gamma   110.13861816
_symmetry_Int_Tables_number   1
_chemical_formula_structural   Rb2Se3
_chemical_formula_sum   'Rb4 Se6'
_cell_volume   356.49170035
_cell_formula_units_Z   2
loop_
 _symmetry_equiv_pos_site_id
 _symmetry_equiv_pos_as_xyz
  1  'x, y, z'
loop_
 _atom_site_type_symbol
 _atom_site_label
 _atom_site_symmetry_multiplicity
 _atom_site_fract_x
 _atom_site_fract_y
 _atom_site_fract_z
 _atom_site_occupancy
  Rb  Rb0  1  0.09852749  0.90147251  0.54629871  1.0
  Rb  Rb1  1  -0.09852749  1.09852749  0.04629871  1.0
  Rb  Rb2  1  0.41417330  0.58582670  0.32554107  1.0
  Rb  Rb3  1  -0.41417330  1.41417330  0.82554107  1.0
  Se  Se4  1  -0.08294321  1.59549983  0.17396683  1.0
  Se  Se5  1  0.59549983  0.91705679  0.67396683  1.0
  Se  Se6  1  -0.59549983  1.08294321  0.17396683  1.0
  Se  Se7  1  0.08294321  0.40450017  0.67396683  1.0
  Se  Se8  1  0.20666847  0.79333153  0.00322656  1.0
  Se  Se9  1  -0.20666847  1.20666847  0.50322656  1.0
