# generated using pymatgen
data_NClO6
_symmetry_space_group_name_H-M   'P 1'
_cell_length_a   5.95504564
_cell_length_b   5.95504564
_cell_length_c   7.10099777
_cell_angle_alpha   81.11833774
_cell_angle_beta   98.88166226
_cell_angle_gamma   104.51718395
_symmetry_Int_Tables_number   1
_chemical_formula_structural   NClO6
_chemical_formula_sum   'N2 Cl2 O12'
_cell_volume   239.08810798
_cell_formula_units_Z   2
loop_
 _symmetry_equiv_pos_site_id
 _symmetry_equiv_pos_as_xyz
  1  'x, y, z'
loop_
 _atom_site_type_symbol
 _atom_site_label
 _atom_site_symmetry_multiplicity
 _atom_site_fract_x
 _atom_site_fract_y
 _atom_site_fract_z
 _atom_site_occupancy
  N  N0  1  0.28670578  0.28670578  0.75000000  1.0
  N  N1  1  0.71329422  0.71329422  0.25000000  1.0
  Cl  Cl2  1  0.78950612  0.78950612  0.75000000  1.0
  Cl  Cl3  1  0.21049388  0.21049388  0.25000000  1.0
  O  O4  1  1.60048148  -0.25804101  0.87298369  1.0
  O  O5  1  1.25804101  -0.60048148  0.37298369  1.0
  O  O6  1  0.74195899  0.60048148  0.62701631  1.0
  O  O7  1  0.39951852  0.25804101  0.12701631  1.0
  O  O8  1  0.79580803  0.01380151  0.63002835  1.0
  O  O9  1  0.98619849  0.20419197  0.13002835  1.0
  O  O10  1  1.01380151  -0.20419197  0.86997165  1.0
  O  O11  1  1.20419197  -0.01380151  0.36997165  1.0
  O  O12  1  0.40536842  0.16638037  0.74690787  1.0
  O  O13  1  0.83361963  0.59463158  0.24690787  1.0
  O  O14  1  1.16638037  -0.59463158  0.75309213  1.0
  O  O15  1  1.59463158  -0.16638037  0.25309213  1.0
