# generated using pymatgen
data_La5V3Se6O7
_symmetry_space_group_name_H-M   'P 1'
_cell_length_a   3.93788760
_cell_length_b   18.25774836
_cell_length_c   10.55438523
_cell_angle_alpha   90.00000000
_cell_angle_beta   90.00000000
_cell_angle_gamma   90.00000000
_symmetry_Int_Tables_number   1
_chemical_formula_structural   La5V3Se6O7
_chemical_formula_sum   'La10 V6 Se12 O14'
_cell_volume   758.82822218
_cell_formula_units_Z   2
loop_
 _symmetry_equiv_pos_site_id
 _symmetry_equiv_pos_as_xyz
  1  'x, y, z'
loop_
 _atom_site_type_symbol
 _atom_site_label
 _atom_site_symmetry_multiplicity
 _atom_site_fract_x
 _atom_site_fract_y
 _atom_site_fract_z
 _atom_site_occupancy
  La  La0  1  0.50000000  0.38590962  0.98129379  1.0
  La  La1  1  0.50000000  0.61409038  0.98129379  1.0
  La  La2  1  0.00000000  0.88590962  0.01870621  1.0
  La  La3  1  0.00000000  0.11409038  0.01870621  1.0
  La  La4  1  0.00000000  0.50000000  0.22592783  1.0
  La  La5  1  0.50000000  0.00000000  0.77407217  1.0
  La  La6  1  0.50000000  0.16529189  0.40948038  1.0
  La  La7  1  0.50000000  0.83470811  0.40948038  1.0
  La  La8  1  0.00000000  0.66529189  0.59051962  1.0
  La  La9  1  0.00000000  0.33470811  0.59051962  1.0
  V  V10  1  0.00000000  0.00000000  0.31376801  1.0
  V  V11  1  0.50000000  0.50000000  0.68623199  1.0
  V  V12  1  0.00000000  0.30642609  0.25070042  1.0
  V  V13  1  0.00000000  0.69357391  0.25070042  1.0
  V  V14  1  0.50000000  0.80642609  0.74929958  1.0
  V  V15  1  0.50000000  0.19357391  0.74929958  1.0
  Se  Se16  1  0.00000000  0.50000000  0.86062769  1.0
  Se  Se17  1  0.50000000  0.00000000  0.13937231  1.0
  Se  Se18  1  0.50000000  0.00000000  0.46714536  1.0
  Se  Se19  1  0.00000000  0.50000000  0.53285464  1.0
  Se  Se20  1  0.00000000  0.11835991  0.64311602  1.0
  Se  Se21  1  0.00000000  0.88164009  0.64311602  1.0
  Se  Se22  1  0.50000000  0.61835991  0.35688398  1.0
  Se  Se23  1  0.50000000  0.38164009  0.35688398  1.0
  Se  Se24  1  0.50000000  0.23544945  0.14418017  1.0
  Se  Se25  1  0.50000000  0.76455055  0.14418017  1.0
  Se  Se26  1  0.00000000  0.73544945  0.85581983  1.0
  Se  Se27  1  0.00000000  0.26455055  0.85581983  1.0
  O  O28  1  0.00000000  0.24816788  0.39477606  1.0
  O  O29  1  0.00000000  0.75183212  0.39477606  1.0
  O  O30  1  0.50000000  0.74816788  0.60522394  1.0
  O  O31  1  0.50000000  0.25183212  0.60522394  1.0
  O  O32  1  0.50000000  0.50000000  0.09948351  1.0
  O  O33  1  0.00000000  0.00000000  0.90051649  1.0
  O  O34  1  0.00000000  0.37782521  0.11574240  1.0
  O  O35  1  0.00000000  0.62217479  0.11574240  1.0
  O  O36  1  0.50000000  0.87782521  0.88425760  1.0
  O  O37  1  0.50000000  0.12217479  0.88425760  1.0
  O  O38  1  0.00000000  0.09886681  0.29422193  1.0
  O  O39  1  0.00000000  0.90113319  0.29422193  1.0
  O  O40  1  0.50000000  0.59886681  0.70577807  1.0
  O  O41  1  0.50000000  0.40113319  0.70577807  1.0
