# generated using pymatgen
data_Nb4B3C2
_symmetry_space_group_name_H-M   'P 1'
_cell_length_a   18.93171181
_cell_length_b   18.93171181
_cell_length_c   3.14275284
_cell_angle_alpha   90.00000000
_cell_angle_beta   90.00000000
_cell_angle_gamma   170.17668648
_symmetry_Int_Tables_number   1
_chemical_formula_structural   Nb4B3C2
_chemical_formula_sum   'Nb8 B6 C4'
_cell_volume   192.17443541
_cell_formula_units_Z   2
loop_
 _symmetry_equiv_pos_site_id
 _symmetry_equiv_pos_as_xyz
  1  'x, y, z'
loop_
 _atom_site_type_symbol
 _atom_site_label
 _atom_site_symmetry_multiplicity
 _atom_site_fract_x
 _atom_site_fract_y
 _atom_site_fract_z
 _atom_site_occupancy
  Nb  Nb0  1  0.10547195  0.89452805  0.75000000  1.0
  Nb  Nb1  1  -0.10547195  0.10547195  0.25000000  1.0
  Nb  Nb2  1  0.21954160  0.78045840  0.75000000  1.0
  Nb  Nb3  1  -0.21954160  0.21954160  0.25000000  1.0
  Nb  Nb4  1  0.33782208  0.66217792  0.75000000  1.0
  Nb  Nb5  1  -0.33782208  0.33782208  0.25000000  1.0
  Nb  Nb6  1  -0.03581191  0.03581191  0.75000000  1.0
  Nb  Nb7  1  0.03581191  0.96418809  0.25000000  1.0
  B  B8  1  0.41462320  0.58537680  0.75000000  1.0
  B  B9  1  -0.41462320  0.41462320  0.25000000  1.0
  B  B10  1  -0.48819923  0.48819923  0.75000000  1.0
  B  B11  1  0.48819923  0.51180077  0.25000000  1.0
  B  B12  1  -0.43976053  0.43976053  0.75000000  1.0
  B  B13  1  0.43976053  0.56023947  0.25000000  1.0
  C  C14  1  0.16182022  0.83817978  0.75000000  1.0
  C  C15  1  -0.16182022  0.16182022  0.25000000  1.0
  C  C16  1  0.27978070  0.72021930  0.75000000  1.0
  C  C17  1  -0.27978070  0.27978070  0.25000000  1.0
