# generated using pymatgen
data_EuMgH4
_symmetry_space_group_name_H-M   'P 1'
_cell_length_a   6.71897031
_cell_length_b   6.71897031
_cell_length_c   5.61848788
_cell_angle_alpha   90.00000000
_cell_angle_beta   90.00000000
_cell_angle_gamma   147.05338627
_symmetry_Int_Tables_number   1
_chemical_formula_structural   EuMgH4
_chemical_formula_sum   'Eu2 Mg2 H8'
_cell_volume   137.94624964
_cell_formula_units_Z   2
loop_
 _symmetry_equiv_pos_site_id
 _symmetry_equiv_pos_as_xyz
  1  'x, y, z'
loop_
 _atom_site_type_symbol
 _atom_site_label
 _atom_site_symmetry_multiplicity
 _atom_site_fract_x
 _atom_site_fract_y
 _atom_site_fract_z
 _atom_site_occupancy
  Eu  Eu0  1  -0.65261882  0.65261882  0.08733335  1.0
  Eu  Eu1  1  -0.34738118  1.34738118  0.58733335  1.0
  Mg  Mg2  1  -0.91853038  0.91853038  0.14214224  1.0
  Mg  Mg3  1  -0.08146962  1.08146962  0.64214224  1.0
  H  H4  1  -0.95002273  0.95002273  0.50367000  1.0
  H  H5  1  -0.04997727  1.04997727  0.00367000  1.0
  H  H6  1  -0.83171669  0.83171669  0.86483389  1.0
  H  H7  1  -0.16828331  1.16828331  0.36483389  1.0
  H  H8  1  -0.79657667  0.79657667  0.34215511  1.0
  H  H9  1  -0.20342333  1.20342333  0.84215511  1.0
  H  H10  1  -0.44500801  1.44500801  0.21086541  1.0
  H  H11  1  -0.55499199  0.55499199  0.71086541  1.0
