# generated using pymatgen
data_KFeBr3
_symmetry_space_group_name_H-M   'P 1'
_cell_length_a   9.40476833
_cell_length_b   4.09018591
_cell_length_c   15.05623462
_cell_angle_alpha   90.00000000
_cell_angle_beta   90.00000000
_cell_angle_gamma   90.00000000
_symmetry_Int_Tables_number   1
_chemical_formula_structural   KFeBr3
_chemical_formula_sum   'K4 Fe4 Br12'
_cell_volume   579.17195509
_cell_formula_units_Z   4
loop_
 _symmetry_equiv_pos_site_id
 _symmetry_equiv_pos_as_xyz
  1  'x, y, z'
loop_
 _atom_site_type_symbol
 _atom_site_label
 _atom_site_symmetry_multiplicity
 _atom_site_fract_x
 _atom_site_fract_y
 _atom_site_fract_z
 _atom_site_occupancy
  K  K0  1  0.55487188  0.75000000  0.67172679  1.0
  K  K1  1  0.05487188  0.75000000  0.82827321  1.0
  K  K2  1  0.44512812  0.25000000  0.32827321  1.0
  K  K3  1  0.94512812  0.25000000  0.17172679  1.0
  Br  Br4  1  0.81979020  0.75000000  0.00678319  1.0
  Br  Br5  1  0.31979020  0.75000000  0.49321681  1.0
  Br  Br6  1  0.18020980  0.25000000  0.99321681  1.0
  Br  Br7  1  0.68020980  0.25000000  0.50678319  1.0
  Br  Br8  1  0.73148491  0.75000000  0.29653010  1.0
  Br  Br9  1  0.23148491  0.75000000  0.20346990  1.0
  Br  Br10  1  0.26851509  0.25000000  0.70346990  1.0
  Br  Br11  1  0.76851509  0.25000000  0.79653010  1.0
  Br  Br12  1  0.97990955  0.75000000  0.59811064  1.0
  Br  Br13  1  0.47990955  0.75000000  0.90188936  1.0
  Br  Br14  1  0.02009045  0.25000000  0.40188936  1.0
  Br  Br15  1  0.52009045  0.25000000  0.09811064  1.0
  Fe  Fe16  1  0.83880926  0.75000000  0.44925226  1.0
  Fe  Fe17  1  0.33880926  0.75000000  0.05074774  1.0
  Fe  Fe18  1  0.16119074  0.25000000  0.55074774  1.0
  Fe  Fe19  1  0.66119074  0.25000000  0.94925226  1.0
