# generated using pymatgen
data_CaAl2Si2(H2O5)2
_symmetry_space_group_name_H-M   'P 1'
_cell_length_a   5.34583873
_cell_length_b   5.34583873
_cell_length_c   13.24023544
_cell_angle_alpha   90.00000000
_cell_angle_beta   90.00000000
_cell_angle_gamma   113.10491632
_symmetry_Int_Tables_number   1
_chemical_formula_structural   CaAl2Si2(H2O5)2
_chemical_formula_sum   'Ca2 Al4 Si4 H8 O20'
_cell_volume   348.02871026
_cell_formula_units_Z   2
loop_
 _symmetry_equiv_pos_site_id
 _symmetry_equiv_pos_as_xyz
  1  'x, y, z'
loop_
 _atom_site_type_symbol
 _atom_site_label
 _atom_site_symmetry_multiplicity
 _atom_site_fract_x
 _atom_site_fract_y
 _atom_site_fract_z
 _atom_site_occupancy
  Ca  Ca0  1  0.33642775  0.66357225  0.25000000  1.0
  Ca  Ca1  1  -0.33642775  1.33642775  0.75000000  1.0
  Al  Al2  1  -0.00000000  1.50000000  0.50000000  1.0
  Al  Al3  1  -0.00000000  1.50000000  0.00000000  1.0
  Al  Al4  1  0.50000000  1.00000000  0.00000000  1.0
  Al  Al5  1  0.50000000  1.00000000  0.50000000  1.0
  Si  Si6  1  0.01765276  0.98234724  0.86748800  1.0
  Si  Si7  1  0.01765276  0.98234724  0.63251200  1.0
  Si  Si8  1  -0.01765276  1.01765276  0.36748800  1.0
  Si  Si9  1  -0.01765276  1.01765276  0.13251200  1.0
  H  H10  1  -0.46454963  1.46454963  0.43624304  1.0
  H  H11  1  -0.46454963  1.46454963  0.06375696  1.0
  H  H12  1  0.46454963  0.53545037  0.93624304  1.0
  H  H13  1  0.46454963  0.53545037  0.56375696  1.0
  H  H14  1  -0.33770001  1.33770001  0.31217652  1.0
  H  H15  1  -0.33770001  1.33770001  0.18782348  1.0
  H  H16  1  0.33770001  0.66229999  0.81217652  1.0
  H  H17  1  0.33770001  0.66229999  0.68782348  1.0
  O  O18  1  0.11179811  0.34740357  0.38468200  1.0
  O  O19  1  0.11179811  0.34740357  0.11531800  1.0
  O  O20  1  -0.65259643  1.11179811  0.88468200  1.0
  O  O21  1  -0.65259643  1.11179811  0.61531800  1.0
  O  O22  1  0.65259643  0.88820189  0.38468200  1.0
  O  O23  1  0.65259643  0.88820189  0.11531800  1.0
  O  O24  1  -0.11179811  1.65259643  0.88468200  1.0
  O  O25  1  -0.11179811  1.65259643  0.61531800  1.0
  O  O26  1  0.14000325  0.85999675  0.43475702  1.0
  O  O27  1  0.14000325  0.85999675  0.06524298  1.0
  O  O28  1  -0.14000325  1.14000325  0.93475702  1.0
  O  O29  1  -0.14000325  1.14000325  0.56524298  1.0
  O  O30  1  -0.35642364  1.35642364  0.44732301  1.0
  O  O31  1  -0.35642364  1.35642364  0.05267699  1.0
  O  O32  1  0.35642364  0.64357636  0.94732301  1.0
  O  O33  1  0.35642364  0.64357636  0.55267699  1.0
  O  O34  1  0.05014239  0.94985761  0.25000000  1.0
  O  O35  1  -0.05014239  1.05014239  0.75000000  1.0
  O  O36  1  -0.39799725  1.39799725  0.25000000  1.0
  O  O37  1  0.39799725  0.60200275  0.75000000  1.0
