# generated using pymatgen
data_MgO
_symmetry_space_group_name_H-M   'P 1'
_cell_length_a   9.67596499
_cell_length_b   9.67596499
_cell_length_c   4.17863176
_cell_angle_alpha   90.00000000
_cell_angle_beta   90.00000000
_cell_angle_gamma   120.00000000
_symmetry_Int_Tables_number   1
_chemical_formula_structural   MgO
_chemical_formula_sum   'Mg12 O12'
_cell_volume   338.80772875
_cell_formula_units_Z   12
loop_
 _symmetry_equiv_pos_site_id
 _symmetry_equiv_pos_as_xyz
  1  'x, y, z'
loop_
 _atom_site_type_symbol
 _atom_site_label
 _atom_site_symmetry_multiplicity
 _atom_site_fract_x
 _atom_site_fract_y
 _atom_site_fract_z
 _atom_site_occupancy
  Mg  Mg0  1  0.12269962  0.66808784  0.50000000  1.0
  Mg  Mg1  1  0.33191216  0.45461178  0.50000000  1.0
  Mg  Mg2  1  0.54538822  0.87730038  0.50000000  1.0
  Mg  Mg3  1  0.66808784  0.12269962  0.00000000  1.0
  Mg  Mg4  1  0.45461178  0.33191216  0.00000000  1.0
  Mg  Mg5  1  0.87730038  0.54538822  0.00000000  1.0
  Mg  Mg6  1  0.87730038  0.33191216  0.50000000  1.0
  Mg  Mg7  1  0.66808784  0.54538822  0.50000000  1.0
  Mg  Mg8  1  0.45461178  0.12269962  0.50000000  1.0
  Mg  Mg9  1  0.33191216  0.87730038  0.00000000  1.0
  Mg  Mg10  1  0.54538822  0.66808784  0.00000000  1.0
  Mg  Mg11  1  0.12269962  0.45461178  0.00000000  1.0
  O  O12  1  0.12275135  0.67096130  0.00000000  1.0
  O  O13  1  0.32903870  0.45179005  0.00000000  1.0
  O  O14  1  0.54820995  0.87724865  0.00000000  1.0
  O  O15  1  0.67096130  0.12275135  0.50000000  1.0
  O  O16  1  0.45179005  0.32903870  0.50000000  1.0
  O  O17  1  0.87724865  0.54820995  0.50000000  1.0
  O  O18  1  0.87724865  0.32903870  0.00000000  1.0
  O  O19  1  0.67096130  0.54820995  0.00000000  1.0
  O  O20  1  0.45179005  0.12275135  0.00000000  1.0
  O  O21  1  0.32903870  0.87724865  0.50000000  1.0
  O  O22  1  0.54820995  0.67096130  0.50000000  1.0
  O  O23  1  0.12275135  0.45179005  0.50000000  1.0
