# generated using pymatgen
data_La3Ga4Cl
_symmetry_space_group_name_H-M   'P 1'
_cell_length_a   8.15186023
_cell_length_b   8.15186023
_cell_length_c   8.15186023
_cell_angle_alpha   119.31184260
_cell_angle_beta   119.31184260
_cell_angle_gamma   91.19611436
_symmetry_Int_Tables_number   1
_chemical_formula_structural   La3Ga4Cl
_chemical_formula_sum   'La6 Ga8 Cl2'
_cell_volume   386.94277009
_cell_formula_units_Z   2
loop_
 _symmetry_equiv_pos_site_id
 _symmetry_equiv_pos_as_xyz
  1  'x, y, z'
loop_
 _atom_site_type_symbol
 _atom_site_label
 _atom_site_symmetry_multiplicity
 _atom_site_fract_x
 _atom_site_fract_y
 _atom_site_fract_z
 _atom_site_occupancy
  La  La0  1  0.33935030  0.83935030  1.17870060  1.0
  La  La1  1  0.16064970  0.33935030  0.50000000  1.0
  La  La2  1  0.83935030  0.66064970  0.50000000  1.0
  La  La3  1  0.66064970  1.16064970  0.82129940  1.0
  La  La4  1  0.25000000  0.25000000  -0.00000000  1.0
  La  La5  1  0.75000000  0.75000000  -0.00000000  1.0
  Ga  Ga6  1  0.65844226  1.15844226  1.21369376  1.0
  Ga  Ga7  1  1.05525150  0.55525150  1.21369376  1.0
  Ga  Ga8  1  0.44474850  0.65844226  0.50000000  1.0
  Ga  Ga9  1  0.84155774  1.05525150  1.50000000  1.0
  Ga  Ga10  1  1.15844226  0.94474850  1.50000000  1.0
  Ga  Ga11  1  0.55525150  0.34155774  0.50000000  1.0
  Ga  Ga12  1  0.94474850  0.44474850  0.78630624  1.0
  Ga  Ga13  1  0.34155774  0.84155774  0.78630624  1.0
  Cl  Cl14  1  0.50000000  0.50000000  -0.00000000  1.0
  Cl  Cl15  1  0.00000000  0.00000000  0.00000000  1.0
