# generated using pymatgen
data_Li2Sn(H5O4)2
_symmetry_space_group_name_H-M   'P 1'
_cell_length_a   4.97416485
_cell_length_b   7.12195913
_cell_length_c   10.72804687
_cell_angle_alpha   90.00000000
_cell_angle_beta   108.44469115
_cell_angle_gamma   90.00000000
_symmetry_Int_Tables_number   1
_chemical_formula_structural   Li2Sn(H5O4)2
_chemical_formula_sum   'Li4 Sn2 H20 O16'
_cell_volume   360.52629575
_cell_formula_units_Z   2
loop_
 _symmetry_equiv_pos_site_id
 _symmetry_equiv_pos_as_xyz
  1  'x, y, z'
loop_
 _atom_site_type_symbol
 _atom_site_label
 _atom_site_symmetry_multiplicity
 _atom_site_fract_x
 _atom_site_fract_y
 _atom_site_fract_z
 _atom_site_occupancy
  Li  Li0  1  0.61355757  0.28282877  0.17493683  1.0
  Li  Li1  1  0.61355757  0.21717123  0.67493683  1.0
  Li  Li2  1  0.38644243  0.78282877  0.32506317  1.0
  Li  Li3  1  0.38644243  0.71717123  0.82506317  1.0
  Sn  Sn4  1  0.00000000  0.50000000  0.50000000  1.0
  Sn  Sn5  1  0.00000000  0.00000000  0.00000000  1.0
  H  H6  1  0.96548020  0.97754631  0.71256043  1.0
  H  H7  1  0.96548020  0.52245369  0.21256043  1.0
  H  H8  1  0.03451980  0.47754631  0.78743957  1.0
  H  H9  1  0.03451980  0.02245369  0.28743957  1.0
  H  H10  1  0.91222338  0.82921146  0.40863411  1.0
  H  H11  1  0.91222338  0.67078854  0.90863411  1.0
  H  H12  1  0.08777662  0.32921146  0.09136589  1.0
  H  H13  1  0.08777662  0.17078854  0.59136589  1.0
  H  H14  1  0.64480275  0.23162849  0.40927539  1.0
  H  H15  1  0.64480275  0.26837151  0.90927539  1.0
  H  H16  1  0.35519725  0.73162849  0.09072461  1.0
  H  H17  1  0.35519725  0.76837151  0.59072461  1.0
  H  H18  1  0.35286777  0.46041101  0.36269265  1.0
  H  H19  1  0.35286777  0.03958899  0.86269265  1.0
  H  H20  1  0.64713223  0.96041101  0.13730735  1.0
  H  H21  1  0.64713223  0.53958899  0.63730735  1.0
  H  H22  1  0.19827168  0.09103134  0.43718084  1.0
  H  H23  1  0.19827168  0.40896866  0.93718084  1.0
  H  H24  1  0.80172832  0.59103134  0.06281916  1.0
  H  H25  1  0.80172832  0.90896866  0.56281916  1.0
  O  O26  1  0.80666415  0.04900299  0.14416409  1.0
  O  O27  1  0.80666415  0.45099701  0.64416409  1.0
  O  O28  1  0.19333585  0.54900299  0.35583591  1.0
  O  O29  1  0.19333585  0.95099701  0.85583591  1.0
  O  O30  1  0.82540409  0.48319273  0.12500988  1.0
  O  O31  1  0.82540409  0.01680727  0.62500988  1.0
  O  O32  1  0.17459591  0.98319273  0.37499012  1.0
  O  O33  1  0.17459591  0.51680727  0.87499012  1.0
  O  O34  1  0.77875880  0.75112149  0.43830778  1.0
  O  O35  1  0.77875880  0.74887851  0.93830778  1.0
  O  O36  1  0.22124120  0.25112149  0.06169222  1.0
  O  O37  1  0.22124120  0.24887851  0.56169222  1.0
  O  O38  1  0.66859885  0.34520482  0.36330251  1.0
  O  O39  1  0.66859885  0.15479518  0.86330251  1.0
  O  O40  1  0.33140115  0.84520482  0.13669749  1.0
  O  O41  1  0.33140115  0.65479518  0.63669749  1.0
