# generated using pymatgen
data_Na2TcF6
_symmetry_space_group_name_H-M   'P 1'
_cell_length_a   5.65099999
_cell_length_b   5.65099999
_cell_length_c   4.54287756
_cell_angle_alpha   90.00000000
_cell_angle_beta   90.00000000
_cell_angle_gamma   120.00000000
_symmetry_Int_Tables_number   1
_chemical_formula_structural   Na2TcF6
_chemical_formula_sum   'Na2 Tc1 F6'
_cell_volume   125.63547231
_cell_formula_units_Z   1
loop_
 _symmetry_equiv_pos_site_id
 _symmetry_equiv_pos_as_xyz
  1  'x, y, z'
loop_
 _atom_site_type_symbol
 _atom_site_label
 _atom_site_symmetry_multiplicity
 _atom_site_fract_x
 _atom_site_fract_y
 _atom_site_fract_z
 _atom_site_occupancy
  Na  Na0  1  0.33333333  0.66666667  0.37126992  1.0
  Na  Na1  1  0.66666667  0.33333333  0.62873008  1.0
  Tc  Tc2  1  0.00000000  0.00000000  0.00000000  1.0
  F  F3  1  0.33252925  0.16626463  0.23913887  1.0
  F  F4  1  0.16626463  0.33252925  0.76086113  1.0
  F  F5  1  0.16626463  0.83373537  0.76086113  1.0
  F  F6  1  0.83373537  0.16626463  0.23913887  1.0
  F  F7  1  0.83373537  0.66747075  0.23913887  1.0
  F  F8  1  0.66747075  0.83373537  0.76086113  1.0
