# generated using pymatgen
data_AsH9C3(N3O2)2
_symmetry_space_group_name_H-M   'P 1'
_cell_length_a   4.73860814
_cell_length_b   10.98094279
_cell_length_c   9.75828933
_cell_angle_alpha   87.96745658
_cell_angle_beta   89.29060749
_cell_angle_gamma   83.17681479
_symmetry_Int_Tables_number   1
_chemical_formula_structural   AsH9C3(N3O2)2
_chemical_formula_sum   'As2 H18 C6 N12 O8'
_cell_volume   503.83606423
_cell_formula_units_Z   2
loop_
 _symmetry_equiv_pos_site_id
 _symmetry_equiv_pos_as_xyz
  1  'x, y, z'
loop_
 _atom_site_type_symbol
 _atom_site_label
 _atom_site_symmetry_multiplicity
 _atom_site_fract_x
 _atom_site_fract_y
 _atom_site_fract_z
 _atom_site_occupancy
  As  As0  1  -0.85495476  -0.43054686  -0.81610641  1.0
  As  As1  1  -0.14504524  -0.56945314  -0.18389359  1.0
  H  H2  1  -0.99280428  -0.90753964  -0.44088355  1.0
  H  H3  1  -0.00719572  -0.09246036  -0.55911645  1.0
  H  H4  1  -0.86780066  -0.84105811  -0.29500990  1.0
  H  H5  1  -0.13219934  -0.15894189  -0.70499010  1.0
  H  H6  1  -0.73284945  -0.76161163  -1.00965682  1.0
  H  H7  1  -0.26715055  -0.23838837  0.00965682  1.0
  H  H8  1  -0.66781924  -0.63062322  -0.25225257  1.0
  H  H9  1  -0.33218076  -0.36937678  -0.74774743  1.0
  H  H10  1  -0.64678555  -0.91599824  -0.04187817  1.0
  H  H11  1  -0.35321445  -0.08400176  -0.95812183  1.0
  H  H12  1  -0.68503901  -0.68414415  -0.79487924  1.0
  H  H13  1  -0.31496099  -0.31585585  -0.20512076  1.0
  H  H14  1  -0.49707211  -0.58862787  -0.61717663  1.0
  H  H15  1  -0.50292789  -0.41137213  -0.38282337  1.0
  H  H16  1  -0.33553806  -0.67274457  -0.47852729  1.0
  H  H17  1  -0.66446194  -0.32725543  -0.52147271  1.0
  H  H18  1  -0.15370575  -0.60405090  -0.95065378  1.0
  H  H19  1  -0.84629425  -0.39594910  -0.04934622  1.0
  C  C20  1  -0.52825865  -0.86179522  -0.85270813  1.0
  C  C21  1  -0.47174135  -0.13820478  -0.14729187  1.0
  C  C22  1  -0.39673739  -0.77288482  -0.64897320  1.0
  C  C23  1  -0.60326261  -0.22711518  -0.35102680  1.0
  C  C24  1  -0.25670004  -0.97486304  -0.69057274  1.0
  C  C25  1  -0.74329996  -0.02513696  -0.30942726  1.0
  N  N26  1  -0.87882336  -0.91695192  -0.35134753  1.0
  N  N27  1  -0.12117664  -0.08304808  -0.64865247  1.0
  N  N28  1  -0.66597556  -0.84730319  -0.97123108  1.0
  N  N29  1  -0.33402444  -0.15269681  -0.02876892  1.0
  N  N30  1  -0.54176747  -0.76304609  -0.77031083  1.0
  N  N31  1  -0.45823253  -0.23695391  -0.22968917  1.0
  N  N32  1  -0.41312879  -0.67234243  -0.57571383  1.0
  N  N33  1  -0.58687121  -0.32765757  -0.42428617  1.0
  N  N34  1  -0.38700068  -0.96953607  -0.81427210  1.0
  N  N35  1  -0.61299932  -0.03046393  -0.18572790  1.0
  N  N36  1  -0.24932163  -0.87851798  -0.60714285  1.0
  N  N37  1  -0.75067837  -0.12148202  -0.39285715  1.0
  O  O38  1  -0.94827756  -0.57526662  -0.83203626  1.0
  O  O39  1  -0.05172244  -0.42473338  -0.16796374  1.0
  O  O40  1  -0.83933282  -0.67498103  -0.21975264  1.0
  O  O41  1  -0.16066718  -0.32501897  -0.78024736  1.0
  O  O42  1  -0.72677414  -0.36915239  -0.97160297  1.0
  O  O43  1  -0.27322586  -0.63084761  -0.02839703  1.0
  O  O44  1  -0.60233382  -0.42206987  -0.69437075  1.0
  O  O45  1  -0.39766618  -0.57793013  -0.30562925  1.0
