# generated using pymatgen
data_KLi4NbO5
_symmetry_space_group_name_H-M   'P 1'
_cell_length_a   8.35758099
_cell_length_b   5.95529063
_cell_length_c   5.80274671
_cell_angle_alpha   60.83192467
_cell_angle_beta   79.40667358
_cell_angle_gamma   81.29864547
_symmetry_Int_Tables_number   1
_chemical_formula_structural   KLi4NbO5
_chemical_formula_sum   'K2 Li8 Nb2 O10'
_cell_volume   247.25078173
_cell_formula_units_Z   2
loop_
 _symmetry_equiv_pos_site_id
 _symmetry_equiv_pos_as_xyz
  1  'x, y, z'
loop_
 _atom_site_type_symbol
 _atom_site_label
 _atom_site_symmetry_multiplicity
 _atom_site_fract_x
 _atom_site_fract_y
 _atom_site_fract_z
 _atom_site_occupancy
  K  K0  1  0.92016034  -0.26860919  1.15185881  1.0
  K  K1  1  0.07983966  -0.73139081  0.84814119  1.0
  Li  Li2  1  0.58282465  -0.88341225  1.79442528  1.0
  Li  Li3  1  0.41717535  -0.11658775  0.20557472  1.0
  Li  Li4  1  0.62018013  -0.50078488  1.33922821  1.0
  Li  Li5  1  0.37981987  -0.49921512  0.66077179  1.0
  Li  Li6  1  0.88144110  -0.83750861  1.45195286  1.0
  Li  Li7  1  0.11855890  -0.16249139  0.54804714  1.0
  Li  Li8  1  0.59795262  -0.89195891  1.29871297  1.0
  Li  Li9  1  0.40204738  -0.10804109  0.70128703  1.0
  Nb  Nb10  1  0.29825764  -0.56768745  1.20864839  1.0
  Nb  Nb11  1  0.70174236  -0.43231255  0.79135161  1.0
  O  O12  1  0.77107860  -0.68021380  1.66048424  1.0
  O  O13  1  0.22892140  -0.31978620  0.33951576  1.0
  O  O14  1  0.44582130  -0.74373421  1.50143661  1.0
  O  O15  1  0.55417870  -0.25626579  0.49856339  1.0
  O  O16  1  0.54256123  -0.25893438  0.97972203  1.0
  O  O17  1  0.45743877  -0.74106562  1.02027797  1.0
  O  O18  1  0.12644056  -0.78530823  1.36442849  1.0
  O  O19  1  0.87355944  -0.21469177  0.63557151  1.0
  O  O20  1  0.77564276  -0.66543088  1.13710956  1.0
  O  O21  1  0.22435724  -0.33456912  0.86289044  1.0
