# generated using pymatgen
data_Al2Ge(HO3)2
_symmetry_space_group_name_H-M   'P 1'
_cell_length_a   5.04007198
_cell_length_b   5.04007198
_cell_length_c   9.07118960
_cell_angle_alpha   83.64954864
_cell_angle_beta   96.35045136
_cell_angle_gamma   64.17186404
_symmetry_Int_Tables_number   1
_chemical_formula_structural   Al2Ge(HO3)2
_chemical_formula_sum   'Al4 Ge2 H4 O12'
_cell_volume   202.86412414
_cell_formula_units_Z   2
loop_
 _symmetry_equiv_pos_site_id
 _symmetry_equiv_pos_as_xyz
  1  'x, y, z'
loop_
 _atom_site_type_symbol
 _atom_site_label
 _atom_site_symmetry_multiplicity
 _atom_site_fract_x
 _atom_site_fract_y
 _atom_site_fract_z
 _atom_site_occupancy
  Al  Al0  1  1.21294123  0.05673903  0.41370499  1.0
  Al  Al1  1  0.94326097  -0.21294123  0.91370499  1.0
  Al  Al2  1  1.05673903  0.21294123  0.08629501  1.0
  Al  Al3  1  0.78705877  -0.05673903  0.58629501  1.0
  Ge  Ge4  1  0.78029041  -0.21970959  0.25000000  1.0
  Ge  Ge5  1  1.21970959  0.21970959  0.75000000  1.0
  H  H6  1  1.33236646  0.47082408  0.45231785  1.0
  H  H7  1  0.52917592  -0.33236646  0.95231785  1.0
  H  H8  1  1.47082408  0.33236646  0.04768215  1.0
  H  H9  1  0.66763354  -0.47082408  0.54768215  1.0
  O  O10  1  0.83886421  -0.01917590  0.09000192  1.0
  O  O11  1  1.01917590  0.16113579  0.59000192  1.0
  O  O12  1  0.98082410  -0.16113579  0.40999808  1.0
  O  O13  1  1.16113579  0.01917590  0.90999808  1.0
  O  O14  1  0.38476565  -0.07108543  0.23714790  1.0
  O  O15  1  1.07108543  0.61523435  0.73714790  1.0
  O  O16  1  0.92891457  -0.61523435  0.26285210  1.0
  O  O17  1  1.61523435  0.07108543  0.76285210  1.0
  O  O18  1  1.44174759  0.25366581  0.46176953  1.0
  O  O19  1  0.74633419  -0.44174759  0.96176953  1.0
  O  O20  1  1.25366581  0.44174759  0.03823047  1.0
  O  O21  1  0.55825241  -0.25366581  0.53823047  1.0
