# generated using pymatgen
data_Na2BeH4
_symmetry_space_group_name_H-M   'P 1'
_cell_length_a   6.04289230
_cell_length_b   4.97224940
_cell_length_c   11.58365810
_cell_angle_alpha   90.00000000
_cell_angle_beta   90.00000000
_cell_angle_gamma   90.00000000
_symmetry_Int_Tables_number   1
_chemical_formula_structural   Na2BeH4
_chemical_formula_sum   'Na8 Be4 H16'
_cell_volume   348.05148325
_cell_formula_units_Z   4
loop_
 _symmetry_equiv_pos_site_id
 _symmetry_equiv_pos_as_xyz
  1  'x, y, z'
loop_
 _atom_site_type_symbol
 _atom_site_label
 _atom_site_symmetry_multiplicity
 _atom_site_fract_x
 _atom_site_fract_y
 _atom_site_fract_z
 _atom_site_occupancy
  Na  Na0  1  0.32046614  0.25000000  0.54527870  1.0
  Na  Na1  1  0.82046614  0.25000000  0.95472130  1.0
  Na  Na2  1  0.67953386  0.75000000  0.45472130  1.0
  Na  Na3  1  0.17953386  0.75000000  0.04527870  1.0
  Na  Na4  1  0.58184101  0.25000000  0.24938303  1.0
  Na  Na5  1  1.08184101  0.25000000  0.25061697  1.0
  Na  Na6  1  0.41815899  0.75000000  0.75061697  1.0
  Na  Na7  1  -0.08184101  0.75000000  0.74938303  1.0
  Be  Be8  1  0.17490929  0.25000000  0.80400393  1.0
  Be  Be9  1  0.67490929  0.25000000  0.69599607  1.0
  Be  Be10  1  0.82509071  0.75000000  0.19599607  1.0
  Be  Be11  1  0.32509071  0.75000000  0.30400393  1.0
  H  H12  1  0.55464976  -0.17337759  0.94228436  1.0
  H  H13  1  1.05464976  0.67337759  0.55771564  1.0
  H  H14  1  0.44535024  0.32662241  0.05771564  1.0
  H  H15  1  -0.05464976  1.17337759  0.44228436  1.0
  H  H16  1  0.44535024  1.17337759  0.05771564  1.0
  H  H17  1  -0.05464976  0.32662241  0.44228436  1.0
  H  H18  1  0.55464976  0.67337759  0.94228436  1.0
  H  H19  1  1.05464976  -0.17337759  0.55771564  1.0
  H  H20  1  0.34746365  -0.01611278  0.37748461  1.0
  H  H21  1  0.84746365  0.51611278  0.12251539  1.0
  H  H22  1  0.65253635  0.48388722  0.62251539  1.0
  H  H23  1  0.15253635  1.01611278  0.87748461  1.0
  H  H24  1  0.65253635  1.01611278  0.62251539  1.0
  H  H25  1  0.15253635  0.48388722  0.87748461  1.0
  H  H26  1  0.34746365  0.51611278  0.37748461  1.0
  H  H27  1  0.84746365  -0.01611278  0.12251539  1.0
