# generated using pymatgen
data_TlFeSe2
_symmetry_space_group_name_H-M   'P 1'
_cell_length_a   7.04702780
_cell_length_b   7.04702780
_cell_length_c   6.92398123
_cell_angle_alpha   63.89908888
_cell_angle_beta   116.10091112
_cell_angle_gamma   134.16928165
_symmetry_Int_Tables_number   1
_chemical_formula_structural   TlFeSe2
_chemical_formula_sum   'Tl2 Fe2 Se4'
_cell_volume   216.68358948
_cell_formula_units_Z   2
loop_
 _symmetry_equiv_pos_site_id
 _symmetry_equiv_pos_as_xyz
  1  'x, y, z'
loop_
 _atom_site_type_symbol
 _atom_site_label
 _atom_site_symmetry_multiplicity
 _atom_site_fract_x
 _atom_site_fract_y
 _atom_site_fract_z
 _atom_site_occupancy
  Tl  Tl0  1  0.68857867  0.31142133  0.63855477  1.0
  Tl  Tl1  1  0.31142133  -0.31142133  0.36144523  1.0
  Fe  Fe2  1  0.74818158  0.74818158  -0.00000000  1.0
  Fe  Fe3  1  0.25181842  0.25181842  -0.00000000  1.0
  Se  Se4  1  0.96085974  0.03914026  0.70323924  1.0
  Se  Se5  1  0.03914026  -0.03914026  0.29676076  1.0
  Se  Se6  1  0.33700692  -0.33700692  0.91466723  1.0
  Se  Se7  1  0.66299308  0.33700692  0.08533277  1.0
