# generated using pymatgen
data_Y2Be2Fe(SiO5)2
_symmetry_space_group_name_H-M   'P 1'
_cell_length_a   4.79430664
_cell_length_b   7.58134622
_cell_length_c   9.99141388
_cell_angle_alpha   90.00000000
_cell_angle_beta   89.00779296
_cell_angle_gamma   90.00000000
_symmetry_Int_Tables_number   1
_chemical_formula_structural   Y2Be2Fe(SiO5)2
_chemical_formula_sum   'Y4 Be4 Fe2 Si4 O20'
_cell_volume   363.10645075
_cell_formula_units_Z   2
loop_
 _symmetry_equiv_pos_site_id
 _symmetry_equiv_pos_as_xyz
  1  'x, y, z'
loop_
 _atom_site_type_symbol
 _atom_site_label
 _atom_site_symmetry_multiplicity
 _atom_site_fract_x
 _atom_site_fract_y
 _atom_site_fract_z
 _atom_site_occupancy
  Y  Y0  1  1.00263994  0.60682075  0.82952100  1.0
  Y  Y1  1  1.00263994  0.89317925  0.32952100  1.0
  Y  Y2  1  -0.00263994  0.10682075  0.67047900  1.0
  Y  Y3  1  -0.00263994  0.39317925  0.17047900  1.0
  Be  Be4  1  0.53334465  0.91452293  0.83442962  1.0
  Be  Be5  1  0.53334465  0.58547707  0.33442962  1.0
  Be  Be6  1  0.46665535  0.41452293  0.66557038  1.0
  Be  Be7  1  0.46665535  0.08547707  0.16557038  1.0
  Fe  Fe8  1  0.00000000  0.00000000  0.00000000  1.0
  Fe  Fe9  1  -0.00000000  0.50000000  0.50000000  1.0
  Si  Si10  1  0.47991187  0.78072394  0.57728434  1.0
  Si  Si11  1  0.47991187  0.71927606  0.07728434  1.0
  Si  Si12  1  0.52008813  0.28072394  0.92271566  1.0
  Si  Si13  1  0.52008813  0.21927606  0.42271566  1.0
  O  O14  1  0.76402976  0.41507933  0.97024526  1.0
  O  O15  1  0.76402976  0.08492067  0.47024526  1.0
  O  O16  1  0.23597024  0.91507933  0.52975474  1.0
  O  O17  1  0.23597024  0.58492067  0.02975474  1.0
  O  O18  1  0.80180551  0.41497330  0.66587011  1.0
  O  O19  1  0.80180551  0.08502670  0.16587011  1.0
  O  O20  1  0.19819449  0.91497330  0.83412989  1.0
  O  O21  1  0.19819449  0.58502670  0.33412989  1.0
  O  O22  1  0.68945440  0.85119704  0.69420272  1.0
  O  O23  1  0.68945440  0.64880296  0.19420272  1.0
  O  O24  1  0.31054560  0.35119704  0.80579728  1.0
  O  O25  1  0.31054560  0.14880296  0.30579728  1.0
  O  O26  1  0.67297904  0.78539615  0.94826038  1.0
  O  O27  1  0.67297904  0.71460385  0.44826038  1.0
  O  O28  1  0.32702096  0.28539615  0.55173962  1.0
  O  O29  1  0.32702096  0.21460385  0.05173962  1.0
  O  O30  1  0.31579638  0.60756956  0.64300465  1.0
  O  O31  1  0.31579638  0.89243044  0.14300465  1.0
  O  O32  1  0.68420362  0.10756956  0.85699535  1.0
  O  O33  1  0.68420362  0.39243044  0.35699535  1.0
