# generated using pymatgen
data_Gd2Ge(BO4)2
_symmetry_space_group_name_H-M   'P 1'
_cell_length_a   13.62279324
_cell_length_b   4.45865873
_cell_length_c   9.47442420
_cell_angle_alpha   90.00000000
_cell_angle_beta   90.00000000
_cell_angle_gamma   90.00000000
_symmetry_Int_Tables_number   1
_chemical_formula_structural   Gd2Ge(BO4)2
_chemical_formula_sum   'Gd8 Ge4 B8 O32'
_cell_volume   575.47070909
_cell_formula_units_Z   4
loop_
 _symmetry_equiv_pos_site_id
 _symmetry_equiv_pos_as_xyz
  1  'x, y, z'
loop_
 _atom_site_type_symbol
 _atom_site_label
 _atom_site_symmetry_multiplicity
 _atom_site_fract_x
 _atom_site_fract_y
 _atom_site_fract_z
 _atom_site_occupancy
  Gd  Gd0  1  0.14045898  0.04294072  0.97399242  1.0
  Gd  Gd1  1  0.14045898  0.95705928  0.47399242  1.0
  Gd  Gd2  1  0.64045898  0.54294072  0.52600758  1.0
  Gd  Gd3  1  0.64045898  0.45705928  0.02600758  1.0
  Gd  Gd4  1  0.85954102  0.04294072  0.52600758  1.0
  Gd  Gd5  1  0.85954102  0.95705928  0.02600758  1.0
  Gd  Gd6  1  0.35954102  0.54294072  0.97399242  1.0
  Gd  Gd7  1  0.35954102  0.45705928  0.47399242  1.0
  Ge  Ge8  1  0.50000000  0.07982716  0.75000000  1.0
  Ge  Ge9  1  0.50000000  0.92017284  0.25000000  1.0
  Ge  Ge10  1  0.00000000  0.57982716  0.75000000  1.0
  Ge  Ge11  1  0.00000000  0.42017284  0.25000000  1.0
  B  B12  1  0.20046936  0.46971043  0.70479236  1.0
  B  B13  1  0.20046936  0.53028957  0.20479236  1.0
  B  B14  1  0.70046936  0.96971043  0.79520764  1.0
  B  B15  1  0.70046936  0.03028957  0.29520764  1.0
  B  B16  1  0.79953064  0.46971043  0.79520764  1.0
  B  B17  1  0.79953064  0.53028957  0.29520764  1.0
  B  B18  1  0.29953064  0.96971043  0.70479236  1.0
  B  B19  1  0.29953064  0.03028957  0.20479236  1.0
  O  O20  1  0.49513042  0.30157695  0.59826747  1.0
  O  O21  1  0.49513042  0.69842305  0.09826747  1.0
  O  O22  1  0.99513042  0.80157695  0.90173253  1.0
  O  O23  1  0.99513042  0.19842305  0.40173253  1.0
  O  O24  1  0.50486958  0.30157695  0.90173253  1.0
  O  O25  1  0.50486958  0.69842305  0.40173253  1.0
  O  O26  1  0.00486958  0.80157695  0.59826747  1.0
  O  O27  1  0.00486958  0.19842305  0.09826747  1.0
  O  O28  1  0.28331652  0.28127218  0.76018883  1.0
  O  O29  1  0.28331652  0.71872782  0.26018883  1.0
  O  O30  1  0.78331652  0.78127218  0.73981117  1.0
  O  O31  1  0.78331652  0.21872782  0.23981117  1.0
  O  O32  1  0.71668348  0.28127218  0.73981117  1.0
  O  O33  1  0.71668348  0.71872782  0.23981117  1.0
  O  O34  1  0.21668348  0.78127218  0.76018883  1.0
  O  O35  1  0.21668348  0.21872782  0.26018883  1.0
  O  O36  1  0.19237894  0.46223221  0.55236352  1.0
  O  O37  1  0.19237894  0.53776779  0.05236352  1.0
  O  O38  1  0.69237894  0.96223221  0.94763648  1.0
  O  O39  1  0.69237894  0.03776779  0.44763648  1.0
  O  O40  1  0.80762106  0.46223221  0.94763648  1.0
  O  O41  1  0.80762106  0.53776779  0.44763648  1.0
  O  O42  1  0.30762106  0.96223221  0.55236352  1.0
  O  O43  1  0.30762106  0.03776779  0.05236352  1.0
  O  O44  1  0.10699028  0.34666468  0.76904040  1.0
  O  O45  1  0.10699028  0.65333532  0.26904040  1.0
  O  O46  1  0.60699028  0.84666468  0.73095960  1.0
  O  O47  1  0.60699028  0.15333532  0.23095960  1.0
  O  O48  1  0.89300972  0.34666468  0.73095960  1.0
  O  O49  1  0.89300972  0.65333532  0.23095960  1.0
  O  O50  1  0.39300972  0.84666468  0.76904040  1.0
  O  O51  1  0.39300972  0.15333532  0.26904040  1.0
