# generated using pymatgen
data_Na3B7O12
_symmetry_space_group_name_H-M   'P 1'
_cell_length_a   8.99408699
_cell_length_b   8.39602351
_cell_length_c   6.73674985
_cell_angle_alpha   99.26611630
_cell_angle_beta   100.73929215
_cell_angle_gamma   93.86105964
_symmetry_Int_Tables_number   1
_chemical_formula_structural   Na3B7O12
_chemical_formula_sum   'Na6 B14 O24'
_cell_volume   490.79870928
_cell_formula_units_Z   2
loop_
 _symmetry_equiv_pos_site_id
 _symmetry_equiv_pos_as_xyz
  1  'x, y, z'
loop_
 _atom_site_type_symbol
 _atom_site_label
 _atom_site_symmetry_multiplicity
 _atom_site_fract_x
 _atom_site_fract_y
 _atom_site_fract_z
 _atom_site_occupancy
  Na  Na0  1  -0.71102423  -0.41550931  -0.94495560  1.0
  Na  Na1  1  -0.28897577  -0.58449069  -0.05504440  1.0
  Na  Na2  1  -0.65915826  -0.76630097  -0.42793549  1.0
  Na  Na3  1  -0.34084174  -0.23369903  -0.57206451  1.0
  Na  Na4  1  -0.97156705  -0.72156176  -0.25810527  1.0
  Na  Na5  1  -0.02843295  -0.27843824  -0.74189473  1.0
  B  B6  1  -0.74402961  -0.76468927  -0.89512860  1.0
  B  B7  1  -0.25597039  -0.23531073  -0.10487140  1.0
  B  B8  1  -0.71306341  -0.04782080  -0.83745747  1.0
  B  B9  1  -0.28693659  -0.95217920  -0.16254253  1.0
  B  B10  1  -0.94391697  -0.62286834  -0.72444541  1.0
  B  B11  1  -0.05608303  -0.37713166  -0.27555459  1.0
  B  B12  1  -0.46674858  -0.65413588  -0.70937869  1.0
  B  B13  1  -0.53325142  -0.34586412  -0.29062131  1.0
  B  B14  1  -0.29756619  -0.80791440  -0.49262717  1.0
  B  B15  1  -0.70243381  -0.19208560  -0.50737283  1.0
  B  B16  1  -0.81151805  -0.44594531  -0.39625286  1.0
  B  B17  1  -0.18848195  -0.55405469  -0.60374714  1.0
  B  B18  1  -0.72499320  -0.99242490  -0.18146674  1.0
  B  B19  1  -0.27500680  -0.00757510  -0.81853326  1.0
  O  O20  1  -0.88338662  -0.67850180  -0.89426621  1.0
  O  O21  1  -0.11661338  -0.32149820  -0.10573379  1.0
  O  O22  1  -0.30535203  -0.90413518  -0.95924892  1.0
  O  O23  1  -0.69464797  -0.09586482  -0.04075108  1.0
  O  O24  1  -0.60830799  -0.64349466  -0.82508289  1.0
  O  O25  1  -0.39169201  -0.35650534  -0.17491711  1.0
  O  O26  1  -0.74612226  -0.89429536  -0.77295069  1.0
  O  O27  1  -0.25387774  -0.10570464  -0.22704931  1.0
  O  O28  1  -0.70213190  -0.16828534  -0.72334915  1.0
  O  O29  1  -0.29786810  -0.83171466  -0.27665085  1.0
  O  O30  1  -0.34610610  -0.54716351  -0.72281253  1.0
  O  O31  1  -0.65389390  -0.45283649  -0.27718747  1.0
  O  O32  1  -0.27012528  -0.96354300  -0.61421479  1.0
  O  O33  1  -0.72987472  -0.03645700  -0.38578521  1.0
  O  O34  1  -0.44868082  -0.76302469  -0.57731427  1.0
  O  O35  1  -0.55131918  -0.23697531  -0.42268573  1.0
  O  O36  1  -0.85846840  -0.61073206  -0.52726008  1.0
  O  O37  1  -0.14153160  -0.38926794  -0.47273992  1.0
  O  O38  1  -0.82052704  -0.32202552  -0.52160344  1.0
  O  O39  1  -0.17947296  -0.67797448  -0.47839656  1.0
  O  O40  1  -0.91065749  -0.42356005  -0.23730023  1.0
  O  O41  1  -0.08934251  -0.57643995  -0.76269977  1.0
  O  O42  1  -0.75119015  -0.83357528  -0.11661107  1.0
  O  O43  1  -0.24880985  -0.16642472  -0.88338893  1.0
