# generated using pymatgen
data_Rb(WO3)3
_symmetry_space_group_name_H-M   'P 1'
_cell_length_a   7.47389711
_cell_length_b   7.47389711
_cell_length_c   7.68520900
_cell_angle_alpha   90.00000000
_cell_angle_beta   90.00000000
_cell_angle_gamma   120.00000000
_symmetry_Int_Tables_number   1
_chemical_formula_structural   Rb(WO3)3
_chemical_formula_sum   'Rb2 W6 O18'
_cell_volume   371.77530950
_cell_formula_units_Z   2
loop_
 _symmetry_equiv_pos_site_id
 _symmetry_equiv_pos_as_xyz
  1  'x, y, z'
loop_
 _atom_site_type_symbol
 _atom_site_label
 _atom_site_symmetry_multiplicity
 _atom_site_fract_x
 _atom_site_fract_y
 _atom_site_fract_z
 _atom_site_occupancy
  Rb  Rb0  1  0.00000000  0.00000000  0.01313198  1.0
  Rb  Rb1  1  0.00000000  0.00000000  0.51313198  1.0
  W  W2  1  0.50980256  0.00000143  0.26315471  1.0
  W  W3  1  0.00000143  0.49019887  0.76315471  1.0
  W  W4  1  0.49019887  0.49019744  0.26315471  1.0
  W  W5  1  0.99999857  0.50980113  0.26315471  1.0
  W  W6  1  0.49019744  0.99999857  0.76315471  1.0
  W  W7  1  0.50980113  0.50980256  0.76315471  1.0
  O  O8  1  0.78715415  0.57744813  0.26316837  1.0
  O  O9  1  0.57744813  0.79029398  0.76316837  1.0
  O  O10  1  0.79029398  0.21284585  0.26316837  1.0
  O  O11  1  0.42255187  0.20970602  0.26316837  1.0
  O  O12  1  0.21284585  0.42255187  0.76316837  1.0
  O  O13  1  0.20970602  0.78715415  0.76316837  1.0
  O  O14  1  0.50003882  1.00001705  0.01315628  1.0
  O  O15  1  1.00001705  0.49997823  0.51315628  1.0
  O  O16  1  0.49997823  0.49996118  0.01315628  1.0
  O  O17  1  -0.00001705  0.50002177  0.01315628  1.0
  O  O18  1  0.49996118  -0.00001705  0.51315628  1.0
  O  O19  1  0.50002177  0.50003882  0.51315628  1.0
  O  O20  1  0.21286197  0.79027863  0.26314332  1.0
  O  O21  1  0.79027863  0.57741667  0.76314332  1.0
  O  O22  1  0.57741667  0.78713803  0.26314332  1.0
  O  O23  1  0.20972137  0.42258333  0.26314332  1.0
  O  O24  1  0.78713803  0.20972137  0.76314332  1.0
  O  O25  1  0.42258333  0.21286197  0.76314332  1.0
