# generated using pymatgen
data_Bi10(MoO8)3
_symmetry_space_group_name_H-M   'P 1'
_cell_length_a   12.33541427
_cell_length_b   12.33541427
_cell_length_c   8.85611418
_cell_angle_alpha   84.12444523
_cell_angle_beta   95.87555477
_cell_angle_gamma   153.01169979
_symmetry_Int_Tables_number   1
_chemical_formula_structural   Bi10(MoO8)3
_chemical_formula_sum   'Bi10 Mo3 O24'
_cell_volume   608.13968619
_cell_formula_units_Z   1
loop_
 _symmetry_equiv_pos_site_id
 _symmetry_equiv_pos_as_xyz
  1  'x, y, z'
loop_
 _atom_site_type_symbol
 _atom_site_label
 _atom_site_symmetry_multiplicity
 _atom_site_fract_x
 _atom_site_fract_y
 _atom_site_fract_z
 _atom_site_occupancy
  Bi  Bi0  1  1.24436404  -0.60414659  0.91263524  1.0
  Bi  Bi1  1  1.39585341  0.24436404  0.08736476  1.0
  Bi  Bi2  1  1.14872016  -0.55587453  0.25339110  1.0
  Bi  Bi3  1  1.44412547  0.14872016  0.74660890  1.0
  Bi  Bi4  1  1.05065452  -0.47161712  0.69088488  1.0
  Bi  Bi5  1  1.52838288  0.05065452  0.30911512  1.0
  Bi  Bi6  1  0.85419968  -0.21818186  0.82348720  1.0
  Bi  Bi7  1  1.78181814  -0.14580032  0.17651280  1.0
  Bi  Bi8  1  1.53767673  -0.07430313  0.95401618  1.0
  Bi  Bi9  1  0.92569687  -0.46232327  0.04598382  1.0
  Mo  Mo10  1  0.89947185  -0.35489090  0.42557958  1.0
  Mo  Mo11  1  1.64510911  -0.10052815  0.57442042  1.0
  Mo  Mo12  1  0.31624895  0.31624895  0.50000000  1.0
  O  O13  1  1.12772635  -0.83788742  0.65574694  1.0
  O  O14  1  1.16211258  0.12772635  0.34425306  1.0
  O  O15  1  1.21720817  -0.43451656  0.85596425  1.0
  O  O16  1  1.56548344  0.21720817  0.14403575  1.0
  O  O17  1  0.78352648  -0.66360368  0.84968154  1.0
  O  O18  1  1.33639632  -0.21647352  0.15031846  1.0
  O  O19  1  1.30043946  -0.14702823  0.81022460  1.0
  O  O20  1  0.85297177  -0.69956054  0.18977540  1.0
  O  O21  1  1.12324431  -0.22179561  0.32647516  1.0
  O  O22  1  1.77820439  0.12324431  0.67352484  1.0
  O  O23  1  0.70938120  -0.63533524  0.49340476  1.0
  O  O24  1  1.36466476  -0.29061880  0.50659524  1.0
  O  O25  1  0.68308765  -0.53409310  0.92174274  1.0
  O  O26  1  1.46590690  -0.31691235  0.07825726  1.0
  O  O27  1  1.05638675  -0.16398871  0.58204833  1.0
  O  O28  1  1.83601129  0.05638675  0.41795167  1.0
  O  O29  1  1.18985193  -0.01512731  0.90271094  1.0
  O  O30  1  0.98487269  -0.81014807  0.09728906  1.0
  O  O31  1  0.55081858  -0.56551530  0.57343533  1.0
  O  O32  1  1.43448470  -0.44918142  0.42656467  1.0
  O  O33  1  1.61214214  -0.24139503  0.71763082  1.0
  O  O34  1  0.75860497  -0.38785786  0.28236918  1.0
  O  O35  1  0.02473417  0.02473417  0.00000000  1.0
  O  O36  1  0.54441721  0.54441721  0.00000000  1.0
