# generated using pymatgen
data_KGd(MoO4)2
_symmetry_space_group_name_H-M   'P 1'
_cell_length_a   5.14546607
_cell_length_b   18.75881972
_cell_length_c   8.21566461
_cell_angle_alpha   90.00000000
_cell_angle_beta   90.00000000
_cell_angle_gamma   90.00000000
_symmetry_Int_Tables_number   1
_chemical_formula_structural   KGd(MoO4)2
_chemical_formula_sum   'K4 Gd4 Mo8 O32'
_cell_volume   792.99952975
_cell_formula_units_Z   4
loop_
 _symmetry_equiv_pos_site_id
 _symmetry_equiv_pos_as_xyz
  1  'x, y, z'
loop_
 _atom_site_type_symbol
 _atom_site_label
 _atom_site_symmetry_multiplicity
 _atom_site_fract_x
 _atom_site_fract_y
 _atom_site_fract_z
 _atom_site_occupancy
  K  K0  1  0.50000000  0.72570742  0.25000000  1.0
  K  K1  1  0.50000000  0.27429258  0.75000000  1.0
  K  K2  1  0.00000000  0.22570742  0.25000000  1.0
  K  K3  1  -0.00000000  0.77429258  0.75000000  1.0
  Gd  Gd4  1  0.50000000  0.49590199  0.25000000  1.0
  Gd  Gd5  1  0.50000000  0.50409801  0.75000000  1.0
  Gd  Gd6  1  -0.00000000  0.99590199  0.25000000  1.0
  Gd  Gd7  1  -0.00000000  0.00409801  0.75000000  1.0
  Mo  Mo8  1  0.47690154  0.10164872  0.00859307  1.0
  Mo  Mo9  1  0.47690154  0.89835128  0.50859307  1.0
  Mo  Mo10  1  0.97690154  0.60164872  0.49140693  1.0
  Mo  Mo11  1  0.97690154  0.39835128  0.99140693  1.0
  Mo  Mo12  1  0.52309846  0.10164872  0.49140693  1.0
  Mo  Mo13  1  0.52309846  0.89835128  0.99140693  1.0
  Mo  Mo14  1  0.02309846  0.60164872  0.00859307  1.0
  Mo  Mo15  1  0.02309846  0.39835128  0.50859307  1.0
  O  O16  1  0.39917258  0.18773798  0.48512305  1.0
  O  O17  1  0.39917258  0.81226202  0.98512305  1.0
  O  O18  1  0.89917258  0.68773798  0.01487695  1.0
  O  O19  1  0.89917258  0.31226202  0.51487695  1.0
  O  O20  1  0.60082742  0.18773798  0.01487695  1.0
  O  O21  1  0.60082742  0.81226202  0.51487695  1.0
  O  O22  1  0.10082742  0.68773798  0.48512305  1.0
  O  O23  1  0.10082742  0.31226202  0.98512305  1.0
  O  O24  1  0.26089742  0.09293596  0.17929169  1.0
  O  O25  1  0.26089742  0.90706404  0.67929169  1.0
  O  O26  1  0.76089742  0.59293596  0.32070831  1.0
  O  O27  1  0.76089742  0.40706404  0.82070831  1.0
  O  O28  1  0.73910258  0.09293596  0.32070831  1.0
  O  O29  1  0.73910258  0.90706404  0.82070831  1.0
  O  O30  1  0.23910258  0.59293596  0.17929169  1.0
  O  O31  1  0.23910258  0.40706404  0.67929169  1.0
  O  O32  1  0.24809101  0.46258253  0.00149430  1.0
  O  O33  1  0.24809101  0.53741747  0.50149430  1.0
  O  O34  1  0.74809101  0.96258253  0.49850570  1.0
  O  O35  1  0.74809101  0.03741747  0.99850570  1.0
  O  O36  1  0.75190899  0.46258253  0.49850570  1.0
  O  O37  1  0.75190899  0.53741747  0.99850570  1.0
  O  O38  1  0.25190899  0.96258253  0.00149430  1.0
  O  O39  1  0.25190899  0.03741747  0.50149430  1.0
  O  O40  1  0.22936904  0.40299580  0.33518978  1.0
  O  O41  1  0.22936904  0.59700420  0.83518978  1.0
  O  O42  1  0.72936904  0.90299580  0.16481022  1.0
  O  O43  1  0.72936904  0.09700420  0.66481022  1.0
  O  O44  1  0.77063096  0.40299580  0.16481022  1.0
  O  O45  1  0.77063096  0.59700420  0.66481022  1.0
  O  O46  1  0.27063096  0.90299580  0.33518978  1.0
  O  O47  1  0.27063096  0.09700420  0.83518978  1.0
