# generated using pymatgen
data_Ba(Sb3Ru)4
_symmetry_space_group_name_H-M   'P 1'
_cell_length_a   8.17182943
_cell_length_b   8.17182943
_cell_length_c   8.17182943
_cell_angle_alpha   109.47122063
_cell_angle_beta   109.47122063
_cell_angle_gamma   109.47122063
_symmetry_Int_Tables_number   1
_chemical_formula_structural   Ba(Sb3Ru)4
_chemical_formula_sum   'Ba1 Sb12 Ru4'
_cell_volume   420.08385242
_cell_formula_units_Z   1
loop_
 _symmetry_equiv_pos_site_id
 _symmetry_equiv_pos_as_xyz
  1  'x, y, z'
loop_
 _atom_site_type_symbol
 _atom_site_label
 _atom_site_symmetry_multiplicity
 _atom_site_fract_x
 _atom_site_fract_y
 _atom_site_fract_z
 _atom_site_occupancy
  Ba  Ba0  1  0.00000000  0.00000000  0.00000000  1.0
  Sb  Sb1  1  0.83967380  1.34393617  1.18360997  1.0
  Sb  Sb2  1  0.83967380  0.65606383  0.49573764  1.0
  Sb  Sb3  1  0.16032620  0.34393617  0.50426236  1.0
  Sb  Sb4  1  0.16032620  0.65606383  0.81639003  1.0
  Sb  Sb5  1  0.49573764  0.83967380  0.65606383  1.0
  Sb  Sb6  1  1.18360997  0.83967380  1.34393617  1.0
  Sb  Sb7  1  0.65606383  0.81639003  0.16032620  1.0
  Sb  Sb8  1  0.65606383  0.49573764  0.83967380  1.0
  Sb  Sb9  1  0.81639003  0.16032620  0.65606383  1.0
  Sb  Sb10  1  0.50426236  0.16032620  0.34393617  1.0
  Sb  Sb11  1  0.34393617  0.50426236  0.16032620  1.0
  Sb  Sb12  1  1.34393617  1.18360997  0.83967380  1.0
  Ru  Ru13  1  0.50000000  1.00000000  1.00000000  1.0
  Ru  Ru14  1  0.50000000  0.50000000  0.50000000  1.0
  Ru  Ru15  1  1.00000000  1.00000000  0.50000000  1.0
  Ru  Ru16  1  1.00000000  0.50000000  1.00000000  1.0
