# generated using pymatgen
data_CaH6C2O7
_symmetry_space_group_name_H-M   'P 1'
_cell_length_a   8.43380182
_cell_length_b   7.22139091
_cell_length_c   6.27847974
_cell_angle_alpha   69.65550596
_cell_angle_beta   71.11128226
_cell_angle_gamma   74.98941409
_symmetry_Int_Tables_number   1
_chemical_formula_structural   CaH6C2O7
_chemical_formula_sum   'Ca2 H12 C4 O14'
_cell_volume   334.56852147
_cell_formula_units_Z   2
loop_
 _symmetry_equiv_pos_site_id
 _symmetry_equiv_pos_as_xyz
  1  'x, y, z'
loop_
 _atom_site_type_symbol
 _atom_site_label
 _atom_site_symmetry_multiplicity
 _atom_site_fract_x
 _atom_site_fract_y
 _atom_site_fract_z
 _atom_site_occupancy
  Ca  Ca0  1  -0.80685413  -0.72796963  -0.39370118  1.0
  Ca  Ca1  1  -0.19314587  -0.27203037  -0.60629882  1.0
  H  H2  1  -0.19894039  -0.87484380  -0.96287456  1.0
  H  H3  1  -0.80105961  -0.12515620  -0.03712544  1.0
  H  H4  1  -0.68745129  -0.81456955  -0.84359772  1.0
  H  H5  1  -0.31254871  -0.18543045  -0.15640228  1.0
  H  H6  1  -0.38509258  -0.86141058  -0.79643073  1.0
  H  H7  1  -0.61490742  -0.13858942  -0.20356927  1.0
  H  H8  1  -0.91985207  -0.99183716  -0.76553245  1.0
  H  H9  1  -0.08014793  -0.00816284  -0.23446755  1.0
  H  H10  1  -0.58939085  -0.00736219  -0.69065610  1.0
  H  H11  1  -0.41060915  -0.99263781  -0.30934390  1.0
  H  H12  1  -0.83641880  -0.22123623  -0.66418898  1.0
  H  H13  1  -0.16358120  -0.77876377  -0.33581102  1.0
  C  C14  1  -0.94510931  -0.57622189  -0.91750638  1.0
  C  C15  1  -0.05489069  -0.42377811  -0.08249362  1.0
  C  C16  1  -0.55267535  -0.40051075  -0.55873424  1.0
  C  C17  1  -0.44732465  -0.59948925  -0.44126576  1.0
  O  O18  1  -0.85295616  -0.72446024  -0.98753971  1.0
  O  O19  1  -0.14704384  -0.27553976  -0.01246029  1.0
  O  O20  1  -0.26471749  -0.91140332  -0.79670628  1.0
  O  O21  1  -0.73528251  -0.08859668  -0.20329372  1.0
  O  O22  1  -0.62394424  -0.85907272  -0.72139504  1.0
  O  O23  1  -0.37605576  -0.14092728  -0.27860496  1.0
  O  O24  1  -0.95520801  -0.54212365  -0.72954362  1.0
  O  O25  1  -0.04479199  -0.45787635  -0.27045638  1.0
  O  O26  1  -0.92934386  -0.13087370  -0.73812246  1.0
  O  O27  1  -0.07065614  -0.86912630  -0.26187754  1.0
  O  O28  1  -0.69879095  -0.41173664  -0.56305782  1.0
  O  O29  1  -0.30120905  -0.58826336  -0.43694218  1.0
  O  O30  1  -0.51613699  -0.75391824  -0.36043025  1.0
  O  O31  1  -0.48386301  -0.24608176  -0.63956975  1.0
