# generated using pymatgen
data_RbY(MoO4)2
_symmetry_space_group_name_H-M   'P 1'
_cell_length_a   7.50213772
_cell_length_b   7.50213772
_cell_length_c   7.86885754
_cell_angle_alpha   61.57170538
_cell_angle_beta   118.42829462
_cell_angle_gamma   92.28761261
_symmetry_Int_Tables_number   1
_chemical_formula_structural   RbY(MoO4)2
_chemical_formula_sum   'Rb2 Y2 Mo4 O16'
_cell_volume   332.37381112
_cell_formula_units_Z   2
loop_
 _symmetry_equiv_pos_site_id
 _symmetry_equiv_pos_as_xyz
  1  'x, y, z'
loop_
 _atom_site_type_symbol
 _atom_site_label
 _atom_site_symmetry_multiplicity
 _atom_site_fract_x
 _atom_site_fract_y
 _atom_site_fract_z
 _atom_site_occupancy
  Rb  Rb0  1  0.19211470  0.19211470  0.25000000  1.0
  Rb  Rb1  1  0.80788530  0.80788530  0.75000000  1.0
  Y  Y2  1  0.77036309  0.77036309  0.25000000  1.0
  Y  Y3  1  0.22963691  0.22963691  0.75000000  1.0
  Mo  Mo4  1  0.69153167  0.30321107  0.23785490  1.0
  Mo  Mo5  1  0.69678893  0.30846833  0.73785490  1.0
  Mo  Mo6  1  1.30321107  -0.30846833  0.26214510  1.0
  Mo  Mo7  1  1.30846833  -0.30321107  0.76214510  1.0
  O  O8  1  1.58388991  -0.36918618  0.03325482  1.0
  O  O9  1  1.36918618  -0.58388991  0.53325482  1.0
  O  O10  1  0.63081382  0.58388991  0.46674518  1.0
  O  O11  1  0.41611009  0.36918618  0.96674518  1.0
  O  O12  1  0.78919329  0.05352001  0.29773766  1.0
  O  O13  1  0.94647999  0.21080671  0.79773766  1.0
  O  O14  1  1.05352001  -0.21080671  0.20226234  1.0
  O  O15  1  1.21080671  -0.05352001  0.70226234  1.0
  O  O16  1  1.38119538  -0.07181446  0.12399728  1.0
  O  O17  1  1.07181446  -0.38119538  0.62399728  1.0
  O  O18  1  0.92818554  0.38119538  0.37600272  1.0
  O  O19  1  0.61880462  0.07181446  0.87600272  1.0
  O  O20  1  0.60767150  0.23156336  0.42960980  1.0
  O  O21  1  0.76843664  0.39232850  0.92960980  1.0
  O  O22  1  1.23156336  -0.39232850  0.07039020  1.0
  O  O23  1  1.39232850  -0.23156336  0.57039020  1.0
