# generated using pymatgen
data_AuCClO
_symmetry_space_group_name_H-M   'P 1'
_cell_length_a   8.93562824
_cell_length_b   8.93562824
_cell_length_c   5.26732912
_cell_angle_alpha   90.00000000
_cell_angle_beta   90.00000000
_cell_angle_gamma   147.84497755
_symmetry_Int_Tables_number   1
_chemical_formula_structural   AuCClO
_chemical_formula_sum   'Au2 C2 Cl2 O2'
_cell_volume   223.83354628
_cell_formula_units_Z   2
loop_
 _symmetry_equiv_pos_site_id
 _symmetry_equiv_pos_as_xyz
  1  'x, y, z'
loop_
 _atom_site_type_symbol
 _atom_site_label
 _atom_site_symmetry_multiplicity
 _atom_site_fract_x
 _atom_site_fract_y
 _atom_site_fract_z
 _atom_site_occupancy
  Au  Au0  1  -0.76265197  0.76265197  0.25000000  1.0
  Au  Au1  1  -0.23734803  1.23734803  0.75000000  1.0
  C  C2  1  -0.87296431  0.87296431  0.25000000  1.0
  C  C3  1  -0.12703569  1.12703569  0.75000000  1.0
  Cl  Cl4  1  -0.63117181  0.63117181  0.25000000  1.0
  Cl  Cl5  1  -0.36882819  1.36882819  0.75000000  1.0
  O  O6  1  -0.93940530  0.93940530  0.25000000  1.0
  O  O7  1  -0.06059470  1.06059470  0.75000000  1.0
