# generated using pymatgen
data_InNi3As
_symmetry_space_group_name_H-M   'P 1'
_cell_length_a   7.34370264
_cell_length_b   7.34370264
_cell_length_c   7.34370264
_cell_angle_alpha   40.38938877
_cell_angle_beta   40.38938877
_cell_angle_gamma   40.38938877
_symmetry_Int_Tables_number   1
_chemical_formula_structural   InNi3As
_chemical_formula_sum   'In2 Ni6 As2'
_cell_volume   149.94469702
_cell_formula_units_Z   2
loop_
 _symmetry_equiv_pos_site_id
 _symmetry_equiv_pos_as_xyz
  1  'x, y, z'
loop_
 _atom_site_type_symbol
 _atom_site_label
 _atom_site_symmetry_multiplicity
 _atom_site_fract_x
 _atom_site_fract_y
 _atom_site_fract_z
 _atom_site_occupancy
  In  In0  1  0.66883074  -0.33116926  -0.33116926  1.0
  In  In1  1  0.33116926  0.33116926  0.33116926  1.0
  Ni  Ni2  1  0.58994381  0.62714784  -0.88188852  1.0
  Ni  Ni3  1  0.62714784  0.11811148  -0.41005619  1.0
  Ni  Ni4  1  0.11811148  0.58994381  -0.37285216  1.0
  Ni  Ni5  1  0.41005619  0.37285216  -0.11811148  1.0
  Ni  Ni6  1  0.37285216  0.88188852  -0.58994381  1.0
  Ni  Ni7  1  0.88188852  0.41005619  -0.62714784  1.0
  As  As8  1  0.12390868  0.12390868  0.12390868  1.0
  As  As9  1  0.87609132  -0.12390868  -0.12390868  1.0
