# generated using pymatgen
data_Ca3Bi(ClO)3
_symmetry_space_group_name_H-M   'P 1'
_cell_length_a   6.49132336
_cell_length_b   10.69363087
_cell_length_c   11.94003791
_cell_angle_alpha   90.00000000
_cell_angle_beta   90.00000000
_cell_angle_gamma   90.00000000
_symmetry_Int_Tables_number   1
_chemical_formula_structural   Ca3Bi(ClO)3
_chemical_formula_sum   'Ca12 Bi4 Cl12 O12'
_cell_volume   828.82747242
_cell_formula_units_Z   4
loop_
 _symmetry_equiv_pos_site_id
 _symmetry_equiv_pos_as_xyz
  1  'x, y, z'
loop_
 _atom_site_type_symbol
 _atom_site_label
 _atom_site_symmetry_multiplicity
 _atom_site_fract_x
 _atom_site_fract_y
 _atom_site_fract_z
 _atom_site_occupancy
  Ca  Ca0  1  0.14600740  0.75000000  -0.00226020  1.0
  Ca  Ca1  1  0.64600740  0.75000000  0.50226020  1.0
  Ca  Ca2  1  0.85399260  0.25000000  1.00226020  1.0
  Ca  Ca3  1  0.35399260  0.25000000  0.49773980  1.0
  Ca  Ca4  1  0.36637639  0.42384602  0.88377794  1.0
  Ca  Ca5  1  0.36637639  0.07615398  0.88377794  1.0
  Ca  Ca6  1  0.86637639  0.42384602  0.61622206  1.0
  Ca  Ca7  1  0.86637639  0.07615398  0.61622206  1.0
  Ca  Ca8  1  0.63362361  0.92384602  0.11622206  1.0
  Ca  Ca9  1  0.63362361  0.57615398  0.11622206  1.0
  Ca  Ca10  1  0.13362361  0.92384602  0.38377794  1.0
  Ca  Ca11  1  0.13362361  0.57615398  0.38377794  1.0
  Bi  Bi12  1  0.11560409  0.75000000  0.62159433  1.0
  Bi  Bi13  1  0.61560409  0.75000000  0.87840567  1.0
  Bi  Bi14  1  0.88439591  0.25000000  0.37840567  1.0
  Bi  Bi15  1  0.38439591  0.25000000  0.12159433  1.0
  Cl  Cl16  1  0.47315567  0.96298809  0.66172667  1.0
  Cl  Cl17  1  0.47315567  0.53701191  0.66172667  1.0
  Cl  Cl18  1  0.97315567  0.96298809  0.83827333  1.0
  Cl  Cl19  1  0.97315567  0.53701191  0.83827333  1.0
  Cl  Cl20  1  0.52684433  0.46298809  0.33827333  1.0
  Cl  Cl21  1  0.52684433  0.03701191  0.33827333  1.0
  Cl  Cl22  1  0.02684433  0.46298809  0.16172667  1.0
  Cl  Cl23  1  0.02684433  0.03701191  0.16172667  1.0
  Cl  Cl24  1  0.33332542  0.75000000  0.20427477  1.0
  Cl  Cl25  1  0.83332542  0.75000000  0.29572523  1.0
  Cl  Cl26  1  0.66667458  0.25000000  0.79572523  1.0
  Cl  Cl27  1  0.16667458  0.25000000  0.70427477  1.0
  O  O28  1  0.29371238  0.75000000  0.47211997  1.0
  O  O29  1  0.79371238  0.75000000  0.02788003  1.0
  O  O30  1  0.70628762  0.25000000  0.52788003  1.0
  O  O31  1  0.20628762  0.25000000  -0.02788003  1.0
  O  O32  1  0.41953321  0.88361430  0.95511706  1.0
  O  O33  1  0.41953321  0.61638570  0.95511706  1.0
  O  O34  1  0.91953321  0.88361430  0.54488294  1.0
  O  O35  1  0.91953321  0.61638570  0.54488294  1.0
  O  O36  1  0.58046679  0.38361430  0.04488294  1.0
  O  O37  1  0.58046679  0.11638570  0.04488294  1.0
  O  O38  1  0.08046679  0.38361430  0.45511706  1.0
  O  O39  1  0.08046679  0.11638570  0.45511706  1.0
