# generated using pymatgen
data_RbH18RuN6(ClO2)4
_symmetry_space_group_name_H-M   'P 1'
_cell_length_a   10.21194503
_cell_length_b   10.21194503
_cell_length_c   10.21194503
_cell_angle_alpha   41.61660727
_cell_angle_beta   41.61660727
_cell_angle_gamma   41.61660727
_symmetry_Int_Tables_number   1
_chemical_formula_structural   RbH18RuN6(ClO2)4
_chemical_formula_sum   'Rb1 Ru1 H18 N6 Cl4 O8'
_cell_volume   424.57923061
_cell_formula_units_Z   1
loop_
 _symmetry_equiv_pos_site_id
 _symmetry_equiv_pos_as_xyz
  1  'x, y, z'
loop_
 _atom_site_type_symbol
 _atom_site_label
 _atom_site_symmetry_multiplicity
 _atom_site_fract_x
 _atom_site_fract_y
 _atom_site_fract_z
 _atom_site_occupancy
  Ru  Ru0  1  1.00000000  0.00000000  0.00000000  1.0
  H  H1  1  0.80108279  0.02655305  0.36258607  1.0
  H  H2  1  1.02655305  -0.19891721  0.36258607  1.0
  H  H3  1  0.63741393  0.97344695  0.19891721  1.0
  H  H4  1  0.97344695  0.63741393  0.19891721  1.0
  H  H5  1  0.63741393  1.19891721  -0.02655305  1.0
  H  H6  1  1.19891721  0.63741393  -0.02655305  1.0
  H  H7  1  1.19891721  0.97344695  -0.36258607  1.0
  H  H8  1  0.97344695  1.19891721  -0.36258607  1.0
  H  H9  1  1.02655305  0.36258607  -0.19891721  1.0
  H  H10  1  1.36258607  0.02655305  -0.19891721  1.0
  H  H11  1  0.80108279  0.36258607  0.02655305  1.0
  H  H12  1  1.36258607  -0.19891721  0.02655305  1.0
  H  H13  1  0.43111664  0.81272551  -0.18727449  1.0
  H  H14  1  0.81272551  0.43111664  -0.18727449  1.0
  H  H15  1  1.18727449  0.18727449  0.56888336  1.0
  H  H16  1  1.18727449  0.56888336  0.18727449  1.0
  H  H17  1  1.56888336  0.18727449  0.18727449  1.0
  H  H18  1  0.81272551  0.81272551  -0.56888336  1.0
  O  O19  1  1.01399462  0.68365804  -0.31634196  1.0
  O  O20  1  0.68365804  1.01399462  -0.31634196  1.0
  O  O21  1  1.31634196  0.31634196  -0.01399462  1.0
  O  O22  1  1.31634196  -0.01399462  0.31634196  1.0
  O  O23  1  0.98600538  0.31634196  0.31634196  1.0
  O  O24  1  0.68365804  0.68365804  0.01399462  1.0
  O  O25  1  1.13588278  0.13588278  0.13588278  1.0
  O  O26  1  0.86411722  0.86411722  -0.13588278  1.0
  Rb  Rb27  1  0.50000000  0.50000000  0.50000000  1.0
  N  N28  1  1.32347297  -0.09941416  -0.09941416  1.0
  N  N29  1  0.90058584  0.32347297  -0.09941416  1.0
  N  N30  1  1.09941416  1.09941416  -0.32347297  1.0
  N  N31  1  1.09941416  0.67652703  0.09941416  1.0
  N  N32  1  0.67652703  1.09941416  0.09941416  1.0
  N  N33  1  0.90058584  -0.09941416  0.32347297  1.0
  Cl  Cl34  1  1.18815912  0.18815912  0.18815912  1.0
  Cl  Cl35  1  0.81184088  0.81184088  -0.18815912  1.0
  Cl  Cl36  1  0.37457520  0.37457520  0.37457520  1.0
  Cl  Cl37  1  0.62542480  0.62542480  0.62542480  1.0
