# generated using pymatgen
data_Mg3Xe2
_symmetry_space_group_name_H-M   'P 1'
_cell_length_a   17.03435037
_cell_length_b   17.03435037
_cell_length_c   17.03435037
_cell_angle_alpha   167.17567181
_cell_angle_beta   167.17567181
_cell_angle_gamma   18.17460547
_symmetry_Int_Tables_number   1
_chemical_formula_structural   Mg3Xe2
_chemical_formula_sum   'Mg3 Xe2'
_cell_volume   243.50138193
_cell_formula_units_Z   1
loop_
 _symmetry_equiv_pos_site_id
 _symmetry_equiv_pos_as_xyz
  1  'x, y, z'
loop_
 _atom_site_type_symbol
 _atom_site_label
 _atom_site_symmetry_multiplicity
 _atom_site_fract_x
 _atom_site_fract_y
 _atom_site_fract_z
 _atom_site_occupancy
  Mg  Mg0  1  0.04810192  0.04810192  -0.00000000  1.0
  Mg  Mg1  1  0.95189808  0.95189808  1.00000000  1.0
  Mg  Mg2  1  0.50000000  0.50000000  1.00000000  1.0
  Xe  Xe3  1  0.31569609  0.31569609  0.00000000  1.0
  Xe  Xe4  1  0.68430391  0.68430391  1.00000000  1.0
