# generated using pymatgen
data_Ti3FeO7
_symmetry_space_group_name_H-M   'P 1'
_cell_length_a   6.46738541
_cell_length_b   6.46738541
_cell_length_c   6.46738541
_cell_angle_alpha   154.39060370
_cell_angle_beta   64.22258344
_cell_angle_gamma   122.21613472
_symmetry_Int_Tables_number   1
_chemical_formula_structural   Ti3FeO7
_chemical_formula_sum   'Ti3 Fe1 O7'
_cell_volume   98.14182596
_cell_formula_units_Z   1
loop_
 _symmetry_equiv_pos_site_id
 _symmetry_equiv_pos_as_xyz
  1  'x, y, z'
loop_
 _atom_site_type_symbol
 _atom_site_label
 _atom_site_symmetry_multiplicity
 _atom_site_fract_x
 _atom_site_fract_y
 _atom_site_fract_z
 _atom_site_occupancy
  Fe  Fe0  1  0.68063444  0.68063444  -0.00000000  1.0
  Ti  Ti1  1  1.16164409  0.91601488  1.24562921  1.0
  Ti  Ti2  1  0.67038566  0.91601488  0.75437079  1.0
  Ti  Ti3  1  0.21252168  0.71252168  0.50000000  1.0
  O  O4  1  0.50828494  0.39998771  0.10829723  1.0
  O  O5  1  1.29169048  0.39998771  0.89170277  1.0
  O  O6  1  0.92768799  0.61109585  0.31659214  1.0
  O  O7  1  1.29450372  0.61109585  0.68340786  1.0
  O  O8  1  0.00766862  0.00766862  0.00000000  1.0
  O  O9  1  1.58271185  1.23448919  1.34822266  1.0
  O  O10  1  0.88626653  1.23448919  0.65177734  1.0
