# generated using pymatgen
data_RbZn2BCl2O3
_symmetry_space_group_name_H-M   'P 1'
_cell_length_a   9.66538989
_cell_length_b   9.66538989
_cell_length_c   9.66538989
_cell_angle_alpha   30.13597170
_cell_angle_beta   30.13597170
_cell_angle_gamma   30.13597170
_symmetry_Int_Tables_number   1
_chemical_formula_structural   RbZn2BCl2O3
_chemical_formula_sum   'Rb1 Zn2 B1 Cl2 O3'
_cell_volume   201.63838604
_cell_formula_units_Z   1
loop_
 _symmetry_equiv_pos_site_id
 _symmetry_equiv_pos_as_xyz
  1  'x, y, z'
loop_
 _atom_site_type_symbol
 _atom_site_label
 _atom_site_symmetry_multiplicity
 _atom_site_fract_x
 _atom_site_fract_y
 _atom_site_fract_z
 _atom_site_occupancy
  Rb  Rb0  1  0.00000000  0.00000000  0.00000000  1.0
  Zn  Zn1  1  0.19293586  0.19293586  0.19293586  1.0
  Zn  Zn2  1  0.80706414  -0.19293586  -0.19293586  1.0
  B  B3  1  0.50000000  0.50000000  -0.50000000  1.0
  Cl  Cl4  1  0.27527649  0.27527649  0.27527649  1.0
  Cl  Cl5  1  0.72472351  -0.27527649  -0.27527649  1.0
  O  O6  1  0.50000000  0.77522054  -0.77522054  1.0
  O  O7  1  0.22477946  0.50000000  -0.22477946  1.0
  O  O8  1  0.77522054  0.22477946  -0.50000000  1.0
