# generated using pymatgen
data_Gd2Ge2Ru
_symmetry_space_group_name_H-M   'P 1'
_cell_length_a   5.86778122
_cell_length_b   5.86778122
_cell_length_c   10.39852636
_cell_angle_alpha   63.16267111
_cell_angle_beta   116.83732889
_cell_angle_gamma   136.96239589
_symmetry_Int_Tables_number   1
_chemical_formula_structural   Gd2Ge2Ru
_chemical_formula_sum   'Gd4 Ge4 Ru2'
_cell_volume   213.64701029
_cell_formula_units_Z   2
loop_
 _symmetry_equiv_pos_site_id
 _symmetry_equiv_pos_as_xyz
  1  'x, y, z'
loop_
 _atom_site_type_symbol
 _atom_site_label
 _atom_site_symmetry_multiplicity
 _atom_site_fract_x
 _atom_site_fract_y
 _atom_site_fract_z
 _atom_site_occupancy
  Gd  Gd0  1  1.00231989  -1.00231989  0.67427409  1.0
  Gd  Gd1  1  -0.00231989  0.00231989  0.32572591  1.0
  Gd  Gd2  1  0.81563639  0.18436361  0.89261824  1.0
  Gd  Gd3  1  1.18436361  -0.18436361  0.10738176  1.0
  Ge  Ge4  1  0.64929162  0.35070838  0.56722574  1.0
  Ge  Ge5  1  1.35070838  -0.35070838  0.43277426  1.0
  Ge  Ge6  1  0.50797872  0.49202128  0.87344325  1.0
  Ge  Ge7  1  1.49202128  -0.49202128  0.12655675  1.0
  Ru  Ru8  1  0.72616125  -0.72616125  0.37498022  1.0
  Ru  Ru9  1  0.27383875  -0.27383875  0.62501978  1.0
