# generated using pymatgen
data_RbV3(SO7)2
_symmetry_space_group_name_H-M   'P 1'
_cell_length_a   8.46893017
_cell_length_b   8.46893017
_cell_length_c   8.46893017
_cell_angle_alpha   48.15188005
_cell_angle_beta   48.15188005
_cell_angle_gamma   48.15188005
_symmetry_Int_Tables_number   1
_chemical_formula_structural   RbV3(SO7)2
_chemical_formula_sum   'Rb1 V3 S2 O14'
_cell_volume   308.88956637
_cell_formula_units_Z   1
loop_
 _symmetry_equiv_pos_site_id
 _symmetry_equiv_pos_as_xyz
  1  'x, y, z'
loop_
 _atom_site_type_symbol
 _atom_site_label
 _atom_site_symmetry_multiplicity
 _atom_site_fract_x
 _atom_site_fract_y
 _atom_site_fract_z
 _atom_site_occupancy
  Rb  Rb0  1  1.50000000  0.50000000  0.50000000  1.0
  V  V1  1  0.50000000  0.00000000  -0.50000000  1.0
  V  V2  1  0.50000000  -0.50000000  -0.00000000  1.0
  V  V3  1  0.00000000  0.50000000  -0.50000000  1.0
  S  S4  1  0.77691874  0.77691874  0.77691874  1.0
  S  S5  1  1.22308126  1.22308126  0.22308126  1.0
  O  O6  1  1.22667321  0.22667321  0.59196104  1.0
  O  O7  1  1.22667321  0.59196104  0.22667321  1.0
  O  O8  1  1.40803896  0.77332679  0.77332679  1.0
  O  O9  1  1.77332679  0.40803896  0.77332679  1.0
  O  O10  1  1.77332679  0.77332679  0.40803896  1.0
  O  O11  1  1.59196104  0.22667321  0.22667321  1.0
  O  O12  1  1.36617603  1.36617603  0.00991858  1.0
  O  O13  1  1.36617603  1.00991858  0.36617603  1.0
  O  O14  1  0.99008142  0.63382397  0.63382397  1.0
  O  O15  1  1.63382397  -0.00991858  0.63382397  1.0
  O  O16  1  1.63382397  0.63382397  -0.00991858  1.0
  O  O17  1  1.00991858  1.36617603  0.36617603  1.0
  O  O18  1  0.84110474  0.84110474  0.84110474  1.0
  O  O19  1  1.15889526  1.15889526  0.15889526  1.0
