# generated using pymatgen
data_AsS2NF6
_symmetry_space_group_name_H-M   'P 1'
_cell_length_a   5.92979023
_cell_length_b   5.92979023
_cell_length_c   5.55436528
_cell_angle_alpha   87.09490489
_cell_angle_beta   92.90509511
_cell_angle_gamma   109.47813663
_symmetry_Int_Tables_number   1
_chemical_formula_structural   AsS2NF6
_chemical_formula_sum   'As1 S2 N1 F6'
_cell_volume   183.77231874
_cell_formula_units_Z   1
loop_
 _symmetry_equiv_pos_site_id
 _symmetry_equiv_pos_as_xyz
  1  'x, y, z'
loop_
 _atom_site_type_symbol
 _atom_site_label
 _atom_site_symmetry_multiplicity
 _atom_site_fract_x
 _atom_site_fract_y
 _atom_site_fract_z
 _atom_site_occupancy
  As  As0  1  0.50000000  -0.50000000  0.50000000  1.0
  S  S1  1  0.85856139  -0.85856139  0.87254909  1.0
  S  S2  1  0.14143861  -0.14143861  0.12745091  1.0
  N  N3  1  0.00000000  0.00000000  0.00000000  1.0
  F  F4  1  1.42119002  0.20739427  0.64684773  1.0
  F  F5  1  0.79260573  -0.42119002  0.64684773  1.0
  F  F6  1  1.20739427  0.42119002  0.35315227  1.0
  F  F7  1  0.57880998  -0.20739427  0.35315227  1.0
  F  F8  1  0.39041311  -0.39041311  0.74842209  1.0
  F  F9  1  0.60958689  -0.60958689  0.25157791  1.0
