# generated using pymatgen
data_LaN2
_symmetry_space_group_name_H-M   'P 1'
_cell_length_a   6.56844613
_cell_length_b   6.56844613
_cell_length_c   7.97224697
_cell_angle_alpha   90.00000000
_cell_angle_beta   90.00000000
_cell_angle_gamma   120.00000000
_symmetry_Int_Tables_number   1
_chemical_formula_structural   LaN2
_chemical_formula_sum   'La6 N12'
_cell_volume   297.87678752
_cell_formula_units_Z   6
loop_
 _symmetry_equiv_pos_site_id
 _symmetry_equiv_pos_as_xyz
  1  'x, y, z'
loop_
 _atom_site_type_symbol
 _atom_site_label
 _atom_site_symmetry_multiplicity
 _atom_site_fract_x
 _atom_site_fract_y
 _atom_site_fract_z
 _atom_site_occupancy
  N  N0  1  0.33333333  0.66666667  0.48539786  1.0
  N  N1  1  0.66666667  0.33333333  0.48539786  1.0
  N  N2  1  0.33333333  0.66666667  0.64988767  1.0
  N  N3  1  0.66666667  0.33333333  0.64988767  1.0
  N  N4  1  0.00000000  0.00000000  0.48542908  1.0
  N  N5  1  0.00000000  0.00000000  0.64991973  1.0
  N  N6  1  0.33333333  0.66666667  -0.01460314  1.0
  N  N7  1  0.66666667  0.33333333  -0.01460314  1.0
  N  N8  1  0.00000000  0.00000000  -0.01456671  1.0
  N  N9  1  0.33333333  0.66666667  0.14988374  1.0
  N  N10  1  0.66666667  0.33333333  0.14988374  1.0
  N  N11  1  0.00000000  0.00000000  0.14992034  1.0
  La  La12  1  0.66666742  0.66666742  0.31769308  1.0
  La  La13  1  -0.00000000  0.33333258  0.31769308  1.0
  La  La14  1  0.33333258  0.00000000  0.31769308  1.0
  La  La15  1  0.33333131  0.33333131  0.81769535  1.0
  La  La16  1  -0.00000000  0.66666869  0.81769535  1.0
  La  La17  1  0.66666869  0.00000000  0.81769535  1.0
