# generated using pymatgen
data_Zr6Zn16Cu7
_symmetry_space_group_name_H-M   'P 1'
_cell_length_a   8.56642011
_cell_length_b   8.56642011
_cell_length_c   8.56642011
_cell_angle_alpha   60.00000000
_cell_angle_beta   60.00000000
_cell_angle_gamma   60.00000000
_symmetry_Int_Tables_number   1
_chemical_formula_structural   Zr6Zn16Cu7
_chemical_formula_sum   'Zr6 Zn16 Cu7'
_cell_volume   444.51161117
_cell_formula_units_Z   1
loop_
 _symmetry_equiv_pos_site_id
 _symmetry_equiv_pos_as_xyz
  1  'x, y, z'
loop_
 _atom_site_type_symbol
 _atom_site_label
 _atom_site_symmetry_multiplicity
 _atom_site_fract_x
 _atom_site_fract_y
 _atom_site_fract_z
 _atom_site_occupancy
  Zr  Zr0  1  -0.69438900  0.69438900  0.69438900  1.0
  Zr  Zr1  1  -0.30561100  0.30561100  0.69438900  1.0
  Zr  Zr2  1  0.69438900  0.69438900  -0.69438900  1.0
  Zr  Zr3  1  0.30561100  1.30561100  -0.30561100  1.0
  Zr  Zr4  1  0.30561100  -0.30561100  1.30561100  1.0
  Zr  Zr5  1  -0.30561100  0.30561100  0.30561100  1.0
  Zn  Zn6  1  0.66680332  0.66680332  -0.33319668  1.0
  Zn  Zn7  1  1.33319668  0.33319668  0.00040995  1.0
  Zn  Zn8  1  1.33319668  0.00040995  0.33319668  1.0
  Zn  Zn9  1  0.99959005  0.66680332  -0.33319668  1.0
  Zn  Zn10  1  1.00040995  0.33319668  0.33319668  1.0
  Zn  Zn11  1  0.66680332  0.99959005  -0.33319668  1.0
  Zn  Zn12  1  0.66680332  0.66680332  -0.00040995  1.0
  Zn  Zn13  1  1.33319668  0.33319668  0.33319668  1.0
  Zn  Zn14  1  0.88011044  0.88011044  -0.11988956  1.0
  Zn  Zn15  1  1.11988956  0.11988956  0.64033132  1.0
  Zn  Zn16  1  1.11988956  0.64033132  0.11988956  1.0
  Zn  Zn17  1  0.35966868  0.88011044  -0.11988956  1.0
  Zn  Zn18  1  1.64033132  0.11988956  0.11988956  1.0
  Zn  Zn19  1  0.88011044  0.35966868  -0.11988956  1.0
  Zn  Zn20  1  0.88011044  0.88011044  -0.64033132  1.0
  Zn  Zn21  1  1.11988956  0.11988956  0.11988956  1.0
  Cu  Cu22  1  1.50000000  -0.00000000  0.00000000  1.0
  Cu  Cu23  1  1.00000000  0.50000000  -0.50000000  1.0
  Cu  Cu24  1  -0.00000000  1.50000000  0.00000000  1.0
  Cu  Cu25  1  0.50000000  1.00000000  -0.50000000  1.0
  Cu  Cu26  1  0.00000000  -0.00000000  0.50000000  1.0
  Cu  Cu27  1  0.50000000  -0.50000000  1.00000000  1.0
  Cu  Cu28  1  0.00000000  0.00000000  0.00000000  1.0
