# generated using pymatgen
data_Si2H2O3
_symmetry_space_group_name_H-M   'P 1'
_cell_length_a   7.71959990
_cell_length_b   7.71959990
_cell_length_c   7.71959990
_cell_angle_alpha   75.85027942
_cell_angle_beta   75.85027942
_cell_angle_gamma   75.85027942
_symmetry_Int_Tables_number   1
_chemical_formula_structural   Si2H2O3
_chemical_formula_sum   'Si8 H8 O12'
_cell_volume   424.10997932
_cell_formula_units_Z   4
loop_
 _symmetry_equiv_pos_site_id
 _symmetry_equiv_pos_as_xyz
  1  'x, y, z'
loop_
 _atom_site_type_symbol
 _atom_site_label
 _atom_site_symmetry_multiplicity
 _atom_site_fract_x
 _atom_site_fract_y
 _atom_site_fract_z
 _atom_site_occupancy
  Si  Si0  1  0.83463360  -0.25391693  0.25236654  1.0
  Si  Si1  1  0.25391693  0.74763346  -0.83463360  1.0
  Si  Si2  1  0.74763346  0.16536640  -0.74608307  1.0
  Si  Si3  1  0.16536640  0.25391693  -0.25236654  1.0
  Si  Si4  1  0.74608307  0.25236654  -0.16536640  1.0
  Si  Si5  1  1.25236654  -0.16536640  -0.25391693  1.0
  Si  Si6  1  0.83303843  0.83303843  -0.16696157  1.0
  Si  Si7  1  1.16696157  1.16696157  0.16696157  1.0
  H  H8  1  0.38886939  0.74484706  -0.39083803  1.0
  H  H9  1  0.25515294  0.39083803  -0.38886939  1.0
  H  H10  1  0.39083803  0.61113061  -0.74484706  1.0
  H  H11  1  0.61113061  0.25515294  -0.60916197  1.0
  H  H12  1  0.74484706  0.60916197  -0.61113061  1.0
  H  H13  1  0.60916197  0.38886939  -0.25515294  1.0
  H  H14  1  0.74291353  0.74291353  -0.25708647  1.0
  H  H15  1  1.25708647  1.25708647  0.25708647  1.0
  O  O16  1  0.78938540  -0.24532491  0.05333090  1.0
  O  O17  1  0.24532491  0.94666910  -0.78938540  1.0
  O  O18  1  0.94666910  0.21061460  -0.75467509  1.0
  O  O19  1  0.21061460  0.24532491  -0.05333090  1.0
  O  O20  1  0.75467509  0.05333090  -0.21061460  1.0
  O  O21  1  1.05333090  -0.21061460  -0.24532491  1.0
  O  O22  1  0.68817810  0.24302155  -0.94491656  1.0
  O  O23  1  0.75697845  -0.05508344  0.31182190  1.0
  O  O24  1  0.94491656  0.31182190  -0.24302155  1.0
  O  O25  1  1.31182190  -0.24302155  -0.05508344  1.0
  O  O26  1  0.24302155  0.05508344  -0.31182190  1.0
  O  O27  1  0.05508344  0.68817810  -0.75697845  1.0
