# generated using pymatgen
data_Zn2P2H12O11
_symmetry_space_group_name_H-M   'P 1'
_cell_length_a   7.57234436
_cell_length_b   9.57374714
_cell_length_c   7.67803310
_cell_angle_alpha   89.15531363
_cell_angle_beta   88.52204603
_cell_angle_gamma   88.67660170
_symmetry_Int_Tables_number   1
_chemical_formula_structural   Zn2P2H12O11
_chemical_formula_sum   'Zn4 P4 H24 O22'
_cell_volume   556.23512993
_cell_formula_units_Z   2
loop_
 _symmetry_equiv_pos_site_id
 _symmetry_equiv_pos_as_xyz
  1  'x, y, z'
loop_
 _atom_site_type_symbol
 _atom_site_label
 _atom_site_symmetry_multiplicity
 _atom_site_fract_x
 _atom_site_fract_y
 _atom_site_fract_z
 _atom_site_occupancy
  Zn  Zn0  1  0.00000000  0.00000000  0.00000000  1.0
  Zn  Zn1  1  -0.49929512  -0.25042507  -0.00057467  1.0
  Zn  Zn2  1  -0.50070488  -0.74957493  -0.99942533  1.0
  Zn  Zn3  1  -0.50000000  -0.50000000  -0.50000000  1.0
  P  P4  1  -0.37784135  -0.00971009  -0.22290063  1.0
  P  P5  1  -0.62215865  -0.99028991  -0.77709937  1.0
  P  P6  1  -0.72770934  -0.48448361  -0.11435959  1.0
  P  P7  1  -0.27229066  -0.51551639  -0.88564041  1.0
  H  H8  1  -0.90100006  -0.47073231  -0.17821929  1.0
  H  H9  1  -0.09899994  -0.52926769  -0.82178071  1.0
  H  H10  1  -0.29644242  -0.01422901  -0.39074107  1.0
  H  H11  1  -0.70355758  -0.98577099  -0.60925893  1.0
  H  H12  1  -0.75113177  -0.09525645  -0.24322562  1.0
  H  H13  1  -0.24886823  -0.90474355  -0.75677438  1.0
  H  H14  1  -0.93065698  -0.13758926  -0.33118588  1.0
  H  H15  1  -0.06934302  -0.86241074  -0.66881412  1.0
  H  H16  1  -0.10684474  -0.25696044  -0.91435462  1.0
  H  H17  1  -0.89315526  -0.74303956  -0.08564538  1.0
  H  H18  1  -0.89787378  -0.26429362  -0.91869279  1.0
  H  H19  1  -0.10212622  -0.73570638  -0.08130721  1.0
  H  H20  1  -0.83948951  -0.38254122  -0.56361883  1.0
  H  H21  1  -0.16051049  -0.61745878  -0.43638117  1.0
  H  H22  1  -0.73843391  -0.42722212  -0.73860085  1.0
  H  H23  1  -0.26156609  -0.57277788  -0.26139915  1.0
  H  H24  1  -0.45152859  -0.24173510  -0.40489254  1.0
  H  H25  1  -0.54847141  -0.75826490  -0.59510746  1.0
  H  H26  1  -0.44793346  -0.22942027  -0.61058994  1.0
  H  H27  1  -0.55206654  -0.77057973  -0.38941006  1.0
  H  H28  1  -0.13318805  -0.28326576  -0.49020367  1.0
  H  H29  1  -0.86681195  -0.71673424  -0.50979633  1.0
  H  H30  1  -0.01411770  -0.20990018  -0.62871972  1.0
  H  H31  1  -0.98588230  -0.79009982  -0.37128028  1.0
  O  O32  1  -0.87939621  -0.07540926  -0.24528148  1.0
  O  O33  1  -0.12060379  -0.92459074  -0.75471852  1.0
  O  O34  1  -0.24293166  -0.03693828  -0.08226532  1.0
  O  O35  1  -0.75706834  -0.96306172  -0.91773468  1.0
  O  O36  1  -0.00088653  -0.20610420  -0.87785053  1.0
  O  O37  1  -0.99911347  -0.79389580  -0.12214947  1.0
  O  O38  1  -0.71540064  -0.37152459  -0.96905931  1.0
  O  O39  1  -0.28459936  -0.62847541  -0.03094069  1.0
  O  O40  1  -0.51209481  -0.13298810  -0.21843854  1.0
  O  O41  1  -0.48790519  -0.86701190  -0.78156146  1.0
  O  O42  1  -0.28232519  -0.36447732  -0.96222089  1.0
  O  O43  1  -0.71767481  -0.63552268  -0.03777911  1.0
  O  O44  1  -0.47137591  -0.86419241  -0.21410950  1.0
  O  O45  1  -0.52862409  -0.13580759  -0.78589050  1.0
  O  O46  1  -0.75182343  -0.45020528  -0.61332772  1.0
  O  O47  1  -0.24817657  -0.54979472  -0.38667228  1.0
  O  O48  1  -0.40279996  -0.28711682  -0.51147192  1.0
  O  O49  1  -0.59720004  -0.71288318  -0.48852808  1.0
  O  O50  1  -0.59172827  -0.45220248  -0.25769697  1.0
  O  O51  1  -0.40827173  -0.54779752  -0.74230303  1.0
  O  O52  1  -0.01209574  -0.24985210  -0.50926256  1.0
  O  O53  1  -0.98790426  -0.75014790  -0.49073744  1.0
