# generated using pymatgen
data_GeXeF10
_symmetry_space_group_name_H-M   'P 1'
_cell_length_a   14.17216996
_cell_length_b   7.24558133
_cell_length_c   8.09273190
_cell_angle_alpha   90.00000000
_cell_angle_beta   90.00000000
_cell_angle_gamma   90.00000000
_symmetry_Int_Tables_number   1
_chemical_formula_structural   GeXeF10
_chemical_formula_sum   'Ge4 Xe4 F40'
_cell_volume   831.00711242
_cell_formula_units_Z   4
loop_
 _symmetry_equiv_pos_site_id
 _symmetry_equiv_pos_as_xyz
  1  'x, y, z'
loop_
 _atom_site_type_symbol
 _atom_site_label
 _atom_site_symmetry_multiplicity
 _atom_site_fract_x
 _atom_site_fract_y
 _atom_site_fract_z
 _atom_site_occupancy
  Ge  Ge0  1  0.50000000  0.00000000  0.50000000  1.0
  Ge  Ge1  1  0.50000000  0.50000000  0.50000000  1.0
  Ge  Ge2  1  0.00000000  0.00000000  0.00000000  1.0
  Ge  Ge3  1  0.00000000  0.50000000  0.00000000  1.0
  Xe  Xe4  1  0.36730823  0.75000000  0.82407597  1.0
  Xe  Xe5  1  0.86730823  0.75000000  0.67592403  1.0
  Xe  Xe6  1  0.63269177  0.25000000  0.17592403  1.0
  Xe  Xe7  1  0.13269177  0.25000000  0.32407597  1.0
  F  F8  1  0.02119482  0.93783504  0.78855447  1.0
  F  F9  1  0.02119482  0.56216496  0.78855447  1.0
  F  F10  1  0.52119482  0.93783504  0.71144553  1.0
  F  F11  1  0.52119482  0.56216496  0.71144553  1.0
  F  F12  1  0.97880518  0.43783504  0.21144553  1.0
  F  F13  1  0.97880518  0.06216496  0.21144553  1.0
  F  F14  1  0.47880518  0.43783504  0.28855447  1.0
  F  F15  1  0.47880518  0.06216496  0.28855447  1.0
  F  F16  1  0.35201470  0.48686573  0.86150686  1.0
  F  F17  1  0.35201470  0.01313427  0.86150686  1.0
  F  F18  1  0.85201470  0.48686573  0.63849314  1.0
  F  F19  1  0.85201470  0.01313427  0.63849314  1.0
  F  F20  1  0.64798530  0.98686573  0.13849314  1.0
  F  F21  1  0.64798530  0.51313427  0.13849314  1.0
  F  F22  1  0.14798530  0.98686573  0.36150686  1.0
  F  F23  1  0.14798530  0.51313427  0.36150686  1.0
  F  F24  1  0.02836266  0.75000000  0.06945038  1.0
  F  F25  1  0.52836266  0.75000000  0.43054962  1.0
  F  F26  1  0.97163734  0.25000000  0.93054962  1.0
  F  F27  1  0.47163734  0.25000000  0.56945038  1.0
  F  F28  1  0.24424441  0.75000000  0.71940708  1.0
  F  F29  1  0.74424441  0.75000000  0.78059292  1.0
  F  F30  1  0.75575559  0.25000000  0.28059292  1.0
  F  F31  1  0.25575559  0.25000000  0.21940708  1.0
  F  F32  1  0.28880516  0.75000000  0.01833953  1.0
  F  F33  1  0.78880516  0.75000000  0.48166047  1.0
  F  F34  1  0.71119484  0.25000000  0.98166047  1.0
  F  F35  1  0.21119484  0.25000000  0.51833953  1.0
  F  F36  1  0.37877872  0.93784694  0.53332383  1.0
  F  F37  1  0.37877872  0.56215306  0.53332383  1.0
  F  F38  1  0.87877872  0.93784694  0.96667617  1.0
  F  F39  1  0.87877872  0.56215306  0.96667617  1.0
  F  F40  1  0.62122128  0.43784694  0.46667617  1.0
  F  F41  1  0.62122128  0.06215306  0.46667617  1.0
  F  F42  1  0.12122128  0.43784694  0.03332383  1.0
  F  F43  1  0.12122128  0.06215306  0.03332383  1.0
  F  F44  1  0.46433320  0.75000000  -0.00695844  1.0
  F  F45  1  0.96433320  0.75000000  0.50695844  1.0
  F  F46  1  0.53566680  0.25000000  1.00695844  1.0
  F  F47  1  0.03566680  0.25000000  0.49304156  1.0
