# generated using pymatgen
data_Fe3Sb2(BrO)4
_symmetry_space_group_name_H-M   'P 1'
_cell_length_a   7.24221968
_cell_length_b   7.24221968
_cell_length_c   14.88490203
_cell_angle_alpha   90.00000000
_cell_angle_beta   90.00000000
_cell_angle_gamma   128.66652818
_symmetry_Int_Tables_number   1
_chemical_formula_structural   Fe3Sb2(BrO)4
_chemical_formula_sum   'Fe6 Sb4 Br8 O8'
_cell_volume   609.57436009
_cell_formula_units_Z   2
loop_
 _symmetry_equiv_pos_site_id
 _symmetry_equiv_pos_as_xyz
  1  'x, y, z'
loop_
 _atom_site_type_symbol
 _atom_site_label
 _atom_site_symmetry_multiplicity
 _atom_site_fract_x
 _atom_site_fract_y
 _atom_site_fract_z
 _atom_site_occupancy
  Fe  Fe0  1  0.00000000  0.00000000  0.00000000  1.0
  Fe  Fe1  1  0.50000000  0.50000000  0.50000000  1.0
  Fe  Fe2  1  0.25320559  1.24679441  0.25000000  1.0
  Fe  Fe3  1  0.24679441  0.25320559  0.75000000  1.0
  Fe  Fe4  1  0.74679441  0.75320559  0.75000000  1.0
  Fe  Fe5  1  -0.24679441  0.74679441  0.25000000  1.0
  Br  Br6  1  0.16012320  0.83987680  0.11376025  1.0
  Br  Br7  1  -0.16012320  0.16012320  0.88623975  1.0
  Br  Br8  1  0.33987680  0.66012320  0.61376025  1.0
  Br  Br9  1  -0.33987680  0.33987680  0.38623975  1.0
  Br  Br10  1  0.11941091  0.88058909  0.83968547  1.0
  Br  Br11  1  -0.11941091  0.11941091  0.16031453  1.0
  Br  Br12  1  0.38058909  0.61941091  0.33968547  1.0
  Br  Br13  1  -0.38058909  0.38058909  0.66031453  1.0
  Sb  Sb14  1  -0.39135484  0.39135484  0.05833937  1.0
  Sb  Sb15  1  0.39135484  0.60864516  0.94166063  1.0
  Sb  Sb16  1  -0.10864516  0.10864516  0.55833937  1.0
  Sb  Sb17  1  0.10864516  0.89135484  0.44166063  1.0
  O  O18  1  0.30337838  0.30337838  0.00000000  1.0
  O  O19  1  0.80337838  0.80337838  0.50000000  1.0
  O  O20  1  0.69662162  0.69662162  0.00000000  1.0
  O  O21  1  0.19662162  0.19662162  0.50000000  1.0
  O  O22  1  -0.46161235  0.46161235  0.17705636  1.0
  O  O23  1  0.46161235  0.53838765  0.82294364  1.0
  O  O24  1  -0.03838765  0.03838765  0.67705636  1.0
  O  O25  1  0.03838765  0.96161235  0.32294364  1.0
