# generated using pymatgen
data_YW2O9
_symmetry_space_group_name_H-M   'P 1'
_cell_length_a   6.00645006
_cell_length_b   8.58831271
_cell_length_c   6.79133718
_cell_angle_alpha   90.00000000
_cell_angle_beta   104.10331533
_cell_angle_gamma   90.00000000
_symmetry_Int_Tables_number   1
_chemical_formula_structural   YW2O9
_chemical_formula_sum   'Y2 W4 O18'
_cell_volume   339.77320581
_cell_formula_units_Z   2
loop_
 _symmetry_equiv_pos_site_id
 _symmetry_equiv_pos_as_xyz
  1  'x, y, z'
loop_
 _atom_site_type_symbol
 _atom_site_label
 _atom_site_symmetry_multiplicity
 _atom_site_fract_x
 _atom_site_fract_y
 _atom_site_fract_z
 _atom_site_occupancy
  W  W0  1  0.29309604  0.94558416  0.31268677  1.0
  W  W1  1  0.29309604  0.55441584  0.31268677  1.0
  W  W2  1  0.70690396  0.44558416  0.68731323  1.0
  W  W3  1  0.70690396  0.05441584  0.68731323  1.0
  Y  Y4  1  0.23148439  0.75000000  0.77667262  1.0
  Y  Y5  1  0.76851561  0.25000000  0.22332738  1.0
  O  O6  1  0.07291574  0.42167604  0.33053314  1.0
  O  O7  1  0.07291574  0.07832396  0.33053314  1.0
  O  O8  1  0.92708426  0.92167604  0.66946686  1.0
  O  O9  1  0.92708426  0.57832396  0.66946686  1.0
  O  O10  1  0.44124079  0.92602087  0.63447083  1.0
  O  O11  1  0.44124079  0.57397913  0.63447083  1.0
  O  O12  1  0.55875921  0.42602087  0.36552917  1.0
  O  O13  1  0.55875921  0.07397913  0.36552917  1.0
  O  O14  1  0.15362289  0.75000000  0.38027174  1.0
  O  O15  1  0.84637711  0.25000000  0.61972826  1.0
  O  O16  1  0.62367031  0.75000000  1.00155648  1.0
  O  O17  1  0.37632969  0.25000000  -0.00155648  1.0
  O  O18  1  0.52384690  0.75000000  0.28625889  1.0
  O  O19  1  0.47615310  0.25000000  0.71374111  1.0
  O  O20  1  0.24113328  0.92007668  0.04441179  1.0
  O  O21  1  0.24113328  0.57992332  0.04441179  1.0
  O  O22  1  0.75886672  0.42007668  0.95558821  1.0
  O  O23  1  0.75886672  0.07992332  0.95558821  1.0
