# generated using pymatgen
data_LiNbGeO5
_symmetry_space_group_name_H-M   'P 1'
_cell_length_a   7.86981440
_cell_length_b   6.77114664
_cell_length_c   7.60880591
_cell_angle_alpha   90.00000000
_cell_angle_beta   90.00000000
_cell_angle_gamma   90.00000000
_symmetry_Int_Tables_number   1
_chemical_formula_structural   LiNbGeO5
_chemical_formula_sum   'Li4 Nb4 Ge4 O20'
_cell_volume   405.45551826
_cell_formula_units_Z   4
loop_
 _symmetry_equiv_pos_site_id
 _symmetry_equiv_pos_as_xyz
  1  'x, y, z'
loop_
 _atom_site_type_symbol
 _atom_site_label
 _atom_site_symmetry_multiplicity
 _atom_site_fract_x
 _atom_site_fract_y
 _atom_site_fract_z
 _atom_site_occupancy
  Li  Li0  1  0.50000000  0.00000000  0.50000000  1.0
  Li  Li1  1  0.50000000  0.50000000  0.50000000  1.0
  Li  Li2  1  0.00000000  0.00000000  0.00000000  1.0
  Li  Li3  1  0.00000000  0.50000000  0.00000000  1.0
  Nb  Nb4  1  0.33765524  0.75000000  0.77336164  1.0
  Nb  Nb5  1  0.83765524  0.75000000  0.72663836  1.0
  Nb  Nb6  1  0.66234476  0.25000000  0.22663836  1.0
  Nb  Nb7  1  0.16234476  0.25000000  0.27336164  1.0
  Ge  Ge8  1  0.13049685  0.75000000  0.36895787  1.0
  Ge  Ge9  1  0.63049685  0.75000000  0.13104213  1.0
  Ge  Ge10  1  0.86950315  0.25000000  0.63104213  1.0
  Ge  Ge11  1  0.36950315  0.25000000  0.86895787  1.0
  O  O12  1  0.11642146  0.75000000  0.83757100  1.0
  O  O13  1  0.61642146  0.75000000  0.66242900  1.0
  O  O14  1  0.88357854  0.25000000  0.16242900  1.0
  O  O15  1  0.38357854  0.25000000  0.33757100  1.0
  O  O16  1  0.37608062  0.46045019  0.73328474  1.0
  O  O17  1  0.37608062  0.03954981  0.73328474  1.0
  O  O18  1  0.87608062  0.46045019  0.76671526  1.0
  O  O19  1  0.87608062  0.03954981  0.76671526  1.0
  O  O20  1  0.62391938  0.96045019  0.26671526  1.0
  O  O21  1  0.62391938  0.53954981  0.26671526  1.0
  O  O22  1  0.12391938  0.96045019  0.23328474  1.0
  O  O23  1  0.12391938  0.53954981  0.23328474  1.0
  O  O24  1  0.44415935  0.75000000  -0.00104420  1.0
  O  O25  1  0.94415935  0.75000000  0.50104420  1.0
  O  O26  1  0.55584065  0.25000000  1.00104420  1.0
  O  O27  1  0.05584065  0.25000000  0.49895580  1.0
  O  O28  1  0.31542861  0.75000000  0.50173521  1.0
  O  O29  1  0.81542861  0.75000000  0.99826479  1.0
  O  O30  1  0.68457139  0.25000000  0.49826479  1.0
  O  O31  1  0.18457139  0.25000000  0.00173521  1.0
