# generated using pymatgen
data_Mn2FeReO6
_symmetry_space_group_name_H-M   'P 1'
_cell_length_a   5.23308649
_cell_length_b   5.34006671
_cell_length_c   9.29394459
_cell_angle_alpha   90.00000000
_cell_angle_beta   124.00780524
_cell_angle_gamma   90.00000000
_symmetry_Int_Tables_number   1
_chemical_formula_structural   Mn2FeReO6
_chemical_formula_sum   'Mn4 Fe2 Re2 O12'
_cell_volume   215.29749460
_cell_formula_units_Z   2
loop_
 _symmetry_equiv_pos_site_id
 _symmetry_equiv_pos_as_xyz
  1  'x, y, z'
loop_
 _atom_site_type_symbol
 _atom_site_label
 _atom_site_symmetry_multiplicity
 _atom_site_fract_x
 _atom_site_fract_y
 _atom_site_fract_z
 _atom_site_occupancy
  Fe  Fe0  1  0.50000000  0.00000000  0.50000000  1.0
  Fe  Fe1  1  0.50000000  0.50000000  -0.00000000  1.0
  Mn  Mn2  1  0.24867126  0.45696417  0.24969239  1.0
  Mn  Mn3  1  0.24867126  0.04303583  0.74969239  1.0
  Mn  Mn4  1  0.75132874  0.95696417  0.25030761  1.0
  Mn  Mn5  1  0.75132874  0.54303583  0.75030761  1.0
  Re  Re6  1  0.00000000  0.00000000  0.00000000  1.0
  Re  Re7  1  -0.00000000  0.50000000  0.50000000  1.0
  O  O8  1  0.89673238  0.69149448  0.06649284  1.0
  O  O9  1  0.89673238  0.80850552  0.56649284  1.0
  O  O10  1  0.10326762  0.19149448  0.43350716  1.0
  O  O11  1  0.10326762  0.30850552  0.93350716  1.0
  O  O12  1  0.74463779  0.17808519  0.05808463  1.0
  O  O13  1  0.74463779  0.32191481  0.55808463  1.0
  O  O14  1  0.25536221  0.67808519  0.44191537  1.0
  O  O15  1  0.25536221  0.82191481  0.94191537  1.0
  O  O16  1  0.35865169  0.06794412  0.23857444  1.0
  O  O17  1  0.35865169  0.43205588  0.73857444  1.0
  O  O18  1  0.64134831  0.56794412  0.26142556  1.0
  O  O19  1  0.64134831  0.93205588  0.76142556  1.0
