# generated using pymatgen
data_AlSb2(SeCl2)2
_symmetry_space_group_name_H-M   'P 1'
_cell_length_a   9.69549909
_cell_length_b   12.57316978
_cell_length_c   11.35567762
_cell_angle_alpha   66.14197441
_cell_angle_beta   72.03646933
_cell_angle_gamma   78.74263544
_symmetry_Int_Tables_number   1
_chemical_formula_structural   AlSb2(SeCl2)2
_chemical_formula_sum   'Al4 Sb8 Se8 Cl16'
_cell_volume   1200.33409415
_cell_formula_units_Z   4
loop_
 _symmetry_equiv_pos_site_id
 _symmetry_equiv_pos_as_xyz
  1  'x, y, z'
loop_
 _atom_site_type_symbol
 _atom_site_label
 _atom_site_symmetry_multiplicity
 _atom_site_fract_x
 _atom_site_fract_y
 _atom_site_fract_z
 _atom_site_occupancy
  Al  Al0  1  -0.69939083  -0.94980409  -0.68899557  1.0
  Al  Al1  1  -0.30060917  -0.05019591  -0.31100443  1.0
  Al  Al2  1  -0.38114672  -0.54033498  -0.80077975  1.0
  Al  Al3  1  -0.61885328  -0.45966502  -0.19922025  1.0
  Sb  Sb4  1  -0.94796952  -0.81752818  -0.37768852  1.0
  Sb  Sb5  1  -0.05203048  -0.18247182  -0.62231148  1.0
  Sb  Sb6  1  -0.94923534  -0.68106353  -0.13869538  1.0
  Sb  Sb7  1  -0.05076466  -0.31893647  -0.86130462  1.0
  Sb  Sb8  1  -0.85298086  -0.92745656  -0.98702021  1.0
  Sb  Sb9  1  -0.14701914  -0.07254344  -0.01297979  1.0
  Sb  Sb10  1  -0.79796452  -0.48929281  -0.56106037  1.0
  Sb  Sb11  1  -0.20203548  -0.51070719  -0.43893963  1.0
  Se  Se12  1  -0.98517035  -0.58393310  -0.60988349  1.0
  Se  Se13  1  -0.01482965  -0.41606690  -0.39011651  1.0
  Se  Se14  1  -0.84403554  -0.26309433  -0.78952404  1.0
  Se  Se15  1  -0.15596446  -0.73690567  -0.21047596  1.0
  Se  Se16  1  -0.75176867  -0.71344142  -0.34757266  1.0
  Se  Se17  1  -0.24823133  -0.28655858  -0.65242734  1.0
  Se  Se18  1  -0.11908176  -0.98360299  -0.84007186  1.0
  Se  Se19  1  -0.88091824  -0.01639701  -0.15992814  1.0
  Cl  Cl20  1  -0.88393875  -0.84047412  -0.76121923  1.0
  Cl  Cl21  1  -0.11606125  -0.15952588  -0.23878077  1.0
  Cl  Cl22  1  -0.65354377  -0.88554689  -0.55529092  1.0
  Cl  Cl23  1  -0.34645623  -0.11445311  -0.44470908  1.0
  Cl  Cl24  1  -0.59959659  -0.55838629  -0.80072211  1.0
  Cl  Cl25  1  -0.40040341  -0.44161371  -0.19927789  1.0
  Cl  Cl26  1  -0.51512214  -0.94696648  -0.85221584  1.0
  Cl  Cl27  1  -0.48487786  -0.05303352  -0.14778416  1.0
  Cl  Cl28  1  -0.38078386  -0.58586876  -0.59532868  1.0
  Cl  Cl29  1  -0.61921614  -0.41413124  -0.40467132  1.0
  Cl  Cl30  1  -0.33730924  -0.35820886  -0.90920034  1.0
  Cl  Cl31  1  -0.66269076  -0.64179114  -0.09079966  1.0
  Cl  Cl32  1  -0.23129989  -0.87517031  -0.42236557  1.0
  Cl  Cl33  1  -0.76870011  -0.12482969  -0.57763443  1.0
  Cl  Cl34  1  -0.22382522  -0.65370417  -0.88452915  1.0
  Cl  Cl35  1  -0.77617478  -0.34629583  -0.11547085  1.0
