# generated using pymatgen
data_C3O2
_symmetry_space_group_name_H-M   'P 1'
_cell_length_a   10.41035305
_cell_length_b   13.52664281
_cell_length_c   5.60570579
_cell_angle_alpha   90.00000000
_cell_angle_beta   90.00000000
_cell_angle_gamma   90.00000000
_symmetry_Int_Tables_number   1
_chemical_formula_structural   C3O2
_chemical_formula_sum   'C24 O16'
_cell_volume   789.37938582
_cell_formula_units_Z   8
loop_
 _symmetry_equiv_pos_site_id
 _symmetry_equiv_pos_as_xyz
  1  'x, y, z'
loop_
 _atom_site_type_symbol
 _atom_site_label
 _atom_site_symmetry_multiplicity
 _atom_site_fract_x
 _atom_site_fract_y
 _atom_site_fract_z
 _atom_site_occupancy
  C  C0  1  0.42518254  0.99725378  0.68046473  1.0
  C  C1  1  0.42518254  0.50274622  0.68046473  1.0
  C  C2  1  0.92518254  0.99725378  0.81953527  1.0
  C  C3  1  0.92518254  0.50274622  0.81953527  1.0
  C  C4  1  0.57481746  0.49725378  0.31953527  1.0
  C  C5  1  0.57481746  0.00274622  0.31953527  1.0
  C  C6  1  0.07481746  0.49725378  0.18046473  1.0
  C  C7  1  0.07481746  0.00274622  0.18046473  1.0
  C  C8  1  0.36162118  0.75000000  0.31341969  1.0
  C  C9  1  0.86162118  0.75000000  0.18658031  1.0
  C  C10  1  0.63837882  0.25000000  0.68658031  1.0
  C  C11  1  0.13837882  0.25000000  0.81341969  1.0
  C  C12  1  0.21120541  0.75000000  0.67352887  1.0
  C  C13  1  0.71120541  0.75000000  0.82647113  1.0
  C  C14  1  0.78879459  0.25000000  0.32647113  1.0
  C  C15  1  0.28879459  0.25000000  0.17352887  1.0
  C  C16  1  0.78636054  0.75000000  0.00665118  1.0
  C  C17  1  0.28636054  0.75000000  0.49334882  1.0
  C  C18  1  0.21363946  0.25000000  0.99334882  1.0
  C  C19  1  0.71363946  0.25000000  0.50665118  1.0
  C  C20  1  0.50000000  0.00000000  0.50000000  1.0
  C  C21  1  0.50000000  0.50000000  0.50000000  1.0
  C  C22  1  0.00000000  0.00000000  0.00000000  1.0
  C  C23  1  0.00000000  0.50000000  0.00000000  1.0
  O  O24  1  0.35662074  0.99466750  0.84659470  1.0
  O  O25  1  0.35662074  0.50533250  0.84659470  1.0
  O  O26  1  0.85662074  0.99466750  0.65340530  1.0
  O  O27  1  0.85662074  0.50533250  0.65340530  1.0
  O  O28  1  0.64337926  0.49466750  0.15340530  1.0
  O  O29  1  0.64337926  0.00533250  0.15340530  1.0
  O  O30  1  0.14337926  0.49466750  0.34659470  1.0
  O  O31  1  0.14337926  0.00533250  0.34659470  1.0
  O  O32  1  0.43075273  0.75000000  0.14795187  1.0
  O  O33  1  0.93075273  0.75000000  0.35204813  1.0
  O  O34  1  0.56924727  0.25000000  0.85204813  1.0
  O  O35  1  0.06924727  0.25000000  0.64795187  1.0
  O  O36  1  0.14252740  0.75000000  0.83952322  1.0
  O  O37  1  0.64252740  0.75000000  0.66047678  1.0
  O  O38  1  0.85747260  0.25000000  0.16047678  1.0
  O  O39  1  0.35747260  0.25000000  0.33952322  1.0
