# generated using pymatgen
data_SrZn5
_symmetry_space_group_name_H-M   'P 1'
_cell_length_a   13.16998126
_cell_length_b   5.29419291
_cell_length_c   6.71764739
_cell_angle_alpha   90.00000000
_cell_angle_beta   90.00000000
_cell_angle_gamma   90.00000000
_symmetry_Int_Tables_number   1
_chemical_formula_structural   SrZn5
_chemical_formula_sum   'Sr4 Zn20'
_cell_volume   468.38407756
_cell_formula_units_Z   4
loop_
 _symmetry_equiv_pos_site_id
 _symmetry_equiv_pos_as_xyz
  1  'x, y, z'
loop_
 _atom_site_type_symbol
 _atom_site_label
 _atom_site_symmetry_multiplicity
 _atom_site_fract_x
 _atom_site_fract_y
 _atom_site_fract_z
 _atom_site_occupancy
  Sr  Sr0  1  0.08985360  0.75000000  0.85600942  1.0
  Sr  Sr1  1  0.58985360  0.75000000  0.64399058  1.0
  Sr  Sr2  1  0.91014640  0.25000000  0.14399058  1.0
  Sr  Sr3  1  0.41014640  0.25000000  0.35600942  1.0
  Zn  Zn4  1  0.35670951  0.00017145  0.84797926  1.0
  Zn  Zn5  1  0.35670951  0.49982855  0.84797926  1.0
  Zn  Zn6  1  0.85670951  0.00017145  0.65202074  1.0
  Zn  Zn7  1  0.85670951  0.49982855  0.65202074  1.0
  Zn  Zn8  1  0.64329049  0.50017145  0.15202074  1.0
  Zn  Zn9  1  0.64329049  -0.00017145  0.15202074  1.0
  Zn  Zn10  1  0.14329049  0.50017145  0.34797926  1.0
  Zn  Zn11  1  0.14329049  -0.00017145  0.34797926  1.0
  Zn  Zn12  1  0.47922301  0.75000000  0.09654079  1.0
  Zn  Zn13  1  0.97922301  0.75000000  0.40345921  1.0
  Zn  Zn14  1  0.52077699  0.25000000  0.90345921  1.0
  Zn  Zn15  1  0.02077699  0.25000000  0.59654079  1.0
  Zn  Zn16  1  0.29384790  0.75000000  0.54543920  1.0
  Zn  Zn17  1  0.79384790  0.75000000  0.95456080  1.0
  Zn  Zn18  1  0.70615210  0.25000000  0.45456080  1.0
  Zn  Zn19  1  0.20615210  0.25000000  0.04543920  1.0
  Zn  Zn20  1  0.28667469  0.75000000  0.16204613  1.0
  Zn  Zn21  1  0.78667469  0.75000000  0.33795387  1.0
  Zn  Zn22  1  0.71332531  0.25000000  0.83795387  1.0
  Zn  Zn23  1  0.21332531  0.25000000  0.66204613  1.0
