# generated using pymatgen
data_MnTe
_symmetry_space_group_name_H-M   'P 1'
_cell_length_a   8.14530412
_cell_length_b   4.07558399
_cell_length_c   5.76461771
_cell_angle_alpha   90.00000000
_cell_angle_beta   90.00000000
_cell_angle_gamma   90.00000000
_symmetry_Int_Tables_number   1
_chemical_formula_structural   MnTe
_chemical_formula_sum   'Mn4 Te4'
_cell_volume   191.36727086
_cell_formula_units_Z   4
loop_
 _symmetry_equiv_pos_site_id
 _symmetry_equiv_pos_as_xyz
  1  'x, y, z'
loop_
 _atom_site_type_symbol
 _atom_site_label
 _atom_site_symmetry_multiplicity
 _atom_site_fract_x
 _atom_site_fract_y
 _atom_site_fract_z
 _atom_site_occupancy
  Mn  Mn0  1  0.87499714  0.75000000  0.74988028  1.0
  Mn  Mn1  1  0.37499714  0.75000000  0.75011972  1.0
  Mn  Mn2  1  0.12500286  0.25000000  0.25011972  1.0
  Mn  Mn3  1  0.62500286  0.25000000  0.24988028  1.0
  Te  Te4  1  0.87498876  0.75000000  0.24993033  1.0
  Te  Te5  1  0.37498876  0.75000000  0.25006967  1.0
  Te  Te6  1  0.12501124  0.25000000  0.75006967  1.0
  Te  Te7  1  0.62501124  0.25000000  0.74993033  1.0
