# generated using pymatgen
data_Cs3B6H12S4Br
_symmetry_space_group_name_H-M   'P 1'
_cell_length_a   10.75434609
_cell_length_b   10.75434609
_cell_length_c   8.82691705
_cell_angle_alpha   90.00000000
_cell_angle_beta   90.00000000
_cell_angle_gamma   120.00000000
_symmetry_Int_Tables_number   1
_chemical_formula_structural   Cs3B6H12S4Br
_chemical_formula_sum   'Cs6 B12 H24 S8 Br2'
_cell_volume   884.11283243
_cell_formula_units_Z   2
loop_
 _symmetry_equiv_pos_site_id
 _symmetry_equiv_pos_as_xyz
  1  'x, y, z'
loop_
 _atom_site_type_symbol
 _atom_site_label
 _atom_site_symmetry_multiplicity
 _atom_site_fract_x
 _atom_site_fract_y
 _atom_site_fract_z
 _atom_site_occupancy
  Cs  Cs0  1  0.68591866  0.84295933  0.75041584  1.0
  Cs  Cs1  1  0.15704067  0.84295933  0.75041584  1.0
  Cs  Cs2  1  0.15704067  0.31408134  0.75041584  1.0
  Cs  Cs3  1  0.31408134  0.15704067  0.25041584  1.0
  Cs  Cs4  1  0.84295933  0.15704067  0.25041584  1.0
  Cs  Cs5  1  0.84295933  0.68591866  0.25041584  1.0
  B  B6  1  0.76273479  0.23726521  0.62418740  1.0
  B  B7  1  0.76273479  0.52546958  0.62418740  1.0
  B  B8  1  0.47453042  0.23726521  0.62418740  1.0
  B  B9  1  0.23726521  0.76273479  0.12418740  1.0
  B  B10  1  0.23726521  0.47453042  0.12418740  1.0
  B  B11  1  0.52546958  0.76273479  0.12418740  1.0
  B  B12  1  0.57043052  0.42956948  0.91101009  1.0
  B  B13  1  0.57043052  0.14086105  0.91101009  1.0
  B  B14  1  0.85913895  0.42956948  0.91101009  1.0
  B  B15  1  0.42956948  0.57043052  0.41101009  1.0
  B  B16  1  0.42956948  0.85913895  0.41101009  1.0
  B  B17  1  0.14086105  0.57043052  0.41101009  1.0
  H  H18  1  0.69746959  0.11380838  0.58077032  1.0
  H  H19  1  0.88619162  0.58366122  0.58077032  1.0
  H  H20  1  0.41633878  0.30253041  0.58077032  1.0
  H  H21  1  0.88619162  0.30253041  0.58077032  1.0
  H  H22  1  0.41633878  0.11380838  0.58077032  1.0
  H  H23  1  0.69746959  0.58366122  0.58077032  1.0
  H  H24  1  0.30253041  0.88619162  0.08077032  1.0
  H  H25  1  0.11380838  0.41633878  0.08077032  1.0
  H  H26  1  0.58366122  0.69746959  0.08077032  1.0
  H  H27  1  0.11380838  0.69746959  0.08077032  1.0
  H  H28  1  0.58366122  0.88619162  0.08077032  1.0
  H  H29  1  0.30253041  0.41633878  0.08077032  1.0
  H  H30  1  0.50976825  0.49023175  0.86109237  1.0
  H  H31  1  0.50976825  1.01953649  0.86109237  1.0
  H  H32  1  -0.01953649  0.49023175  0.86109237  1.0
  H  H33  1  0.49023175  0.50976825  0.36109237  1.0
  H  H34  1  0.49023175  -0.01953649  0.36109237  1.0
  H  H35  1  1.01953649  0.50976825  0.36109237  1.0
  H  H36  1  0.57259321  0.42740679  0.04854285  1.0
  H  H37  1  0.57259321  0.14518642  0.04854285  1.0
  H  H38  1  0.85481358  0.42740679  0.04854285  1.0
  H  H39  1  0.42740679  0.57259321  0.54854285  1.0
  H  H40  1  0.42740679  0.85481358  0.54854285  1.0
  H  H41  1  0.14518642  0.57259321  0.54854285  1.0
  S  S42  1  0.76662173  0.23337827  0.84218270  1.0
  S  S43  1  0.76662173  0.53324346  0.84218270  1.0
  S  S44  1  0.46675654  0.23337827  0.84218270  1.0
  S  S45  1  0.23337827  0.76662173  0.34218270  1.0
  S  S46  1  0.23337827  0.46675654  0.34218270  1.0
  S  S47  1  0.53324346  0.76662173  0.34218270  1.0
  S  S48  1  0.66666667  0.33333333  0.54247274  1.0
  S  S49  1  0.33333333  0.66666667  0.04247274  1.0
  Br  Br50  1  0.00000000  0.00000000  0.50221162  1.0
  Br  Br51  1  0.00000000  0.00000000  0.00221162  1.0
