# generated using pymatgen
data_La3NiBr3
_symmetry_space_group_name_H-M   'P 1'
_cell_length_a   10.56747129
_cell_length_b   10.56747129
_cell_length_c   10.56747129
_cell_angle_alpha   107.84750942
_cell_angle_beta   107.84750942
_cell_angle_gamma   112.76986019
_symmetry_Int_Tables_number   1
_chemical_formula_structural   La3NiBr3
_chemical_formula_sum   'La12 Ni4 Br12'
_cell_volume   906.15746355
_cell_formula_units_Z   4
loop_
 _symmetry_equiv_pos_site_id
 _symmetry_equiv_pos_as_xyz
  1  'x, y, z'
loop_
 _atom_site_type_symbol
 _atom_site_label
 _atom_site_symmetry_multiplicity
 _atom_site_fract_x
 _atom_site_fract_y
 _atom_site_fract_z
 _atom_site_occupancy
  La  La0  1  1.38813176  0.61186824  1.00000000  1.0
  La  La1  1  1.36186824  0.86186824  0.72373648  1.0
  La  La2  1  0.61186824  1.38813176  1.00000000  1.0
  La  La3  1  1.13813176  1.63813176  1.27626352  1.0
  La  La4  1  1.14606877  1.14180303  0.73627828  1.0
  La  La5  1  0.60393123  0.84020951  0.49573426  1.0
  La  La6  1  0.59020951  0.59447525  0.73627828  1.0
  La  La7  1  0.15979049  0.39606877  0.50426574  1.0
  La  La8  1  1.34447525  1.10819697  0.50426574  1.0
  La  La9  1  0.40552475  0.40979049  0.26372172  1.0
  La  La10  1  0.89180303  0.65552475  0.49573426  1.0
  La  La11  1  0.85819697  0.85393123  0.26372172  1.0
  Ni  Ni12  1  0.62710710  0.62710710  0.25421421  1.0
  Ni  Ni13  1  1.12289290  0.87710710  0.50000000  1.0
  Ni  Ni14  1  1.37710710  1.62289290  1.50000000  1.0
  Ni  Ni15  1  0.37289290  0.37289290  0.74578579  1.0
  Br  Br16  1  1.38814121  0.88442990  1.24851080  1.0
  Br  Br17  1  0.36185879  1.11036959  0.99628868  1.0
  Br  Br18  1  0.86036959  1.36408091  1.24851080  1.0
  Br  Br19  1  0.88963041  0.63814121  1.00371132  1.0
  Br  Br20  1  1.11408091  1.36557010  1.00371132  1.0
  Br  Br21  1  0.63591909  0.13963041  0.75148920  1.0
  Br  Br22  1  1.63442990  0.88591909  0.99628868  1.0
  Br  Br23  1  1.11557010  1.61185879  0.75148920  1.0
  Br  Br24  1  0.88149375  0.88149375  0.76298749  1.0
  Br  Br25  1  0.86850625  1.13149375  0.50000000  1.0
  Br  Br26  1  1.63149375  1.36850625  1.50000000  1.0
  Br  Br27  1  0.11850625  0.11850625  0.23701251  1.0
