# generated using pymatgen
data_P2PbO9
_symmetry_space_group_name_H-M   'P 1'
_cell_length_a   8.72310887
_cell_length_b   5.13265541
_cell_length_c   16.20066656
_cell_angle_alpha   90.00000000
_cell_angle_beta   108.32546872
_cell_angle_gamma   90.00000000
_symmetry_Int_Tables_number   1
_chemical_formula_structural   P2PbO9
_chemical_formula_sum   'P8 Pb4 O36'
_cell_volume   688.56235202
_cell_formula_units_Z   4
loop_
 _symmetry_equiv_pos_site_id
 _symmetry_equiv_pos_as_xyz
  1  'x, y, z'
loop_
 _atom_site_type_symbol
 _atom_site_label
 _atom_site_symmetry_multiplicity
 _atom_site_fract_x
 _atom_site_fract_y
 _atom_site_fract_z
 _atom_site_occupancy
  O  O0  1  0.97183322  0.47030746  0.11338693  1.0
  O  O1  1  0.97183322  0.02969254  0.61338693  1.0
  O  O2  1  0.02816678  0.97030746  0.38661307  1.0
  O  O3  1  0.02816678  0.52969254  0.88661307  1.0
  O  O4  1  0.90598059  0.37546723  0.44229435  1.0
  O  O5  1  0.90598059  0.12453277  0.94229435  1.0
  O  O6  1  0.09401941  0.87546723  0.05770565  1.0
  O  O7  1  0.09401941  0.62453277  0.55770565  1.0
  O  O8  1  0.85093351  0.92233459  0.11018284  1.0
  O  O9  1  0.85093351  0.57766541  0.61018284  1.0
  O  O10  1  0.14906649  0.42233459  0.38981716  1.0
  O  O11  1  0.14906649  0.07766541  0.88981716  1.0
  O  O12  1  0.71126182  0.89347587  0.44281378  1.0
  O  O13  1  0.71126182  0.60652413  0.94281378  1.0
  O  O14  1  0.28873818  0.39347587  0.05718622  1.0
  O  O15  1  0.28873818  0.10652413  0.55718622  1.0
  O  O16  1  0.59797598  0.37142744  0.09988390  1.0
  O  O17  1  0.59797598  0.12857256  0.59988390  1.0
  O  O18  1  0.40202402  0.87142744  0.40011610  1.0
  O  O19  1  0.40202402  0.62857256  0.90011610  1.0
  O  O20  1  0.56657688  0.45095815  0.43144513  1.0
  O  O21  1  0.56657688  0.04904185  0.93144513  1.0
  O  O22  1  0.43342312  0.95095815  0.06855487  1.0
  O  O23  1  0.43342312  0.54904185  0.56855487  1.0
  O  O24  1  0.22662616  0.19805535  0.22596144  1.0
  O  O25  1  0.22662616  0.30194465  0.72596144  1.0
  O  O26  1  0.77337384  0.69805535  0.27403856  1.0
  O  O27  1  0.77337384  0.80194465  0.77403856  1.0
  O  O28  1  0.45481024  0.20992378  0.20402636  1.0
  O  O29  1  0.45481024  0.29007622  0.70402636  1.0
  O  O30  1  0.54518976  0.70992378  0.29597364  1.0
  O  O31  1  0.54518976  0.79007622  0.79597364  1.0
  O  O32  1  0.86262642  0.30322942  0.28538306  1.0
  O  O33  1  0.86262642  0.19677058  0.78538306  1.0
  O  O34  1  0.13737358  0.80322942  0.21461694  1.0
  O  O35  1  0.13737358  0.69677058  0.71461694  1.0
  Pb  Pb36  1  0.76196756  0.26342667  0.02756938  1.0
  Pb  Pb37  1  0.76196756  0.23657333  0.52756938  1.0
  Pb  Pb38  1  0.23803244  0.76342667  0.47243062  1.0
  Pb  Pb39  1  0.23803244  0.73657333  0.97243062  1.0
  P  P40  1  0.98960859  0.26777449  0.37688066  1.0
  P  P41  1  0.98960859  0.23222551  0.87688066  1.0
  P  P42  1  0.01039141  0.76777449  0.12311934  1.0
  P  P43  1  0.01039141  0.73222551  0.62311934  1.0
  P  P44  1  0.44218141  0.23336315  0.10504419  1.0
  P  P45  1  0.44218141  0.26663685  0.60504419  1.0
  P  P46  1  0.55781859  0.73336315  0.39495581  1.0
  P  P47  1  0.55781859  0.76663685  0.89495581  1.0
