# generated using pymatgen
data_SrP2(HO4)2
_symmetry_space_group_name_H-M   'P 1'
_cell_length_a   6.96209397
_cell_length_b   7.86584742
_cell_length_c   7.02310953
_cell_angle_alpha   106.09025809
_cell_angle_beta   109.40244722
_cell_angle_gamma   95.63875650
_symmetry_Int_Tables_number   1
_chemical_formula_structural   SrP2(HO4)2
_chemical_formula_sum   'Sr2 P4 H4 O16'
_cell_volume   340.77867957
_cell_formula_units_Z   2
loop_
 _symmetry_equiv_pos_site_id
 _symmetry_equiv_pos_as_xyz
  1  'x, y, z'
loop_
 _atom_site_type_symbol
 _atom_site_label
 _atom_site_symmetry_multiplicity
 _atom_site_fract_x
 _atom_site_fract_y
 _atom_site_fract_z
 _atom_site_occupancy
  O  O0  1  -0.99204737  -0.72179677  -0.47654927  1.0
  O  O1  1  -0.00795263  -0.27820323  -0.52345073  1.0
  O  O2  1  -0.62559735  -0.74539007  -0.23303708  1.0
  O  O3  1  -0.37440265  -0.25460993  -0.76696292  1.0
  O  O4  1  -0.35276907  -0.50410075  -0.62747944  1.0
  O  O5  1  -0.64723093  -0.49589925  -0.37252056  1.0
  O  O6  1  -0.15978148  -0.48410673  -0.88974320  1.0
  O  O7  1  -0.84021852  -0.51589327  -0.11025680  1.0
  O  O8  1  -0.78460207  -0.08189315  -0.76485729  1.0
  O  O9  1  -0.21539793  -0.91810685  -0.23514271  1.0
  O  O10  1  -0.74299502  -0.96550556  -1.05974876  1.0
  O  O11  1  -0.25700498  -0.03449444  0.05974876  1.0
  O  O12  1  -0.47644869  -0.86476648  -0.66428641  1.0
  O  O13  1  -0.52355131  -0.13523352  -0.33571359  1.0
  O  O14  1  -0.81889652  -0.75798734  -0.78286752  1.0
  O  O15  1  -0.18110348  -0.24201266  -0.21713248  1.0
  Sr  Sr16  1  -0.73001344  -0.39130316  -0.70572516  1.0
  Sr  Sr17  1  -0.26998656  -0.60869684  -0.29427484  1.0
  P  P18  1  -0.77212833  -0.60827828  -0.29019791  1.0
  P  P19  1  -0.22787167  -0.39172172  -0.70980209  1.0
  P  P20  1  -0.70701249  -0.91855678  -0.82047685  1.0
  P  P21  1  -0.29298751  -0.08144322  -0.17952315  1.0
  H  H22  1  -0.98588409  -0.77192218  -0.61931181  1.0
  H  H23  1  -0.01411591  -0.22807782  -0.38068819  1.0
  H  H24  1  -0.67215198  -0.83516923  -0.16931099  1.0
  H  H25  1  -0.32784802  -0.16483077  -0.83068901  1.0
