# generated using pymatgen
data_Y(CuS)2
_symmetry_space_group_name_H-M   'P 1'
_cell_length_a   3.94208483
_cell_length_b   3.94208483
_cell_length_c   6.41202456
_cell_angle_alpha   90.00000000
_cell_angle_beta   90.00000000
_cell_angle_gamma   120.00000000
_symmetry_Int_Tables_number   1
_chemical_formula_structural   Y(CuS)2
_chemical_formula_sum   'Y1 Cu2 S2'
_cell_volume   86.29343180
_cell_formula_units_Z   1
loop_
 _symmetry_equiv_pos_site_id
 _symmetry_equiv_pos_as_xyz
  1  'x, y, z'
loop_
 _atom_site_type_symbol
 _atom_site_label
 _atom_site_symmetry_multiplicity
 _atom_site_fract_x
 _atom_site_fract_y
 _atom_site_fract_z
 _atom_site_occupancy
  Y  Y0  1  0.00000000  0.00000000  0.00000000  1.0
  Cu  Cu1  1  0.66666667  0.33333333  0.67113165  1.0
  Cu  Cu2  1  0.33333333  0.66666667  0.32886835  1.0
  S  S3  1  0.66666667  0.33333333  0.26925092  1.0
  S  S4  1  0.33333333  0.66666667  0.73074908  1.0
