# generated using pymatgen
data_LiRuF6
_symmetry_space_group_name_H-M   'P 1'
_cell_length_a   5.51158255
_cell_length_b   5.51158255
_cell_length_c   5.51158255
_cell_angle_alpha   58.25845824
_cell_angle_beta   58.25845824
_cell_angle_gamma   58.25845824
_symmetry_Int_Tables_number   1
_chemical_formula_structural   LiRuF6
_chemical_formula_sum   'Li1 Ru1 F6'
_cell_volume   113.66681385
_cell_formula_units_Z   1
loop_
 _symmetry_equiv_pos_site_id
 _symmetry_equiv_pos_as_xyz
  1  'x, y, z'
loop_
 _atom_site_type_symbol
 _atom_site_label
 _atom_site_symmetry_multiplicity
 _atom_site_fract_x
 _atom_site_fract_y
 _atom_site_fract_z
 _atom_site_occupancy
  Li  Li0  1  0.50000000  0.50000000  -0.50000000  1.0
  Ru  Ru1  1  0.00000000  0.00000000  0.00000000  1.0
  F  F2  1  0.15421170  0.76243041  -0.67753151  1.0
  F  F3  1  0.67753151  -0.15421170  0.23756959  1.0
  F  F4  1  1.23756959  -0.32246849  -0.15421170  1.0
  F  F5  1  0.84578830  0.23756959  -0.32246849  1.0
  F  F6  1  0.32246849  0.15421170  -0.23756959  1.0
  F  F7  1  0.76243041  0.32246849  -0.84578830  1.0
