# generated using pymatgen
data_In9Se14
_symmetry_space_group_name_H-M   'P 1'
_cell_length_a   13.20469714
_cell_length_b   13.20469714
_cell_length_c   12.06145933
_cell_angle_alpha   90.00000000
_cell_angle_beta   90.00000000
_cell_angle_gamma   120.00000000
_symmetry_Int_Tables_number   1
_chemical_formula_structural   In9Se14
_chemical_formula_sum   'In18 Se28'
_cell_volume   1821.32470466
_cell_formula_units_Z   2
loop_
 _symmetry_equiv_pos_site_id
 _symmetry_equiv_pos_as_xyz
  1  'x, y, z'
loop_
 _atom_site_type_symbol
 _atom_site_label
 _atom_site_symmetry_multiplicity
 _atom_site_fract_x
 _atom_site_fract_y
 _atom_site_fract_z
 _atom_site_occupancy
  In  In0  1  0.87404208  0.40249002  0.41922083  1.0
  In  In1  1  0.12595792  0.59750998  0.58077917  1.0
  In  In2  1  0.47155206  0.87404208  0.91922083  1.0
  In  In3  1  0.52844794  0.12595792  0.08077917  1.0
  In  In4  1  0.59750998  0.47155206  0.41922083  1.0
  In  In5  1  0.40249002  0.52844794  0.58077917  1.0
  In  In6  1  0.12595792  0.59750998  0.91922083  1.0
  In  In7  1  0.87404208  0.40249002  0.08077917  1.0
  In  In8  1  0.52844794  0.12595792  0.41922083  1.0
  In  In9  1  0.47155206  0.87404208  0.58077917  1.0
  In  In10  1  0.40249002  0.52844794  0.91922083  1.0
  In  In11  1  0.59750998  0.47155206  0.08077917  1.0
  In  In12  1  0.14364486  0.64358840  0.25000000  1.0
  In  In13  1  0.85635514  0.35641160  0.75000000  1.0
  In  In14  1  0.50005646  0.14364486  0.75000000  1.0
  In  In15  1  0.49994354  0.85635514  0.25000000  1.0
  In  In16  1  0.35641160  0.50005646  0.25000000  1.0
  In  In17  1  0.64358840  0.49994354  0.75000000  1.0
  Se  Se18  1  0.66666667  0.33333333  0.51632183  1.0
  Se  Se19  1  0.33333333  0.66666667  0.48367817  1.0
  Se  Se20  1  0.33333333  0.66666667  0.01632183  1.0
  Se  Se21  1  0.66666667  0.33333333  0.98367817  1.0
  Se  Se22  1  0.00455913  0.63319368  0.42028104  1.0
  Se  Se23  1  0.99544087  0.36680632  0.57971896  1.0
  Se  Se24  1  0.37136545  0.00455913  0.92028104  1.0
  Se  Se25  1  0.62863455  0.99544087  0.07971896  1.0
  Se  Se26  1  0.36680632  0.37136545  0.42028104  1.0
  Se  Se27  1  0.63319368  0.62863455  0.57971896  1.0
  Se  Se28  1  0.99544087  0.36680632  0.92028104  1.0
  Se  Se29  1  0.00455913  0.63319368  0.07971896  1.0
  Se  Se30  1  0.62863455  0.99544087  0.42028104  1.0
  Se  Se31  1  0.37136545  0.00455913  0.57971896  1.0
  Se  Se32  1  0.63319368  0.62863455  0.92028104  1.0
  Se  Se33  1  0.36680632  0.37136545  0.07971896  1.0
  Se  Se34  1  0.30583293  0.86012477  0.25000000  1.0
  Se  Se35  1  0.69416707  0.13987523  0.75000000  1.0
  Se  Se36  1  0.44570816  0.30583293  0.75000000  1.0
  Se  Se37  1  0.55429184  0.69416707  0.25000000  1.0
  Se  Se38  1  0.13987523  0.44570816  0.25000000  1.0
  Se  Se39  1  0.86012477  0.55429184  0.75000000  1.0
  Se  Se40  1  0.83328009  0.26753785  0.25000000  1.0
  Se  Se41  1  0.16671991  0.73246215  0.75000000  1.0
  Se  Se42  1  0.56574224  0.83328009  0.75000000  1.0
  Se  Se43  1  0.43425776  0.16671991  0.25000000  1.0
  Se  Se44  1  0.73246215  0.56574224  0.25000000  1.0
  Se  Se45  1  0.26753785  0.43425776  0.75000000  1.0
