# generated using pymatgen
data_CsY(WO4)2
_symmetry_space_group_name_H-M   'P 1'
_cell_length_a   7.64758595
_cell_length_b   7.64758595
_cell_length_c   7.67942291
_cell_angle_alpha   62.14092472
_cell_angle_beta   117.85907528
_cell_angle_gamma   91.66069939
_symmetry_Int_Tables_number   1
_chemical_formula_structural   CsY(WO4)2
_chemical_formula_sum   'Cs2 Y2 W4 O16'
_cell_volume   340.59788490
_cell_formula_units_Z   2
loop_
 _symmetry_equiv_pos_site_id
 _symmetry_equiv_pos_as_xyz
  1  'x, y, z'
loop_
 _atom_site_type_symbol
 _atom_site_label
 _atom_site_symmetry_multiplicity
 _atom_site_fract_x
 _atom_site_fract_y
 _atom_site_fract_z
 _atom_site_occupancy
  Cs  Cs0  1  0.19635709  0.19635709  0.25000000  1.0
  Cs  Cs1  1  0.80364291  0.80364291  0.75000000  1.0
  Y  Y2  1  0.77483004  0.77483004  0.25000000  1.0
  Y  Y3  1  0.22516996  0.22516996  0.75000000  1.0
  W  W4  1  0.69461134  0.30941843  0.22528234  1.0
  W  W5  1  0.69058157  0.30538866  0.72528234  1.0
  W  W6  1  1.30941843  -0.30538866  0.27471766  1.0
  W  W7  1  1.30538866  -0.30941843  0.77471766  1.0
  O  O8  1  1.59014566  -0.37414491  0.03774704  1.0
  O  O9  1  1.37414491  -0.59014566  0.53774704  1.0
  O  O10  1  0.62585509  0.59014566  0.46225296  1.0
  O  O11  1  0.40985434  0.37414491  0.96225296  1.0
  O  O12  1  0.77226868  0.05318589  0.29141223  1.0
  O  O13  1  0.94681411  0.22773132  0.79141223  1.0
  O  O14  1  1.05318589  -0.22773132  0.20858777  1.0
  O  O15  1  1.22773132  -0.05318589  0.70858777  1.0
  O  O16  1  1.36639195  -0.06279699  0.12427621  1.0
  O  O17  1  1.06279699  -0.36639195  0.62427621  1.0
  O  O18  1  0.93720301  0.36639195  0.37572379  1.0
  O  O19  1  0.63360805  0.06279699  0.87572379  1.0
  O  O20  1  0.61899064  0.24795953  0.43277272  1.0
  O  O21  1  0.75204047  0.38100936  0.93277272  1.0
  O  O22  1  1.24795953  -0.38100936  0.06722728  1.0
  O  O23  1  1.38100936  -0.24795953  0.56722728  1.0
