# generated using pymatgen
data_TlCr2FeO8
_symmetry_space_group_name_H-M   'P 1'
_cell_length_a   5.29333858
_cell_length_b   5.29333858
_cell_length_c   8.00026471
_cell_angle_alpha   86.99520412
_cell_angle_beta   93.00479588
_cell_angle_gamma   117.02049180
_symmetry_Int_Tables_number   1
_chemical_formula_structural   TlCr2FeO8
_chemical_formula_sum   'Tl1 Cr2 Fe1 O8'
_cell_volume   199.31651757
_cell_formula_units_Z   1
loop_
 _symmetry_equiv_pos_site_id
 _symmetry_equiv_pos_as_xyz
  1  'x, y, z'
loop_
 _atom_site_type_symbol
 _atom_site_label
 _atom_site_symmetry_multiplicity
 _atom_site_fract_x
 _atom_site_fract_y
 _atom_site_fract_z
 _atom_site_occupancy
  Fe  Fe0  1  0.00000000  0.00000000  0.00000000  1.0
  O  O1  1  0.68181825  -0.68181825  0.60360031  1.0
  O  O2  1  0.31818175  -0.31818175  0.39639969  1.0
  O  O3  1  1.28519156  0.21619721  0.82696834  1.0
  O  O4  1  0.78380279  -0.28519156  0.82696834  1.0
  O  O5  1  1.21619721  0.28519156  0.17303166  1.0
  O  O6  1  0.71480844  -0.21619721  0.17303166  1.0
  O  O7  1  0.78503618  -0.78503618  0.92572366  1.0
  O  O8  1  0.21496382  -0.21496382  0.07427634  1.0
  Cr  Cr9  1  0.63571862  -0.63571862  0.79560917  1.0
  Cr  Cr10  1  0.36428138  -0.36428138  0.20439083  1.0
  Tl  Tl11  1  -0.00000000  0.00000000  0.50000000  1.0
