# generated using pymatgen
data_CsEu(MoO4)2
_symmetry_space_group_name_H-M   'P 1'
_cell_length_a   7.67014879
_cell_length_b   7.67014879
_cell_length_c   8.00260195
_cell_angle_alpha   61.93451559
_cell_angle_beta   118.06548441
_cell_angle_gamma   91.54645452
_symmetry_Int_Tables_number   1
_chemical_formula_structural   CsEu(MoO4)2
_chemical_formula_sum   'Cs2 Eu2 Mo4 O16'
_cell_volume   354.98496071
_cell_formula_units_Z   2
loop_
 _symmetry_equiv_pos_site_id
 _symmetry_equiv_pos_as_xyz
  1  'x, y, z'
loop_
 _atom_site_type_symbol
 _atom_site_label
 _atom_site_symmetry_multiplicity
 _atom_site_fract_x
 _atom_site_fract_y
 _atom_site_fract_z
 _atom_site_occupancy
  Cs  Cs0  1  0.19113103  0.19113103  0.25000000  1.0
  Cs  Cs1  1  0.80886897  0.80886897  0.75000000  1.0
  Eu  Eu2  1  0.76862980  0.76862980  0.25000000  1.0
  Eu  Eu3  1  0.23137020  0.23137020  0.75000000  1.0
  Mo  Mo4  1  0.69038465  0.30822428  0.23365853  1.0
  Mo  Mo5  1  0.69177572  0.30961535  0.73365853  1.0
  Mo  Mo6  1  1.30822428  -0.30961535  0.26634147  1.0
  Mo  Mo7  1  1.30961535  -0.30822428  0.76634147  1.0
  O  O8  1  1.57948720  -0.37148986  0.03040351  1.0
  O  O9  1  1.37148986  -0.57948720  0.53040351  1.0
  O  O10  1  0.62851014  0.57948720  0.46959649  1.0
  O  O11  1  0.42051280  0.37148986  0.96959649  1.0
  O  O12  1  0.78572531  0.06371182  0.29142880  1.0
  O  O13  1  0.93628818  0.21427469  0.79142880  1.0
  O  O14  1  1.06371182  -0.21427469  0.20857120  1.0
  O  O15  1  1.21427469  -0.06371182  0.70857120  1.0
  O  O16  1  1.38538470  -0.07852214  0.13482878  1.0
  O  O17  1  1.07852214  -0.38538470  0.63482878  1.0
  O  O18  1  0.92147786  0.38538470  0.36517122  1.0
  O  O19  1  0.61461530  0.07852214  0.86517122  1.0
  O  O20  1  0.61017781  0.24167278  0.42236779  1.0
  O  O21  1  0.75832722  0.38982219  0.92236779  1.0
  O  O22  1  1.24167278  -0.38982219  0.07763221  1.0
  O  O23  1  1.38982219  -0.24167278  0.57763221  1.0
