# generated using pymatgen
data_Sm5P12Ru19
_symmetry_space_group_name_H-M   'P 1'
_cell_length_a   12.60381478
_cell_length_b   12.60381478
_cell_length_c   3.98887899
_cell_angle_alpha   90.00000000
_cell_angle_beta   90.00000000
_cell_angle_gamma   120.00000000
_symmetry_Int_Tables_number   1
_chemical_formula_structural   Sm5P12Ru19
_chemical_formula_sum   'Sm5 P12 Ru19'
_cell_volume   548.76387977
_cell_formula_units_Z   1
loop_
 _symmetry_equiv_pos_site_id
 _symmetry_equiv_pos_as_xyz
  1  'x, y, z'
loop_
 _atom_site_type_symbol
 _atom_site_label
 _atom_site_symmetry_multiplicity
 _atom_site_fract_x
 _atom_site_fract_y
 _atom_site_fract_z
 _atom_site_occupancy
  P  P0  1  0.00000000  0.81219939  0.00000000  1.0
  P  P1  1  0.18780061  0.18780061  0.00000000  1.0
  P  P2  1  0.81219939  0.00000000  0.00000000  1.0
  P  P3  1  0.69411200  0.17161897  0.50000000  1.0
  P  P4  1  0.82838103  0.52249303  0.50000000  1.0
  P  P5  1  0.47750697  0.30588800  0.50000000  1.0
  P  P6  1  0.17161897  0.69411200  0.50000000  1.0
  P  P7  1  0.52249303  0.82838103  0.50000000  1.0
  P  P8  1  0.30588800  0.47750697  0.50000000  1.0
  P  P9  1  0.00000000  0.37385138  0.00000000  1.0
  P  P10  1  0.62614862  0.62614862  0.00000000  1.0
  P  P11  1  0.37385138  0.00000000  0.00000000  1.0
  Sm  Sm12  1  -0.00000000  0.18119821  0.50000000  1.0
  Sm  Sm13  1  0.81880179  0.81880179  0.50000000  1.0
  Sm  Sm14  1  0.18119821  0.00000000  0.50000000  1.0
  Sm  Sm15  1  0.66666667  0.33333333  0.00000000  1.0
  Sm  Sm16  1  0.33333333  0.66666667  0.00000000  1.0
  Ru  Ru17  1  0.00000000  0.55419444  0.00000000  1.0
  Ru  Ru18  1  0.44580556  0.44580556  0.00000000  1.0
  Ru  Ru19  1  0.55419444  0.00000000  0.00000000  1.0
  Ru  Ru20  1  0.00000000  0.71383051  0.50000000  1.0
  Ru  Ru21  1  0.28616949  0.28616949  0.50000000  1.0
  Ru  Ru22  1  0.71383051  0.00000000  0.50000000  1.0
  Ru  Ru23  1  0.80538015  0.18445558  0.00000000  1.0
  Ru  Ru24  1  0.81554442  0.62092457  0.00000000  1.0
  Ru  Ru25  1  0.37907543  0.19461985  0.00000000  1.0
  Ru  Ru26  1  0.18445558  0.80538015  0.00000000  1.0
  Ru  Ru27  1  0.62092457  0.81554442  0.00000000  1.0
  Ru  Ru28  1  0.19461985  0.37907543  0.00000000  1.0
  Ru  Ru29  1  0.87569993  0.36639998  0.50000000  1.0
  Ru  Ru30  1  0.63360002  0.50929995  0.50000000  1.0
  Ru  Ru31  1  0.49070005  0.12430007  0.50000000  1.0
  Ru  Ru32  1  0.36639998  0.87569993  0.50000000  1.0
  Ru  Ru33  1  0.50929995  0.63360002  0.50000000  1.0
  Ru  Ru34  1  0.12430007  0.49070005  0.50000000  1.0
  Ru  Ru35  1  0.00000000  0.00000000  0.00000000  1.0
