# generated using pymatgen
data_SeN
_symmetry_space_group_name_H-M   'P 1'
_cell_length_a   7.54131513
_cell_length_b   7.54131513
_cell_length_c   6.36707538
_cell_angle_alpha   88.42018077
_cell_angle_beta   91.57981923
_cell_angle_gamma   90.00242789
_symmetry_Int_Tables_number   1
_chemical_formula_structural   SeN
_chemical_formula_sum   'Se8 N8'
_cell_volume   361.82938417
_cell_formula_units_Z   8
loop_
 _symmetry_equiv_pos_site_id
 _symmetry_equiv_pos_as_xyz
  1  'x, y, z'
loop_
 _atom_site_type_symbol
 _atom_site_label
 _atom_site_symmetry_multiplicity
 _atom_site_fract_x
 _atom_site_fract_y
 _atom_site_fract_z
 _atom_site_occupancy
  Se  Se0  1  0.74822517  -0.07040905  0.42645559  1.0
  Se  Se1  1  1.07040905  0.25177483  0.92645559  1.0
  Se  Se2  1  0.92959095  -0.25177483  0.07354441  1.0
  Se  Se3  1  1.25177483  0.07040905  0.57354441  1.0
  Se  Se4  1  0.54766827  -0.25183513  0.07525050  1.0
  Se  Se5  1  1.25183513  0.45233173  0.57525050  1.0
  Se  Se6  1  0.74816487  -0.45233173  0.42474950  1.0
  Se  Se7  1  1.45233173  0.25183513  0.92474950  1.0
  N  N8  1  0.55591179  -0.06984985  0.25278744  1.0
  N  N9  1  1.06984985  0.44408821  0.75278744  1.0
  N  N10  1  0.93015015  -0.44408821  0.24721256  1.0
  N  N11  1  1.44408821  0.06984985  0.74721256  1.0
  N  N12  1  0.93068625  -0.06931375  0.25000000  1.0
  N  N13  1  1.06931375  0.06931375  0.75000000  1.0
  N  N14  1  1.55623938  0.55623938  0.25000000  1.0
  N  N15  1  0.44376062  -0.55623938  0.75000000  1.0
