# generated using pymatgen
data_BCl
_symmetry_space_group_name_H-M   'P 1'
_cell_length_a   8.81199010
_cell_length_b   8.81199010
_cell_length_c   6.09011278
_cell_angle_alpha   90.00000000
_cell_angle_beta   90.00000000
_cell_angle_gamma   90.00000000
_symmetry_Int_Tables_number   1
_chemical_formula_structural   BCl
_chemical_formula_sum   'B8 Cl8'
_cell_volume   472.90437984
_cell_formula_units_Z   8
loop_
 _symmetry_equiv_pos_site_id
 _symmetry_equiv_pos_as_xyz
  1  'x, y, z'
loop_
 _atom_site_type_symbol
 _atom_site_label
 _atom_site_symmetry_multiplicity
 _atom_site_fract_x
 _atom_site_fract_y
 _atom_site_fract_z
 _atom_site_occupancy
  B  B0  1  0.50000000  0.40422496  0.90215147  1.0
  B  B1  1  0.50000000  0.59577504  0.90215147  1.0
  B  B2  1  0.00000000  0.90422496  0.59784853  1.0
  B  B3  1  0.00000000  0.09577504  0.59784853  1.0
  B  B4  1  0.59577504  0.50000000  0.09784853  1.0
  B  B5  1  0.40422496  0.50000000  0.09784853  1.0
  B  B6  1  0.09577504  0.00000000  0.40215147  1.0
  B  B7  1  0.90422496  0.00000000  0.40215147  1.0
  Cl  Cl8  1  0.50000000  0.24401633  0.73862898  1.0
  Cl  Cl9  1  0.50000000  0.75598367  0.73862898  1.0
  Cl  Cl10  1  0.00000000  0.74401633  0.76137102  1.0
  Cl  Cl11  1  0.00000000  0.25598367  0.76137102  1.0
  Cl  Cl12  1  0.75598367  0.50000000  0.26137102  1.0
  Cl  Cl13  1  0.24401633  0.50000000  0.26137102  1.0
  Cl  Cl14  1  0.25598367  0.00000000  0.23862898  1.0
  Cl  Cl15  1  0.74401633  0.00000000  0.23862898  1.0
