# generated using pymatgen
data_Li2S
_symmetry_space_group_name_H-M   'P 1'
_cell_length_a   6.29749971
_cell_length_b   3.80600859
_cell_length_c   7.24630891
_cell_angle_alpha   90.00000000
_cell_angle_beta   90.00000000
_cell_angle_gamma   90.00000000
_symmetry_Int_Tables_number   1
_chemical_formula_structural   Li2S
_chemical_formula_sum   'Li8 S4'
_cell_volume   173.68198123
_cell_formula_units_Z   4
loop_
 _symmetry_equiv_pos_site_id
 _symmetry_equiv_pos_as_xyz
  1  'x, y, z'
loop_
 _atom_site_type_symbol
 _atom_site_label
 _atom_site_symmetry_multiplicity
 _atom_site_fract_x
 _atom_site_fract_y
 _atom_site_fract_z
 _atom_site_occupancy
  Li  Li0  1  0.97911000  0.75000000  0.66412594  1.0
  Li  Li1  1  0.47911000  0.75000000  0.83587406  1.0
  Li  Li2  1  0.02089000  0.25000000  0.33587406  1.0
  Li  Li3  1  0.52089000  0.25000000  0.16412594  1.0
  Li  Li4  1  0.85881528  0.75000000  0.07198215  1.0
  Li  Li5  1  0.35881528  0.75000000  0.42801785  1.0
  Li  Li6  1  0.14118472  0.25000000  0.92801785  1.0
  Li  Li7  1  0.64118472  0.25000000  0.57198215  1.0
  S  S8  1  0.74533827  0.75000000  0.38996549  1.0
  S  S9  1  0.24533827  0.75000000  0.11003451  1.0
  S  S10  1  0.25466173  0.25000000  0.61003451  1.0
  S  S11  1  0.75466173  0.25000000  0.88996549  1.0
