# generated using pymatgen
data_ScNiB4
_symmetry_space_group_name_H-M   'P 1'
_cell_length_a   5.78489668
_cell_length_b   11.22354520
_cell_length_c   3.25451420
_cell_angle_alpha   90.00000000
_cell_angle_beta   90.00000000
_cell_angle_gamma   90.00000000
_symmetry_Int_Tables_number   1
_chemical_formula_structural   ScNiB4
_chemical_formula_sum   'Sc4 Ni4 B16'
_cell_volume   211.30600397
_cell_formula_units_Z   4
loop_
 _symmetry_equiv_pos_site_id
 _symmetry_equiv_pos_as_xyz
  1  'x, y, z'
loop_
 _atom_site_type_symbol
 _atom_site_label
 _atom_site_symmetry_multiplicity
 _atom_site_fract_x
 _atom_site_fract_y
 _atom_site_fract_z
 _atom_site_occupancy
  Sc  Sc0  1  0.12710426  0.65050716  0.50000000  1.0
  Sc  Sc1  1  0.62710426  0.84949284  0.50000000  1.0
  Sc  Sc2  1  0.87289574  0.34949284  0.50000000  1.0
  Sc  Sc3  1  0.37289574  0.15050716  0.50000000  1.0
  Ni  Ni4  1  0.13514344  0.91131202  0.50000000  1.0
  Ni  Ni5  1  0.63514344  0.58868798  0.50000000  1.0
  Ni  Ni6  1  0.86485656  0.08868798  0.50000000  1.0
  Ni  Ni7  1  0.36485656  0.41131202  0.50000000  1.0
  B  B8  1  0.47903273  0.69387068  0.00000000  1.0
  B  B9  1  0.97903273  0.80612932  0.00000000  1.0
  B  B10  1  0.52096727  0.30612932  0.00000000  1.0
  B  B11  1  0.02096727  0.19387068  0.00000000  1.0
  B  B12  1  0.38399812  0.54899267  0.00000000  1.0
  B  B13  1  0.88399812  0.95100733  0.00000000  1.0
  B  B14  1  0.61600188  0.45100733  0.00000000  1.0
  B  B15  1  0.11600188  0.04899267  0.00000000  1.0
  B  B16  1  0.36604110  0.96745511  0.00000000  1.0
  B  B17  1  0.86604110  0.53254489  0.00000000  1.0
  B  B18  1  0.63395890  0.03254489  0.00000000  1.0
  B  B19  1  0.13395890  0.46745511  0.00000000  1.0
  B  B20  1  0.28919357  0.81341139  0.00000000  1.0
  B  B21  1  0.78919357  0.68658861  0.00000000  1.0
  B  B22  1  0.71080643  0.18658861  0.00000000  1.0
  B  B23  1  0.21080643  0.31341139  0.00000000  1.0
