# generated using pymatgen
data_H8PdC2NCl3
_symmetry_space_group_name_H-M   'P 1'
_cell_length_a   7.93146252
_cell_length_b   7.93146252
_cell_length_c   7.58099896
_cell_angle_alpha   91.57840562
_cell_angle_beta   88.42159438
_cell_angle_gamma   61.79301031
_symmetry_Int_Tables_number   1
_chemical_formula_structural   H8PdC2NCl3
_chemical_formula_sum   'H16 Pd2 C4 N2 Cl6'
_cell_volume   419.66649726
_cell_formula_units_Z   2
loop_
 _symmetry_equiv_pos_site_id
 _symmetry_equiv_pos_as_xyz
  1  'x, y, z'
loop_
 _atom_site_type_symbol
 _atom_site_label
 _atom_site_symmetry_multiplicity
 _atom_site_fract_x
 _atom_site_fract_y
 _atom_site_fract_z
 _atom_site_occupancy
  H  H0  1  1.49220590  0.32367805  0.17909680  1.0
  H  H1  1  1.32367805  0.49220590  0.32090320  1.0
  H  H2  1  0.50779410  -0.32367805  0.82090320  1.0
  H  H3  1  0.67632195  -0.49220590  0.67909680  1.0
  H  H4  1  1.25569545  0.26120251  0.45455929  1.0
  H  H5  1  1.26120251  0.25569545  0.04544071  1.0
  H  H6  1  0.74430455  -0.26120251  0.54544071  1.0
  H  H7  1  0.73879749  -0.25569545  0.95455929  1.0
  H  H8  1  1.50419897  0.20129011  0.46579583  1.0
  H  H9  1  1.20129011  0.50419897  0.03420417  1.0
  H  H10  1  0.49580103  -0.20129011  0.53420417  1.0
  H  H11  1  0.79870989  -0.50419897  0.96579583  1.0
  H  H12  1  1.43124995  0.07976393  0.30536571  1.0
  H  H13  1  1.07976393  0.43124995  0.19463429  1.0
  H  H14  1  0.56875005  -0.07976393  0.69463429  1.0
  H  H15  1  0.92023607  -0.43124995  0.80536571  1.0
  Pd  Pd16  1  0.00000000  0.00000000  0.00000000  1.0
  Pd  Pd17  1  -0.00000000  0.00000000  0.50000000  1.0
  C  C18  1  1.39092280  0.21521128  0.37877012  1.0
  C  C19  1  1.21521128  0.39092280  0.12122988  1.0
  C  C20  1  0.60907720  -0.21521128  0.62122988  1.0
  C  C21  1  0.78478872  -0.39092280  0.87877012  1.0
  N  N22  1  1.36341552  0.36341552  0.25000000  1.0
  N  N23  1  0.63658448  -0.36341552  0.75000000  1.0
  Cl  Cl24  1  0.90075753  -0.09924247  0.25000000  1.0
  Cl  Cl25  1  1.09924247  0.09924247  0.75000000  1.0
  Cl  Cl26  1  0.31788847  -0.18794959  0.06899343  1.0
  Cl  Cl27  1  0.81205041  -0.68211153  0.43100657  1.0
  Cl  Cl28  1  1.68211153  0.18794959  0.93100657  1.0
  Cl  Cl29  1  1.18794959  0.68211153  0.56899343  1.0
