# generated using pymatgen
data_VN2(Cl3O)2
_symmetry_space_group_name_H-M   'P 1'
_cell_length_a   7.13574360
_cell_length_b   7.01479184
_cell_length_c   12.24988355
_cell_angle_alpha   90.00000000
_cell_angle_beta   120.04391896
_cell_angle_gamma   90.00000000
_symmetry_Int_Tables_number   1
_chemical_formula_structural   VN2(Cl3O)2
_chemical_formula_sum   'V2 N4 Cl12 O4'
_cell_volume   530.79185079
_cell_formula_units_Z   2
loop_
 _symmetry_equiv_pos_site_id
 _symmetry_equiv_pos_as_xyz
  1  'x, y, z'
loop_
 _atom_site_type_symbol
 _atom_site_label
 _atom_site_symmetry_multiplicity
 _atom_site_fract_x
 _atom_site_fract_y
 _atom_site_fract_z
 _atom_site_occupancy
  V  V0  1  0.00000000  0.50000000  0.50000000  1.0
  V  V1  1  0.00000000  0.00000000  0.00000000  1.0
  N  N2  1  0.90436661  -0.01695783  0.30467212  1.0
  N  N3  1  0.90436661  0.51695783  0.80467212  1.0
  N  N4  1  0.09563339  0.48304217  0.19532788  1.0
  N  N5  1  0.09563339  1.01695783  0.69532788  1.0
  Cl  Cl6  1  0.84082101  0.21409097  0.51228788  1.0
  Cl  Cl7  1  0.84082101  0.28590903  1.01228788  1.0
  Cl  Cl8  1  0.15917899  0.71409097  -0.01228788  1.0
  Cl  Cl9  1  0.15917899  0.78590903  0.48771212  1.0
  Cl  Cl10  1  0.83668036  0.45418096  0.28104799  1.0
  Cl  Cl11  1  0.83668036  0.04581904  0.78104799  1.0
  Cl  Cl12  1  0.16331964  0.95418096  0.21895201  1.0
  Cl  Cl13  1  0.16331964  0.54581904  0.71895201  1.0
  Cl  Cl14  1  0.70657581  0.66063018  0.47048602  1.0
  Cl  Cl15  1  0.70657581  0.83936982  0.97048602  1.0
  Cl  Cl16  1  0.29342419  0.16063018  0.02951398  1.0
  Cl  Cl17  1  0.29342419  0.33936982  0.52951398  1.0
  O  O18  1  0.74438562  0.91379422  0.24271102  1.0
  O  O19  1  0.74438562  0.58620578  0.74271102  1.0
  O  O20  1  0.25561438  0.41379422  0.25728898  1.0
  O  O21  1  0.25561438  0.08620578  0.75728898  1.0
