# generated using pymatgen
data_Ca5CdCu2
_symmetry_space_group_name_H-M   'P 1'
_cell_length_a   9.26227195
_cell_length_b   9.26227195
_cell_length_c   9.26227195
_cell_angle_alpha   129.32015609
_cell_angle_beta   129.32015609
_cell_angle_gamma   74.49597169
_symmetry_Int_Tables_number   1
_chemical_formula_structural   Ca5CdCu2
_chemical_formula_sum   'Ca10 Cd2 Cu4'
_cell_volume   463.44789501
_cell_formula_units_Z   2
loop_
 _symmetry_equiv_pos_site_id
 _symmetry_equiv_pos_as_xyz
  1  'x, y, z'
loop_
 _atom_site_type_symbol
 _atom_site_label
 _atom_site_symmetry_multiplicity
 _atom_site_fract_x
 _atom_site_fract_y
 _atom_site_fract_z
 _atom_site_occupancy
  Ca  Ca0  1  0.00000000  0.00000000  0.00000000  1.0
  Ca  Ca1  1  0.50000000  0.50000000  1.00000000  1.0
  Ca  Ca2  1  1.19184379  0.69184379  1.16219161  1.0
  Ca  Ca3  1  0.47034783  0.97034783  1.16219161  1.0
  Ca  Ca4  1  1.02965217  1.19184379  1.50000000  1.0
  Ca  Ca5  1  0.30815621  0.47034783  0.50000000  1.0
  Ca  Ca6  1  0.69184379  0.52965217  0.50000000  1.0
  Ca  Ca7  1  0.97034783  0.80815621  1.50000000  1.0
  Ca  Ca8  1  0.52965217  1.02965217  0.83780839  1.0
  Ca  Ca9  1  0.80815621  0.30815621  0.83780839  1.0
  Cd  Cd10  1  0.75000000  0.75000000  1.00000000  1.0
  Cd  Cd11  1  0.25000000  0.25000000  -0.00000000  1.0
  Cu  Cu12  1  0.88639144  0.38639144  1.27278288  1.0
  Cu  Cu13  1  0.61360856  0.88639144  1.50000000  1.0
  Cu  Cu14  1  0.38639144  0.11360856  0.50000000  1.0
  Cu  Cu15  1  0.11360856  0.61360856  0.72721712  1.0
