# generated using pymatgen
data_Li(RuO2)2
_symmetry_space_group_name_H-M   'P 1'
_cell_length_a   9.34892725
_cell_length_b   2.76652123
_cell_length_c   11.27307374
_cell_angle_alpha   90.00000000
_cell_angle_beta   90.00000000
_cell_angle_gamma   90.00000000
_symmetry_Int_Tables_number   1
_chemical_formula_structural   Li(RuO2)2
_chemical_formula_sum   'Li4 Ru8 O16'
_cell_volume   291.56684350
_cell_formula_units_Z   4
loop_
 _symmetry_equiv_pos_site_id
 _symmetry_equiv_pos_as_xyz
  1  'x, y, z'
loop_
 _atom_site_type_symbol
 _atom_site_label
 _atom_site_symmetry_multiplicity
 _atom_site_fract_x
 _atom_site_fract_y
 _atom_site_fract_z
 _atom_site_occupancy
  Li  Li0  1  0.74679348  0.75000000  0.59673953  1.0
  Li  Li1  1  0.24679348  0.75000000  0.90326047  1.0
  Li  Li2  1  0.25320652  0.25000000  0.40326047  1.0
  Li  Li3  1  0.75320652  0.25000000  0.09673953  1.0
  Ru  Ru4  1  0.91667189  0.75000000  0.39221291  1.0
  Ru  Ru5  1  0.41667189  0.75000000  0.10778709  1.0
  Ru  Ru6  1  0.08332811  0.25000000  0.60778709  1.0
  Ru  Ru7  1  0.58332811  0.25000000  0.89221291  1.0
  Ru  Ru8  1  0.43930130  0.75000000  0.61855082  1.0
  Ru  Ru9  1  0.93930130  0.75000000  0.88144918  1.0
  Ru  Ru10  1  0.56069870  0.25000000  0.38144918  1.0
  Ru  Ru11  1  0.06069870  0.25000000  0.11855082  1.0
  O  O12  1  0.90706448  0.75000000  0.06187390  1.0
  O  O13  1  0.40706448  0.75000000  0.43812610  1.0
  O  O14  1  0.09293552  0.25000000  0.93812610  1.0
  O  O15  1  0.59293552  0.25000000  0.56187390  1.0
  O  O16  1  0.70871515  0.75000000  0.34470843  1.0
  O  O17  1  0.20871515  0.75000000  0.15529157  1.0
  O  O18  1  0.29128485  0.25000000  0.65529157  1.0
  O  O19  1  0.79128485  0.25000000  0.84470843  1.0
  O  O20  1  0.61532263  0.75000000  0.02942900  1.0
  O  O21  1  0.11532263  0.75000000  0.47057100  1.0
  O  O22  1  0.38467737  0.25000000  0.97057100  1.0
  O  O23  1  0.88467737  0.25000000  0.52942900  1.0
  O  O24  1  0.52677188  0.75000000  0.77667570  1.0
  O  O25  1  0.02677188  0.75000000  0.72332430  1.0
  O  O26  1  0.47322812  0.25000000  0.22332430  1.0
  O  O27  1  0.97322812  0.25000000  0.27667570  1.0
