# generated using pymatgen
data_Ba2LaNbO6
_symmetry_space_group_name_H-M   'P 1'
_cell_length_a   6.12181967
_cell_length_b   6.12181967
_cell_length_c   6.20319626
_cell_angle_alpha   60.19237638
_cell_angle_beta   119.80762362
_cell_angle_gamma   119.83539506
_symmetry_Int_Tables_number   1
_chemical_formula_structural   Ba2LaNbO6
_chemical_formula_sum   'Ba2 La1 Nb1 O6'
_cell_volume   165.06644411
_cell_formula_units_Z   1
loop_
 _symmetry_equiv_pos_site_id
 _symmetry_equiv_pos_as_xyz
  1  'x, y, z'
loop_
 _atom_site_type_symbol
 _atom_site_label
 _atom_site_symmetry_multiplicity
 _atom_site_fract_x
 _atom_site_fract_y
 _atom_site_fract_z
 _atom_site_occupancy
  Ba  Ba0  1  0.75223321  0.24776679  0.26036600  1.0
  Ba  Ba1  1  1.24776679  -0.24776679  0.73963400  1.0
  La  La2  1  0.00000000  0.00000000  0.00000000  1.0
  Nb  Nb3  1  0.50000000  0.50000000  0.50000000  1.0
  O  O4  1  1.69085199  -0.22795876  0.68486107  1.0
  O  O5  1  1.22795876  -0.69085199  0.68486107  1.0
  O  O6  1  0.77204124  0.69085199  0.31513893  1.0
  O  O7  1  0.30914801  0.22795876  0.31513893  1.0
  O  O8  1  0.72639578  0.27360422  0.79951822  1.0
  O  O9  1  1.27360422  -0.27360422  0.20048178  1.0
