# generated using pymatgen
data_GdAgGe
_symmetry_space_group_name_H-M   'P 1'
_cell_length_a   7.22901672
_cell_length_b   7.22901672
_cell_length_c   4.26011369
_cell_angle_alpha   90.00000000
_cell_angle_beta   90.00000000
_cell_angle_gamma   120.00000000
_symmetry_Int_Tables_number   1
_chemical_formula_structural   GdAgGe
_chemical_formula_sum   'Gd3 Ag3 Ge3'
_cell_volume   192.80144254
_cell_formula_units_Z   3
loop_
 _symmetry_equiv_pos_site_id
 _symmetry_equiv_pos_as_xyz
  1  'x, y, z'
loop_
 _atom_site_type_symbol
 _atom_site_label
 _atom_site_symmetry_multiplicity
 _atom_site_fract_x
 _atom_site_fract_y
 _atom_site_fract_z
 _atom_site_occupancy
  Gd  Gd0  1  0.41566323  0.41566323  0.00000000  1.0
  Gd  Gd1  1  0.00000000  0.58433677  0.00000000  1.0
  Gd  Gd2  1  0.58433677  0.00000000  0.00000000  1.0
  Ag  Ag3  1  0.74992165  0.74992165  0.50000000  1.0
  Ag  Ag4  1  -0.00000000  0.25007835  0.50000000  1.0
  Ag  Ag5  1  0.25007835  0.00000000  0.50000000  1.0
  Ge  Ge6  1  0.33333333  0.66666667  0.50000000  1.0
  Ge  Ge7  1  0.66666667  0.33333333  0.50000000  1.0
  Ge  Ge8  1  0.00000000  0.00000000  0.00000000  1.0
