# generated using pymatgen
data_K2HgCl4O
_symmetry_space_group_name_H-M   'P 1'
_cell_length_a   8.01948469
_cell_length_b   12.22804944
_cell_length_c   8.89975462
_cell_angle_alpha   90.00000000
_cell_angle_beta   90.00000000
_cell_angle_gamma   90.00000000
_symmetry_Int_Tables_number   1
_chemical_formula_structural   K2HgCl4O
_chemical_formula_sum   'K8 Hg4 Cl16 O4'
_cell_volume   872.73356946
_cell_formula_units_Z   4
loop_
 _symmetry_equiv_pos_site_id
 _symmetry_equiv_pos_as_xyz
  1  'x, y, z'
loop_
 _atom_site_type_symbol
 _atom_site_label
 _atom_site_symmetry_multiplicity
 _atom_site_fract_x
 _atom_site_fract_y
 _atom_site_fract_z
 _atom_site_occupancy
  Hg  Hg0  1  0.50000000  0.50000000  0.73224406  1.0
  Hg  Hg1  1  0.50000000  0.50000000  0.26775594  1.0
  Hg  Hg2  1  0.00000000  0.00000000  0.73224406  1.0
  Hg  Hg3  1  0.00000000  0.00000000  0.26775594  1.0
  O  O4  1  0.50000000  0.00000000  0.82911835  1.0
  O  O5  1  0.50000000  0.00000000  0.17088165  1.0
  O  O6  1  0.00000000  0.50000000  0.82911835  1.0
  O  O7  1  0.00000000  0.50000000  0.17088165  1.0
  K  K8  1  0.40778127  0.83172907  0.50000000  1.0
  K  K9  1  0.90778127  0.66827093  0.50000000  1.0
  K  K10  1  0.59221873  0.16827093  0.50000000  1.0
  K  K11  1  0.09221873  0.33172907  0.50000000  1.0
  K  K12  1  0.39740043  0.81879335  0.00000000  1.0
  K  K13  1  0.89740043  0.68120665  0.00000000  1.0
  K  K14  1  0.60259957  0.18120665  0.00000000  1.0
  K  K15  1  0.10259957  0.31879335  0.00000000  1.0
  Cl  Cl16  1  0.10590021  0.81486449  0.74882415  1.0
  Cl  Cl17  1  0.10590021  0.81486449  0.25117585  1.0
  Cl  Cl18  1  0.60590021  0.68513551  0.74882415  1.0
  Cl  Cl19  1  0.60590021  0.68513551  0.25117585  1.0
  Cl  Cl20  1  0.89409979  0.18513551  0.74882415  1.0
  Cl  Cl21  1  0.89409979  0.18513551  0.25117585  1.0
  Cl  Cl22  1  0.39409979  0.31486449  0.74882415  1.0
  Cl  Cl23  1  0.39409979  0.31486449  0.25117585  1.0
  Cl  Cl24  1  0.27054133  0.56324199  0.50000000  1.0
  Cl  Cl25  1  0.77054133  0.93675801  0.50000000  1.0
  Cl  Cl26  1  0.72945867  0.43675801  0.50000000  1.0
  Cl  Cl27  1  0.22945867  0.06324199  0.50000000  1.0
  Cl  Cl28  1  0.24897181  0.55786694  0.00000000  1.0
  Cl  Cl29  1  0.74897181  0.94213306  0.00000000  1.0
  Cl  Cl30  1  0.75102819  0.44213306  0.00000000  1.0
  Cl  Cl31  1  0.25102819  0.05786694  0.00000000  1.0
