# generated using pymatgen
data_Ca4Nb2O9
_symmetry_space_group_name_H-M   'P 1'
_cell_length_a   9.90552935
_cell_length_b   5.56416530
_cell_length_c   17.19782721
_cell_angle_alpha   90.00000000
_cell_angle_beta   123.99116078
_cell_angle_gamma   90.00000000
_symmetry_Int_Tables_number   1
_chemical_formula_structural   Ca4Nb2O9
_chemical_formula_sum   'Ca16 Nb8 O36'
_cell_volume   785.90615897
_cell_formula_units_Z   4
loop_
 _symmetry_equiv_pos_site_id
 _symmetry_equiv_pos_as_xyz
  1  'x, y, z'
loop_
 _atom_site_type_symbol
 _atom_site_label
 _atom_site_symmetry_multiplicity
 _atom_site_fract_x
 _atom_site_fract_y
 _atom_site_fract_z
 _atom_site_occupancy
  Ca  Ca0  1  0.87931729  0.98706789  0.07684990  1.0
  Ca  Ca1  1  0.87931729  0.51293211  0.57684990  1.0
  Ca  Ca2  1  0.12068271  0.48706789  0.42315010  1.0
  Ca  Ca3  1  0.12068271  0.01293211  0.92315010  1.0
  Ca  Ca4  1  0.78705109  0.00113983  0.27001203  1.0
  Ca  Ca5  1  0.78705109  0.49886017  0.77001203  1.0
  Ca  Ca6  1  0.21294891  0.50113983  0.22998797  1.0
  Ca  Ca7  1  0.21294891  0.99886017  0.72998797  1.0
  Ca  Ca8  1  0.50000000  0.50000000  0.50000000  1.0
  Ca  Ca9  1  0.50000000  0.00000000  -0.00000000  1.0
  Ca  Ca10  1  0.00000000  0.50000000  0.00000000  1.0
  Ca  Ca11  1  -0.00000000  0.00000000  0.50000000  1.0
  Ca  Ca12  1  0.45344434  0.48085620  0.11003905  1.0
  Ca  Ca13  1  0.45344434  0.01914380  0.61003905  1.0
  Ca  Ca14  1  0.54655566  0.98085620  0.38996095  1.0
  Ca  Ca15  1  0.54655566  0.51914380  0.88996095  1.0
  Nb  Nb16  1  0.82809970  0.49420256  0.16062801  1.0
  Nb  Nb17  1  0.82809970  0.00579744  0.66062801  1.0
  Nb  Nb18  1  0.17190030  0.99420256  0.33937199  1.0
  Nb  Nb19  1  0.17190030  0.50579744  0.83937199  1.0
  Nb  Nb20  1  0.67871726  0.48849508  0.33764987  1.0
  Nb  Nb21  1  0.67871726  0.01150492  0.83764987  1.0
  Nb  Nb22  1  0.32128274  0.98849508  0.16235013  1.0
  Nb  Nb23  1  0.32128274  0.51150492  0.66235013  1.0
  O  O24  1  0.54846121  0.20327619  0.25061553  1.0
  O  O25  1  0.54846121  0.29672381  0.75061553  1.0
  O  O26  1  0.45153879  0.70327619  0.24938447  1.0
  O  O27  1  0.45153879  0.79672381  0.74938447  1.0
  O  O28  1  0.88129707  0.32352703  0.39878558  1.0
  O  O29  1  0.88129707  0.17647297  0.89878558  1.0
  O  O30  1  0.11870293  0.82352703  0.10121442  1.0
  O  O31  1  0.11870293  0.67647297  0.60121442  1.0
  O  O32  1  0.76331217  0.79259881  0.40037099  1.0
  O  O33  1  0.76331217  0.70740119  0.90037099  1.0
  O  O34  1  0.23668783  0.29259881  0.09962901  1.0
  O  O35  1  0.23668783  0.20740119  0.59962901  1.0
  O  O36  1  0.70140705  0.19974299  0.12891314  1.0
  O  O37  1  0.70140705  0.30025701  0.62891314  1.0
  O  O38  1  0.29859295  0.69974299  0.37108686  1.0
  O  O39  1  0.29859295  0.80025701  0.87108686  1.0
  O  O40  1  0.62606469  0.38540949  0.42486555  1.0
  O  O41  1  0.62606469  0.11459051  0.92486555  1.0
  O  O42  1  0.37393531  0.88540949  0.07513445  1.0
  O  O43  1  0.37393531  0.61459051  0.57513445  1.0
  O  O44  1  0.32865768  0.17011279  0.44989728  1.0
  O  O45  1  0.32865768  0.32988721  0.94989728  1.0
  O  O46  1  0.67134232  0.67011279  0.05010272  1.0
  O  O47  1  0.67134232  0.82988721  0.55010272  1.0
  O  O48  1  0.27778617  0.09228970  0.26713429  1.0
  O  O49  1  0.27778617  0.40771030  0.76713429  1.0
  O  O50  1  0.72221383  0.59228970  0.23286571  1.0
  O  O51  1  0.72221383  0.90771030  0.73286571  1.0
  O  O52  1  0.97795716  0.78285637  0.21775130  1.0
  O  O53  1  0.97795716  0.71714363  0.71775130  1.0
  O  O54  1  0.02204284  0.28285637  0.28224870  1.0
  O  O55  1  0.02204284  0.21714363  0.78224870  1.0
  O  O56  1  0.94344037  0.38275762  0.10644745  1.0
  O  O57  1  0.94344037  0.11724238  0.60644745  1.0
  O  O58  1  0.05655963  0.88275762  0.39355255  1.0
  O  O59  1  0.05655963  0.61724238  0.89355255  1.0
