# generated using pymatgen
data_TiTl2(IO3)6
_symmetry_space_group_name_H-M   'P 1'
_cell_length_a   7.78226165
_cell_length_b   7.78226165
_cell_length_c   7.78226165
_cell_angle_alpha   97.22622983
_cell_angle_beta   97.22622983
_cell_angle_gamma   97.22622983
_symmetry_Int_Tables_number   1
_chemical_formula_structural   TiTl2(IO3)6
_chemical_formula_sum   'Ti1 Tl2 I6 O18'
_cell_volume   459.03739767
_cell_formula_units_Z   1
loop_
 _symmetry_equiv_pos_site_id
 _symmetry_equiv_pos_as_xyz
  1  'x, y, z'
loop_
 _atom_site_type_symbol
 _atom_site_label
 _atom_site_symmetry_multiplicity
 _atom_site_fract_x
 _atom_site_fract_y
 _atom_site_fract_z
 _atom_site_occupancy
  Ti  Ti0  1  0.00000000  0.00000000  0.00000000  1.0
  Tl  Tl1  1  0.67525923  0.67525923  0.67525923  1.0
  Tl  Tl2  1  0.32474077  0.32474077  0.32474077  1.0
  I  I3  1  0.83287987  0.63023737  0.20418588  1.0
  I  I4  1  1.36976263  -0.20418588  0.16712013  1.0
  I  I5  1  0.79581412  0.16712013  0.36976263  1.0
  I  I6  1  1.16712013  0.36976263  -0.20418588  1.0
  I  I7  1  0.63023737  1.20418588  -0.16712013  1.0
  I  I8  1  1.20418588  0.83287987  -0.36976263  1.0
  O  O9  1  0.83214468  0.80751891  0.04864334  1.0
  O  O10  1  1.19248109  -0.04864334  0.16785532  1.0
  O  O11  1  0.95135666  0.16785532  0.19248109  1.0
  O  O12  1  1.16785532  0.19248109  -0.04864334  1.0
  O  O13  1  0.80751891  1.04864334  -0.16785532  1.0
  O  O14  1  1.04864334  0.83214468  -0.19248109  1.0
  O  O15  1  0.58728931  0.59018309  0.18710746  1.0
  O  O16  1  1.40981691  -0.18710746  0.41271069  1.0
  O  O17  1  0.81289254  0.41271069  0.40981691  1.0
  O  O18  1  1.41271069  0.40981691  -0.18710746  1.0
  O  O19  1  0.59018309  1.18710746  -0.41271069  1.0
  O  O20  1  1.18710746  0.58728931  -0.40981691  1.0
  O  O21  1  1.41153455  0.89655835  -0.20854689  1.0
  O  O22  1  1.10344165  0.20854689  -0.41153455  1.0
  O  O23  1  1.20854689  -0.41153455  0.10344165  1.0
  O  O24  1  0.58846545  0.10344165  0.20854689  1.0
  O  O25  1  0.89655835  0.79145311  0.41153455  1.0
  O  O26  1  0.79145311  1.41153455  -0.10344165  1.0
