# generated using pymatgen
data_Zr6Ni(SnH5)2
_symmetry_space_group_name_H-M   'P 1'
_cell_length_a   8.14402727
_cell_length_b   8.14402727
_cell_length_c   7.36182574
_cell_angle_alpha   90.00000000
_cell_angle_beta   90.00000000
_cell_angle_gamma   120.00000000
_symmetry_Int_Tables_number   1
_chemical_formula_structural   Zr6Ni(SnH5)2
_chemical_formula_sum   'Zr12 Ni2 Sn4 H20'
_cell_volume   422.85805078
_cell_formula_units_Z   2
loop_
 _symmetry_equiv_pos_site_id
 _symmetry_equiv_pos_as_xyz
  1  'x, y, z'
loop_
 _atom_site_type_symbol
 _atom_site_label
 _atom_site_symmetry_multiplicity
 _atom_site_fract_x
 _atom_site_fract_y
 _atom_site_fract_z
 _atom_site_occupancy
  Zr  Zr0  1  0.63288056  0.58524947  0.25000000  1.0
  Zr  Zr1  1  0.58524947  0.63288056  0.75000000  1.0
  Zr  Zr2  1  0.95236891  0.36711944  0.25000000  1.0
  Zr  Zr3  1  0.41475053  0.04763109  0.25000000  1.0
  Zr  Zr4  1  0.36711944  0.95236891  0.75000000  1.0
  Zr  Zr5  1  0.04763109  0.41475053  0.75000000  1.0
  Zr  Zr6  1  0.25795541  0.25795541  0.50000000  1.0
  Zr  Zr7  1  0.25795541  0.25795541  0.00000000  1.0
  Zr  Zr8  1  -0.00000000  0.74204459  0.50000000  1.0
  Zr  Zr9  1  -0.00000000  0.74204459  0.00000000  1.0
  Zr  Zr10  1  0.74204459  0.00000000  0.50000000  1.0
  Zr  Zr11  1  0.74204459  0.00000000  0.00000000  1.0
  Ni  Ni12  1  0.00000000  0.00000000  0.25000000  1.0
  Ni  Ni13  1  0.00000000  0.00000000  0.75000000  1.0
  Sn  Sn14  1  0.33333333  0.66666667  0.45987266  1.0
  Sn  Sn15  1  0.33333333  0.66666667  0.04012734  1.0
  Sn  Sn16  1  0.66666667  0.33333333  0.95987266  1.0
  Sn  Sn17  1  0.66666667  0.33333333  0.54012734  1.0
  H  H18  1  0.11822045  0.87704414  0.25000000  1.0
  H  H19  1  0.87704414  0.11822045  0.75000000  1.0
  H  H20  1  0.75882369  0.88177955  0.25000000  1.0
  H  H21  1  0.12295586  0.24117631  0.25000000  1.0
  H  H22  1  0.88177955  0.75882369  0.75000000  1.0
  H  H23  1  0.24117631  0.12295586  0.75000000  1.0
  H  H24  1  0.89581551  0.59831521  0.25000000  1.0
  H  H25  1  0.59831521  0.89581551  0.75000000  1.0
  H  H26  1  0.70249970  0.10418449  0.25000000  1.0
  H  H27  1  0.40168479  0.29750030  0.25000000  1.0
  H  H28  1  0.10418449  0.70249970  0.75000000  1.0
  H  H29  1  0.29750030  0.40168479  0.75000000  1.0
  H  H30  1  0.72710670  0.72710670  0.50000000  1.0
  H  H31  1  0.72710670  0.72710670  0.00000000  1.0
  H  H32  1  -0.00000000  0.27289330  0.50000000  1.0
  H  H33  1  -0.00000000  0.27289330  0.00000000  1.0
  H  H34  1  0.27289330  0.00000000  0.50000000  1.0
  H  H35  1  0.27289330  0.00000000  0.00000000  1.0
  H  H36  1  0.00000000  0.00000000  0.50000000  1.0
  H  H37  1  0.00000000  0.00000000  0.00000000  1.0
