# generated using pymatgen
data_LaGa4
_symmetry_space_group_name_H-M   'P 1'
_cell_length_a   4.35054271
_cell_length_b   7.74822363
_cell_length_c   12.94373689
_cell_angle_alpha   90.00000000
_cell_angle_beta   90.00000000
_cell_angle_gamma   90.00000000
_symmetry_Int_Tables_number   1
_chemical_formula_structural   LaGa4
_chemical_formula_sum   'La4 Ga16'
_cell_volume   436.32014029
_cell_formula_units_Z   4
loop_
 _symmetry_equiv_pos_site_id
 _symmetry_equiv_pos_as_xyz
  1  'x, y, z'
loop_
 _atom_site_type_symbol
 _atom_site_label
 _atom_site_symmetry_multiplicity
 _atom_site_fract_x
 _atom_site_fract_y
 _atom_site_fract_z
 _atom_site_occupancy
  La  La0  1  0.00000000  0.00000000  0.66285682  1.0
  La  La1  1  0.00000000  0.00000000  0.33714318  1.0
  La  La2  1  0.00000000  0.50000000  0.50000000  1.0
  La  La3  1  0.00000000  0.00000000  0.00000000  1.0
  Ga  Ga4  1  0.50000000  0.84059582  0.83512547  1.0
  Ga  Ga5  1  0.50000000  0.84059582  0.16487453  1.0
  Ga  Ga6  1  0.50000000  0.15940418  0.83512547  1.0
  Ga  Ga7  1  0.50000000  0.15940418  0.16487453  1.0
  Ga  Ga8  1  0.50000000  0.66650196  0.66430457  1.0
  Ga  Ga9  1  0.50000000  0.66650196  0.33569543  1.0
  Ga  Ga10  1  0.50000000  0.33349804  0.66430457  1.0
  Ga  Ga11  1  0.50000000  0.33349804  0.33569543  1.0
  Ga  Ga12  1  0.00000000  0.65804925  0.81330444  1.0
  Ga  Ga13  1  0.00000000  0.65804925  0.18669556  1.0
  Ga  Ga14  1  0.00000000  0.34195075  0.81330444  1.0
  Ga  Ga15  1  0.00000000  0.34195075  0.18669556  1.0
  Ga  Ga16  1  0.50000000  0.83733424  0.50000000  1.0
  Ga  Ga17  1  0.50000000  0.16266576  0.50000000  1.0
  Ga  Ga18  1  0.50000000  0.65943968  0.00000000  1.0
  Ga  Ga19  1  0.50000000  0.34056032  0.00000000  1.0
