# generated using pymatgen
data_AlPd5
_symmetry_space_group_name_H-M   'P 1'
_cell_length_a   10.88314519
_cell_length_b   4.02271976
_cell_length_c   8.19577164
_cell_angle_alpha   90.00000000
_cell_angle_beta   90.00000000
_cell_angle_gamma   90.00000000
_symmetry_Int_Tables_number   1
_chemical_formula_structural   AlPd5
_chemical_formula_sum   'Al4 Pd20'
_cell_volume   358.80959752
_cell_formula_units_Z   4
loop_
 _symmetry_equiv_pos_site_id
 _symmetry_equiv_pos_as_xyz
  1  'x, y, z'
loop_
 _atom_site_type_symbol
 _atom_site_label
 _atom_site_symmetry_multiplicity
 _atom_site_fract_x
 _atom_site_fract_y
 _atom_site_fract_z
 _atom_site_occupancy
  Al  Al0  1  0.41983156  0.75000000  0.88518237  1.0
  Al  Al1  1  0.91983156  0.75000000  0.61481763  1.0
  Al  Al2  1  0.58016844  0.25000000  0.11481763  1.0
  Al  Al3  1  0.08016844  0.25000000  0.38518237  1.0
  Pd  Pd4  1  0.43013529  0.75000000  0.57115807  1.0
  Pd  Pd5  1  0.93013529  0.75000000  0.92884193  1.0
  Pd  Pd6  1  0.56986471  0.25000000  0.42884193  1.0
  Pd  Pd7  1  0.06986471  0.25000000  0.07115807  1.0
  Pd  Pd8  1  0.16376390  0.75000000  0.54380437  1.0
  Pd  Pd9  1  0.66376390  0.75000000  0.95619563  1.0
  Pd  Pd10  1  0.83623610  0.25000000  0.45619563  1.0
  Pd  Pd11  1  0.33623610  0.25000000  0.04380437  1.0
  Pd  Pd12  1  0.18382369  0.75000000  0.88495519  1.0
  Pd  Pd13  1  0.68382369  0.75000000  0.61504481  1.0
  Pd  Pd14  1  0.81617631  0.25000000  0.11504481  1.0
  Pd  Pd15  1  0.31617631  0.25000000  0.38495519  1.0
  Pd  Pd16  1  0.20361806  0.75000000  0.21446270  1.0
  Pd  Pd17  1  0.70361806  0.75000000  0.28553730  1.0
  Pd  Pd18  1  0.79638194  0.25000000  0.78553730  1.0
  Pd  Pd19  1  0.29638194  0.25000000  0.71446270  1.0
  Pd  Pd20  1  0.45732594  0.75000000  0.21770849  1.0
  Pd  Pd21  1  0.95732594  0.75000000  0.28229151  1.0
  Pd  Pd22  1  0.54267406  0.25000000  0.78229151  1.0
  Pd  Pd23  1  0.04267406  0.25000000  0.71770849  1.0
