# generated using pymatgen
data_Ta12Mn5N
_symmetry_space_group_name_H-M   'P 1'
_cell_length_a   9.98834725
_cell_length_b   9.98834725
_cell_length_c   9.98834725
_cell_angle_alpha   60.00000000
_cell_angle_beta   60.00000000
_cell_angle_gamma   60.00000000
_symmetry_Int_Tables_number   1
_chemical_formula_structural   Ta12Mn5N
_chemical_formula_sum   'Ta24 Mn10 N2'
_cell_volume   704.63773978
_cell_formula_units_Z   2
loop_
 _symmetry_equiv_pos_site_id
 _symmetry_equiv_pos_as_xyz
  1  'x, y, z'
loop_
 _atom_site_type_symbol
 _atom_site_label
 _atom_site_symmetry_multiplicity
 _atom_site_fract_x
 _atom_site_fract_y
 _atom_site_fract_z
 _atom_site_occupancy
  Ta  Ta0  1  0.95341118  -0.59307838  0.68625602  1.0
  Ta  Ta1  1  -0.04658882  0.68625602  0.40692162  1.0
  Ta  Ta2  1  -0.15692162  0.29658882  0.29658882  1.0
  Ta  Ta3  1  0.56374398  0.29658882  0.29658882  1.0
  Ta  Ta4  1  -0.59307838  0.95341118  0.68625602  1.0
  Ta  Ta5  1  0.95341118  -0.04658882  0.68625602  1.0
  Ta  Ta6  1  0.95341118  -0.31374398  0.95341118  1.0
  Ta  Ta7  1  -0.59307838  0.68625602  0.95341118  1.0
  Ta  Ta8  1  0.29658882  -0.15692162  0.29658882  1.0
  Ta  Ta9  1  0.29658882  0.29658882  -0.15692162  1.0
  Ta  Ta10  1  0.56374398  0.29658882  -0.15692162  1.0
  Ta  Ta11  1  0.56374398  -0.15692162  0.29658882  1.0
  Ta  Ta12  1  0.68625602  -0.04658882  0.95341118  1.0
  Ta  Ta13  1  -0.59307838  0.95341118  0.95341118  1.0
  Ta  Ta14  1  0.29658882  0.56374398  -0.15692162  1.0
  Ta  Ta15  1  0.29658882  -0.15692162  0.56374398  1.0
  Ta  Ta16  1  -0.31374398  0.95341118  0.40692162  1.0
  Ta  Ta17  1  0.68625602  -0.59307838  0.95341118  1.0
  Ta  Ta18  1  0.95341118  -0.59307838  0.95341118  1.0
  Ta  Ta19  1  -0.04658882  0.95341118  0.40692162  1.0
  Ta  Ta20  1  0.29658882  0.56374398  0.29658882  1.0
  Ta  Ta21  1  -0.15692162  0.56374398  0.29658882  1.0
  Ta  Ta22  1  -0.15692162  0.29658882  0.56374398  1.0
  Ta  Ta23  1  0.29658882  0.29658882  0.56374398  1.0
  Mn  Mn24  1  0.66356848  -0.33643152  1.00929455  1.0
  Mn  Mn25  1  0.66356848  0.00929455  0.66356848  1.0
  Mn  Mn26  1  0.58643152  -0.41356848  0.58643152  1.0
  Mn  Mn27  1  1.24070545  -0.41356848  0.58643152  1.0
  Mn  Mn28  1  1.00929455  -0.33643152  0.66356848  1.0
  Mn  Mn29  1  0.66356848  -0.33643152  0.66356848  1.0
  Mn  Mn30  1  0.58643152  0.24070545  0.58643152  1.0
  Mn  Mn31  1  0.58643152  -0.41356848  1.24070545  1.0
  Mn  Mn32  1  0.50000000  0.50000000  -0.50000000  1.0
  Mn  Mn33  1  0.75000000  -0.25000000  0.75000000  1.0
  N  N34  1  -0.00000000  1.00000000  0.00000000  1.0
  N  N35  1  0.25000000  0.25000000  0.25000000  1.0
