# generated using pymatgen
data_GdSiPt
_symmetry_space_group_name_H-M   'P 1'
_cell_length_a   7.79267171
_cell_length_b   7.79267171
_cell_length_c   7.79267171
_cell_angle_alpha   149.20875077
_cell_angle_beta   149.20875077
_cell_angle_gamma   44.10412595
_symmetry_Int_Tables_number   1
_chemical_formula_structural   GdSiPt
_chemical_formula_sum   'Gd2 Si2 Pt2'
_cell_volume   123.65085422
_cell_formula_units_Z   2
loop_
 _symmetry_equiv_pos_site_id
 _symmetry_equiv_pos_as_xyz
  1  'x, y, z'
loop_
 _atom_site_type_symbol
 _atom_site_label
 _atom_site_symmetry_multiplicity
 _atom_site_fract_x
 _atom_site_fract_y
 _atom_site_fract_z
 _atom_site_occupancy
  Gd  Gd0  1  0.58051140  0.58051140  1.00000000  1.0
  Gd  Gd1  1  0.33051140  0.83051140  0.50000000  1.0
  Si  Si2  1  -0.00000819  -0.00000819  -0.00000000  1.0
  Si  Si3  1  0.74999181  0.24999181  0.50000000  1.0
  Pt  Pt4  1  0.16649679  0.16649679  0.00000000  1.0
  Pt  Pt5  1  0.91649679  0.41649679  0.50000000  1.0
