# generated using pymatgen
data_FeP2HO7
_symmetry_space_group_name_H-M   'P 1'
_cell_length_a   7.48060778
_cell_length_b   8.53180026
_cell_length_c   10.07554542
_cell_angle_alpha   90.00000000
_cell_angle_beta   125.06749748
_cell_angle_gamma   90.00000000
_symmetry_Int_Tables_number   1
_chemical_formula_structural   FeP2HO7
_chemical_formula_sum   'Fe4 P8 H4 O28'
_cell_volume   526.32252552
_cell_formula_units_Z   4
loop_
 _symmetry_equiv_pos_site_id
 _symmetry_equiv_pos_as_xyz
  1  'x, y, z'
loop_
 _atom_site_type_symbol
 _atom_site_label
 _atom_site_symmetry_multiplicity
 _atom_site_fract_x
 _atom_site_fract_y
 _atom_site_fract_z
 _atom_site_occupancy
  H  H0  1  0.87012712  0.87149945  0.49089817  1.0
  H  H1  1  0.87012712  0.62850055  0.99089817  1.0
  H  H2  1  0.12987288  0.37149945  0.00910183  1.0
  H  H3  1  0.12987288  0.12850055  0.50910183  1.0
  Fe  Fe4  1  0.45730370  0.29845546  0.47122434  1.0
  Fe  Fe5  1  0.45730370  0.20154454  0.97122434  1.0
  Fe  Fe6  1  0.54269630  0.79845546  0.02877566  1.0
  Fe  Fe7  1  0.54269630  0.70154454  0.52877566  1.0
  O  O8  1  0.97078272  0.15268340  0.43271928  1.0
  O  O9  1  0.97078272  0.34731660  0.93271928  1.0
  O  O10  1  0.02921728  0.65268340  0.06728072  1.0
  O  O11  1  0.02921728  0.84731660  0.56728072  1.0
  O  O12  1  0.81011501  0.42307108  0.33324824  1.0
  O  O13  1  0.81011501  0.07692892  0.83324824  1.0
  O  O14  1  0.18988499  0.92307108  0.16675176  1.0
  O  O15  1  0.18988499  0.57692892  0.66675176  1.0
  O  O16  1  0.50856503  0.48841095  0.36617943  1.0
  O  O17  1  0.50856503  0.01158905  0.86617943  1.0
  O  O18  1  0.49143497  0.98841095  0.13382057  1.0
  O  O19  1  0.49143497  0.51158905  0.63382057  1.0
  O  O20  1  0.44051077  0.14995846  0.31920189  1.0
  O  O21  1  0.44051077  0.35004154  0.81920189  1.0
  O  O22  1  0.55948923  0.64995846  0.18079811  1.0
  O  O23  1  0.55948923  0.85004154  0.68079811  1.0
  O  O24  1  0.77043078  0.22289600  0.13303345  1.0
  O  O25  1  0.77043078  0.27710400  0.63303345  1.0
  O  O26  1  0.22956922  0.72289600  0.36696655  1.0
  O  O27  1  0.22956922  0.77710400  0.86696655  1.0
  O  O28  1  0.41045798  0.37027115  0.09677137  1.0
  O  O29  1  0.41045798  0.12972885  0.59677137  1.0
  O  O30  1  0.58954202  0.87027115  0.40322863  1.0
  O  O31  1  0.58954202  0.62972885  0.90322863  1.0
  O  O32  1  0.85626654  0.84448707  0.15551416  1.0
  O  O33  1  0.85626654  0.65551293  0.65551416  1.0
  O  O34  1  0.14373346  0.34448707  0.34448584  1.0
  O  O35  1  0.14373346  0.15551293  0.84448584  1.0
  P  P36  1  0.92843196  0.28153163  0.30591787  1.0
  P  P37  1  0.92843196  0.21846837  0.80591787  1.0
  P  P38  1  0.07156804  0.78153163  0.19408213  1.0
  P  P39  1  0.07156804  0.71846837  0.69408213  1.0
  P  P40  1  0.55974970  0.48382700  0.23750366  1.0
  P  P41  1  0.55974970  0.01617300  0.73750366  1.0
  P  P42  1  0.44025030  0.98382700  0.26249634  1.0
  P  P43  1  0.44025030  0.51617300  0.76249634  1.0
