# generated using pymatgen
data_H4BrN
_symmetry_space_group_name_H-M   'P 1'
_cell_length_a   4.64961999
_cell_length_b   5.29881016
_cell_length_c   6.49086522
_cell_angle_alpha   90.00000000
_cell_angle_beta   90.02963147
_cell_angle_gamma   90.00000000
_symmetry_Int_Tables_number   1
_chemical_formula_structural   H4BrN
_chemical_formula_sum   'H8 Br2 N2'
_cell_volume   159.91836959
_cell_formula_units_Z   2
loop_
 _symmetry_equiv_pos_site_id
 _symmetry_equiv_pos_as_xyz
  1  'x, y, z'
loop_
 _atom_site_type_symbol
 _atom_site_label
 _atom_site_symmetry_multiplicity
 _atom_site_fract_x
 _atom_site_fract_y
 _atom_site_fract_z
 _atom_site_occupancy
  H  H0  1  0.52480925  0.58919956  0.74998925  1.0
  H  H1  1  0.52480925  -0.08919956  0.74998925  1.0
  H  H2  1  0.47519075  1.08919956  0.25001075  1.0
  H  H3  1  0.47519075  0.41080044  0.25001075  1.0
  H  H4  1  0.73125140  0.25000000  0.38255793  1.0
  H  H5  1  0.26874860  0.75000000  0.61744207  1.0
  H  H6  1  -0.26827797  0.25000000  0.11811690  1.0
  H  H7  1  1.26827797  0.75000000  0.88188310  1.0
  Br  Br8  1  0.84237410  0.25000000  0.75008814  1.0
  Br  Br9  1  0.15762590  0.75000000  0.24991186  1.0
  N  N10  1  0.60574593  0.25000000  0.25016385  1.0
  N  N11  1  0.39425407  0.75000000  0.74983615  1.0
