# generated using pymatgen
data_KP(HO2)2
_symmetry_space_group_name_H-M   'P 1'
_cell_length_a   7.04197698
_cell_length_b   7.60404066
_cell_length_c   7.60969998
_cell_angle_alpha   90.00000000
_cell_angle_beta   90.00000000
_cell_angle_gamma   90.00000000
_symmetry_Int_Tables_number   1
_chemical_formula_structural   KP(HO2)2
_chemical_formula_sum   'K4 P4 H8 O16'
_cell_volume   407.48025216
_cell_formula_units_Z   4
loop_
 _symmetry_equiv_pos_site_id
 _symmetry_equiv_pos_as_xyz
  1  'x, y, z'
loop_
 _atom_site_type_symbol
 _atom_site_label
 _atom_site_symmetry_multiplicity
 _atom_site_fract_x
 _atom_site_fract_y
 _atom_site_fract_z
 _atom_site_occupancy
  K  K0  1  0.87509120  0.00556112  0.74193447  1.0
  K  K1  1  0.37509120  0.49443888  0.25806553  1.0
  K  K2  1  0.12490880  0.50556112  0.75806553  1.0
  K  K3  1  0.62490880  -0.00556112  0.24193447  1.0
  P  P4  1  0.37531924  -0.00799086  0.75687683  1.0
  P  P5  1  0.87531924  0.50799086  0.24312317  1.0
  P  P6  1  0.62468076  0.49200914  0.74312317  1.0
  P  P7  1  0.12468076  0.00799086  0.25687683  1.0
  H  H8  1  0.49368826  0.76694787  0.60578833  1.0
  H  H9  1  -0.00631174  0.73305213  0.39421167  1.0
  H  H10  1  0.50631174  0.26694787  0.89421167  1.0
  H  H11  1  1.00631174  0.23305213  0.10578833  1.0
  H  H12  1  0.23904886  0.85744251  0.02622471  1.0
  H  H13  1  0.73904886  0.64255749  0.97377529  1.0
  H  H14  1  0.76095114  0.35744251  0.47377529  1.0
  H  H15  1  0.26095114  0.14255749  0.52622471  1.0
  O  O16  1  0.49204829  0.57479732  0.60592595  1.0
  O  O17  1  0.99204829  0.92520268  0.39407405  1.0
  O  O18  1  0.50795171  0.07479732  0.89407405  1.0
  O  O19  1  0.00795171  0.42520268  0.10592595  1.0
  O  O20  1  0.49659635  0.90548598  0.60193091  1.0
  O  O21  1  -0.00340365  0.59451402  0.39806909  1.0
  O  O22  1  0.50340365  0.40548598  0.89806909  1.0
  O  O23  1  1.00340365  0.09451402  0.10193091  1.0
  O  O24  1  0.23806004  0.85534469  0.83399938  1.0
  O  O25  1  0.73806004  0.64465531  0.16600062  1.0
  O  O26  1  0.76193996  0.35534469  0.66600062  1.0
  O  O27  1  0.26193996  0.14465531  0.33399938  1.0
  O  O28  1  0.24075432  0.85301834  0.16456091  1.0
  O  O29  1  0.74075432  0.64698166  0.83543909  1.0
  O  O30  1  0.75924568  0.35301834  0.33543909  1.0
  O  O31  1  0.25924568  0.14698166  0.66456091  1.0
