# generated using pymatgen
data_Y10Cd3Pd
_symmetry_space_group_name_H-M   'P 1'
_cell_length_a   9.74720982
_cell_length_b   9.74720982
_cell_length_c   9.78126475
_cell_angle_alpha   90.00000000
_cell_angle_beta   90.00000000
_cell_angle_gamma   120.00000000
_symmetry_Int_Tables_number   1
_chemical_formula_structural   Y10Cd3Pd
_chemical_formula_sum   'Y20 Cd6 Pd2'
_cell_volume   804.79686466
_cell_formula_units_Z   2
loop_
 _symmetry_equiv_pos_site_id
 _symmetry_equiv_pos_as_xyz
  1  'x, y, z'
loop_
 _atom_site_type_symbol
 _atom_site_label
 _atom_site_symmetry_multiplicity
 _atom_site_fract_x
 _atom_site_fract_y
 _atom_site_fract_z
 _atom_site_occupancy
  Y  Y0  1  0.20778290  0.79221710  0.44147453  1.0
  Y  Y1  1  0.20778290  0.79221710  0.05852547  1.0
  Y  Y2  1  0.20778290  0.41556581  0.44147453  1.0
  Y  Y3  1  0.20778290  0.41556581  0.05852547  1.0
  Y  Y4  1  0.79221710  0.20778290  0.94147453  1.0
  Y  Y5  1  0.79221710  0.20778290  0.55852547  1.0
  Y  Y6  1  0.79221710  0.58443419  0.94147453  1.0
  Y  Y7  1  0.79221710  0.58443419  0.55852547  1.0
  Y  Y8  1  0.58443419  0.79221710  0.44147453  1.0
  Y  Y9  1  0.58443419  0.79221710  0.05852547  1.0
  Y  Y10  1  0.41556581  0.20778290  0.94147453  1.0
  Y  Y11  1  0.41556581  0.20778290  0.55852547  1.0
  Y  Y12  1  0.54366076  0.45633924  0.25000000  1.0
  Y  Y13  1  0.54366076  0.08732152  0.25000000  1.0
  Y  Y14  1  0.45633924  0.54366076  0.75000000  1.0
  Y  Y15  1  0.45633924  0.91267848  0.75000000  1.0
  Y  Y16  1  0.91267848  0.45633924  0.25000000  1.0
  Y  Y17  1  0.08732152  0.54366076  0.75000000  1.0
  Y  Y18  1  0.00000000  0.00000000  0.50000000  1.0
  Y  Y19  1  -0.00000000  0.00000000  0.00000000  1.0
  Cd  Cd20  1  0.88450712  0.11549288  0.25000000  1.0
  Cd  Cd21  1  0.88450712  0.76901425  0.25000000  1.0
  Cd  Cd22  1  0.11549288  0.88450712  0.75000000  1.0
  Cd  Cd23  1  0.11549288  0.23098575  0.75000000  1.0
  Cd  Cd24  1  0.23098575  0.11549288  0.25000000  1.0
  Cd  Cd25  1  0.76901425  0.88450712  0.75000000  1.0
  Pd  Pd26  1  0.33333333  0.66666667  0.25000000  1.0
  Pd  Pd27  1  0.66666667  0.33333333  0.75000000  1.0
