# generated using pymatgen
data_Sr2Li3NbN4
_symmetry_space_group_name_H-M   'P 1'
_cell_length_a   8.71999371
_cell_length_b   8.99721472
_cell_length_c   7.01806137
_cell_angle_alpha   90.00000000
_cell_angle_beta   90.00000000
_cell_angle_gamma   90.00000000
_symmetry_Int_Tables_number   1
_chemical_formula_structural   Sr2Li3NbN4
_chemical_formula_sum   'Sr8 Li12 Nb4 N16'
_cell_volume   550.60660713
_cell_formula_units_Z   4
loop_
 _symmetry_equiv_pos_site_id
 _symmetry_equiv_pos_as_xyz
  1  'x, y, z'
loop_
 _atom_site_type_symbol
 _atom_site_label
 _atom_site_symmetry_multiplicity
 _atom_site_fract_x
 _atom_site_fract_y
 _atom_site_fract_z
 _atom_site_occupancy
  Sr  Sr0  1  0.25919963  0.25214412  0.50000000  1.0
  Sr  Sr1  1  0.75919963  0.24785588  0.00000000  1.0
  Sr  Sr2  1  0.74080037  0.74785588  0.50000000  1.0
  Sr  Sr3  1  0.24080037  0.75214412  0.00000000  1.0
  Sr  Sr4  1  0.50000000  0.50000000  0.23998919  1.0
  Sr  Sr5  1  0.50000000  0.50000000  0.76001081  1.0
  Sr  Sr6  1  0.00000000  0.00000000  0.73998919  1.0
  Sr  Sr7  1  0.00000000  0.00000000  0.26001081  1.0
  Li  Li8  1  0.48085107  0.86582168  0.26038537  1.0
  Li  Li9  1  0.48085107  0.86582168  0.73961463  1.0
  Li  Li10  1  0.98085107  0.63417832  0.76038537  1.0
  Li  Li11  1  0.98085107  0.63417832  0.23961463  1.0
  Li  Li12  1  0.51914893  0.13417832  0.26038537  1.0
  Li  Li13  1  0.51914893  0.13417832  0.73961463  1.0
  Li  Li14  1  0.01914893  0.36582168  0.76038537  1.0
  Li  Li15  1  0.01914893  0.36582168  0.23961463  1.0
  Li  Li16  1  0.29593259  0.92098998  0.50000000  1.0
  Li  Li17  1  0.79593259  0.57901002  0.00000000  1.0
  Li  Li18  1  0.70406741  0.07901002  0.50000000  1.0
  Li  Li19  1  0.20406741  0.42098998  0.00000000  1.0
  Nb  Nb20  1  0.21390882  0.63683446  0.50000000  1.0
  Nb  Nb21  1  0.71390882  0.86316554  0.00000000  1.0
  Nb  Nb22  1  0.78609118  0.36316554  0.50000000  1.0
  Nb  Nb23  1  0.28609118  0.13683446  0.00000000  1.0
  N  N24  1  0.19767747  0.51895023  0.26499937  1.0
  N  N25  1  0.19767747  0.51895023  0.73500063  1.0
  N  N26  1  0.69767747  0.98104977  0.76499937  1.0
  N  N27  1  0.69767747  0.98104977  0.23500063  1.0
  N  N28  1  0.80232253  0.48104977  0.26499937  1.0
  N  N29  1  0.80232253  0.48104977  0.73500063  1.0
  N  N30  1  0.30232253  0.01895023  0.76499937  1.0
  N  N31  1  0.30232253  0.01895023  0.23500063  1.0
  N  N32  1  0.42620902  0.72093606  0.50000000  1.0
  N  N33  1  0.92620902  0.77906394  0.00000000  1.0
  N  N34  1  0.57379098  0.27906394  0.50000000  1.0
  N  N35  1  0.07379098  0.22093606  0.00000000  1.0
  N  N36  1  0.04632341  0.78262652  0.50000000  1.0
  N  N37  1  0.54632341  0.71737348  0.00000000  1.0
  N  N38  1  0.95367659  0.21737348  0.50000000  1.0
  N  N39  1  0.45367659  0.28262652  0.00000000  1.0
