# generated using pymatgen
data_Sr2Cu(BiO3)2
_symmetry_space_group_name_H-M   'P 1'
_cell_length_a   13.08689713
_cell_length_b   13.08689713
_cell_length_c   5.13349385
_cell_angle_alpha   90.00000000
_cell_angle_beta   90.00000000
_cell_angle_gamma   155.56517849
_symmetry_Int_Tables_number   1
_chemical_formula_structural   Sr2Cu(BiO3)2
_chemical_formula_sum   'Sr4 Cu2 Bi4 O12'
_cell_volume   363.68690510
_cell_formula_units_Z   2
loop_
 _symmetry_equiv_pos_site_id
 _symmetry_equiv_pos_as_xyz
  1  'x, y, z'
loop_
 _atom_site_type_symbol
 _atom_site_label
 _atom_site_symmetry_multiplicity
 _atom_site_fract_x
 _atom_site_fract_y
 _atom_site_fract_z
 _atom_site_occupancy
  Sr  Sr0  1  0.42520128  1.06500507  0.00000000  1.0
  Sr  Sr1  1  0.06500507  0.42520128  0.50000000  1.0
  Sr  Sr2  1  -0.06500507  0.57479872  0.50000000  1.0
  Sr  Sr3  1  0.57479872  0.93499493  0.00000000  1.0
  Cu  Cu4  1  0.00000000  0.50000000  0.00000000  1.0
  Cu  Cu5  1  0.50000000  1.00000000  0.50000000  1.0
  Bi  Bi6  1  -0.20877514  0.65966188  0.00000000  1.0
  Bi  Bi7  1  0.65966188  0.79122486  0.50000000  1.0
  Bi  Bi8  1  0.34033812  1.20877514  0.50000000  1.0
  Bi  Bi9  1  0.20877514  0.34033812  0.00000000  1.0
  O  O10  1  0.40735794  1.26996930  0.00000000  1.0
  O  O11  1  0.26996930  0.40735794  0.50000000  1.0
  O  O12  1  -0.26996930  0.59264206  0.50000000  1.0
  O  O13  1  0.59264206  0.73003070  0.00000000  1.0
  O  O14  1  -0.08270182  0.62689848  0.00000000  1.0
  O  O15  1  0.62689848  0.91729818  0.50000000  1.0
  O  O16  1  0.37310152  1.08270182  0.50000000  1.0
  O  O17  1  0.08270182  0.37310152  0.00000000  1.0
  O  O18  1  0.25138572  0.74861428  0.75000000  1.0
  O  O19  1  0.25138572  0.74861428  0.25000000  1.0
  O  O20  1  -0.25138572  0.25138572  0.25000000  1.0
  O  O21  1  -0.25138572  0.25138572  0.75000000  1.0
