# generated using pymatgen
data_SrZn(SeO3)2
_symmetry_space_group_name_H-M   'P 1'
_cell_length_a   4.59791872
_cell_length_b   15.35328452
_cell_length_c   10.12294640
_cell_angle_alpha   90.00000000
_cell_angle_beta   111.30753385
_cell_angle_gamma   90.00000000
_symmetry_Int_Tables_number   1
_chemical_formula_structural   SrZn(SeO3)2
_chemical_formula_sum   'Sr4 Zn4 Se8 O24'
_cell_volume   665.76239811
_cell_formula_units_Z   4
loop_
 _symmetry_equiv_pos_site_id
 _symmetry_equiv_pos_as_xyz
  1  'x, y, z'
loop_
 _atom_site_type_symbol
 _atom_site_label
 _atom_site_symmetry_multiplicity
 _atom_site_fract_x
 _atom_site_fract_y
 _atom_site_fract_z
 _atom_site_occupancy
  Sr  Sr0  1  0.71442669  0.88260777  0.95237231  1.0
  Sr  Sr1  1  0.71442669  0.61739223  0.45237231  1.0
  Sr  Sr2  1  0.28557331  0.38260777  0.54762769  1.0
  Sr  Sr3  1  0.28557331  0.11739223  0.04762769  1.0
  Zn  Zn4  1  0.50461228  0.35123451  0.22977337  1.0
  Zn  Zn5  1  0.50461228  0.14876549  0.72977337  1.0
  Zn  Zn6  1  0.49538772  0.85123451  0.27022663  1.0
  Zn  Zn7  1  0.49538772  0.64876549  0.77022663  1.0
  Se  Se8  1  0.98517822  0.49425700  0.22450973  1.0
  Se  Se9  1  0.98517822  0.00574300  0.72450973  1.0
  Se  Se10  1  0.01482178  0.99425700  0.27549027  1.0
  Se  Se11  1  0.01482178  0.50574300  0.77549027  1.0
  Se  Se12  1  0.64022156  0.19658627  0.44432126  1.0
  Se  Se13  1  0.64022156  0.30341373  0.94432126  1.0
  Se  Se14  1  0.35977844  0.69658627  0.05567874  1.0
  Se  Se15  1  0.35977844  0.80341373  0.55567874  1.0
  O  O16  1  0.90050851  0.88543871  0.24575733  1.0
  O  O17  1  0.90050851  0.61456129  0.74575733  1.0
  O  O18  1  0.09949149  0.38543871  0.25424267  1.0
  O  O19  1  0.09949149  0.11456129  0.75424267  1.0
  O  O20  1  0.82952988  0.03691293  0.10854395  1.0
  O  O21  1  0.82952988  0.46308707  0.60854395  1.0
  O  O22  1  0.17047012  0.53691293  0.39145605  1.0
  O  O23  1  0.17047012  0.96308707  0.89145605  1.0
  O  O24  1  0.73041495  0.30615248  0.42669312  1.0
  O  O25  1  0.73041495  0.19384752  0.92669312  1.0
  O  O26  1  0.26958505  0.80615248  0.07330688  1.0
  O  O27  1  0.26958505  0.69384752  0.57330688  1.0
  O  O28  1  0.61320684  0.47904963  0.22519384  1.0
  O  O29  1  0.61320684  0.02095037  0.72519384  1.0
  O  O30  1  0.38679316  0.97904963  0.27480616  1.0
  O  O31  1  0.38679316  0.52095037  0.77480616  1.0
  O  O32  1  0.42822171  0.28526269  0.05477051  1.0
  O  O33  1  0.42822171  0.21473731  0.55477051  1.0
  O  O34  1  0.57177829  0.78526269  0.44522949  1.0
  O  O35  1  0.57177829  0.71473731  0.94522949  1.0
  O  O36  1  0.35774497  0.17989664  0.28504235  1.0
  O  O37  1  0.35774497  0.32010336  0.78504235  1.0
  O  O38  1  0.64225503  0.67989664  0.21495765  1.0
  O  O39  1  0.64225503  0.82010336  0.71495765  1.0
