# generated using pymatgen
data_C2N2O
_symmetry_space_group_name_H-M   'P 1'
_cell_length_a   6.49622272
_cell_length_b   7.91291906
_cell_length_c   9.56160599
_cell_angle_alpha   90.00000000
_cell_angle_beta   106.46896281
_cell_angle_gamma   90.00000000
_symmetry_Int_Tables_number   1
_chemical_formula_structural   C2N2O
_chemical_formula_sum   'C12 N12 O6'
_cell_volume   471.34082081
_cell_formula_units_Z   6
loop_
 _symmetry_equiv_pos_site_id
 _symmetry_equiv_pos_as_xyz
  1  'x, y, z'
loop_
 _atom_site_type_symbol
 _atom_site_label
 _atom_site_symmetry_multiplicity
 _atom_site_fract_x
 _atom_site_fract_y
 _atom_site_fract_z
 _atom_site_occupancy
  C  C0  1  0.88877656  0.50187748  0.29562761  1.0
  C  C1  1  0.11122344  0.00187748  0.70437239  1.0
  C  C2  1  0.85748126  0.41393116  0.16065978  1.0
  C  C3  1  0.14251874  0.91393116  0.83934022  1.0
  C  C4  1  0.99788629  0.31341852  0.10800066  1.0
  C  C5  1  0.00211371  0.81341852  0.89199934  1.0
  C  C6  1  0.38557862  0.48092722  0.56161475  1.0
  C  C7  1  0.61442138  0.98092722  0.43838525  1.0
  C  C8  1  0.08296297  0.50817740  0.41565450  1.0
  C  C9  1  0.91703703  0.00817740  0.58434550  1.0
  C  C10  1  0.60001933  0.42364514  0.62421594  1.0
  C  C11  1  0.39998067  0.92364514  0.37578406  1.0
  N  N12  1  0.71266639  0.58083387  0.30138594  1.0
  N  N13  1  0.28733361  0.08083387  0.69861406  1.0
  N  N14  1  0.65432033  0.44013709  0.07927869  1.0
  N  N15  1  0.34567967  0.94013709  0.92072131  1.0
  N  N16  1  0.11048707  0.22845157  0.06250114  1.0
  N  N17  1  0.88951293  0.72845157  0.93749886  1.0
  N  N18  1  0.29076468  0.58827105  0.62980671  1.0
  N  N19  1  0.70923532  0.08827105  0.37019329  1.0
  N  N20  1  0.26230135  0.42734802  0.42741669  1.0
  N  N21  1  0.73769865  0.92734802  0.57258331  1.0
  N  N22  1  0.77330113  0.37160990  0.67085666  1.0
  N  N23  1  0.22669887  0.87160990  0.32914334  1.0
  O  O24  1  0.55936959  0.55402349  0.17890507  1.0
  O  O25  1  0.44063041  0.05402349  0.82109493  1.0
  O  O26  1  0.54321821  0.40074399  0.96134054  1.0
  O  O27  1  0.45678179  0.90074399  0.03865946  1.0
  O  O28  1  0.08780952  0.60660409  0.53278521  1.0
  O  O29  1  0.91219048  0.10660409  0.46721479  1.0
