# generated using pymatgen
data_Be22W
_symmetry_space_group_name_H-M   'P 1'
_cell_length_a   8.16975950
_cell_length_b   8.16975950
_cell_length_c   8.16975950
_cell_angle_alpha   60.00000000
_cell_angle_beta   60.00000000
_cell_angle_gamma   60.00000000
_symmetry_Int_Tables_number   1
_chemical_formula_structural   Be22W
_chemical_formula_sum   'Be44 W2'
_cell_volume   385.57850780
_cell_formula_units_Z   2
loop_
 _symmetry_equiv_pos_site_id
 _symmetry_equiv_pos_as_xyz
  1  'x, y, z'
loop_
 _atom_site_type_symbol
 _atom_site_label
 _atom_site_symmetry_multiplicity
 _atom_site_fract_x
 _atom_site_fract_y
 _atom_site_fract_z
 _atom_site_occupancy
  Be  Be0  1  0.62500000  -0.37500000  1.12500000  1.0
  Be  Be1  1  0.62500000  0.12500000  0.62500000  1.0
  Be  Be2  1  1.12500000  -0.37500000  0.62500000  1.0
  Be  Be3  1  0.62500000  -0.37500000  0.62500000  1.0
  Be  Be4  1  0.12500000  0.12500000  1.62500000  1.0
  Be  Be5  1  0.12500000  0.62500000  0.12500000  1.0
  Be  Be6  1  0.62500000  0.12500000  1.12500000  1.0
  Be  Be7  1  0.12500000  0.12500000  0.12500000  1.0
  Be  Be8  1  0.61509908  -0.38490092  0.88490092  1.0
  Be  Be9  1  0.88490092  -0.38490092  0.88490092  1.0
  Be  Be10  1  0.61509908  -0.11509908  0.88490092  1.0
  Be  Be11  1  0.88490092  -0.11509908  0.61509908  1.0
  Be  Be12  1  0.61509908  -0.11509908  0.61509908  1.0
  Be  Be13  1  0.88490092  -0.38490092  0.61509908  1.0
  Be  Be14  1  -0.36509908  0.63490092  0.36509908  1.0
  Be  Be15  1  0.36509908  0.63490092  0.36509908  1.0
  Be  Be16  1  -0.36509908  1.36509908  0.36509908  1.0
  Be  Be17  1  0.36509908  0.36509908  -0.36509908  1.0
  Be  Be18  1  0.63490092  0.36509908  0.63490092  1.0
  Be  Be19  1  0.36509908  0.63490092  -0.36509908  1.0
  Be  Be20  1  0.44913631  -0.07956608  0.18129345  1.0
  Be  Be21  1  0.44913631  0.44913631  0.18129345  1.0
  Be  Be22  1  -0.07956608  0.44913631  0.18129345  1.0
  Be  Be23  1  0.44913631  0.18129345  -0.07956608  1.0
  Be  Be24  1  -0.07956608  0.18129345  0.44913631  1.0
  Be  Be25  1  0.44913631  0.18129345  0.44913631  1.0
  Be  Be26  1  0.18129345  0.44913631  0.44913631  1.0
  Be  Be27  1  0.18129345  -0.07956608  0.44913631  1.0
  Be  Be28  1  0.18129345  0.44913631  -0.07956608  1.0
  Be  Be29  1  -0.07956608  0.44913631  0.44913631  1.0
  Be  Be30  1  0.44913631  0.44913631  -0.07956608  1.0
  Be  Be31  1  0.44913631  -0.07956608  0.44913631  1.0
  Be  Be32  1  0.80086369  -0.67043392  1.06870655  1.0
  Be  Be33  1  0.80086369  -0.19913631  1.06870655  1.0
  Be  Be34  1  -0.67043392  0.80086369  1.06870655  1.0
  Be  Be35  1  -0.19913631  1.06870655  0.32956608  1.0
  Be  Be36  1  -0.67043392  1.06870655  0.80086369  1.0
  Be  Be37  1  0.80086369  0.06870655  0.80086369  1.0
  Be  Be38  1  1.06870655  -0.19913631  0.80086369  1.0
  Be  Be39  1  1.06870655  -0.67043392  0.80086369  1.0
  Be  Be40  1  0.06870655  0.80086369  0.32956608  1.0
  Be  Be41  1  -0.67043392  0.80086369  0.80086369  1.0
  Be  Be42  1  -0.19913631  0.80086369  0.32956608  1.0
  Be  Be43  1  0.80086369  -0.67043392  0.80086369  1.0
  W  W44  1  0.25000000  0.25000000  0.25000000  1.0
  W  W45  1  -0.00000000  1.00000000  0.00000000  1.0
