# generated using pymatgen
data_Na2Sr(P2O9)2
_symmetry_space_group_name_H-M   'P 1'
_cell_length_a   8.94400510
_cell_length_b   8.94400510
_cell_length_c   8.94400510
_cell_angle_alpha   128.91846904
_cell_angle_beta   68.54163302
_cell_angle_gamma   137.52831948
_symmetry_Int_Tables_number   1
_chemical_formula_structural   Na2Sr(P2O9)2
_chemical_formula_sum   'Na2 Sr1 P4 O18'
_cell_volume   369.34132503
_cell_formula_units_Z   1
loop_
 _symmetry_equiv_pos_site_id
 _symmetry_equiv_pos_as_xyz
  1  'x, y, z'
loop_
 _atom_site_type_symbol
 _atom_site_label
 _atom_site_symmetry_multiplicity
 _atom_site_fract_x
 _atom_site_fract_y
 _atom_site_fract_z
 _atom_site_occupancy
  O  O0  1  0.27687092  0.98246754  0.92278732  1.0
  O  O1  1  1.05968022  0.98246754  0.70559662  1.0
  O  O2  1  0.27687092  0.35408360  0.29440338  1.0
  O  O3  1  1.05968022  1.35408360  1.07721268  1.0
  O  O4  1  0.37115724  0.76449500  0.60666224  1.0
  O  O5  1  1.15783276  0.76449500  0.39333776  1.0
  O  O6  1  0.45090429  0.74304869  0.29214441  1.0
  O  O7  1  0.45090429  1.15875988  0.70785559  1.0
  O  O8  1  0.89005125  1.32159449  0.56845677  1.0
  O  O9  1  0.75313772  0.32159449  0.43154323  1.0
  O  O10  1  0.88499708  1.25494658  0.36994950  1.0
  O  O11  1  0.88499708  1.51504758  0.63005050  1.0
  O  O12  1  0.56925734  0.72013442  0.84912292  1.0
  O  O13  1  0.87101150  0.72013442  0.15087708  1.0
  O  O14  1  0.36350697  0.81018010  1.11334092  1.0
  O  O15  1  0.69683918  0.81018010  0.44667314  1.0
  O  O16  1  0.36350697  0.25016604  0.55332686  1.0
  O  O17  1  0.69683918  1.25016604  0.88665908  1.0
  Sr  Sr18  1  -0.03502110  -0.03502110  0.00000000  1.0
  P  P19  1  0.45480923  1.04972824  0.79754861  1.0
  P  P20  1  1.25217963  1.04972824  0.59491901  1.0
  P  P21  1  0.45480923  0.65726062  0.40508099  1.0
  P  P22  1  1.25217963  1.65726062  1.20245139  1.0
  Na  Na23  1  0.94305282  1.18459912  0.75845370  1.0
  Na  Na24  1  0.42614542  0.18459912  0.24154630  1.0
