# generated using pymatgen
data_LaAu
_symmetry_space_group_name_H-M   'P 1'
_cell_length_a   7.63922489
_cell_length_b   4.89624919
_cell_length_c   5.95092414
_cell_angle_alpha   90.00000000
_cell_angle_beta   90.00000000
_cell_angle_gamma   90.00000000
_symmetry_Int_Tables_number   1
_chemical_formula_structural   LaAu
_chemical_formula_sum   'La4 Au4'
_cell_volume   222.58568043
_cell_formula_units_Z   4
loop_
 _symmetry_equiv_pos_site_id
 _symmetry_equiv_pos_as_xyz
  1  'x, y, z'
loop_
 _atom_site_type_symbol
 _atom_site_label
 _atom_site_symmetry_multiplicity
 _atom_site_fract_x
 _atom_site_fract_y
 _atom_site_fract_z
 _atom_site_occupancy
  La  La0  1  0.31385224  0.75000000  0.14482677  1.0
  La  La1  1  0.81385224  0.75000000  0.35517323  1.0
  La  La2  1  0.68614776  0.25000000  0.85517323  1.0
  La  La3  1  0.18614776  0.25000000  0.64482677  1.0
  Au  Au4  1  0.45964664  0.75000000  0.65020305  1.0
  Au  Au5  1  0.95964664  0.75000000  0.84979695  1.0
  Au  Au6  1  0.54035336  0.25000000  0.34979695  1.0
  Au  Au7  1  0.04035336  0.25000000  0.15020305  1.0
