# generated using pymatgen
data_RhI3
_symmetry_space_group_name_H-M   'P 1'
_cell_length_a   6.93009493
_cell_length_b   6.93009493
_cell_length_c   7.48323363
_cell_angle_alpha   82.26423210
_cell_angle_beta   97.73576790
_cell_angle_gamma   59.99563991
_symmetry_Int_Tables_number   1
_chemical_formula_structural   RhI3
_chemical_formula_sum   'Rh2 I6'
_cell_volume   299.73680690
_cell_formula_units_Z   2
loop_
 _symmetry_equiv_pos_site_id
 _symmetry_equiv_pos_as_xyz
  1  'x, y, z'
loop_
 _atom_site_type_symbol
 _atom_site_label
 _atom_site_symmetry_multiplicity
 _atom_site_fract_x
 _atom_site_fract_y
 _atom_site_fract_z
 _atom_site_occupancy
  Rh  Rh0  1  0.83330473  -0.16669527  -0.00000000  1.0
  Rh  Rh1  1  1.16669527  0.16669527  -0.00000000  1.0
  I  I2  1  0.43906385  -0.08063949  0.79000371  1.0
  I  I3  1  1.08063949  0.56093615  0.79000371  1.0
  I  I4  1  0.91936051  -0.56093615  0.20999629  1.0
  I  I5  1  1.56093615  0.08063949  0.20999629  1.0
  I  I6  1  0.79649061  -0.79649061  0.79037455  1.0
  I  I7  1  0.20350939  -0.20350939  0.20962545  1.0
