# generated using pymatgen
data_Li2Fe(SO4)2
_symmetry_space_group_name_H-M   'P 1'
_cell_length_a   5.05964577
_cell_length_b   8.26822530
_cell_length_c   8.98324339
_cell_angle_alpha   90.00000000
_cell_angle_beta   121.75480481
_cell_angle_gamma   90.00000000
_symmetry_Int_Tables_number   1
_chemical_formula_structural   Li2Fe(SO4)2
_chemical_formula_sum   'Li4 Fe2 S4 O16'
_cell_volume   319.55226068
_cell_formula_units_Z   2
loop_
 _symmetry_equiv_pos_site_id
 _symmetry_equiv_pos_as_xyz
  1  'x, y, z'
loop_
 _atom_site_type_symbol
 _atom_site_label
 _atom_site_symmetry_multiplicity
 _atom_site_fract_x
 _atom_site_fract_y
 _atom_site_fract_z
 _atom_site_occupancy
  Li  Li0  1  0.99050944  0.86383595  0.40033192  1.0
  Li  Li1  1  0.99050943  0.63616405  0.90033192  1.0
  Li  Li2  1  0.00949057  0.36383595  0.09966808  1.0
  Li  Li3  1  0.00949057  0.13616405  0.59966808  1.0
  Fe  Fe4  1  0.00000000  0.50000000  0.50000000  1.0
  Fe  Fe5  1  0.00000000  0.00000000  0.00000000  1.0
  S  S6  1  0.66744887  0.19369374  0.19792937  1.0
  S  S7  1  0.66744887  0.30630626  0.69792937  1.0
  S  S8  1  0.33255113  0.69369374  0.30207063  1.0
  S  S9  1  0.33255113  0.80630626  0.80207063  1.0
  O  O10  1  0.79512569  0.36164840  0.25176179  1.0
  O  O11  1  0.79512569  0.13835160  0.75176179  1.0
  O  O12  1  0.20487431  0.86164840  0.24823821  1.0
  O  O13  1  0.20487432  0.63835160  0.74823821  1.0
  O  O14  1  0.82254193  0.08044643  0.34759813  1.0
  O  O15  1  0.82254193  0.41955357  0.84759813  1.0
  O  O16  1  0.17745807  0.58044643  0.15240187  1.0
  O  O17  1  0.17745807  0.91955357  0.65240187  1.0
  O  O18  1  0.71995457  0.14754815  0.05400845  1.0
  O  O19  1  0.71995457  0.35245185  0.55400845  1.0
  O  O20  1  0.28004543  0.64754815  0.44599155  1.0
  O  O21  1  0.28004543  0.85245185  0.94599155  1.0
  O  O22  1  0.32249731  0.19323667  0.12552890  1.0
  O  O23  1  0.32249731  0.30676333  0.62552890  1.0
  O  O24  1  0.67750269  0.69323667  0.37447110  1.0
  O  O25  1  0.67750269  0.80676333  0.87447110  1.0
