# generated using pymatgen
data_H3XeO3
_symmetry_space_group_name_H-M   'P 1'
_cell_length_a   8.07553095
_cell_length_b   8.07553095
_cell_length_c   11.88952871
_cell_angle_alpha   90.00000000
_cell_angle_beta   90.00000000
_cell_angle_gamma   120.00000000
_symmetry_Int_Tables_number   1
_chemical_formula_structural   H3XeO3
_chemical_formula_sum   'H12 Xe4 O12'
_cell_volume   671.48674383
_cell_formula_units_Z   4
loop_
 _symmetry_equiv_pos_site_id
 _symmetry_equiv_pos_as_xyz
  1  'x, y, z'
loop_
 _atom_site_type_symbol
 _atom_site_label
 _atom_site_symmetry_multiplicity
 _atom_site_fract_x
 _atom_site_fract_y
 _atom_site_fract_z
 _atom_site_occupancy
  H  H0  1  0.27473211  0.91133983  0.25000000  1.0
  H  H1  1  0.27473211  0.36339228  0.25000000  1.0
  H  H2  1  0.91133983  0.27473211  0.75000000  1.0
  H  H3  1  0.91133983  0.63660772  0.75000000  1.0
  H  H4  1  0.63660772  0.91133983  0.25000000  1.0
  H  H5  1  0.63660772  0.72526789  0.25000000  1.0
  H  H6  1  0.08866017  0.72526789  0.25000000  1.0
  H  H7  1  0.08866017  0.36339228  0.25000000  1.0
  H  H8  1  0.72526789  0.63660772  0.75000000  1.0
  H  H9  1  0.72526789  0.08866017  0.75000000  1.0
  H  H10  1  0.36339228  0.27473211  0.75000000  1.0
  H  H11  1  0.36339228  0.08866017  0.75000000  1.0
  Xe  Xe12  1  0.33333333  0.66666667  0.94149485  1.0
  Xe  Xe13  1  0.33333333  0.66666667  0.55850515  1.0
  Xe  Xe14  1  0.66666667  0.33333333  0.44149485  1.0
  Xe  Xe15  1  0.66666667  0.33333333  0.05850515  1.0
  O  O16  1  0.15477521  0.84522479  0.32132945  1.0
  O  O17  1  0.15477521  0.84522479  0.17867055  1.0
  O  O18  1  0.15477521  0.30955041  0.32132945  1.0
  O  O19  1  0.15477521  0.30955041  0.17867055  1.0
  O  O20  1  0.84522479  0.15477521  0.82132945  1.0
  O  O21  1  0.84522479  0.15477521  0.67867055  1.0
  O  O22  1  0.84522479  0.69044959  0.82132945  1.0
  O  O23  1  0.84522479  0.69044959  0.67867055  1.0
  O  O24  1  0.69044959  0.84522479  0.32132945  1.0
  O  O25  1  0.69044959  0.84522479  0.17867055  1.0
  O  O26  1  0.30955041  0.15477521  0.82132945  1.0
  O  O27  1  0.30955041  0.15477521  0.67867055  1.0
