# generated using pymatgen
data_Rb3Cu2(BiS2)5
_symmetry_space_group_name_H-M   'P 1'
_cell_length_a   14.81306495
_cell_length_b   18.22592405
_cell_length_c   4.07040622
_cell_angle_alpha   90.00000000
_cell_angle_beta   90.00000000
_cell_angle_gamma   90.00000000
_symmetry_Int_Tables_number   1
_chemical_formula_structural   Rb3Cu2(BiS2)5
_chemical_formula_sum   'Rb6 Cu4 Bi10 S20'
_cell_volume   1098.93558551
_cell_formula_units_Z   2
loop_
 _symmetry_equiv_pos_site_id
 _symmetry_equiv_pos_as_xyz
  1  'x, y, z'
loop_
 _atom_site_type_symbol
 _atom_site_label
 _atom_site_symmetry_multiplicity
 _atom_site_fract_x
 _atom_site_fract_y
 _atom_site_fract_z
 _atom_site_occupancy
  Rb  Rb0  1  0.02092788  0.75303882  0.50000000  1.0
  Rb  Rb1  1  0.52092788  0.74696118  0.00000000  1.0
  Rb  Rb2  1  0.97907212  0.24696118  0.50000000  1.0
  Rb  Rb3  1  0.47907212  0.25303882  0.00000000  1.0
  Rb  Rb4  1  0.50000000  0.00000000  0.50000000  1.0
  Rb  Rb5  1  0.00000000  0.50000000  0.00000000  1.0
  Cu  Cu6  1  0.27152722  0.75336523  0.50000000  1.0
  Cu  Cu7  1  0.77152722  0.74663477  0.00000000  1.0
  Cu  Cu8  1  0.72847278  0.24663477  0.50000000  1.0
  Cu  Cu9  1  0.22847278  0.25336523  0.00000000  1.0
  Bi  Bi10  1  0.21530415  0.09515398  0.50000000  1.0
  Bi  Bi11  1  0.71530415  0.40484602  0.00000000  1.0
  Bi  Bi12  1  0.78469585  0.90484602  0.50000000  1.0
  Bi  Bi13  1  0.28469585  0.59515398  0.00000000  1.0
  Bi  Bi14  1  0.76233256  0.60257806  0.50000000  1.0
  Bi  Bi15  1  0.26233256  0.89742194  0.00000000  1.0
  Bi  Bi16  1  0.23766744  0.39742194  0.50000000  1.0
  Bi  Bi17  1  0.73766744  0.10257806  0.00000000  1.0
  Bi  Bi18  1  0.50000000  0.50000000  0.50000000  1.0
  Bi  Bi19  1  0.00000000  0.00000000  0.00000000  1.0
  S  S20  1  0.40544341  0.63506655  0.50000000  1.0
  S  S21  1  0.90544341  0.86493345  0.00000000  1.0
  S  S22  1  0.59455659  0.36493345  0.50000000  1.0
  S  S23  1  0.09455659  0.13506655  0.00000000  1.0
  S  S24  1  0.37167200  0.85119122  0.50000000  1.0
  S  S25  1  0.87167200  0.64880878  0.00000000  1.0
  S  S26  1  0.62832800  0.14880878  0.50000000  1.0
  S  S27  1  0.12832800  0.35119122  0.00000000  1.0
  S  S28  1  0.29834066  0.22793155  0.50000000  1.0
  S  S29  1  0.79834066  0.27206845  -0.00000000  1.0
  S  S30  1  0.70165934  0.77206845  0.50000000  1.0
  S  S31  1  0.20165934  0.72793155  -0.00000000  1.0
  S  S32  1  0.17063892  0.53273642  0.50000000  1.0
  S  S33  1  0.67063892  0.96726358  0.00000000  1.0
  S  S34  1  0.82936108  0.46726358  0.50000000  1.0
  S  S35  1  0.32936108  0.03273642  0.00000000  1.0
  S  S36  1  0.12057417  0.94763679  0.50000000  1.0
  S  S37  1  0.62057417  0.55236321  -0.00000000  1.0
  S  S38  1  0.87942583  0.05236321  0.50000000  1.0
  S  S39  1  0.37942583  0.44763679  -0.00000000  1.0
