# generated using pymatgen
data_BaZr4(PO4)6
_symmetry_space_group_name_H-M   'P 1'
_cell_length_a   9.52878414
_cell_length_b   9.52878414
_cell_length_c   9.52878414
_cell_angle_alpha   55.09165971
_cell_angle_beta   55.09165971
_cell_angle_gamma   55.09165971
_symmetry_Int_Tables_number   1
_chemical_formula_structural   BaZr4(PO4)6
_chemical_formula_sum   'Ba1 Zr4 P6 O24'
_cell_volume   541.94237651
_cell_formula_units_Z   1
loop_
 _symmetry_equiv_pos_site_id
 _symmetry_equiv_pos_as_xyz
  1  'x, y, z'
loop_
 _atom_site_type_symbol
 _atom_site_label
 _atom_site_symmetry_multiplicity
 _atom_site_fract_x
 _atom_site_fract_y
 _atom_site_fract_z
 _atom_site_occupancy
  Ba  Ba0  1  0.00000000  0.00000000  0.00000000  1.0
  Zr  Zr1  1  0.35364752  0.35364752  -0.64635248  1.0
  Zr  Zr2  1  0.64635248  0.64635248  -0.35364752  1.0
  Zr  Zr3  1  0.15121908  0.15121908  0.15121908  1.0
  Zr  Zr4  1  0.84878092  -0.15121908  -0.15121908  1.0
  P  P5  1  0.53955305  0.24697118  -0.03167610  1.0
  P  P6  1  1.03167610  -0.53955305  -0.24697118  1.0
  P  P7  1  0.75302882  0.03167610  -0.53955305  1.0
  P  P8  1  0.46044695  -0.24697118  0.03167610  1.0
  P  P9  1  0.96832390  -0.46044695  0.24697118  1.0
  P  P10  1  1.24697118  -0.03167610  -0.46044695  1.0
  O  O11  1  0.56734722  0.18723934  -0.55252817  1.0
  O  O12  1  0.55252817  0.43265278  -0.18723934  1.0
  O  O13  1  0.81276066  0.55252817  -0.56734722  1.0
  O  O14  1  0.43265278  0.81276066  -0.44747183  1.0
  O  O15  1  0.44747183  0.56734722  -0.81276066  1.0
  O  O16  1  0.18723934  0.44747183  -0.43265278  1.0
  O  O17  1  0.22162279  0.99743410  -0.62310488  1.0
  O  O18  1  0.62310488  -0.22162279  0.00256590  1.0
  O  O19  1  1.00256590  -0.37689512  -0.22162279  1.0
  O  O20  1  0.77837721  0.00256590  -0.37689512  1.0
  O  O21  1  0.37689512  0.22162279  -0.00256590  1.0
  O  O22  1  0.99743410  0.37689512  -0.77837721  1.0
  O  O23  1  0.51946137  0.23783007  0.14645029  1.0
  O  O24  1  0.85354971  -0.51946137  -0.23783007  1.0
  O  O25  1  0.76216993  -0.14645029  -0.51946137  1.0
  O  O26  1  0.48053863  -0.23783007  -0.14645029  1.0
  O  O27  1  1.14645029  -0.48053863  0.23783007  1.0
  O  O28  1  1.23783007  0.14645029  -0.48053863  1.0
  O  O29  1  0.27968037  0.91307543  -0.91397677  1.0
  O  O30  1  0.91397677  -0.27968037  0.08692457  1.0
  O  O31  1  1.08692457  -0.08602323  -0.27968037  1.0
  O  O32  1  0.72031963  0.08692457  -0.08602323  1.0
  O  O33  1  0.08602323  0.27968037  -0.08692457  1.0
  O  O34  1  0.91307543  0.08602323  -0.72031963  1.0
