# generated using pymatgen
data_Ti3O7
_symmetry_space_group_name_H-M   'P 1'
_cell_length_a   8.37056242
_cell_length_b   8.37056242
_cell_length_c   10.01781988
_cell_angle_alpha   72.18739766
_cell_angle_beta   107.81260234
_cell_angle_gamma   153.38941041
_symmetry_Int_Tables_number   1
_chemical_formula_structural   Ti3O7
_chemical_formula_sum   'Ti6 O14'
_cell_volume   298.46613607
_cell_formula_units_Z   2
loop_
 _symmetry_equiv_pos_site_id
 _symmetry_equiv_pos_as_xyz
  1  'x, y, z'
loop_
 _atom_site_type_symbol
 _atom_site_label
 _atom_site_symmetry_multiplicity
 _atom_site_fract_x
 _atom_site_fract_y
 _atom_site_fract_z
 _atom_site_occupancy
  Ti  Ti0  1  0.79951927  0.20048073  0.73302512  1.0
  Ti  Ti1  1  0.20048073  -0.20048073  0.26697488  1.0
  Ti  Ti2  1  0.83148828  0.16851172  0.45093815  1.0
  Ti  Ti3  1  0.16851172  -0.16851172  0.54906185  1.0
  Ti  Ti4  1  0.85439121  0.14560879  0.14694909  1.0
  Ti  Ti5  1  0.14560879  -0.14560879  0.85305091  1.0
  O  O6  1  0.78803427  0.21196573  0.92794306  1.0
  O  O7  1  0.21196573  -0.21196573  0.07205694  1.0
  O  O8  1  0.88072382  0.11927618  0.64995961  1.0
  O  O9  1  0.11927618  -0.11927618  0.35004039  1.0
  O  O10  1  0.90297289  0.09702711  0.35453002  1.0
  O  O11  1  0.09702711  -0.09702711  0.64546998  1.0
  O  O12  1  0.94110041  0.05889959  0.10049667  1.0
  O  O13  1  0.05889959  -0.05889959  0.89950333  1.0
  O  O14  1  0.69356452  0.30643548  0.86048510  1.0
  O  O15  1  0.30643548  -0.30643548  0.13951490  1.0
  O  O16  1  0.70593757  0.29406243  0.56033156  1.0
  O  O17  1  0.29406243  -0.29406243  0.43966844  1.0
  O  O18  1  0.72677759  0.27322241  0.27412134  1.0
  O  O19  1  0.27322241  -0.27322241  0.72587866  1.0
