# generated using pymatgen
data_Cu2As2O7
_symmetry_space_group_name_H-M   'P 1'
_cell_length_a   5.67984877
_cell_length_b   5.67984877
_cell_length_c   10.09943258
_cell_angle_alpha   74.54858513
_cell_angle_beta   105.45141487
_cell_angle_gamma   85.49727189
_symmetry_Int_Tables_number   1
_chemical_formula_structural   Cu2As2O7
_chemical_formula_sum   'Cu4 As4 O14'
_cell_volume   298.74397937
_cell_formula_units_Z   2
loop_
 _symmetry_equiv_pos_site_id
 _symmetry_equiv_pos_as_xyz
  1  'x, y, z'
loop_
 _atom_site_type_symbol
 _atom_site_label
 _atom_site_symmetry_multiplicity
 _atom_site_fract_x
 _atom_site_fract_y
 _atom_site_fract_z
 _atom_site_occupancy
  As  As0  1  1.79896005  0.17650346  0.29157256  1.0
  As  As1  1  0.82349654  -0.79896005  0.79157256  1.0
  As  As2  1  1.17650346  0.79896005  0.20842744  1.0
  As  As3  1  0.20103995  -0.17650346  0.70842744  1.0
  Cu  Cu4  1  1.35088650  0.28173202  0.48743659  1.0
  Cu  Cu5  1  0.71826798  -0.35088650  0.98743659  1.0
  Cu  Cu6  1  1.28173202  0.35088650  0.01256341  1.0
  Cu  Cu7  1  0.64911350  -0.28173202  0.51256341  1.0
  O  O8  1  1.63262131  0.06423964  0.40891938  1.0
  O  O9  1  0.93576036  -0.63262131  0.90891938  1.0
  O  O10  1  1.06423964  0.63262131  0.09108062  1.0
  O  O11  1  0.36737869  -0.06423964  0.59108062  1.0
  O  O12  1  0.33211409  0.02279340  0.13967327  1.0
  O  O13  1  0.97720660  0.66788591  0.63967327  1.0
  O  O14  1  1.02279340  -0.66788591  0.36032673  1.0
  O  O15  1  1.66788591  -0.02279340  0.86032673  1.0
  O  O16  1  0.90287033  -0.09712967  0.25000000  1.0
  O  O17  1  1.09712967  0.09712967  0.75000000  1.0
  O  O18  1  0.61356184  -0.61067338  0.12831290  1.0
  O  O19  1  1.61067338  0.38643816  0.62831290  1.0
  O  O20  1  0.38932662  -0.38643816  0.37168710  1.0
  O  O21  1  1.38643816  0.61067338  0.87168710  1.0
