# generated using pymatgen
data_Hf(MoO4)2
_symmetry_space_group_name_H-M   'P 1'
_cell_length_a   7.00355239
_cell_length_b   7.00355239
_cell_length_c   7.53497376
_cell_angle_alpha   63.99181505
_cell_angle_beta   116.00818495
_cell_angle_gamma   109.77383421
_symmetry_Int_Tables_number   1
_chemical_formula_structural   Hf(MoO4)2
_chemical_formula_sum   'Hf2 Mo4 O16'
_cell_volume   293.60429782
_cell_formula_units_Z   2
loop_
 _symmetry_equiv_pos_site_id
 _symmetry_equiv_pos_as_xyz
  1  'x, y, z'
loop_
 _atom_site_type_symbol
 _atom_site_label
 _atom_site_symmetry_multiplicity
 _atom_site_fract_x
 _atom_site_fract_y
 _atom_site_fract_z
 _atom_site_occupancy
  Hf  Hf0  1  0.48070948  0.48070948  0.25000000  1.0
  Hf  Hf1  1  0.51929052  0.51929052  0.75000000  1.0
  Mo  Mo2  1  1.56404669  -0.00625306  0.24192756  1.0
  Mo  Mo3  1  1.00625306  -0.56404669  0.74192756  1.0
  Mo  Mo4  1  0.99374694  0.56404669  0.25807244  1.0
  Mo  Mo5  1  0.43595331  0.00625306  0.75807244  1.0
  O  O6  1  1.52084826  -0.29297015  0.42127984  1.0
  O  O7  1  1.29297015  -0.52084826  0.92127984  1.0
  O  O8  1  0.70702985  0.52084826  0.07872016  1.0
  O  O9  1  0.47915174  0.29297015  0.57872016  1.0
  O  O10  1  0.83269348  0.08522216  0.33212574  1.0
  O  O11  1  0.91477784  0.16730652  0.83212574  1.0
  O  O12  1  1.08522216  -0.16730652  0.16787426  1.0
  O  O13  1  1.16730652  -0.08522216  0.66787426  1.0
  O  O14  1  1.50649149  -0.18435141  0.06210744  1.0
  O  O15  1  1.18435141  -0.50649149  0.56210744  1.0
  O  O16  1  0.81564859  0.50649149  0.43789256  1.0
  O  O17  1  0.49350851  0.18435141  0.93789256  1.0
  O  O18  1  0.45002063  0.15529047  0.28620353  1.0
  O  O19  1  0.84470953  0.54997937  0.78620353  1.0
  O  O20  1  1.15529047  -0.54997937  0.21379647  1.0
  O  O21  1  1.54997937  -0.15529047  0.71379647  1.0
