# generated using pymatgen
data_NaBH4
_symmetry_space_group_name_H-M   'P 1'
_cell_length_a   8.41856761
_cell_length_b   4.37404739
_cell_length_c   6.09016087
_cell_angle_alpha   90.00000000
_cell_angle_beta   90.00000000
_cell_angle_gamma   90.00000000
_symmetry_Int_Tables_number   1
_chemical_formula_structural   NaBH4
_chemical_formula_sum   'Na4 B4 H16'
_cell_volume   224.25929515
_cell_formula_units_Z   4
loop_
 _symmetry_equiv_pos_site_id
 _symmetry_equiv_pos_as_xyz
  1  'x, y, z'
loop_
 _atom_site_type_symbol
 _atom_site_label
 _atom_site_symmetry_multiplicity
 _atom_site_fract_x
 _atom_site_fract_y
 _atom_site_fract_z
 _atom_site_occupancy
  Na  Na0  1  0.37131578  0.75000000  0.24247351  1.0
  Na  Na1  1  0.87131578  0.75000000  0.25752649  1.0
  Na  Na2  1  0.62868422  0.25000000  0.75752649  1.0
  Na  Na3  1  0.12868422  0.25000000  0.74247351  1.0
  B  B4  1  0.38740531  0.75000000  0.73870785  1.0
  B  B5  1  0.88740531  0.75000000  0.76129215  1.0
  B  B6  1  0.61259469  0.25000000  0.26129215  1.0
  B  B7  1  0.11259469  0.25000000  0.23870785  1.0
  H  H8  1  0.38246208  0.97795043  0.85543692  1.0
  H  H9  1  0.38246208  0.52204957  0.85543692  1.0
  H  H10  1  0.88246208  0.97795043  0.64456308  1.0
  H  H11  1  0.88246208  0.52204957  0.64456308  1.0
  H  H12  1  0.61753792  0.47795043  0.14456308  1.0
  H  H13  1  0.61753792  0.02204957  0.14456308  1.0
  H  H14  1  0.11753792  0.47795043  0.35543692  1.0
  H  H15  1  0.11753792  0.02204957  0.35543692  1.0
  H  H16  1  0.27211756  0.75000000  0.61613529  1.0
  H  H17  1  0.77211756  0.75000000  0.88386471  1.0
  H  H18  1  0.72788244  0.25000000  0.38386471  1.0
  H  H19  1  0.22788244  0.25000000  0.11613529  1.0
  H  H20  1  0.01015869  0.75000000  0.86946031  1.0
  H  H21  1  0.51015869  0.75000000  0.63053969  1.0
  H  H22  1  0.98984131  0.25000000  0.13053969  1.0
  H  H23  1  0.48984131  0.25000000  0.36946031  1.0
