# generated using pymatgen
data_DyB3Mo
_symmetry_space_group_name_H-M   'P 1'
_cell_length_a   5.43022717
_cell_length_b   3.14138667
_cell_length_c   6.87320228
_cell_angle_alpha   90.00000000
_cell_angle_beta   102.21702231
_cell_angle_gamma   90.00000000
_symmetry_Int_Tables_number   1
_chemical_formula_structural   DyB3Mo
_chemical_formula_sum   'Dy2 B6 Mo2'
_cell_volume   114.59086580
_cell_formula_units_Z   2
loop_
 _symmetry_equiv_pos_site_id
 _symmetry_equiv_pos_as_xyz
  1  'x, y, z'
loop_
 _atom_site_type_symbol
 _atom_site_label
 _atom_site_symmetry_multiplicity
 _atom_site_fract_x
 _atom_site_fract_y
 _atom_site_fract_z
 _atom_site_occupancy
  Dy  Dy0  1  0.32672196  0.25000000  0.29142747  1.0
  Dy  Dy1  1  0.67327804  0.75000000  0.70857253  1.0
  B  B2  1  0.92121300  0.25000000  0.47362650  1.0
  B  B3  1  0.07878700  0.75000000  0.52637350  1.0
  B  B4  1  0.91326985  0.25000000  0.99568496  1.0
  B  B5  1  0.08673015  0.75000000  0.00431504  1.0
  B  B6  1  0.58302753  0.25000000  0.99369197  1.0
  B  B7  1  0.41697247  0.75000000  0.00630803  1.0
  Mo  Mo8  1  0.18785431  0.25000000  0.78062953  1.0
  Mo  Mo9  1  0.81214569  0.75000000  0.21937047  1.0
