# generated using pymatgen
data_SrCu2Se2(ClO3)2
_symmetry_space_group_name_H-M   'P 1'
_cell_length_a   7.27141122
_cell_length_b   7.31733784
_cell_length_c   8.24256279
_cell_angle_alpha   90.00000000
_cell_angle_beta   95.23117133
_cell_angle_gamma   90.00000000
_symmetry_Int_Tables_number   1
_chemical_formula_structural   SrCu2Se2(ClO3)2
_chemical_formula_sum   'Sr2 Cu4 Se4 Cl4 O12'
_cell_volume   436.73845976
_cell_formula_units_Z   2
loop_
 _symmetry_equiv_pos_site_id
 _symmetry_equiv_pos_as_xyz
  1  'x, y, z'
loop_
 _atom_site_type_symbol
 _atom_site_label
 _atom_site_symmetry_multiplicity
 _atom_site_fract_x
 _atom_site_fract_y
 _atom_site_fract_z
 _atom_site_occupancy
  Sr  Sr0  1  0.87389673  0.50894612  0.93628663  1.0
  Sr  Sr1  1  0.12610327  0.00894612  0.06371337  1.0
  O  O2  1  0.43661060  0.87674297  0.76906094  1.0
  O  O3  1  0.56338940  0.37674297  0.23093906  1.0
  O  O4  1  0.20709819  0.67089172  0.94948390  1.0
  O  O5  1  0.79290181  0.17089172  0.05051610  1.0
  O  O6  1  0.82102836  0.61279833  0.61411025  1.0
  O  O7  1  0.17897164  0.11279833  0.38588975  1.0
  O  O8  1  0.52899795  0.56484075  0.92409717  1.0
  O  O9  1  0.47100205  0.06484075  0.07590283  1.0
  O  O10  1  0.11095029  0.82408085  0.61903231  1.0
  O  O11  1  0.88904971  0.32408085  0.38096769  1.0
  O  O12  1  0.85277208  0.87216200  0.82708744  1.0
  O  O13  1  0.14722792  0.37216200  0.17291256  1.0
  Cl  Cl14  1  0.88571485  0.75819088  0.21527326  1.0
  Cl  Cl15  1  0.11428515  0.25819088  0.78472674  1.0
  Cl  Cl16  1  0.45754766  0.70610067  0.39430726  1.0
  Cl  Cl17  1  0.54245234  0.20610067  0.60569274  1.0
  Cu  Cu18  1  0.70011564  0.50805339  0.41363376  1.0
  Cu  Cu19  1  0.29988436  0.00805339  0.58636624  1.0
  Cu  Cu20  1  0.63697340  0.99263053  0.90590415  1.0
  Cu  Cu21  1  0.36302660  0.49263053  0.09409585  1.0
  Se  Se22  1  0.87374180  0.84447767  0.61752446  1.0
  Se  Se23  1  0.12625820  0.34447767  0.38247554  1.0
  Se  Se24  1  0.35108988  0.64878411  0.78925787  1.0
  Se  Se25  1  0.64891012  0.14878411  0.21074213  1.0
