# generated using pymatgen
data_Sn2W3Cl14
_symmetry_space_group_name_H-M   'P 1'
_cell_length_a   9.73636222
_cell_length_b   9.73636222
_cell_length_c   13.45442988
_cell_angle_alpha   90.00000000
_cell_angle_beta   90.00000000
_cell_angle_gamma   120.00000000
_symmetry_Int_Tables_number   1
_chemical_formula_structural   Sn2W3Cl14
_chemical_formula_sum   'Sn4 W6 Cl28'
_cell_volume   1104.56016414
_cell_formula_units_Z   2
loop_
 _symmetry_equiv_pos_site_id
 _symmetry_equiv_pos_as_xyz
  1  'x, y, z'
loop_
 _atom_site_type_symbol
 _atom_site_label
 _atom_site_symmetry_multiplicity
 _atom_site_fract_x
 _atom_site_fract_y
 _atom_site_fract_z
 _atom_site_occupancy
  Sn  Sn0  1  0.66666667  0.33333333  0.69087123  1.0
  Sn  Sn1  1  0.33333333  0.66666667  0.19087123  1.0
  Sn  Sn2  1  0.00000000  0.00000000  0.73980988  1.0
  Sn  Sn3  1  0.00000000  0.00000000  0.23980988  1.0
  W  W4  1  0.14775885  0.55125008  0.66395010  1.0
  W  W5  1  0.40349124  0.85224115  0.66395010  1.0
  W  W6  1  0.44874992  0.59650876  0.66395010  1.0
  W  W7  1  0.85224115  0.44874992  0.16395010  1.0
  W  W8  1  0.59650876  0.14775885  0.16395010  1.0
  W  W9  1  0.55125008  0.40349124  0.16395010  1.0
  Cl  Cl10  1  0.33333333  0.66666667  0.80008397  1.0
  Cl  Cl11  1  0.66666667  0.33333333  0.30008397  1.0
  Cl  Cl12  1  0.24947596  0.44402396  0.54086187  1.0
  Cl  Cl13  1  0.19454800  0.75052404  0.54086187  1.0
  Cl  Cl14  1  0.55597604  0.80545200  0.54086187  1.0
  Cl  Cl15  1  0.75052404  0.55597604  0.04086187  1.0
  Cl  Cl16  1  0.80545200  0.24947596  0.04086187  1.0
  Cl  Cl17  1  0.44402396  0.19454800  0.04086187  1.0
  Cl  Cl18  1  0.03274428  0.31787989  0.76689148  1.0
  Cl  Cl19  1  0.28513562  0.96725572  0.76689148  1.0
  Cl  Cl20  1  0.68212011  0.71486438  0.76689148  1.0
  Cl  Cl21  1  0.96725572  0.68212011  0.26689148  1.0
  Cl  Cl22  1  0.71486438  0.03274428  0.26689148  1.0
  Cl  Cl23  1  0.31787989  0.28513562  0.26689148  1.0
  Cl  Cl24  1  0.90395894  0.39304710  0.56034535  1.0
  Cl  Cl25  1  0.48908816  0.09604106  0.56034535  1.0
  Cl  Cl26  1  0.60695290  0.51091184  0.56034535  1.0
  Cl  Cl27  1  0.09604106  0.60695290  0.06034535  1.0
  Cl  Cl28  1  0.51091184  0.90395894  0.06034535  1.0
  Cl  Cl29  1  0.39304710  0.48908816  0.06034535  1.0
  Cl  Cl30  1  0.97994056  0.61974552  0.75649122  1.0
  Cl  Cl31  1  0.63980495  0.02005944  0.75649122  1.0
  Cl  Cl32  1  0.38025448  0.36019505  0.75649122  1.0
  Cl  Cl33  1  0.02005944  0.38025448  0.25649122  1.0
  Cl  Cl34  1  0.36019505  0.97994056  0.25649122  1.0
  Cl  Cl35  1  0.61974552  0.63980495  0.25649122  1.0
  Cl  Cl36  1  0.00000000  0.00000000  0.91858484  1.0
  Cl  Cl37  1  0.00000000  0.00000000  0.41858484  1.0
