# generated using pymatgen
data_As3(HO2)5
_symmetry_space_group_name_H-M   'P 1'
_cell_length_a   7.60900997
_cell_length_b   5.83571612
_cell_length_c   4.82841039
_cell_angle_alpha   102.75187736
_cell_angle_beta   93.30900226
_cell_angle_gamma   101.30700541
_symmetry_Int_Tables_number   1
_chemical_formula_structural   As3(HO2)5
_chemical_formula_sum   'As3 H5 O10'
_cell_volume   203.90736416
_cell_formula_units_Z   1
loop_
 _symmetry_equiv_pos_site_id
 _symmetry_equiv_pos_as_xyz
  1  'x, y, z'
loop_
 _atom_site_type_symbol
 _atom_site_label
 _atom_site_symmetry_multiplicity
 _atom_site_fract_x
 _atom_site_fract_y
 _atom_site_fract_z
 _atom_site_occupancy
  As  As0  1  -0.73323208  -0.75473778  -0.41740561  1.0
  As  As1  1  -0.26676792  -0.24526222  -0.58259439  1.0
  As  As2  1  0.00000000  0.00000000  0.00000000  1.0
  H  H3  1  -0.84203052  -0.30438918  -0.98499071  1.0
  H  H4  1  -0.15796948  -0.69561082  -0.01500929  1.0
  H  H5  1  -0.39720351  -0.64936052  -0.70770380  1.0
  H  H6  1  -0.60279649  -0.35063948  -0.29229620  1.0
  H  H7  1  -0.50000000  -0.00000000  -0.50000000  1.0
  O  O8  1  -0.90562595  -0.20966799  -0.84345198  1.0
  O  O9  1  -0.09437405  -0.79033201  -0.15654802  1.0
  O  O10  1  -0.31437801  -0.53979369  -0.80366230  1.0
  O  O11  1  -0.68562199  -0.46020631  -0.19633770  1.0
  O  O12  1  -0.89122392  -0.73690814  -0.68477840  1.0
  O  O13  1  -0.10877608  -0.26309186  -0.31522160  1.0
  O  O14  1  -0.53566841  -0.81685412  -0.54481121  1.0
  O  O15  1  -0.46433159  -0.18314588  -0.45518879  1.0
  O  O16  1  -0.78919218  -0.95146562  -0.19733026  1.0
  O  O17  1  -0.21080782  -0.04853438  -0.80266974  1.0
