# generated using pymatgen
data_KMoPO6
_symmetry_space_group_name_H-M   'P 1'
_cell_length_a   10.03790164
_cell_length_b   9.65257886
_cell_length_c   8.46196499
_cell_angle_alpha   66.92835147
_cell_angle_beta   62.21451331
_cell_angle_gamma   50.85713521
_symmetry_Int_Tables_number   1
_chemical_formula_structural   KMoPO6
_chemical_formula_sum   'K4 Mo4 P4 O24'
_cell_volume   556.84798532
_cell_formula_units_Z   4
loop_
 _symmetry_equiv_pos_site_id
 _symmetry_equiv_pos_as_xyz
  1  'x, y, z'
loop_
 _atom_site_type_symbol
 _atom_site_label
 _atom_site_symmetry_multiplicity
 _atom_site_fract_x
 _atom_site_fract_y
 _atom_site_fract_z
 _atom_site_occupancy
  K  K0  1  0.72172379  0.27827621  0.27827621  1.0
  K  K1  1  0.27827621  0.72172379  0.72172379  1.0
  K  K2  1  0.52827621  0.97172379  -0.02827621  1.0
  K  K3  1  0.97172379  0.52827621  -0.47172379  1.0
  Mo  Mo4  1  1.22176211  -0.22176211  0.22176211  1.0
  Mo  Mo5  1  0.77823789  0.22176211  -0.22176211  1.0
  Mo  Mo6  1  0.02823789  1.47176211  0.02823789  1.0
  Mo  Mo7  1  0.47176211  1.02823789  0.47176211  1.0
  P  P8  1  0.11506012  1.11506012  0.38493988  1.0
  P  P9  1  0.38493988  0.38493988  0.11506012  1.0
  P  P10  1  1.13493988  0.13493988  -0.13493988  1.0
  P  P11  1  0.86506012  0.86506012  0.13493988  1.0
  O  O12  1  0.22958709  0.93438991  0.94396671  1.0
  O  O13  1  0.94396671  -0.10794371  0.22958709  1.0
  O  O14  1  0.93438991  0.22958709  -0.10794371  1.0
  O  O15  1  -0.10794371  0.94396671  0.93438991  1.0
  O  O16  1  0.02041291  1.31561009  0.30603329  1.0
  O  O17  1  0.30603329  1.35794371  0.02041291  1.0
  O  O18  1  0.31561009  1.02041291  0.35794371  1.0
  O  O19  1  0.35794371  1.30603329  0.31561009  1.0
  O  O20  1  0.08986247  1.01690929  0.29939973  1.0
  O  O21  1  0.29939973  0.59382851  0.08986247  1.0
  O  O22  1  0.01690929  1.08986247  0.59382851  1.0
  O  O23  1  0.59382851  0.29939973  0.01690929  1.0
  O  O24  1  1.16013753  0.23309071  -0.04939973  1.0
  O  O25  1  0.95060027  0.65617149  0.16013753  1.0
  O  O26  1  0.23309071  1.16013753  0.65617149  1.0
  O  O27  1  0.65617149  0.95060027  0.23309071  1.0
  O  O28  1  0.43214052  0.72334938  1.18393062  1.0
  O  O29  1  1.18393062  -0.33942053  0.43214052  1.0
  O  O30  1  0.72334938  0.43214052  -0.33942053  1.0
  O  O31  1  -0.33942053  1.18393062  0.72334938  1.0
  O  O32  1  0.81785948  0.52665062  1.06606938  1.0
  O  O33  1  1.06606938  0.58942053  0.81785948  1.0
  O  O34  1  0.52665062  0.81785948  0.58942053  1.0
  O  O35  1  0.58942053  1.06606938  0.52665062  1.0
