# generated using pymatgen
data_Ca2Cu
_symmetry_space_group_name_H-M   'P 1'
_cell_length_a   6.05869501
_cell_length_b   4.16900455
_cell_length_c   14.46960523
_cell_angle_alpha   90.00000000
_cell_angle_beta   90.00000000
_cell_angle_gamma   90.00000000
_symmetry_Int_Tables_number   1
_chemical_formula_structural   Ca2Cu
_chemical_formula_sum   'Ca8 Cu4'
_cell_volume   365.48380957
_cell_formula_units_Z   4
loop_
 _symmetry_equiv_pos_site_id
 _symmetry_equiv_pos_as_xyz
  1  'x, y, z'
loop_
 _atom_site_type_symbol
 _atom_site_label
 _atom_site_symmetry_multiplicity
 _atom_site_fract_x
 _atom_site_fract_y
 _atom_site_fract_z
 _atom_site_occupancy
  Ca  Ca0  1  0.86603064  0.75000000  0.40832010  1.0
  Ca  Ca1  1  0.36603064  0.75000000  0.09167990  1.0
  Ca  Ca2  1  0.13396936  0.25000000  0.59167990  1.0
  Ca  Ca3  1  0.63396936  0.25000000  0.90832010  1.0
  Ca  Ca4  1  0.63250986  0.75000000  0.66511298  1.0
  Ca  Ca5  1  0.13250986  0.75000000  0.83488702  1.0
  Ca  Ca6  1  0.36749014  0.25000000  0.33488702  1.0
  Ca  Ca7  1  0.86749014  0.25000000  0.16511298  1.0
  Cu  Cu8  1  0.88995479  0.75000000  0.01623190  1.0
  Cu  Cu9  1  0.38995479  0.75000000  0.48376810  1.0
  Cu  Cu10  1  0.11004521  0.25000000  0.98376810  1.0
  Cu  Cu11  1  0.61004521  0.25000000  0.51623190  1.0
