# generated using pymatgen
data_ZnS
_symmetry_space_group_name_H-M   'P 1'
_cell_length_a   3.84997973
_cell_length_b   3.84997973
_cell_length_c   88.07154754
_cell_angle_alpha   90.00000000
_cell_angle_beta   90.00000000
_cell_angle_gamma   120.00000000
_symmetry_Int_Tables_number   1
_chemical_formula_structural   ZnS
_chemical_formula_sum   'Zn28 S28'
_cell_volume   1130.53274602
_cell_formula_units_Z   28
loop_
 _symmetry_equiv_pos_site_id
 _symmetry_equiv_pos_as_xyz
  1  'x, y, z'
loop_
 _atom_site_type_symbol
 _atom_site_label
 _atom_site_symmetry_multiplicity
 _atom_site_fract_x
 _atom_site_fract_y
 _atom_site_fract_z
 _atom_site_occupancy
  Zn  Zn0  1  0.00000000  0.00000000  0.00004235  1.0
  Zn  Zn1  1  0.33333333  0.66666667  0.03573263  1.0
  Zn  Zn2  1  0.66666667  0.33333333  0.07143464  1.0
  Zn  Zn3  1  0.00000000  0.00000000  0.10714534  1.0
  Zn  Zn4  1  0.33333333  0.66666667  0.14285929  1.0
  Zn  Zn5  1  0.66666667  0.33333333  0.17857264  1.0
  Zn  Zn6  1  0.00000000  0.00000000  0.21428763  1.0
  Zn  Zn7  1  0.33333333  0.66666667  0.25000208  1.0
  Zn  Zn8  1  0.66666667  0.33333333  0.28571564  1.0
  Zn  Zn9  1  0.00000000  0.00000000  0.32142644  1.0
  Zn  Zn10  1  0.33333333  0.66666667  0.35712650  1.0
  Zn  Zn11  1  0.66666667  0.33333333  0.39282589  1.0
  Zn  Zn12  1  0.00000000  0.00000000  0.42857395  1.0
  Zn  Zn13  1  0.66666667  0.33333333  0.46432675  1.0
  Zn  Zn14  1  0.33333333  0.66666667  0.50001367  1.0
  Zn  Zn15  1  0.00000000  0.00000000  0.53570080  1.0
  Zn  Zn16  1  0.66666667  0.33333333  0.57139704  1.0
  Zn  Zn17  1  0.33333333  0.66666667  0.60714551  1.0
  Zn  Zn18  1  0.66666667  0.33333333  0.64289877  1.0
  Zn  Zn19  1  0.00000000  0.00000000  0.67859039  1.0
  Zn  Zn20  1  0.33333333  0.66666667  0.71429425  1.0
  Zn  Zn21  1  0.66666667  0.33333333  0.75000406  1.0
  Zn  Zn22  1  0.00000000  0.00000000  0.78570026  1.0
  Zn  Zn23  1  0.33333333  0.66666667  0.82140233  1.0
  Zn  Zn24  1  0.66666667  0.33333333  0.85714345  1.0
  Zn  Zn25  1  0.33333333  0.66666667  0.89288539  1.0
  Zn  Zn26  1  0.00000000  0.00000000  0.92855800  1.0
  Zn  Zn27  1  0.66666667  0.33333333  0.96429346  1.0
  S  S28  1  0.00000000  0.00000000  0.02680979  1.0
  S  S29  1  0.33333333  0.66666667  0.06250786  1.0
  S  S30  1  0.66666667  0.33333333  0.09821350  1.0
  S  S31  1  0.00000000  0.00000000  0.13392647  1.0
  S  S32  1  0.33333333  0.66666667  0.16963993  1.0
  S  S33  1  0.66666667  0.33333333  0.20535428  1.0
  S  S34  1  0.00000000  0.00000000  0.24106875  1.0
  S  S35  1  0.33333333  0.66666667  0.27678323  1.0
  S  S36  1  0.66666667  0.33333333  0.31249577  1.0
  S  S37  1  0.00000000  0.00000000  0.34820225  1.0
  S  S38  1  0.33333333  0.66666667  0.38390168  1.0
  S  S39  1  0.66666667  0.33333333  0.41959942  1.0
  S  S40  1  0.00000000  0.00000000  0.45539414  1.0
  S  S41  1  0.66666667  0.33333333  0.49109312  1.0
  S  S42  1  0.33333333  0.66666667  0.52678369  1.0
  S  S43  1  0.00000000  0.00000000  0.56247387  1.0
  S  S44  1  0.66666667  0.33333333  0.59817076  1.0
  S  S45  1  0.33333333  0.66666667  0.63396584  1.0
  S  S46  1  0.66666667  0.33333333  0.66966654  1.0
  S  S47  1  0.00000000  0.00000000  0.70536651  1.0
  S  S48  1  0.33333333  0.66666667  0.74107315  1.0
  S  S49  1  0.66666667  0.33333333  0.77677895  1.0
  S  S50  1  0.00000000  0.00000000  0.81247603  1.0
  S  S51  1  0.33333333  0.66666667  0.84817320  1.0
  S  S52  1  0.66666667  0.33333333  0.88395990  1.0
  S  S53  1  0.33333333  0.66666667  0.91964573  1.0
  S  S54  1  0.00000000  0.00000000  0.95532562  1.0
  S  S55  1  0.66666667  0.33333333  0.99111087  1.0
