# generated using pymatgen
data_K2MnSO4F3
_symmetry_space_group_name_H-M   'P 1'
_cell_length_a   10.94503971
_cell_length_b   8.50759666
_cell_length_c   7.47528443
_cell_angle_alpha   90.00000000
_cell_angle_beta   90.00000000
_cell_angle_gamma   90.00000000
_symmetry_Int_Tables_number   1
_chemical_formula_structural   K2MnSO4F3
_chemical_formula_sum   'K8 Mn4 S4 O16 F12'
_cell_volume   696.06845949
_cell_formula_units_Z   4
loop_
 _symmetry_equiv_pos_site_id
 _symmetry_equiv_pos_as_xyz
  1  'x, y, z'
loop_
 _atom_site_type_symbol
 _atom_site_label
 _atom_site_symmetry_multiplicity
 _atom_site_fract_x
 _atom_site_fract_y
 _atom_site_fract_z
 _atom_site_occupancy
  K  K0  1  0.69048417  0.82923434  0.81209788  1.0
  K  K1  1  0.69048417  0.17076566  0.31209788  1.0
  K  K2  1  0.19048417  0.32923434  0.68790212  1.0
  K  K3  1  0.19048417  0.67076566  0.18790212  1.0
  K  K4  1  0.30951583  0.82923434  0.68790212  1.0
  K  K5  1  0.30951583  0.17076566  0.18790212  1.0
  K  K6  1  0.80951583  0.32923434  0.81209788  1.0
  K  K7  1  0.80951583  0.67076566  0.31209788  1.0
  Mn  Mn8  1  0.00000000  0.00000000  0.50000000  1.0
  Mn  Mn9  1  0.00000000  -0.00000000  0.00000000  1.0
  Mn  Mn10  1  0.50000000  0.50000000  0.00000000  1.0
  Mn  Mn11  1  0.50000000  0.50000000  0.50000000  1.0
  S  S12  1  0.00000000  0.69400496  0.75000000  1.0
  S  S13  1  -0.00000000  0.30599504  0.25000000  1.0
  S  S14  1  0.50000000  0.19400496  0.75000000  1.0
  S  S15  1  0.50000000  0.80599504  0.25000000  1.0
  O  O16  1  0.93927463  0.79961002  0.88939715  1.0
  O  O17  1  0.93927463  0.20038998  0.38939715  1.0
  O  O18  1  0.43927463  0.29961002  0.61060285  1.0
  O  O19  1  0.43927463  0.70038998  0.11060285  1.0
  O  O20  1  0.06072537  0.79961002  0.61060285  1.0
  O  O21  1  0.06072537  0.20038998  0.11060285  1.0
  O  O22  1  0.56072537  0.29961002  0.88939715  1.0
  O  O23  1  0.56072537  0.70038998  0.38939715  1.0
  O  O24  1  0.90252413  0.59949137  0.66708707  1.0
  O  O25  1  0.90252413  0.40050863  0.16708707  1.0
  O  O26  1  0.40252413  0.09949137  0.83291293  1.0
  O  O27  1  0.40252413  0.90050863  0.33291293  1.0
  O  O28  1  0.09747587  0.59949137  0.83291293  1.0
  O  O29  1  0.09747587  0.40050863  0.33291293  1.0
  O  O30  1  0.59747587  0.09949137  0.66708707  1.0
  O  O31  1  0.59747587  0.90050863  0.16708707  1.0
  F  F32  1  0.83898798  0.94240095  0.52581225  1.0
  F  F33  1  0.83898798  0.05759905  0.02581225  1.0
  F  F34  1  0.33898798  0.44240095  0.97418775  1.0
  F  F35  1  0.33898798  0.55759905  0.47418775  1.0
  F  F36  1  0.16101202  0.94240095  0.97418775  1.0
  F  F37  1  0.16101202  0.05759905  0.47418775  1.0
  F  F38  1  0.66101202  0.44240095  0.52581225  1.0
  F  F39  1  0.66101202  0.55759905  0.02581225  1.0
  F  F40  1  0.00000000  0.11951637  0.75000000  1.0
  F  F41  1  -0.00000000  0.88048363  0.25000000  1.0
  F  F42  1  0.50000000  0.61951637  0.75000000  1.0
  F  F43  1  0.50000000  0.38048363  0.25000000  1.0
