# generated using pymatgen
data_V2C
_symmetry_space_group_name_H-M   'P 1'
_cell_length_a   4.54684926
_cell_length_b   5.73085510
_cell_length_c   5.02727458
_cell_angle_alpha   90.00000000
_cell_angle_beta   90.00000000
_cell_angle_gamma   90.00000000
_symmetry_Int_Tables_number   1
_chemical_formula_structural   V2C
_chemical_formula_sum   'V8 C4'
_cell_volume   130.99737426
_cell_formula_units_Z   4
loop_
 _symmetry_equiv_pos_site_id
 _symmetry_equiv_pos_as_xyz
  1  'x, y, z'
loop_
 _atom_site_type_symbol
 _atom_site_label
 _atom_site_symmetry_multiplicity
 _atom_site_fract_x
 _atom_site_fract_y
 _atom_site_fract_z
 _atom_site_occupancy
  V  V0  1  0.25414054  0.38205358  0.07674763  1.0
  V  V1  1  0.25414054  0.61794642  0.57674763  1.0
  V  V2  1  0.75414054  0.88205358  0.42325237  1.0
  V  V3  1  0.75414054  0.11794642  0.92325237  1.0
  V  V4  1  0.74585946  0.38205358  0.42325237  1.0
  V  V5  1  0.74585946  0.61794642  0.92325237  1.0
  V  V6  1  0.24585946  0.88205358  0.07674763  1.0
  V  V7  1  0.24585946  0.11794642  0.57674763  1.0
  C  C8  1  0.50000000  0.12721884  0.25000000  1.0
  C  C9  1  0.50000000  0.87278116  0.75000000  1.0
  C  C10  1  0.00000000  0.62721884  0.25000000  1.0
  C  C11  1  0.00000000  0.37278116  0.75000000  1.0
