# generated using pymatgen
data_ScSiIr
_symmetry_space_group_name_H-M   'P 1'
_cell_length_a   6.48268269
_cell_length_b   4.07030654
_cell_length_c   7.31946882
_cell_angle_alpha   90.00000000
_cell_angle_beta   90.00000000
_cell_angle_gamma   90.00000000
_symmetry_Int_Tables_number   1
_chemical_formula_structural   ScSiIr
_chemical_formula_sum   'Sc4 Si4 Ir4'
_cell_volume   193.13520600
_cell_formula_units_Z   4
loop_
 _symmetry_equiv_pos_site_id
 _symmetry_equiv_pos_as_xyz
  1  'x, y, z'
loop_
 _atom_site_type_symbol
 _atom_site_label
 _atom_site_symmetry_multiplicity
 _atom_site_fract_x
 _atom_site_fract_y
 _atom_site_fract_z
 _atom_site_occupancy
  Sc  Sc0  1  0.98882393  0.75000000  0.68561137  1.0
  Sc  Sc1  1  0.48882393  0.75000000  0.81438863  1.0
  Sc  Sc2  1  0.01117607  0.25000000  0.31438863  1.0
  Sc  Sc3  1  0.51117607  0.25000000  0.18561137  1.0
  Si  Si4  1  0.71147183  0.75000000  0.37945041  1.0
  Si  Si5  1  0.21147183  0.75000000  0.12054959  1.0
  Si  Si6  1  0.28852817  0.25000000  0.62054959  1.0
  Si  Si7  1  0.78852817  0.25000000  0.87945041  1.0
  Ir  Ir8  1  0.83973488  0.75000000  0.06043198  1.0
  Ir  Ir9  1  0.33973488  0.75000000  0.43956802  1.0
  Ir  Ir10  1  0.16026512  0.25000000  0.93956802  1.0
  Ir  Ir11  1  0.66026512  0.25000000  0.56043198  1.0
