# generated using pymatgen
data_RbInS2
_symmetry_space_group_name_H-M   'P 1'
_cell_length_a   6.74162770
_cell_length_b   6.74162770
_cell_length_c   6.74162770
_cell_angle_alpha   105.07727965
_cell_angle_beta   105.07727965
_cell_angle_gamma   118.66951489
_symmetry_Int_Tables_number   1
_chemical_formula_structural   RbInS2
_chemical_formula_sum   'Rb2 In2 S4'
_cell_volume   231.24526999
_cell_formula_units_Z   2
loop_
 _symmetry_equiv_pos_site_id
 _symmetry_equiv_pos_as_xyz
  1  'x, y, z'
loop_
 _atom_site_type_symbol
 _atom_site_label
 _atom_site_symmetry_multiplicity
 _atom_site_fract_x
 _atom_site_fract_y
 _atom_site_fract_z
 _atom_site_occupancy
  Rb  Rb0  1  0.25000000  0.25000000  -0.00000000  1.0
  Rb  Rb1  1  0.75000000  0.75000000  -0.00000000  1.0
  In  In2  1  0.75000000  0.25000000  0.50000000  1.0
  In  In3  1  0.25000000  0.75000000  0.50000000  1.0
  S  S4  1  0.84056309  0.34056309  1.18112617  1.0
  S  S5  1  0.65943691  0.84056309  0.50000000  1.0
  S  S6  1  0.34056309  0.15943691  0.50000000  1.0
  S  S7  1  1.15943691  0.65943691  0.81887383  1.0
