# generated using pymatgen
data_LaAlIr
_symmetry_space_group_name_H-M   'P 1'
_cell_length_a   7.18781757
_cell_length_b   4.30698941
_cell_length_c   8.21913554
_cell_angle_alpha   90.00000000
_cell_angle_beta   90.00000000
_cell_angle_gamma   90.00000000
_symmetry_Int_Tables_number   1
_chemical_formula_structural   LaAlIr
_chemical_formula_sum   'La4 Al4 Ir4'
_cell_volume   254.44679905
_cell_formula_units_Z   4
loop_
 _symmetry_equiv_pos_site_id
 _symmetry_equiv_pos_as_xyz
  1  'x, y, z'
loop_
 _atom_site_type_symbol
 _atom_site_label
 _atom_site_symmetry_multiplicity
 _atom_site_fract_x
 _atom_site_fract_y
 _atom_site_fract_z
 _atom_site_occupancy
  La  La0  1  0.96422086  0.75000000  0.68199622  1.0
  La  La1  1  0.46422086  0.75000000  0.81800378  1.0
  La  La2  1  0.03577914  0.25000000  0.31800378  1.0
  La  La3  1  0.53577914  0.25000000  0.18199622  1.0
  Al  Al4  1  0.86569227  0.75000000  0.06037279  1.0
  Al  Al5  1  0.36569227  0.75000000  0.43962721  1.0
  Al  Al6  1  0.13430773  0.25000000  0.93962721  1.0
  Al  Al7  1  0.63430773  0.25000000  0.56037279  1.0
  Ir  Ir8  1  0.72388108  0.75000000  0.38480802  1.0
  Ir  Ir9  1  0.22388108  0.75000000  0.11519198  1.0
  Ir  Ir10  1  0.27611892  0.25000000  0.61519198  1.0
  Ir  Ir11  1  0.77611892  0.25000000  0.88480802  1.0
