# generated using pymatgen
data_PAuS4
_symmetry_space_group_name_H-M   'P 1'
_cell_length_a   6.35428940
_cell_length_b   8.54626317
_cell_length_c   7.38251184
_cell_angle_alpha   81.45230721
_cell_angle_beta   78.08484001
_cell_angle_gamma   83.97052567
_symmetry_Int_Tables_number   1
_chemical_formula_structural   PAuS4
_chemical_formula_sum   'P2 Au2 S8'
_cell_volume   386.76843374
_cell_formula_units_Z   2
loop_
 _symmetry_equiv_pos_site_id
 _symmetry_equiv_pos_as_xyz
  1  'x, y, z'
loop_
 _atom_site_type_symbol
 _atom_site_label
 _atom_site_symmetry_multiplicity
 _atom_site_fract_x
 _atom_site_fract_y
 _atom_site_fract_z
 _atom_site_occupancy
  P  P0  1  -0.74202332  -0.74571626  -0.75279784  1.0
  P  P1  1  -0.25797668  -0.25428374  -0.24720216  1.0
  Au  Au2  1  -0.00000000  -0.50000000  -0.50000000  1.0
  Au  Au3  1  -0.50000000  -0.00000000  0.00000000  1.0
  S  S4  1  -0.94576199  -0.77895995  -0.49549390  1.0
  S  S5  1  -0.05423801  -0.22104005  -0.50450610  1.0
  S  S6  1  -0.83231991  -0.84272232  -0.96273120  1.0
  S  S7  1  -0.16768009  -0.15727768  -0.03726880  1.0
  S  S8  1  -0.75416415  -0.50135823  -0.78884252  1.0
  S  S9  1  -0.24583585  -0.49864177  -0.21115748  1.0
  S  S10  1  -0.43821133  -0.85956669  -0.76436904  1.0
  S  S11  1  -0.56178867  -0.14043331  -0.23563096  1.0
