# generated using pymatgen
data_Mn8Cl3O10
_symmetry_space_group_name_H-M   'P 1'
_cell_length_a   9.33995215
_cell_length_b   9.33995215
_cell_length_c   9.33995215
_cell_angle_alpha   60.00000000
_cell_angle_beta   60.00000000
_cell_angle_gamma   60.00000000
_symmetry_Int_Tables_number   1
_chemical_formula_structural   Mn8Cl3O10
_chemical_formula_sum   'Mn16 Cl6 O20'
_cell_volume   576.12796466
_cell_formula_units_Z   2
loop_
 _symmetry_equiv_pos_site_id
 _symmetry_equiv_pos_as_xyz
  1  'x, y, z'
loop_
 _atom_site_type_symbol
 _atom_site_label
 _atom_site_symmetry_multiplicity
 _atom_site_fract_x
 _atom_site_fract_y
 _atom_site_fract_z
 _atom_site_occupancy
  Mn  Mn0  1  1.64834437  -0.00000000  0.00000000  1.0
  Mn  Mn1  1  1.00000000  0.35165563  -0.35165563  1.0
  Mn  Mn2  1  1.00000000  0.64834437  -0.64834437  1.0
  Mn  Mn3  1  1.35165563  -0.00000000  0.00000000  1.0
  Mn  Mn4  1  -0.00000000  1.64834437  0.00000000  1.0
  Mn  Mn5  1  0.35165563  1.00000000  -0.35165563  1.0
  Mn  Mn6  1  0.00000000  -0.00000000  0.64834437  1.0
  Mn  Mn7  1  0.35165563  -0.35165563  1.00000000  1.0
  Mn  Mn8  1  0.64834437  1.00000000  -0.64834437  1.0
  Mn  Mn9  1  -0.00000000  1.35165563  0.00000000  1.0
  Mn  Mn10  1  0.64834437  -0.64834437  1.00000000  1.0
  Mn  Mn11  1  -0.00000000  0.00000000  0.35165563  1.0
  Mn  Mn12  1  0.75000000  0.75000000  -0.25000000  1.0
  Mn  Mn13  1  1.25000000  0.25000000  0.25000000  1.0
  Mn  Mn14  1  -0.50000000  0.50000000  0.50000000  1.0
  Mn  Mn15  1  0.00000000  0.00000000  0.00000000  1.0
  Cl  Cl16  1  -0.69589703  0.69589703  0.69589703  1.0
  Cl  Cl17  1  -0.30410297  0.30410297  0.69589703  1.0
  Cl  Cl18  1  0.69589703  0.69589703  -0.69589703  1.0
  Cl  Cl19  1  0.30410297  1.30410297  -0.30410297  1.0
  Cl  Cl20  1  0.30410297  -0.30410297  1.30410297  1.0
  Cl  Cl21  1  -0.30410297  0.30410297  0.30410297  1.0
  O  O22  1  0.59599281  0.90400719  -0.09599281  1.0
  O  O23  1  1.09599281  0.40400719  0.40400719  1.0
  O  O24  1  0.90400719  0.59599281  -0.09599281  1.0
  O  O25  1  1.40400719  0.09599281  0.40400719  1.0
  O  O26  1  0.90400719  0.90400719  -0.40400719  1.0
  O  O27  1  1.09599281  0.09599281  0.40400719  1.0
  O  O28  1  1.09599281  0.40400719  0.09599281  1.0
  O  O29  1  0.59599281  0.90400719  -0.40400719  1.0
  O  O30  1  1.40400719  0.40400719  0.09599281  1.0
  O  O31  1  0.59599281  0.59599281  -0.09599281  1.0
  O  O32  1  1.40400719  0.09599281  0.09599281  1.0
  O  O33  1  0.90400719  0.59599281  -0.40400719  1.0
  O  O34  1  0.90016158  0.90016158  -0.09983842  1.0
  O  O35  1  1.09983842  0.09983842  0.70048475  1.0
  O  O36  1  1.09983842  0.70048475  0.09983842  1.0
  O  O37  1  0.29951525  0.90016158  -0.09983842  1.0
  O  O38  1  1.70048475  0.09983842  0.09983842  1.0
  O  O39  1  0.90016158  0.29951525  -0.09983842  1.0
  O  O40  1  0.90016158  0.90016158  -0.70048475  1.0
  O  O41  1  1.09983842  0.09983842  0.09983842  1.0
