# generated using pymatgen
data_Cs(TeO3)2
_symmetry_space_group_name_H-M   'P 1'
_cell_length_a   7.58232789
_cell_length_b   7.58232789
_cell_length_c   7.58232789
_cell_angle_alpha   60.01158388
_cell_angle_beta   60.01158388
_cell_angle_gamma   60.01158388
_symmetry_Int_Tables_number   1
_chemical_formula_structural   Cs(TeO3)2
_chemical_formula_sum   'Cs2 Te4 O12'
_cell_volume   308.32356837
_cell_formula_units_Z   2
loop_
 _symmetry_equiv_pos_site_id
 _symmetry_equiv_pos_as_xyz
  1  'x, y, z'
loop_
 _atom_site_type_symbol
 _atom_site_label
 _atom_site_symmetry_multiplicity
 _atom_site_fract_x
 _atom_site_fract_y
 _atom_site_fract_z
 _atom_site_occupancy
  Cs  Cs0  1  1.62486801  0.62486801  0.62486801  1.0
  Cs  Cs1  1  1.37513199  0.37513199  0.37513199  1.0
  Te  Te2  1  1.00000000  1.50000000  0.00000000  1.0
  Te  Te3  1  1.00000000  1.00000000  0.50000000  1.0
  Te  Te4  1  1.50000000  1.00000000  0.00000000  1.0
  Te  Te5  1  0.00000000  -0.00000000  0.00000000  1.0
  O  O6  1  1.07184273  1.07184273  0.67813876  1.0
  O  O7  1  1.07184273  1.67813876  0.07184273  1.0
  O  O8  1  1.32186124  0.92815727  -0.07184273  1.0
  O  O9  1  0.92815727  1.32186124  -0.07184273  1.0
  O  O10  1  0.92815727  0.92815727  0.32186124  1.0
  O  O11  1  1.67813876  1.07184273  0.07184273  1.0
  O  O12  1  1.32176396  1.32176396  -0.07188375  1.0
  O  O13  1  1.32176396  0.92811625  0.32176396  1.0
  O  O14  1  1.07188375  0.67823604  0.67823604  1.0
  O  O15  1  1.67823604  0.07188375  0.67823604  1.0
  O  O16  1  1.67823604  0.67823604  0.07188375  1.0
  O  O17  1  0.92811625  1.32176396  0.32176396  1.0
