# generated using pymatgen
data_Li5Br3O2
_symmetry_space_group_name_H-M   'P 1'
_cell_length_a   11.06171981
_cell_length_b   11.06171981
_cell_length_c   11.06171981
_cell_angle_alpha   159.40670699
_cell_angle_beta   159.40670699
_cell_angle_gamma   29.28452343
_symmetry_Int_Tables_number   1
_chemical_formula_structural   Li5Br3O2
_chemical_formula_sum   'Li5 Br3 O2'
_cell_volume   167.36137667
_cell_formula_units_Z   1
loop_
 _symmetry_equiv_pos_site_id
 _symmetry_equiv_pos_as_xyz
  1  'x, y, z'
loop_
 _atom_site_type_symbol
 _atom_site_label
 _atom_site_symmetry_multiplicity
 _atom_site_fract_x
 _atom_site_fract_y
 _atom_site_fract_z
 _atom_site_occupancy
  Li  Li0  1  0.09283390  0.59283390  0.50000000  1.0
  Li  Li1  1  0.40716610  0.90716610  0.50000000  1.0
  Li  Li2  1  0.18373203  0.18373203  -0.00000000  1.0
  Li  Li3  1  0.81626797  0.81626797  1.00000000  1.0
  Li  Li4  1  0.00000000  0.00000000  0.00000000  1.0
  Br  Br5  1  0.31301846  0.31301846  0.00000000  1.0
  Br  Br6  1  0.68698154  0.68698154  1.00000000  1.0
  Br  Br7  1  0.50000000  0.50000000  1.00000000  1.0
  O  O8  1  0.09251800  0.09251800  -0.00000000  1.0
  O  O9  1  0.90748200  0.90748200  1.00000000  1.0
