# generated using pymatgen
data_Hf6BCl14
_symmetry_space_group_name_H-M   'P 1'
_cell_length_a   9.61980015
_cell_length_b   9.61980015
_cell_length_c   11.59428967
_cell_angle_alpha   90.00000000
_cell_angle_beta   90.00000000
_cell_angle_gamma   84.15368592
_symmetry_Int_Tables_number   1
_chemical_formula_structural   Hf6BCl14
_chemical_formula_sum   'Hf12 B2 Cl28'
_cell_volume   1067.36130308
_cell_formula_units_Z   2
loop_
 _symmetry_equiv_pos_site_id
 _symmetry_equiv_pos_as_xyz
  1  'x, y, z'
loop_
 _atom_site_type_symbol
 _atom_site_label
 _atom_site_symmetry_multiplicity
 _atom_site_fract_x
 _atom_site_fract_y
 _atom_site_fract_z
 _atom_site_occupancy
  Hf  Hf0  1  0.45212098  1.31552728  0.38260828  1.0
  Hf  Hf1  1  -0.04787902  0.81552728  0.11739172  1.0
  Hf  Hf2  1  0.31552728  1.45212098  0.61739172  1.0
  Hf  Hf3  1  -0.18447272  0.95212098  0.88260828  1.0
  Hf  Hf4  1  -0.31552728  0.54787902  0.38260828  1.0
  Hf  Hf5  1  0.18447272  1.04787902  0.11739172  1.0
  Hf  Hf6  1  -0.45212098  0.68447272  0.61739172  1.0
  Hf  Hf7  1  0.04787902  1.18447272  0.88260828  1.0
  Hf  Hf8  1  -0.14674677  1.14674677  0.10610368  1.0
  Hf  Hf9  1  0.35325323  0.64674677  0.39389632  1.0
  Hf  Hf10  1  0.14674677  0.85325323  0.89389632  1.0
  Hf  Hf11  1  -0.35325323  1.35325323  0.60610368  1.0
  B  B12  1  -0.50000000  0.50000000  0.50000000  1.0
  B  B13  1  -0.00000000  1.00000000  0.00000000  1.0
  Cl  Cl14  1  -0.38390672  1.13815176  0.48959407  1.0
  Cl  Cl15  1  0.11609328  0.63815176  0.01040593  1.0
  Cl  Cl16  1  0.13815176  0.61609328  0.51040593  1.0
  Cl  Cl17  1  -0.36184824  1.11609328  0.98959407  1.0
  Cl  Cl18  1  -0.13815176  1.38390672  0.48959407  1.0
  Cl  Cl19  1  0.36184824  0.88390672  0.01040593  1.0
  Cl  Cl20  1  0.38390672  0.86184824  0.51040593  1.0
  Cl  Cl21  1  -0.11609328  1.36184824  0.98959407  1.0
  Cl  Cl22  1  -0.21068558  0.96654105  0.24749116  1.0
  Cl  Cl23  1  0.28931442  1.46654105  0.25250884  1.0
  Cl  Cl24  1  -0.03345895  0.78931442  0.75250884  1.0
  Cl  Cl25  1  0.46654105  1.28931442  0.74749116  1.0
  Cl  Cl26  1  0.03345895  1.21068558  0.24749116  1.0
  Cl  Cl27  1  -0.46654105  0.71068558  0.25250884  1.0
  Cl  Cl28  1  0.21068558  1.03345895  0.75250884  1.0
  Cl  Cl29  1  -0.28931442  0.53345895  0.74749116  1.0
  Cl  Cl30  1  -0.34497495  1.34497495  0.23891824  1.0
  Cl  Cl31  1  0.15502505  0.84497495  0.26108176  1.0
  Cl  Cl32  1  0.34497495  0.65502505  0.76108176  1.0
  Cl  Cl33  1  -0.15502505  1.15502505  0.73891824  1.0
  Cl  Cl34  1  0.39395535  1.10604465  0.25000000  1.0
  Cl  Cl35  1  -0.10604465  0.60604465  0.25000000  1.0
  Cl  Cl36  1  0.10604465  1.39395535  0.75000000  1.0
  Cl  Cl37  1  -0.39395535  0.89395535  0.75000000  1.0
  Cl  Cl38  1  0.25097736  1.25097736  0.50000000  1.0
  Cl  Cl39  1  -0.24902264  0.75097736  0.00000000  1.0
  Cl  Cl40  1  -0.25097736  0.74902264  0.50000000  1.0
  Cl  Cl41  1  0.24902264  1.24902264  0.00000000  1.0
