# generated using pymatgen
data_FePO4
_symmetry_space_group_name_H-M   'P 1'
_cell_length_a   10.00453644
_cell_length_b   6.00247478
_cell_length_c   4.92342049
_cell_angle_alpha   90.00000000
_cell_angle_beta   90.00000000
_cell_angle_gamma   90.00000000
_symmetry_Int_Tables_number   1
_chemical_formula_structural   FePO4
_chemical_formula_sum   'Fe4 P4 O16'
_cell_volume   295.66113711
_cell_formula_units_Z   4
loop_
 _symmetry_equiv_pos_site_id
 _symmetry_equiv_pos_as_xyz
  1  'x, y, z'
loop_
 _atom_site_type_symbol
 _atom_site_label
 _atom_site_symmetry_multiplicity
 _atom_site_fract_x
 _atom_site_fract_y
 _atom_site_fract_z
 _atom_site_occupancy
  Fe  Fe0  1  0.77538567  0.25000000  0.53463145  1.0
  Fe  Fe1  1  0.27538567  0.25000000  0.96536855  1.0
  Fe  Fe2  1  0.22461433  0.75000000  0.46536855  1.0
  Fe  Fe3  1  0.72461433  0.75000000  0.03463145  1.0
  O  O4  1  0.62540737  0.25000000  0.77703724  1.0
  O  O5  1  0.12540737  0.25000000  0.72296276  1.0
  O  O6  1  0.37459263  0.75000000  0.22296276  1.0
  O  O7  1  0.87459263  0.75000000  0.27703724  1.0
  O  O8  1  0.67118982  0.04891794  0.23106320  1.0
  O  O9  1  0.17118982  0.45108206  0.26893680  1.0
  O  O10  1  0.32881018  0.54891794  0.76893680  1.0
  O  O11  1  0.82881018  0.95108206  0.73106320  1.0
  O  O12  1  0.32881018  0.95108206  0.76893680  1.0
  O  O13  1  0.82881018  0.54891794  0.73106320  1.0
  O  O14  1  0.67118982  0.45108206  0.23106320  1.0
  O  O15  1  0.17118982  0.04891794  0.26893680  1.0
  O  O16  1  0.94794057  0.25000000  0.35977413  1.0
  O  O17  1  0.44794057  0.25000000  0.14022587  1.0
  O  O18  1  0.05205943  0.75000000  0.64022587  1.0
  O  O19  1  0.55205943  0.75000000  0.85977413  1.0
  P  P20  1  0.59944073  0.25000000  0.08467044  1.0
  P  P21  1  0.09944073  0.25000000  0.41532956  1.0
  P  P22  1  0.40055927  0.75000000  0.91532956  1.0
  P  P23  1  0.90055927  0.75000000  0.58467044  1.0
