# generated using pymatgen
data_CsRb2SiF7
_symmetry_space_group_name_H-M   'P 1'
_cell_length_a   8.26528362
_cell_length_b   8.26528362
_cell_length_c   5.95571704
_cell_angle_alpha   90.00000000
_cell_angle_beta   90.00000000
_cell_angle_gamma   90.00000000
_symmetry_Int_Tables_number   1
_chemical_formula_structural   CsRb2SiF7
_chemical_formula_sum   'Cs2 Rb4 Si2 F14'
_cell_volume   406.86429389
_cell_formula_units_Z   2
loop_
 _symmetry_equiv_pos_site_id
 _symmetry_equiv_pos_as_xyz
  1  'x, y, z'
loop_
 _atom_site_type_symbol
 _atom_site_label
 _atom_site_symmetry_multiplicity
 _atom_site_fract_x
 _atom_site_fract_y
 _atom_site_fract_z
 _atom_site_occupancy
  Cs  Cs0  1  0.50000000  0.50000000  0.00000000  1.0
  Cs  Cs1  1  0.00000000  0.00000000  0.00000000  1.0
  Rb  Rb2  1  0.30402532  0.80402532  0.50000000  1.0
  Rb  Rb3  1  0.69597468  0.19597468  0.50000000  1.0
  Rb  Rb4  1  0.19597468  0.30402532  0.50000000  1.0
  Rb  Rb5  1  0.80402532  0.69597468  0.50000000  1.0
  Si  Si6  1  0.00000000  0.50000000  0.00000000  1.0
  Si  Si7  1  0.50000000  0.00000000  0.00000000  1.0
  F  F8  1  0.50000000  0.50000000  0.50000000  1.0
  F  F9  1  0.00000000  0.00000000  0.50000000  1.0
  F  F10  1  0.35309912  0.85309912  0.00000000  1.0
  F  F11  1  0.64690088  0.14690088  0.00000000  1.0
  F  F12  1  0.14690088  0.35309912  0.00000000  1.0
  F  F13  1  0.85309912  0.64690088  0.00000000  1.0
  F  F14  1  0.10358747  0.60358747  0.79356167  1.0
  F  F15  1  0.89641253  0.39641253  0.79356167  1.0
  F  F16  1  0.39641253  0.10358747  0.79356167  1.0
  F  F17  1  0.60358747  0.89641253  0.79356167  1.0
  F  F18  1  0.89641253  0.39641253  0.20643833  1.0
  F  F19  1  0.10358747  0.60358747  0.20643833  1.0
  F  F20  1  0.60358747  0.89641253  0.20643833  1.0
  F  F21  1  0.39641253  0.10358747  0.20643833  1.0
