# generated using pymatgen
data_Na5W2(ClO2)4
_symmetry_space_group_name_H-M   'P 1'
_cell_length_a   13.62248461
_cell_length_b   13.62248461
_cell_length_c   5.42230934
_cell_angle_alpha   90.00000000
_cell_angle_beta   90.00000000
_cell_angle_gamma   90.00000000
_symmetry_Int_Tables_number   1
_chemical_formula_structural   Na5W2(ClO2)4
_chemical_formula_sum   'Na10 W4 Cl8 O16'
_cell_volume   1006.22926140
_cell_formula_units_Z   2
loop_
 _symmetry_equiv_pos_site_id
 _symmetry_equiv_pos_as_xyz
  1  'x, y, z'
loop_
 _atom_site_type_symbol
 _atom_site_label
 _atom_site_symmetry_multiplicity
 _atom_site_fract_x
 _atom_site_fract_y
 _atom_site_fract_z
 _atom_site_occupancy
  Na  Na0  1  0.50000000  0.50000000  0.00000000  1.0
  Na  Na1  1  0.00000000  0.00000000  0.00000000  1.0
  Na  Na2  1  0.16664929  0.33335071  0.00000586  1.0
  Na  Na3  1  0.16664929  0.66664929  0.00000586  1.0
  Na  Na4  1  0.66664929  0.83335071  0.99999414  1.0
  Na  Na5  1  0.66664929  0.16664929  0.99999414  1.0
  Na  Na6  1  0.33335071  0.16664929  0.99999414  1.0
  Na  Na7  1  0.33335071  0.83335071  0.99999414  1.0
  Na  Na8  1  0.83335071  0.66664929  0.00000586  1.0
  Na  Na9  1  0.83335071  0.33335071  0.00000586  1.0
  W  W10  1  0.75000000  0.25000000  0.50000000  1.0
  W  W11  1  0.75000000  0.75000000  0.50000000  1.0
  W  W12  1  0.25000000  0.75000000  0.50000000  1.0
  W  W13  1  0.25000000  0.25000000  0.50000000  1.0
  Cl  Cl14  1  0.37746638  0.12253362  1.49997364  1.0
  Cl  Cl15  1  0.37746638  0.87746638  1.49997364  1.0
  Cl  Cl16  1  0.87746638  0.62253362  -0.49997364  1.0
  Cl  Cl17  1  0.87746638  0.37746638  -0.49997364  1.0
  Cl  Cl18  1  0.12253362  0.37746638  -0.49997364  1.0
  Cl  Cl19  1  0.12253362  0.62253362  -0.49997364  1.0
  Cl  Cl20  1  0.62253362  0.87746638  1.49997364  1.0
  Cl  Cl21  1  0.62253362  0.12253362  1.49997364  1.0
  O  O22  1  0.18146569  0.81852623  0.25439315  1.0
  O  O23  1  0.18146569  0.18147377  0.25439315  1.0
  O  O24  1  0.68146569  0.31852623  0.74560685  1.0
  O  O25  1  0.68146569  0.68147377  0.74560685  1.0
  O  O26  1  0.81852623  0.18146569  0.74560685  1.0
  O  O27  1  0.81852623  0.81853431  0.74560685  1.0
  O  O28  1  0.31852623  0.68146569  0.25439315  1.0
  O  O29  1  0.31852623  0.31853431  0.25439315  1.0
  O  O30  1  0.81853431  0.81852623  0.25439315  1.0
  O  O31  1  0.81853431  0.18147377  0.25439315  1.0
  O  O32  1  0.31853431  0.31852623  0.74560685  1.0
  O  O33  1  0.31853431  0.68147377  0.74560685  1.0
  O  O34  1  0.18147377  0.18146569  0.74560685  1.0
  O  O35  1  0.18147377  0.81853431  0.74560685  1.0
  O  O36  1  0.68147377  0.68146569  0.25439315  1.0
  O  O37  1  0.68147377  0.31853431  0.25439315  1.0
