# generated using pymatgen
data_Mg3B7ClO13
_symmetry_space_group_name_H-M   'P 1'
_cell_length_a   8.59585567
_cell_length_b   8.59585567
_cell_length_c   8.59585567
_cell_angle_alpha   60.00000000
_cell_angle_beta   60.00000000
_cell_angle_gamma   60.00000000
_symmetry_Int_Tables_number   1
_chemical_formula_structural   Mg3B7ClO13
_chemical_formula_sum   'Mg6 B14 Cl2 O26'
_cell_volume   449.10960858
_cell_formula_units_Z   2
loop_
 _symmetry_equiv_pos_site_id
 _symmetry_equiv_pos_as_xyz
  1  'x, y, z'
loop_
 _atom_site_type_symbol
 _atom_site_label
 _atom_site_symmetry_multiplicity
 _atom_site_fract_x
 _atom_site_fract_y
 _atom_site_fract_z
 _atom_site_occupancy
  Cl  Cl0  1  0.75000000  0.75000000  -0.25000000  1.0
  Cl  Cl1  1  0.25000000  0.25000000  0.25000000  1.0
  O  O2  1  0.74184591  1.06266510  -0.10408532  1.0
  O  O3  1  0.24184591  1.39591468  0.56266510  1.0
  O  O4  1  -0.70042568  0.89591468  1.06266510  1.0
  O  O5  1  -0.20042568  0.56266510  0.39591468  1.0
  O  O6  1  0.39591468  1.56266510  0.24184591  1.0
  O  O7  1  -0.10408532  0.74184591  1.06266510  1.0
  O  O8  1  -0.20042568  0.24184591  0.56266510  1.0
  O  O9  1  0.29957432  1.06266510  -0.25815409  1.0
  O  O10  1  1.06266510  0.89591468  -0.25815409  1.0
  O  O11  1  0.56266510  1.24184591  0.39591468  1.0
  O  O12  1  -0.70042568  0.74184591  0.89591468  1.0
  O  O13  1  -0.20042568  0.39591468  0.24184591  1.0
  O  O14  1  1.06266510  0.74184591  -0.70042568  1.0
  O  O15  1  0.39591468  1.24184591  -0.20042568  1.0
  O  O16  1  -0.10408532  0.29957432  0.74184591  1.0
  O  O17  1  0.56266510  -0.20042568  0.24184591  1.0
  O  O18  1  0.56266510  1.39591468  -0.20042568  1.0
  O  O19  1  -0.25815409  0.89591468  0.29957432  1.0
  O  O20  1  0.24184591  -0.20042568  0.39591468  1.0
  O  O21  1  1.06266510  0.29957432  -0.10408532  1.0
  O  O22  1  0.89591468  1.06266510  -0.70042568  1.0
  O  O23  1  0.24184591  1.56266510  -0.20042568  1.0
  O  O24  1  -0.25815409  0.29957432  1.06266510  1.0
  O  O25  1  0.39591468  -0.20042568  0.56266510  1.0
  O  O26  1  0.00000000  0.00000000  0.00000000  1.0
  O  O27  1  -0.50000000  0.50000000  0.50000000  1.0
  Mg  Mg28  1  0.50000000  -0.00000000  0.00000000  1.0
  Mg  Mg29  1  1.00000000  0.50000000  -0.50000000  1.0
  Mg  Mg30  1  -0.50000000  0.50000000  1.00000000  1.0
  Mg  Mg31  1  -0.00000000  0.50000000  0.00000000  1.0
  Mg  Mg32  1  0.00000000  0.00000000  0.50000000  1.0
  Mg  Mg33  1  0.50000000  1.00000000  -0.50000000  1.0
  B  B34  1  0.91931057  0.91931057  -0.08068943  1.0
  B  B35  1  0.41931057  1.41931057  0.41931057  1.0
  B  B36  1  0.24206829  0.91931057  -0.08068943  1.0
  B  B37  1  -0.25793171  0.41931057  0.41931057  1.0
  B  B38  1  0.91931057  0.91931057  -0.75793171  1.0
  B  B39  1  0.41931057  1.41931057  -0.25793171  1.0
  B  B40  1  0.91931057  0.24206829  -0.08068943  1.0
  B  B41  1  0.41931057  -0.25793171  0.41931057  1.0
  B  B42  1  -0.75000000  0.75000000  0.75000000  1.0
  B  B43  1  -0.25000000  0.25000000  0.25000000  1.0
  B  B44  1  0.25000000  1.25000000  -0.25000000  1.0
  B  B45  1  -0.25000000  0.25000000  0.75000000  1.0
  B  B46  1  -0.25000000  0.75000000  0.25000000  1.0
  B  B47  1  0.25000000  -0.25000000  0.25000000  1.0
