# generated using pymatgen
data_KB5(H2O3)4
_symmetry_space_group_name_H-M   'P 1'
_cell_length_a   7.20999167
_cell_length_b   7.20999167
_cell_length_c   11.15054003
_cell_angle_alpha   90.00000000
_cell_angle_beta   90.00000000
_cell_angle_gamma   79.58742553
_symmetry_Int_Tables_number   1
_chemical_formula_structural   KB5(H2O3)4
_chemical_formula_sum   'K2 B10 H16 O24'
_cell_volume   570.10368209
_cell_formula_units_Z   2
loop_
 _symmetry_equiv_pos_site_id
 _symmetry_equiv_pos_as_xyz
  1  'x, y, z'
loop_
 _atom_site_type_symbol
 _atom_site_label
 _atom_site_symmetry_multiplicity
 _atom_site_fract_x
 _atom_site_fract_y
 _atom_site_fract_z
 _atom_site_occupancy
  K  K0  1  -0.08815797  1.08815797  0.50000000  1.0
  K  K1  1  0.41184203  0.58815797  0.00000000  1.0
  B  B2  1  -0.50310169  1.31302665  0.31087324  1.0
  B  B3  1  0.18697335  1.00310169  0.81087324  1.0
  B  B4  1  -0.31302665  1.50310169  0.68912676  1.0
  B  B5  1  -0.00310169  0.81302665  0.18912676  1.0
  B  B6  1  0.46875117  0.64895699  0.29652996  1.0
  B  B7  1  -0.14895699  1.03124883  0.79652996  1.0
  B  B8  1  0.35104301  0.53124883  0.70347004  1.0
  B  B9  1  -0.03124883  1.14895699  0.20347004  1.0
  B  B10  1  0.50082133  0.49917867  0.50000000  1.0
  B  B11  1  0.00082133  -0.00082133  0.00000000  1.0
  H  H12  1  -0.60692690  1.11896744  0.48924413  1.0
  H  H13  1  -0.61896744  1.10692690  0.98924413  1.0
  H  H14  1  -0.11896744  1.60692690  0.51075587  1.0
  H  H15  1  -0.10692690  1.61896744  0.01075587  1.0
  H  H16  1  0.38637999  0.89995982  0.48084443  1.0
  H  H17  1  -0.39995982  1.11362001  0.98084443  1.0
  H  H18  1  0.10004018  0.61362001  0.51915557  1.0
  H  H19  1  -0.11362001  1.39995982  0.01915557  1.0
  H  H20  1  0.46260352  0.92121662  0.25173117  1.0
  H  H21  1  -0.42121662  1.03739648  0.75173117  1.0
  H  H22  1  0.07878338  0.53739648  0.74826883  1.0
  H  H23  1  -0.03739648  1.42121662  0.24826883  1.0
  H  H24  1  -0.50414357  1.15981408  0.16295191  1.0
  H  H25  1  -0.65981408  1.00414357  0.66295191  1.0
  H  H26  1  -0.15981408  1.50414357  0.83704809  1.0
  H  H27  1  -0.00414357  1.65981408  0.33704809  1.0
  O  O28  1  -0.49062437  1.31911708  0.43309864  1.0
  O  O29  1  0.18088292  0.99062437  0.93309864  1.0
  O  O30  1  -0.31911708  1.49062437  0.56690136  1.0
  O  O31  1  0.00937563  0.81911708  0.06690136  1.0
  O  O32  1  0.47749904  0.66454335  0.41847114  1.0
  O  O33  1  -0.16454335  1.02250096  0.91847114  1.0
  O  O34  1  0.33545665  0.52250096  0.58152886  1.0
  O  O35  1  -0.02250096  1.16454335  0.08152886  1.0
  O  O36  1  -0.49538242  1.14412935  0.25315000  1.0
  O  O37  1  0.35587065  0.99538242  0.75315000  1.0
  O  O38  1  -0.14412935  1.49538242  0.74685000  1.0
  O  O39  1  0.00461758  0.64412935  0.24685000  1.0
  O  O40  1  0.47615457  0.47471547  0.24141018  1.0
  O  O41  1  0.02528453  0.02384543  0.74141018  1.0
  O  O42  1  0.52528453  0.52384543  0.75858982  1.0
  O  O43  1  0.97615457  0.97471547  0.25858982  1.0
  O  O44  1  0.44999901  0.79667595  0.21850318  1.0
  O  O45  1  -0.29667595  1.05000099  0.71850318  1.0
  O  O46  1  0.20332405  0.55000099  0.78149682  1.0
  O  O47  1  -0.05000099  1.29667595  0.28149682  1.0
  O  O48  1  -0.52045153  1.17529738  0.01765895  1.0
  O  O49  1  -0.67529738  1.02045153  0.51765895  1.0
  O  O50  1  -0.17529738  1.52045153  0.98234105  1.0
  O  O51  1  -0.02045153  1.67529738  0.48234105  1.0
