# generated using pymatgen
data_Zr(WO4)2
_symmetry_space_group_name_H-M   'P 1'
_cell_length_a   9.28780051
_cell_length_b   9.28780051
_cell_length_c   9.28780051
_cell_angle_alpha   90.00000000
_cell_angle_beta   90.00000000
_cell_angle_gamma   90.00000000
_symmetry_Int_Tables_number   1
_chemical_formula_structural   Zr(WO4)2
_chemical_formula_sum   'Zr4 W8 O32'
_cell_volume   801.19574909
_cell_formula_units_Z   4
loop_
 _symmetry_equiv_pos_site_id
 _symmetry_equiv_pos_as_xyz
  1  'x, y, z'
loop_
 _atom_site_type_symbol
 _atom_site_label
 _atom_site_symmetry_multiplicity
 _atom_site_fract_x
 _atom_site_fract_y
 _atom_site_fract_z
 _atom_site_occupancy
  Zr  Zr0  1  0.00111367  0.50111367  0.99888633  1.0
  Zr  Zr1  1  0.50111367  0.99888633  0.00111367  1.0
  Zr  Zr2  1  0.99888633  0.00111367  0.50111367  1.0
  Zr  Zr3  1  0.49888633  0.49888633  0.49888633  1.0
  W  W4  1  0.34219014  0.84219014  0.65780986  1.0
  W  W5  1  0.84219014  0.65780986  0.34219014  1.0
  W  W6  1  0.65780986  0.34219014  0.84219014  1.0
  W  W7  1  0.15780986  0.15780986  0.15780986  1.0
  W  W8  1  0.60119942  0.10119942  0.39880058  1.0
  W  W9  1  0.10119942  0.39880058  0.60119942  1.0
  W  W10  1  0.39880058  0.60119942  0.10119942  1.0
  W  W11  1  0.89880058  0.89880058  0.89880058  1.0
  O  O12  1  0.44702360  0.70547320  0.56187609  1.0
  O  O13  1  0.94702360  0.79452680  0.43812391  1.0
  O  O14  1  0.20547320  0.93812391  0.55297640  1.0
  O  O15  1  0.70547320  0.56187609  0.44702360  1.0
  O  O16  1  0.43812391  0.94702360  0.79452680  1.0
  O  O17  1  0.93812391  0.55297640  0.20547320  1.0
  O  O18  1  0.55297640  0.20547320  0.93812391  1.0
  O  O19  1  0.05297640  0.29452680  0.06187609  1.0
  O  O20  1  0.79452680  0.43812391  0.94702360  1.0
  O  O21  1  0.29452680  0.06187609  0.05297640  1.0
  O  O22  1  0.56187609  0.44702360  0.70547320  1.0
  O  O23  1  0.06187609  0.05297640  0.29452680  1.0
  O  O24  1  0.44271161  0.78772177  0.06782083  1.0
  O  O25  1  0.94271161  0.71227823  0.93217917  1.0
  O  O26  1  0.28772177  0.43217917  0.55728839  1.0
  O  O27  1  0.78772177  0.06782083  0.44271161  1.0
  O  O28  1  0.93217917  0.94271161  0.71227823  1.0
  O  O29  1  0.43217917  0.55728839  0.28772177  1.0
  O  O30  1  0.55728839  0.28772177  0.43217917  1.0
  O  O31  1  0.05728839  0.21227823  0.56782083  1.0
  O  O32  1  0.71227823  0.93217917  0.94271161  1.0
  O  O33  1  0.21227823  0.56782083  0.05728839  1.0
  O  O34  1  0.06782083  0.44271161  0.78772177  1.0
  O  O35  1  0.56782083  0.05728839  0.21227823  1.0
  O  O36  1  0.49219531  0.99219531  0.50780469  1.0
  O  O37  1  0.99219531  0.50780469  0.49219531  1.0
  O  O38  1  0.50780469  0.49219531  0.99219531  1.0
  O  O39  1  0.00780469  0.00780469  0.00780469  1.0
  O  O40  1  0.23463187  0.73463187  0.76536813  1.0
  O  O41  1  0.73463187  0.76536813  0.23463187  1.0
  O  O42  1  0.76536813  0.23463187  0.73463187  1.0
  O  O43  1  0.26536813  0.26536813  0.26536813  1.0
