# generated using pymatgen
data_MgPSe3
_symmetry_space_group_name_H-M   'P 1'
_cell_length_a   8.52115626
_cell_length_b   8.52115626
_cell_length_c   8.52115626
_cell_angle_alpha   44.48843755
_cell_angle_beta   44.48843755
_cell_angle_gamma   44.48843755
_symmetry_Int_Tables_number   1
_chemical_formula_structural   MgPSe3
_chemical_formula_sum   'Mg2 P2 Se6'
_cell_volume   276.24830325
_cell_formula_units_Z   2
loop_
 _symmetry_equiv_pos_site_id
 _symmetry_equiv_pos_as_xyz
  1  'x, y, z'
loop_
 _atom_site_type_symbol
 _atom_site_label
 _atom_site_symmetry_multiplicity
 _atom_site_fract_x
 _atom_site_fract_y
 _atom_site_fract_z
 _atom_site_occupancy
  Mg  Mg0  1  0.33313739  0.33313739  0.33313739  1.0
  Mg  Mg1  1  0.66686261  -0.33313739  -0.33313739  1.0
  P  P2  1  0.04870199  0.04870199  0.04870199  1.0
  P  P3  1  0.95129801  -0.04870199  -0.04870199  1.0
  Se  Se4  1  0.07618478  0.74454346  -0.59464614  1.0
  Se  Se5  1  0.59464614  0.92381522  -0.74454346  1.0
  Se  Se6  1  0.25545654  0.59464614  -0.07618478  1.0
  Se  Se7  1  0.92381522  0.25545654  -0.40535386  1.0
  Se  Se8  1  0.40535386  0.07618478  -0.25545654  1.0
  Se  Se9  1  0.74454346  0.40535386  -0.92381522  1.0
