# generated using pymatgen
data_LiBiO2
_symmetry_space_group_name_H-M   'P 1'
_cell_length_a   10.02086718
_cell_length_b   10.02086718
_cell_length_c   10.02086718
_cell_angle_alpha   148.99106097
_cell_angle_beta   41.87283173
_cell_angle_gamma   152.56588253
_symmetry_Int_Tables_number   1
_chemical_formula_structural   LiBiO2
_chemical_formula_sum   'Li4 Bi4 O8'
_cell_volume   238.29506371
_cell_formula_units_Z   4
loop_
 _symmetry_equiv_pos_site_id
 _symmetry_equiv_pos_as_xyz
  1  'x, y, z'
loop_
 _atom_site_type_symbol
 _atom_site_label
 _atom_site_symmetry_multiplicity
 _atom_site_fract_x
 _atom_site_fract_y
 _atom_site_fract_z
 _atom_site_occupancy
  Li  Li0  1  1.00060517  1.25000000  0.75060517  1.0
  Li  Li1  1  0.50060517  0.75000000  0.75060517  1.0
  Li  Li2  1  0.99939483  0.75000000  0.24939483  1.0
  Li  Li3  1  0.49939483  0.25000000  0.24939483  1.0
  Bi  Bi4  1  0.40733037  0.26085579  0.66818616  1.0
  Bi  Bi5  1  0.09266963  0.76085579  0.85352542  1.0
  Bi  Bi6  1  0.90733037  1.23914421  1.14647458  1.0
  Bi  Bi7  1  0.59266963  0.73914421  0.33181384  1.0
  O  O8  1  0.29701246  0.24796981  0.54498226  1.0
  O  O9  1  0.20298754  0.74796981  0.95095735  1.0
  O  O10  1  0.79701246  1.25203019  1.04904265  1.0
  O  O11  1  0.70298754  0.75203019  0.45501774  1.0
  O  O12  1  0.08495490  0.15828460  0.24323951  1.0
  O  O13  1  0.41504510  0.65828460  1.07332970  1.0
  O  O14  1  0.58495490  1.34171540  0.92667030  1.0
  O  O15  1  0.91504510  0.84171540  0.75676049  1.0
