# generated using pymatgen
data_Zn(CO2)2
_symmetry_space_group_name_H-M   'P 1'
_cell_length_a   5.36489259
_cell_length_b   5.37541327
_cell_length_c   6.31414273
_cell_angle_alpha   90.00000000
_cell_angle_beta   119.37682143
_cell_angle_gamma   90.00000000
_symmetry_Int_Tables_number   1
_chemical_formula_structural   Zn(CO2)2
_chemical_formula_sum   'Zn2 C4 O8'
_cell_volume   158.67590594
_cell_formula_units_Z   2
loop_
 _symmetry_equiv_pos_site_id
 _symmetry_equiv_pos_as_xyz
  1  'x, y, z'
loop_
 _atom_site_type_symbol
 _atom_site_label
 _atom_site_symmetry_multiplicity
 _atom_site_fract_x
 _atom_site_fract_y
 _atom_site_fract_z
 _atom_site_occupancy
  Zn  Zn0  1  -0.00000000  0.50000000  0.50000000  1.0
  Zn  Zn1  1  0.00000000  0.00000000  0.00000000  1.0
  C  C2  1  0.54669415  0.60893626  0.59257905  1.0
  C  C3  1  0.54669415  0.89106374  0.09257905  1.0
  C  C4  1  0.45330585  0.39106374  0.40742095  1.0
  C  C5  1  0.45330585  0.10893626  0.90742095  1.0
  O  O6  1  0.80021150  0.68961094  0.67900083  1.0
  O  O7  1  0.80021150  0.81038906  0.17900083  1.0
  O  O8  1  0.19978850  0.31038906  0.32099917  1.0
  O  O9  1  0.19978850  0.18961094  0.82099917  1.0
  O  O10  1  0.63718129  0.30790340  0.35557439  1.0
  O  O11  1  0.63718129  0.19209660  0.85557439  1.0
  O  O12  1  0.36281871  0.69209660  0.64442561  1.0
  O  O13  1  0.36281871  0.80790340  0.14442561  1.0
