# generated using pymatgen
data_MnP3NO9
_symmetry_space_group_name_H-M   'P 1'
_cell_length_a   6.72020470
_cell_length_b   6.72020470
_cell_length_c   9.74779721
_cell_angle_alpha   90.00000000
_cell_angle_beta   90.00000000
_cell_angle_gamma   120.00000000
_symmetry_Int_Tables_number   1
_chemical_formula_structural   MnP3NO9
_chemical_formula_sum   'Mn2 P6 N2 O18'
_cell_volume   381.24321317
_cell_formula_units_Z   2
loop_
 _symmetry_equiv_pos_site_id
 _symmetry_equiv_pos_as_xyz
  1  'x, y, z'
loop_
 _atom_site_type_symbol
 _atom_site_label
 _atom_site_symmetry_multiplicity
 _atom_site_fract_x
 _atom_site_fract_y
 _atom_site_fract_z
 _atom_site_occupancy
  Mn  Mn0  1  0.00000000  0.00000000  0.50000000  1.0
  Mn  Mn1  1  0.00000000  0.00000000  0.00000000  1.0
  P  P2  1  0.26207940  0.88104627  0.25000000  1.0
  P  P3  1  0.26207940  0.38103313  0.75000000  1.0
  P  P4  1  0.61896687  0.88104627  0.75000000  1.0
  P  P5  1  0.61896687  0.73792060  0.25000000  1.0
  P  P6  1  0.11895373  0.73792060  0.75000000  1.0
  P  P7  1  0.11895373  0.38103313  0.25000000  1.0
  N  N8  1  0.66666667  0.33333333  0.50000000  1.0
  N  N9  1  0.66666667  0.33333333  0.00000000  1.0
  O  O10  1  0.74721060  0.76428843  0.38190942  1.0
  O  O11  1  0.74721060  0.76428843  0.11809058  1.0
  O  O12  1  0.74721060  -0.01707782  0.88190942  1.0
  O  O13  1  0.74721060  -0.01707782  0.61809058  1.0
  O  O14  1  1.01707782  0.76428843  0.88190942  1.0
  O  O15  1  1.01707782  0.76428843  0.61809058  1.0
  O  O16  1  1.01707782  0.25278940  0.38190942  1.0
  O  O17  1  1.01707782  0.25278940  0.11809058  1.0
  O  O18  1  0.23571157  0.25278940  0.88190942  1.0
  O  O19  1  0.23571157  0.25278940  0.61809058  1.0
  O  O20  1  0.23571157  -0.01707782  0.38190942  1.0
  O  O21  1  0.23571157  -0.01707782  0.11809058  1.0
  O  O22  1  0.51422152  0.90851118  0.25000000  1.0
  O  O23  1  0.51422152  0.60571033  0.75000000  1.0
  O  O24  1  0.39428967  0.90851118  0.75000000  1.0
  O  O25  1  0.39428967  0.48577848  0.25000000  1.0
  O  O26  1  0.09148882  0.48577848  0.75000000  1.0
  O  O27  1  0.09148882  0.60571033  0.25000000  1.0
