# generated using pymatgen
data_Bi2O3
_symmetry_space_group_name_H-M   'P 1'
_cell_length_a   10.15002359
_cell_length_b   10.15002359
_cell_length_c   10.15002359
_cell_angle_alpha   109.47122063
_cell_angle_beta   109.47122063
_cell_angle_gamma   109.47122063
_symmetry_Int_Tables_number   1
_chemical_formula_structural   Bi2O3
_chemical_formula_sum   'Bi12 O18'
_cell_volume   804.96920203
_cell_formula_units_Z   6
loop_
 _symmetry_equiv_pos_site_id
 _symmetry_equiv_pos_as_xyz
  1  'x, y, z'
loop_
 _atom_site_type_symbol
 _atom_site_label
 _atom_site_symmetry_multiplicity
 _atom_site_fract_x
 _atom_site_fract_y
 _atom_site_fract_z
 _atom_site_occupancy
  Bi  Bi0  1  0.52233864  0.75796337  0.52231917  1.0
  Bi  Bi1  1  1.23564419  1.00001947  0.47768083  1.0
  Bi  Bi2  1  0.52231917  0.52233864  0.75796337  1.0
  Bi  Bi3  1  0.76437527  0.76435581  0.24203663  1.0
  Bi  Bi4  1  0.75796337  0.52231917  0.52233864  1.0
  Bi  Bi5  1  0.99998053  1.23562472  1.47766136  1.0
  Bi  Bi6  1  0.76435581  0.24203663  0.76437527  1.0
  Bi  Bi7  1  1.47766136  0.99998053  1.23562472  1.0
  Bi  Bi8  1  1.23562472  1.47766136  0.99998053  1.0
  Bi  Bi9  1  0.47768083  1.23564419  1.00001947  1.0
  Bi  Bi10  1  1.00001947  0.47768083  1.23564419  1.0
  Bi  Bi11  1  0.24203663  0.76437527  0.76435581  1.0
  O  O12  1  0.67674246  0.67672524  0.47540604  1.0
  O  O13  1  1.20131920  1.20133642  0.52459396  1.0
  O  O14  1  0.47540604  0.67674246  0.67672524  1.0
  O  O15  1  1.00001722  0.79868080  1.32327476  1.0
  O  O16  1  0.67672524  0.47540604  0.67674246  1.0
  O  O17  1  0.79866358  0.99998278  0.32325754  1.0
  O  O18  1  0.79868080  1.32327476  1.00001722  1.0
  O  O19  1  0.32325754  0.79866358  0.99998278  1.0
  O  O20  1  0.99998278  0.32325754  0.79866358  1.0
  O  O21  1  0.52459396  1.20131920  1.20133642  1.0
  O  O22  1  1.20133642  0.52459396  1.20131920  1.0
  O  O23  1  1.32327476  1.00001722  0.79868080  1.0
  O  O24  1  0.69206790  0.69206790  0.00000000  1.0
  O  O25  1  -0.00000000  0.69206790  0.69206790  1.0
  O  O26  1  -0.00000000  0.30793210  0.30793210  1.0
  O  O27  1  0.69206790  0.00000000  0.69206790  1.0
  O  O28  1  0.30793210  -0.00000000  0.30793210  1.0
  O  O29  1  0.30793210  0.30793210  0.00000000  1.0
