# generated using pymatgen
data_RbH2(IO3)3
_symmetry_space_group_name_H-M   'P 1'
_cell_length_a   8.23323984
_cell_length_b   7.64363440
_cell_length_c   7.72619909
_cell_angle_alpha   83.06757732
_cell_angle_beta   77.78456887
_cell_angle_gamma   83.57353924
_symmetry_Int_Tables_number   1
_chemical_formula_structural   RbH2(IO3)3
_chemical_formula_sum   'Rb2 H4 I6 O18'
_cell_volume   469.86755724
_cell_formula_units_Z   2
loop_
 _symmetry_equiv_pos_site_id
 _symmetry_equiv_pos_as_xyz
  1  'x, y, z'
loop_
 _atom_site_type_symbol
 _atom_site_label
 _atom_site_symmetry_multiplicity
 _atom_site_fract_x
 _atom_site_fract_y
 _atom_site_fract_z
 _atom_site_occupancy
  Rb  Rb0  1  0.56513955  0.55740968  0.75571026  1.0
  Rb  Rb1  1  0.86974334  0.83466251  0.38224074  1.0
  H  H2  1  0.05075747  0.11845803  0.98291599  1.0
  H  H3  1  0.38928627  0.26961783  0.15499885  1.0
  H  H4  1  0.18392736  0.66292780  0.07421693  1.0
  H  H5  1  0.22940805  0.70927779  0.51452336  1.0
  I  I6  1  0.80202237  0.04811551  0.88627117  1.0
  I  I7  1  0.37765592  0.08956159  0.69434496  1.0
  I  I8  1  0.07344164  0.28858098  0.44400990  1.0
  I  I9  1  0.64010289  0.34488393  0.24519901  1.0
  I  I10  1  0.05414906  0.52876581  0.86457453  1.0
  I  I11  1  0.40269033  0.86415313  0.23854187  1.0
  O  O12  1  -0.00256301  0.00329301  0.00573344  1.0
  O  O13  1  0.65588098  0.01770034  0.11468328  1.0
  O  O14  1  0.28235194  0.08953000  0.23022563  1.0
  O  O15  1  0.07919752  0.08760867  0.61182090  1.0
  O  O16  1  0.57103532  0.15862698  0.76014618  1.0
  O  O17  1  0.87639977  0.23563640  0.37664058  1.0
  O  O18  1  0.36418345  0.28929951  0.52451005  1.0
  O  O19  1  0.16221316  0.30067541  0.89961478  1.0
  O  O20  1  0.78394414  0.37197849  0.01894754  1.0
  O  O21  1  0.44037811  0.38653173  0.13344750  1.0
  O  O22  1  0.96971905  0.46345672  0.60181549  1.0
  O  O23  1  0.62439572  0.57069976  0.31736612  1.0
  O  O24  1  0.08146176  0.59721194  0.10082974  1.0
  O  O25  1  0.22509468  0.65600241  0.72813736  1.0
  O  O26  1  0.21731899  0.73247731  0.38515932  1.0
  O  O27  1  0.37002462  0.79539145  0.02598310  1.0
  O  O28  1  0.81593357  0.82292547  0.81413309  1.0
  O  O29  1  0.48220597  0.91683982  0.54175835  1.0
