# generated using pymatgen
data_Ba2InIrO6
_symmetry_space_group_name_H-M   'P 1'
_cell_length_a   5.92527795
_cell_length_b   5.92527795
_cell_length_c   14.75253625
_cell_angle_alpha   90.00000000
_cell_angle_beta   90.00000000
_cell_angle_gamma   120.00000000
_symmetry_Int_Tables_number   1
_chemical_formula_structural   Ba2InIrO6
_chemical_formula_sum   'Ba6 In3 Ir3 O18'
_cell_volume   448.55404498
_cell_formula_units_Z   3
loop_
 _symmetry_equiv_pos_site_id
 _symmetry_equiv_pos_as_xyz
  1  'x, y, z'
loop_
 _atom_site_type_symbol
 _atom_site_label
 _atom_site_symmetry_multiplicity
 _atom_site_fract_x
 _atom_site_fract_y
 _atom_site_fract_z
 _atom_site_occupancy
  Ba  Ba0  1  0.33333333  0.66666667  0.59516331  1.0
  Ba  Ba1  1  0.66666667  0.33333333  0.40483669  1.0
  Ba  Ba2  1  0.33333333  0.66666667  0.90514530  1.0
  Ba  Ba3  1  0.66666667  0.33333333  0.09485470  1.0
  Ba  Ba4  1  0.00000000  0.00000000  0.24630666  1.0
  Ba  Ba5  1  0.00000000  0.00000000  0.75369334  1.0
  Ir  Ir6  1  0.00000000  0.00000000  0.50000000  1.0
  Ir  Ir7  1  0.33333333  0.66666667  0.15715703  1.0
  Ir  Ir8  1  0.66666667  0.33333333  0.84284297  1.0
  In  In9  1  0.00000000  0.00000000  0.00000000  1.0
  In  In10  1  0.33333333  0.66666667  0.34782789  1.0
  In  In11  1  0.66666667  0.33333333  0.65217211  1.0
  O  O12  1  0.02554520  0.51277260  0.24212526  1.0
  O  O13  1  0.51277260  0.02554520  0.75787474  1.0
  O  O14  1  0.51277260  0.48722740  0.75787474  1.0
  O  O15  1  0.48722740  0.51277260  0.24212526  1.0
  O  O16  1  0.48722740  -0.02554520  0.24212526  1.0
  O  O17  1  -0.02554520  0.48722740  0.75787474  1.0
  O  O18  1  0.65855206  0.82927603  0.08521816  1.0
  O  O19  1  0.82927603  0.65855206  0.91478184  1.0
  O  O20  1  0.82927603  0.17072397  0.91478184  1.0
  O  O21  1  0.17072397  0.82927603  0.08521816  1.0
  O  O22  1  0.17072397  0.34144794  0.08521816  1.0
  O  O23  1  0.34144794  0.17072397  0.91478184  1.0
  O  O24  1  0.68696025  0.84348012  0.42185443  1.0
  O  O25  1  0.84348012  0.68696025  0.57814557  1.0
  O  O26  1  0.84348012  0.15651988  0.57814557  1.0
  O  O27  1  0.15651988  0.84348012  0.42185443  1.0
  O  O28  1  0.15651988  0.31303975  0.42185443  1.0
  O  O29  1  0.31303975  0.15651988  0.57814557  1.0
