# generated using pymatgen
data_Co2O3
_symmetry_space_group_name_H-M   'P 1'
_cell_length_a   5.13568833
_cell_length_b   5.13568833
_cell_length_c   5.13568833
_cell_angle_alpha   55.76496653
_cell_angle_beta   55.76496653
_cell_angle_gamma   55.76496653
_symmetry_Int_Tables_number   1
_chemical_formula_structural   Co2O3
_chemical_formula_sum   'Co4 O6'
_cell_volume   86.37406178
_cell_formula_units_Z   2
loop_
 _symmetry_equiv_pos_site_id
 _symmetry_equiv_pos_as_xyz
  1  'x, y, z'
loop_
 _atom_site_type_symbol
 _atom_site_label
 _atom_site_symmetry_multiplicity
 _atom_site_fract_x
 _atom_site_fract_y
 _atom_site_fract_z
 _atom_site_occupancy
  Co  Co0  1  0.84815856  -0.15184144  -0.15184144  1.0
  Co  Co1  1  0.34815856  0.34815856  0.34815856  1.0
  Co  Co2  1  0.65184144  0.65184144  -0.34815856  1.0
  Co  Co3  1  1.15184144  0.15184144  0.15184144  1.0
  O  O4  1  0.44719353  0.75000000  0.05280647  1.0
  O  O5  1  0.94719353  -0.44719353  0.25000000  1.0
  O  O6  1  0.25000000  0.94719353  -0.44719353  1.0
  O  O7  1  0.75000000  1.05280647  -0.55280647  1.0
  O  O8  1  0.55280647  0.25000000  -0.05280647  1.0
  O  O9  1  1.05280647  0.44719353  -0.25000000  1.0
