# generated using pymatgen
data_Rb2PdI6
_symmetry_space_group_name_H-M   'P 1'
_cell_length_a   8.21350149
_cell_length_b   12.73433461
_cell_length_c   14.58035897
_cell_angle_alpha   90.00000000
_cell_angle_beta   90.00000000
_cell_angle_gamma   90.00000000
_symmetry_Int_Tables_number   1
_chemical_formula_structural   Rb2PdI6
_chemical_formula_sum   'Rb8 Pd4 I24'
_cell_volume   1525.01043085
_cell_formula_units_Z   4
loop_
 _symmetry_equiv_pos_site_id
 _symmetry_equiv_pos_as_xyz
  1  'x, y, z'
loop_
 _atom_site_type_symbol
 _atom_site_label
 _atom_site_symmetry_multiplicity
 _atom_site_fract_x
 _atom_site_fract_y
 _atom_site_fract_z
 _atom_site_occupancy
  Rb  Rb0  1  0.28823724  0.98642102  0.64102244  1.0
  Rb  Rb1  1  0.28823724  0.51357898  0.64102244  1.0
  Rb  Rb2  1  0.78823724  0.98642102  0.85897756  1.0
  Rb  Rb3  1  0.78823724  0.51357898  0.85897756  1.0
  Rb  Rb4  1  0.71176276  0.48642102  0.35897756  1.0
  Rb  Rb5  1  0.71176276  0.01357898  0.35897756  1.0
  Rb  Rb6  1  0.21176276  0.48642102  0.14102244  1.0
  Rb  Rb7  1  0.21176276  0.01357898  0.14102244  1.0
  Pd  Pd8  1  0.26199232  0.75000000  0.90242087  1.0
  Pd  Pd9  1  0.76199232  0.75000000  0.59757913  1.0
  Pd  Pd10  1  0.73800768  0.25000000  0.09757913  1.0
  Pd  Pd11  1  0.23800768  0.25000000  0.40242087  1.0
  I  I12  1  0.26156759  0.96062828  0.89592277  1.0
  I  I13  1  0.26156759  0.53937172  0.89592277  1.0
  I  I14  1  0.76156759  0.96062828  0.60407723  1.0
  I  I15  1  0.76156759  0.53937172  0.60407723  1.0
  I  I16  1  0.73843241  0.46062828  0.10407723  1.0
  I  I17  1  0.73843241  0.03937172  0.10407723  1.0
  I  I18  1  0.23843241  0.46062828  0.39592277  1.0
  I  I19  1  0.23843241  0.03937172  0.39592277  1.0
  I  I20  1  0.48317775  0.75000000  0.28728346  1.0
  I  I21  1  0.98317775  0.75000000  0.21271654  1.0
  I  I22  1  0.51682225  0.25000000  0.71271654  1.0
  I  I23  1  0.01682225  0.25000000  0.78728346  1.0
  I  I24  1  0.47397202  0.75000000  0.50673762  1.0
  I  I25  1  0.97397202  0.75000000  0.99326238  1.0
  I  I26  1  0.52602798  0.25000000  0.49326238  1.0
  I  I27  1  0.02602798  0.25000000  0.00673762  1.0
  I  I28  1  0.44740764  0.75000000  0.08859953  1.0
  I  I29  1  0.94740764  0.75000000  0.41140047  1.0
  I  I30  1  0.55259236  0.25000000  0.91140047  1.0
  I  I31  1  0.05259236  0.25000000  0.58859953  1.0
  I  I32  1  0.02321807  0.75000000  0.70589396  1.0
  I  I33  1  0.52321807  0.75000000  0.79410604  1.0
  I  I34  1  0.97678193  0.25000000  0.29410604  1.0
  I  I35  1  0.47678193  0.25000000  0.20589396  1.0
