# generated using pymatgen
data_KNaTiO3
_symmetry_space_group_name_H-M   'P 1'
_cell_length_a   6.28601052
_cell_length_b   6.28601052
_cell_length_c   5.50276529
_cell_angle_alpha   86.66821978
_cell_angle_beta   93.33178022
_cell_angle_gamma   55.44119536
_symmetry_Int_Tables_number   1
_chemical_formula_structural   KNaTiO3
_chemical_formula_sum   'K2 Na2 Ti2 O6'
_cell_volume   177.66494739
_cell_formula_units_Z   2
loop_
 _symmetry_equiv_pos_site_id
 _symmetry_equiv_pos_as_xyz
  1  'x, y, z'
loop_
 _atom_site_type_symbol
 _atom_site_label
 _atom_site_symmetry_multiplicity
 _atom_site_fract_x
 _atom_site_fract_y
 _atom_site_fract_z
 _atom_site_occupancy
  K  K0  1  0.23960294  0.23960294  0.75000000  1.0
  K  K1  1  0.76039706  -0.23960294  0.25000000  1.0
  Na  Na2  1  0.92231504  -0.07768496  0.75000000  1.0
  Na  Na3  1  0.07768496  0.07768496  0.25000000  1.0
  Ti  Ti4  1  0.55291459  -0.44708541  0.75000000  1.0
  Ti  Ti5  1  0.44708541  0.44708541  0.25000000  1.0
  O  O6  1  0.68933588  0.26327033  0.99498624  1.0
  O  O7  1  0.73672967  -0.68933588  0.49498624  1.0
  O  O8  1  1.26327033  -0.31066412  0.50501376  1.0
  O  O9  1  0.31066412  -0.26327033  0.00501376  1.0
  O  O10  1  0.71246905  -0.28753095  0.75000000  1.0
  O  O11  1  0.28753095  0.28753095  0.25000000  1.0
