# generated using pymatgen
data_Zn(InS2)2
_symmetry_space_group_name_H-M   'P 1'
_cell_length_a   3.92876782
_cell_length_b   3.92876782
_cell_length_c   26.94280003
_cell_angle_alpha   90.00000000
_cell_angle_beta   90.00000000
_cell_angle_gamma   120.00000000
_symmetry_Int_Tables_number   1
_chemical_formula_structural   Zn(InS2)2
_chemical_formula_sum   'Zn2 In4 S8'
_cell_volume   360.15221189
_cell_formula_units_Z   2
loop_
 _symmetry_equiv_pos_site_id
 _symmetry_equiv_pos_as_xyz
  1  'x, y, z'
loop_
 _atom_site_type_symbol
 _atom_site_label
 _atom_site_symmetry_multiplicity
 _atom_site_fract_x
 _atom_site_fract_y
 _atom_site_fract_z
 _atom_site_occupancy
  Zn  Zn0  1  0.33333333  0.66666667  0.53831484  1.0
  Zn  Zn1  1  0.66666667  0.33333333  0.46168516  1.0
  In  In2  1  0.33333333  0.66666667  0.11143186  1.0
  In  In3  1  0.66666667  0.33333333  0.88856814  1.0
  In  In4  1  0.00000000  0.00000000  0.26127890  1.0
  In  In5  1  0.00000000  0.00000000  0.73872110  1.0
  S  S6  1  0.33333333  0.66666667  0.20096911  1.0
  S  S7  1  0.66666667  0.33333333  0.79903089  1.0
  S  S8  1  0.33333333  0.66666667  0.44219307  1.0
  S  S9  1  0.66666667  0.33333333  0.55780693  1.0
  S  S10  1  0.33333333  0.66666667  0.69397755  1.0
  S  S11  1  0.66666667  0.33333333  0.30602245  1.0
  S  S12  1  0.33333333  0.66666667  0.93106611  1.0
  S  S13  1  0.66666667  0.33333333  0.06893389  1.0
