# generated using pymatgen
data_YCuPbSe3
_symmetry_space_group_name_H-M   'P 1'
_cell_length_a   10.66149625
_cell_length_b   4.06286608
_cell_length_c   13.67223438
_cell_angle_alpha   90.00000000
_cell_angle_beta   90.00000000
_cell_angle_gamma   90.00000000
_symmetry_Int_Tables_number   1
_chemical_formula_structural   YCuPbSe3
_chemical_formula_sum   'Y4 Cu4 Pb4 Se12'
_cell_volume   592.22966926
_cell_formula_units_Z   4
loop_
 _symmetry_equiv_pos_site_id
 _symmetry_equiv_pos_as_xyz
  1  'x, y, z'
loop_
 _atom_site_type_symbol
 _atom_site_label
 _atom_site_symmetry_multiplicity
 _atom_site_fract_x
 _atom_site_fract_y
 _atom_site_fract_z
 _atom_site_occupancy
  Y  Y0  1  0.97702685  0.75000000  0.24335892  1.0
  Y  Y1  1  0.47702685  0.75000000  0.25664108  1.0
  Y  Y2  1  0.02297315  0.25000000  0.75664108  1.0
  Y  Y3  1  0.52297315  0.25000000  0.74335892  1.0
  Cu  Cu4  1  0.76562978  0.75000000  0.72175569  1.0
  Cu  Cu5  1  0.26562978  0.75000000  0.77824431  1.0
  Cu  Cu6  1  0.23437022  0.25000000  0.27824431  1.0
  Cu  Cu7  1  0.73437022  0.25000000  0.22175569  1.0
  Pb  Pb8  1  0.72087265  0.75000000  0.00602109  1.0
  Pb  Pb9  1  0.22087265  0.75000000  0.49397891  1.0
  Pb  Pb10  1  0.27912735  0.25000000  0.99397891  1.0
  Pb  Pb11  1  0.77912735  0.25000000  0.50602109  1.0
  Se  Se12  1  0.95547147  0.75000000  0.61530350  1.0
  Se  Se13  1  0.45547147  0.75000000  0.88469650  1.0
  Se  Se14  1  0.04452853  0.25000000  0.38469650  1.0
  Se  Se15  1  0.54452853  0.25000000  0.11530350  1.0
  Se  Se16  1  0.73082505  0.75000000  0.33024344  1.0
  Se  Se17  1  0.23082505  0.75000000  0.16975656  1.0
  Se  Se18  1  0.26917495  0.25000000  0.66975656  1.0
  Se  Se19  1  0.76917495  0.25000000  0.83024344  1.0
  Se  Se20  1  0.59027402  0.75000000  0.60656382  1.0
  Se  Se21  1  0.09027402  0.75000000  0.89343618  1.0
  Se  Se22  1  0.40972598  0.25000000  0.39343618  1.0
  Se  Se23  1  0.90972598  0.25000000  0.10656382  1.0
