# generated using pymatgen
data_Ca2VN3
_symmetry_space_group_name_H-M   'P 1'
_cell_length_a   5.92622022
_cell_length_b   5.92622022
_cell_length_c   11.61944324
_cell_angle_alpha   89.01476400
_cell_angle_beta   90.98523600
_cell_angle_gamma   56.63424063
_symmetry_Int_Tables_number   1
_chemical_formula_structural   Ca2VN3
_chemical_formula_sum   'Ca8 V4 N12'
_cell_volume   340.59144632
_cell_formula_units_Z   4
loop_
 _symmetry_equiv_pos_site_id
 _symmetry_equiv_pos_as_xyz
  1  'x, y, z'
loop_
 _atom_site_type_symbol
 _atom_site_label
 _atom_site_symmetry_multiplicity
 _atom_site_fract_x
 _atom_site_fract_y
 _atom_site_fract_z
 _atom_site_occupancy
  Ca  Ca0  1  0.55425092  0.04029250  0.64679967  1.0
  Ca  Ca1  1  0.95970750  -0.55425092  0.14679967  1.0
  Ca  Ca2  1  1.04029250  -0.44574908  0.85320033  1.0
  Ca  Ca3  1  0.44574908  -0.04029250  0.35320033  1.0
  Ca  Ca4  1  0.33932627  -0.11409385  0.92275756  1.0
  Ca  Ca5  1  1.11409385  -0.33932627  0.42275756  1.0
  Ca  Ca6  1  0.88590615  -0.66067373  0.57724244  1.0
  Ca  Ca7  1  0.66067373  0.11409385  0.07724244  1.0
  V  V8  1  0.73364087  -0.73349898  0.83764945  1.0
  V  V9  1  0.73349898  0.26635913  0.33764945  1.0
  V  V10  1  0.26650102  -0.26635913  0.66235055  1.0
  V  V11  1  1.26635913  -0.26650102  0.16235055  1.0
  N  N12  1  0.69254236  0.12226652  0.46190259  1.0
  N  N13  1  0.87773348  -0.69254236  0.96190259  1.0
  N  N14  1  1.12226652  -0.30745764  0.03809741  1.0
  N  N15  1  0.30745764  -0.12226652  0.53809741  1.0
  N  N16  1  0.51311848  0.16099889  0.87169436  1.0
  N  N17  1  0.83900111  -0.51311848  0.37169436  1.0
  N  N18  1  1.16099889  -0.48688152  0.62830564  1.0
  N  N19  1  0.48688152  -0.16099889  0.12830564  1.0
  N  N20  1  0.00545657  0.00545657  0.75000000  1.0
  N  N21  1  0.99454343  -0.00545657  0.25000000  1.0
  N  N22  1  0.58786788  -0.41213212  0.75000000  1.0
  N  N23  1  0.41213212  0.41213212  0.25000000  1.0
