# generated using pymatgen
data_Sr
_symmetry_space_group_name_H-M   'P 1'
_cell_length_a   7.83159946
_cell_length_b   7.83159946
_cell_length_c   6.88445554
_cell_angle_alpha   66.38074178
_cell_angle_beta   113.61925822
_cell_angle_gamma   82.09402434
_symmetry_Int_Tables_number   1
_chemical_formula_structural   Sr
_chemical_formula_sum   Sr6
_cell_volume   331.37101819
_cell_formula_units_Z   6
loop_
 _symmetry_equiv_pos_site_id
 _symmetry_equiv_pos_as_xyz
  1  'x, y, z'
loop_
 _atom_site_type_symbol
 _atom_site_label
 _atom_site_symmetry_multiplicity
 _atom_site_fract_x
 _atom_site_fract_y
 _atom_site_fract_z
 _atom_site_occupancy
  Sr  Sr0  1  1.45963537  0.37549133  0.41828920  1.0
  Sr  Sr1  1  0.62450867  -0.45963537  -0.08171080  1.0
  Sr  Sr2  1  0.95963313  -0.12450560  0.91825799  1.0
  Sr  Sr3  1  1.12450560  0.04036687  0.41825799  1.0
  Sr  Sr4  1  1.04205386  -0.54206338  0.66825281  1.0
  Sr  Sr5  1  1.54206338  -0.04205386  0.16825281  1.0
