# generated using pymatgen
data_LiIO4
_symmetry_space_group_name_H-M   'P 1'
_cell_length_a   5.45495799
_cell_length_b   8.80442452
_cell_length_c   8.59478743
_cell_angle_alpha   90.00000000
_cell_angle_beta   112.61572158
_cell_angle_gamma   90.00000000
_symmetry_Int_Tables_number   1
_chemical_formula_structural   LiIO4
_chemical_formula_sum   'Li4 I4 O16'
_cell_volume   381.04696163
_cell_formula_units_Z   4
loop_
 _symmetry_equiv_pos_site_id
 _symmetry_equiv_pos_as_xyz
  1  'x, y, z'
loop_
 _atom_site_type_symbol
 _atom_site_label
 _atom_site_symmetry_multiplicity
 _atom_site_fract_x
 _atom_site_fract_y
 _atom_site_fract_z
 _atom_site_occupancy
  Li  Li0  1  0.91430859  0.96096148  0.16771403  1.0
  Li  Li1  1  0.91430859  0.53903852  0.66771403  1.0
  Li  Li2  1  0.08569141  0.46096148  0.33228597  1.0
  Li  Li3  1  0.08569141  0.03903852  0.83228597  1.0
  I  I4  1  0.65949569  0.20775732  0.43331718  1.0
  I  I5  1  0.65949569  0.29224268  0.93331718  1.0
  I  I6  1  0.34050431  0.70775732  0.06668282  1.0
  I  I7  1  0.34050431  0.79224268  0.56668282  1.0
  O  O8  1  0.88252515  0.37474141  0.48346439  1.0
  O  O9  1  0.88252515  0.12525859  0.98346439  1.0
  O  O10  1  0.11747485  0.87474141  0.01653561  1.0
  O  O11  1  0.11747485  0.62525859  0.51653561  1.0
  O  O12  1  0.76046747  0.42157913  0.11514911  1.0
  O  O13  1  0.76046747  0.07842087  0.61514911  1.0
  O  O14  1  0.23953253  0.92157913  0.38485089  1.0
  O  O15  1  0.23953253  0.57842087  0.88485089  1.0
  O  O16  1  0.68151192  0.10540129  0.25273482  1.0
  O  O17  1  0.68151192  0.39459871  0.75273482  1.0
  O  O18  1  0.31848808  0.60540129  0.24726518  1.0
  O  O19  1  0.31848808  0.89459871  0.74726518  1.0
  O  O20  1  0.31447256  0.26843610  0.37624838  1.0
  O  O21  1  0.31447256  0.23156390  0.87624838  1.0
  O  O22  1  0.68552744  0.76843610  0.12375162  1.0
  O  O23  1  0.68552744  0.73156390  0.62375162  1.0
