# generated using pymatgen
data_ScTl(MoO4)2
_symmetry_space_group_name_H-M   'P 1'
_cell_length_a   16.00200762
_cell_length_b   5.86260642
_cell_length_c   9.32165382
_cell_angle_alpha   90.00000000
_cell_angle_beta   90.00000000
_cell_angle_gamma   90.00000000
_symmetry_Int_Tables_number   1
_chemical_formula_structural   ScTl(MoO4)2
_chemical_formula_sum   'Sc4 Tl4 Mo8 O32'
_cell_volume   874.49671547
_cell_formula_units_Z   4
loop_
 _symmetry_equiv_pos_site_id
 _symmetry_equiv_pos_as_xyz
  1  'x, y, z'
loop_
 _atom_site_type_symbol
 _atom_site_label
 _atom_site_symmetry_multiplicity
 _atom_site_fract_x
 _atom_site_fract_y
 _atom_site_fract_z
 _atom_site_occupancy
  Sc  Sc0  1  0.37308910  0.75000000  0.83872216  1.0
  Sc  Sc1  1  0.87308910  0.75000000  0.66127784  1.0
  Sc  Sc2  1  0.62691090  0.25000000  0.16127784  1.0
  Sc  Sc3  1  0.12691090  0.25000000  0.33872216  1.0
  Tl  Tl4  1  0.12552411  0.75000000  0.92772498  1.0
  Tl  Tl5  1  0.62552411  0.75000000  0.57227502  1.0
  Tl  Tl6  1  0.87447589  0.25000000  0.07227502  1.0
  Tl  Tl7  1  0.37447589  0.25000000  0.42772498  1.0
  Mo  Mo8  1  0.48127435  0.75000000  0.20906117  1.0
  Mo  Mo9  1  0.98127435  0.75000000  0.29093883  1.0
  Mo  Mo10  1  0.51872565  0.25000000  0.79093883  1.0
  Mo  Mo11  1  0.01872565  0.25000000  0.70906117  1.0
  Mo  Mo12  1  0.21878660  0.75000000  0.52947374  1.0
  Mo  Mo13  1  0.71878660  0.75000000  0.97052626  1.0
  Mo  Mo14  1  0.78121340  0.25000000  0.47052626  1.0
  Mo  Mo15  1  0.28121340  0.25000000  0.02947374  1.0
  O  O16  1  0.45388593  0.49569247  0.76549584  1.0
  O  O17  1  0.45388593  0.00430753  0.76549584  1.0
  O  O18  1  0.95388593  0.49569247  0.73450416  1.0
  O  O19  1  0.95388593  0.00430753  0.73450416  1.0
  O  O20  1  0.54611407  0.99569247  0.23450416  1.0
  O  O21  1  0.54611407  0.50430753  0.23450416  1.0
  O  O22  1  0.04611407  0.99569247  0.26549584  1.0
  O  O23  1  0.04611407  0.50430753  0.26549584  1.0
  O  O24  1  0.28575711  0.99662903  0.92063025  1.0
  O  O25  1  0.28575711  0.50337097  0.92063025  1.0
  O  O26  1  0.78575711  0.99662903  0.57936975  1.0
  O  O27  1  0.78575711  0.50337097  0.57936975  1.0
  O  O28  1  0.71424289  0.49662903  0.07936975  1.0
  O  O29  1  0.71424289  0.00337097  0.07936975  1.0
  O  O30  1  0.21424289  0.49662903  0.42063025  1.0
  O  O31  1  0.21424289  0.00337097  0.42063025  1.0
  O  O32  1  0.43406628  0.75000000  0.03600054  1.0
  O  O33  1  0.93406628  0.75000000  0.46399946  1.0
  O  O34  1  0.56593372  0.25000000  0.96399946  1.0
  O  O35  1  0.06593372  0.25000000  0.53600054  1.0
  O  O36  1  0.40428584  0.75000000  0.34186556  1.0
  O  O37  1  0.90428584  0.75000000  0.15813444  1.0
  O  O38  1  0.59571416  0.25000000  0.65813444  1.0
  O  O39  1  0.09571416  0.25000000  0.84186556  1.0
  O  O40  1  0.31049125  0.75000000  0.63822683  1.0
  O  O41  1  0.81049125  0.75000000  0.86177317  1.0
  O  O42  1  0.68950875  0.25000000  0.36177317  1.0
  O  O43  1  0.18950875  0.25000000  0.13822683  1.0
  O  O44  1  0.13326765  0.75000000  0.64446854  1.0
  O  O45  1  0.63326765  0.75000000  0.85553146  1.0
  O  O46  1  0.86673235  0.25000000  0.35553146  1.0
  O  O47  1  0.36673235  0.25000000  0.14446854  1.0
