# generated using pymatgen
data_VCdAgO4
_symmetry_space_group_name_H-M   'P 1'
_cell_length_a   9.98312195
_cell_length_b   7.05896917
_cell_length_c   5.51752575
_cell_angle_alpha   90.00000000
_cell_angle_beta   90.00000000
_cell_angle_gamma   90.00000000
_symmetry_Int_Tables_number   1
_chemical_formula_structural   VCdAgO4
_chemical_formula_sum   'V4 Cd4 Ag4 O16'
_cell_volume   388.82307496
_cell_formula_units_Z   4
loop_
 _symmetry_equiv_pos_site_id
 _symmetry_equiv_pos_as_xyz
  1  'x, y, z'
loop_
 _atom_site_type_symbol
 _atom_site_label
 _atom_site_symmetry_multiplicity
 _atom_site_fract_x
 _atom_site_fract_y
 _atom_site_fract_z
 _atom_site_occupancy
  V  V0  1  0.67866495  0.25000000  0.01299218  1.0
  V  V1  1  0.17866495  0.25000000  0.48700782  1.0
  V  V2  1  0.32133505  0.75000000  0.98700782  1.0
  V  V3  1  0.82133505  0.75000000  0.51299218  1.0
  Cd  Cd4  1  0.00000000  0.50000000  0.00000000  1.0
  Cd  Cd5  1  0.00000000  0.00000000  0.00000000  1.0
  Cd  Cd6  1  0.50000000  0.50000000  0.50000000  1.0
  Cd  Cd7  1  0.50000000  0.00000000  0.50000000  1.0
  Ag  Ag8  1  0.84793255  0.25000000  0.50008766  1.0
  Ag  Ag9  1  0.34793255  0.25000000  -0.00008766  1.0
  Ag  Ag10  1  0.15206745  0.75000000  0.49991234  1.0
  Ag  Ag11  1  0.65206745  0.75000000  1.00008766  1.0
  O  O12  1  0.61719125  0.44586684  0.15504786  1.0
  O  O13  1  0.61719125  0.05413316  0.15504786  1.0
  O  O14  1  0.11719125  0.44586684  0.34495214  1.0
  O  O15  1  0.11719125  0.05413316  0.34495214  1.0
  O  O16  1  0.38280875  0.94586684  0.84495214  1.0
  O  O17  1  0.38280875  0.55413316  0.84495214  1.0
  O  O18  1  0.88280875  0.94586684  0.65504786  1.0
  O  O19  1  0.88280875  0.55413316  0.65504786  1.0
  O  O20  1  0.85556053  0.25000000  0.05942370  1.0
  O  O21  1  0.35556053  0.25000000  0.44057630  1.0
  O  O22  1  0.14443947  0.75000000  0.94057630  1.0
  O  O23  1  0.64443947  0.75000000  0.55942370  1.0
  O  O24  1  0.62623519  0.25000000  0.71034063  1.0
  O  O25  1  0.12623519  0.25000000  0.78965937  1.0
  O  O26  1  0.37376481  0.75000000  0.28965937  1.0
  O  O27  1  0.87376481  0.75000000  0.21034063  1.0
