# generated using pymatgen
data_CsAlAgF6
_symmetry_space_group_name_H-M   'P 1'
_cell_length_a   7.54960052
_cell_length_b   7.36424144
_cell_length_c   10.57461705
_cell_angle_alpha   90.00000000
_cell_angle_beta   90.00000000
_cell_angle_gamma   90.00000000
_symmetry_Int_Tables_number   1
_chemical_formula_structural   CsAlAgF6
_chemical_formula_sum   'Cs4 Al4 Ag4 F24'
_cell_volume   587.91784057
_cell_formula_units_Z   4
loop_
 _symmetry_equiv_pos_site_id
 _symmetry_equiv_pos_as_xyz
  1  'x, y, z'
loop_
 _atom_site_type_symbol
 _atom_site_label
 _atom_site_symmetry_multiplicity
 _atom_site_fract_x
 _atom_site_fract_y
 _atom_site_fract_z
 _atom_site_occupancy
  Cs  Cs0  1  0.97799039  0.75000000  0.63332664  1.0
  Cs  Cs1  1  0.47799039  0.75000000  0.86667336  1.0
  Cs  Cs2  1  0.02200961  0.25000000  0.36667336  1.0
  Cs  Cs3  1  0.52200961  0.25000000  0.13332664  1.0
  Al  Al4  1  0.00000000  0.00000000  0.00000000  1.0
  Al  Al5  1  0.00000000  0.50000000  0.00000000  1.0
  Al  Al6  1  0.50000000  0.00000000  0.50000000  1.0
  Al  Al7  1  0.50000000  0.50000000  0.50000000  1.0
  Ag  Ag8  1  0.78709644  0.75000000  0.25428645  1.0
  Ag  Ag9  1  0.28709644  0.75000000  0.24571355  1.0
  Ag  Ag10  1  0.21290356  0.25000000  0.74571355  1.0
  Ag  Ag11  1  0.71290356  0.25000000  0.75428645  1.0
  F  F12  1  0.86952830  0.48699576  0.14564861  1.0
  F  F13  1  0.86952830  0.01300424  0.14564861  1.0
  F  F14  1  0.36952830  0.48699576  0.35435139  1.0
  F  F15  1  0.36952830  0.01300424  0.35435139  1.0
  F  F16  1  0.13047170  0.98699576  0.85435139  1.0
  F  F17  1  0.13047170  0.51300424  0.85435139  1.0
  F  F18  1  0.63047170  0.98699576  0.64564861  1.0
  F  F19  1  0.63047170  0.51300424  0.64564861  1.0
  F  F20  1  0.70279070  0.96833338  0.40882178  1.0
  F  F21  1  0.70279070  0.53166662  0.40882178  1.0
  F  F22  1  0.20279070  0.96833338  0.09117822  1.0
  F  F23  1  0.20279070  0.53166662  0.09117822  1.0
  F  F24  1  0.29720930  0.46833338  0.59117822  1.0
  F  F25  1  0.29720930  0.03166662  0.59117822  1.0
  F  F26  1  0.79720930  0.46833338  0.90882178  1.0
  F  F27  1  0.79720930  0.03166662  0.90882178  1.0
  F  F28  1  0.53987633  0.75000000  0.17281548  1.0
  F  F29  1  0.03987633  0.75000000  0.32718452  1.0
  F  F30  1  0.46012367  0.25000000  0.82718452  1.0
  F  F31  1  0.96012367  0.25000000  0.67281548  1.0
  F  F32  1  0.46243605  0.75000000  0.50551010  1.0
  F  F33  1  0.96243605  0.75000000  0.99448990  1.0
  F  F34  1  0.53756395  0.25000000  0.49448990  1.0
  F  F35  1  0.03756395  0.25000000  0.00551010  1.0
