# generated using pymatgen
data_Ta5GeB2
_symmetry_space_group_name_H-M   'P 1'
_cell_length_a   7.32081925
_cell_length_b   7.32081925
_cell_length_c   7.32081925
_cell_angle_alpha   129.31001702
_cell_angle_beta   129.31001702
_cell_angle_gamma   74.51225215
_symmetry_Int_Tables_number   1
_chemical_formula_structural   Ta5GeB2
_chemical_formula_sum   'Ta10 Ge2 B4'
_cell_volume   228.89838703
_cell_formula_units_Z   2
loop_
 _symmetry_equiv_pos_site_id
 _symmetry_equiv_pos_as_xyz
  1  'x, y, z'
loop_
 _atom_site_type_symbol
 _atom_site_label
 _atom_site_symmetry_multiplicity
 _atom_site_fract_x
 _atom_site_fract_y
 _atom_site_fract_z
 _atom_site_occupancy
  Ta  Ta0  1  0.52851372  0.69732410  0.50000000  1.0
  Ta  Ta1  1  1.19732410  1.02851372  1.50000000  1.0
  Ta  Ta2  1  1.02851372  0.52851372  0.83118962  1.0
  Ta  Ta3  1  0.69732410  1.19732410  1.16881038  1.0
  Ta  Ta4  1  0.47148628  0.30267590  0.50000000  1.0
  Ta  Ta5  1  0.80267590  0.97148628  1.50000000  1.0
  Ta  Ta6  1  0.97148628  0.47148628  1.16881038  1.0
  Ta  Ta7  1  0.30267590  0.80267590  0.83118962  1.0
  Ta  Ta8  1  0.50000000  0.50000000  1.00000000  1.0
  Ta  Ta9  1  0.00000000  -0.00000000  -0.00000000  1.0
  Ge  Ge10  1  0.25000000  0.25000000  -0.00000000  1.0
  Ge  Ge11  1  0.75000000  0.75000000  1.00000000  1.0
  B  B12  1  0.87981730  0.62018270  1.50000000  1.0
  B  B13  1  0.12018270  0.37981730  0.50000000  1.0
  B  B14  1  0.37981730  0.87981730  1.25963459  1.0
  B  B15  1  0.62018270  0.12018270  0.74036541  1.0
