# generated using pymatgen
data_CsCu2Br3
_symmetry_space_group_name_H-M   'P 1'
_cell_length_a   8.63229723
_cell_length_b   8.63229723
_cell_length_c   5.33178826
_cell_angle_alpha   90.00000000
_cell_angle_beta   90.00000000
_cell_angle_gamma   103.84917331
_symmetry_Int_Tables_number   1
_chemical_formula_structural   CsCu2Br3
_chemical_formula_sum   'Cs2 Cu4 Br6'
_cell_volume   385.75648019
_cell_formula_units_Z   2
loop_
 _symmetry_equiv_pos_site_id
 _symmetry_equiv_pos_as_xyz
  1  'x, y, z'
loop_
 _atom_site_type_symbol
 _atom_site_label
 _atom_site_symmetry_multiplicity
 _atom_site_fract_x
 _atom_site_fract_y
 _atom_site_fract_z
 _atom_site_occupancy
  Cs  Cs0  1  -0.29730186  1.29730186  0.25000000  1.0
  Cs  Cs1  1  0.29730186  0.70269814  0.75000000  1.0
  Cu  Cu2  1  0.83068786  0.83068786  0.50000000  1.0
  Cu  Cu3  1  0.83068786  0.83068786  0.00000000  1.0
  Cu  Cu4  1  0.16931214  0.16931214  0.50000000  1.0
  Cu  Cu5  1  0.16931214  0.16931214  0.00000000  1.0
  Br  Br6  1  0.15939166  0.40306706  0.25000000  1.0
  Br  Br7  1  -0.59693294  1.15939166  0.75000000  1.0
  Br  Br8  1  0.59693294  0.84060834  0.25000000  1.0
  Br  Br9  1  -0.15939166  1.59693294  0.75000000  1.0
  Br  Br10  1  0.09980358  0.90019642  0.25000000  1.0
  Br  Br11  1  -0.09980358  1.09980358  0.75000000  1.0
