# generated using pymatgen
data_B
_symmetry_space_group_name_H-M   'P 1'
_cell_length_a   8.63154120
_cell_length_b   8.63154120
_cell_length_c   4.99682024
_cell_angle_alpha   90.00000000
_cell_angle_beta   90.00000000
_cell_angle_gamma   90.00000000
_symmetry_Int_Tables_number   1
_chemical_formula_structural   B
_chemical_formula_sum   B48
_cell_volume   372.28061471
_cell_formula_units_Z   48
loop_
 _symmetry_equiv_pos_site_id
 _symmetry_equiv_pos_as_xyz
  1  'x, y, z'
loop_
 _atom_site_type_symbol
 _atom_site_label
 _atom_site_symmetry_multiplicity
 _atom_site_fract_x
 _atom_site_fract_y
 _atom_site_fract_z
 _atom_site_occupancy
  B  B0  1  0.41635900  0.17089642  0.09527869  1.0
  B  B1  1  0.08364100  0.67089642  0.59527869  1.0
  B  B2  1  0.82910358  0.41635900  0.90472131  1.0
  B  B3  1  0.67089642  0.91635900  0.40472131  1.0
  B  B4  1  0.58364100  0.82910358  0.09527869  1.0
  B  B5  1  0.91635900  0.32910358  0.59527869  1.0
  B  B6  1  0.17089642  0.58364100  0.90472131  1.0
  B  B7  1  0.32910358  0.08364100  0.40472131  1.0
  B  B8  1  0.17089642  0.41635900  0.09527869  1.0
  B  B9  1  0.32910358  0.91635900  0.59527869  1.0
  B  B10  1  0.58364100  0.17089642  0.90472131  1.0
  B  B11  1  0.91635900  0.67089642  0.40472131  1.0
  B  B12  1  0.82910358  0.58364100  0.09527869  1.0
  B  B13  1  0.67089642  0.08364100  0.59527869  1.0
  B  B14  1  0.41635900  0.82910358  0.90472131  1.0
  B  B15  1  0.08364100  0.32910358  0.40472131  1.0
  B  B16  1  0.41700602  0.27299933  0.40938372  1.0
  B  B17  1  0.08299398  0.77299933  0.90938372  1.0
  B  B18  1  0.72700067  0.41700602  0.59061628  1.0
  B  B19  1  0.77299933  0.91700602  0.09061628  1.0
  B  B20  1  0.58299398  0.72700067  0.40938372  1.0
  B  B21  1  0.91700602  0.22700067  0.90938372  1.0
  B  B22  1  0.27299933  0.58299398  0.59061628  1.0
  B  B23  1  0.22700067  0.08299398  0.09061628  1.0
  B  B24  1  0.27299933  0.41700602  0.40938372  1.0
  B  B25  1  0.22700067  0.91700602  0.90938372  1.0
  B  B26  1  0.58299398  0.27299933  0.59061628  1.0
  B  B27  1  0.91700602  0.77299933  0.09061628  1.0
  B  B28  1  0.72700067  0.58299398  0.40938372  1.0
  B  B29  1  0.77299933  0.08299398  0.90938372  1.0
  B  B30  1  0.41700602  0.72700067  0.59061628  1.0
  B  B31  1  0.08299398  0.22700067  0.09061628  1.0
  B  B32  1  0.37477398  0.37477398  0.11718582  1.0
  B  B33  1  0.12522602  0.87477398  0.61718582  1.0
  B  B34  1  0.62522602  0.37477398  0.88281418  1.0
  B  B35  1  0.87477398  0.87477398  0.38281418  1.0
  B  B36  1  0.62522602  0.62522602  0.11718582  1.0
  B  B37  1  0.87477398  0.12522602  0.61718582  1.0
  B  B38  1  0.37477398  0.62522602  0.88281418  1.0
  B  B39  1  0.12522602  0.12522602  0.38281418  1.0
  B  B40  1  0.24442365  0.24442365  0.57954059  1.0
  B  B41  1  0.25557635  0.74442365  0.07954059  1.0
  B  B42  1  0.75557635  0.24442365  0.42045941  1.0
  B  B43  1  0.74442365  0.74442365  0.92045941  1.0
  B  B44  1  0.75557635  0.75557635  0.57954059  1.0
  B  B45  1  0.74442365  0.25557635  0.07954059  1.0
  B  B46  1  0.24442365  0.75557635  0.42045941  1.0
  B  B47  1  0.25557635  0.25557635  0.92045941  1.0
