# generated using pymatgen
data_MoH8N2O5F2
_symmetry_space_group_name_H-M   'P 1'
_cell_length_a   6.13826880
_cell_length_b   7.61959979
_cell_length_c   8.57325843
_cell_angle_alpha   81.41046705
_cell_angle_beta   67.66679766
_cell_angle_gamma   82.37731919
_symmetry_Int_Tables_number   1
_chemical_formula_structural   MoH8N2O5F2
_chemical_formula_sum   'Mo2 H16 N4 O10 F4'
_cell_volume   365.47843723
_cell_formula_units_Z   2
loop_
 _symmetry_equiv_pos_site_id
 _symmetry_equiv_pos_as_xyz
  1  'x, y, z'
loop_
 _atom_site_type_symbol
 _atom_site_label
 _atom_site_symmetry_multiplicity
 _atom_site_fract_x
 _atom_site_fract_y
 _atom_site_fract_z
 _atom_site_occupancy
  Mo  Mo0  1  0.55261921  0.69407314  0.74397142  1.0
  Mo  Mo1  1  0.44738079  0.30592686  0.25602858  1.0
  H  H2  1  0.93561938  0.24088600  0.97128615  1.0
  H  H3  1  0.06438062  0.75911400  0.02871385  1.0
  H  H4  1  0.87190066  0.78728509  0.92475773  1.0
  H  H5  1  0.12809934  0.21271491  0.07524227  1.0
  H  H6  1  0.81956083  0.64451778  0.10668986  1.0
  H  H7  1  0.18043917  0.35548222  0.89331014  1.0
  H  H8  1  0.91902739  0.18540119  0.44834019  1.0
  H  H9  1  0.08097261  0.81459881  0.55165981  1.0
  H  H10  1  0.79174053  0.86706254  0.11426816  1.0
  H  H11  1  0.20825947  0.13293746  0.88573184  1.0
  H  H12  1  0.79342203  0.07841448  0.64589626  1.0
  H  H13  1  0.20657797  0.92158552  0.35410374  1.0
  H  H14  1  0.79516766  0.30806699  0.61455080  1.0
  H  H15  1  0.20483234  0.69193301  0.38544920  1.0
  H  H16  1  0.37890365  0.79702891  0.44980671  1.0
  H  H17  1  0.62109635  0.20297109  0.55019329  1.0
  N  N18  1  0.88695356  0.76361042  0.04397764  1.0
  N  N19  1  0.11304644  0.23638958  0.95602236  1.0
  N  N20  1  0.78110896  0.19435752  0.56625075  1.0
  N  N21  1  0.21889104  0.80564248  0.43374925  1.0
  O  O22  1  0.83336125  0.52252974  0.67499578  1.0
  O  O23  1  0.16663875  0.47747026  0.32500422  1.0
  O  O24  1  0.72305998  0.52540626  0.85850797  1.0
  O  O25  1  0.27694002  0.47459374  0.14149203  1.0
  O  O26  1  0.38029824  0.80884391  0.95265527  1.0
  O  O27  1  0.61970176  0.19115609  0.04734473  1.0
  O  O28  1  0.36699288  0.92337067  0.80193838  1.0
  O  O29  1  0.63300712  0.07662933  0.19806162  1.0
  O  O30  1  0.33966809  0.56708942  0.74909697  1.0
  O  O31  1  0.66033191  0.43291058  0.25090303  1.0
  F  F32  1  0.83953879  0.86148106  0.72839127  1.0
  F  F33  1  0.16046121  0.13851894  0.27160873  1.0
  F  F34  1  0.64146952  0.79108803  0.50384586  1.0
  F  F35  1  0.35853048  0.20891197  0.49615414  1.0
