# generated using pymatgen
data_CsCr5Se8
_symmetry_space_group_name_H-M   'P 1'
_cell_length_a   9.72792129
_cell_length_b   9.72792129
_cell_length_c   9.23282767
_cell_angle_alpha   75.27826196
_cell_angle_beta   104.72173804
_cell_angle_gamma   158.02139701
_symmetry_Int_Tables_number   1
_chemical_formula_structural   CsCr5Se8
_chemical_formula_sum   'Cs1 Cr5 Se8'
_cell_volume   315.85373112
_cell_formula_units_Z   1
loop_
 _symmetry_equiv_pos_site_id
 _symmetry_equiv_pos_as_xyz
  1  'x, y, z'
loop_
 _atom_site_type_symbol
 _atom_site_label
 _atom_site_symmetry_multiplicity
 _atom_site_fract_x
 _atom_site_fract_y
 _atom_site_fract_z
 _atom_site_occupancy
  Cs  Cs0  1  0.50000000  0.50000000  -0.00000000  1.0
  Cr  Cr1  1  0.70481937  -0.70481937  0.83312690  1.0
  Cr  Cr2  1  1.29518063  -0.29518063  0.16687310  1.0
  Cr  Cr3  1  0.65954228  -0.65954228  0.48125815  1.0
  Cr  Cr4  1  1.34045772  -0.34045772  0.51874185  1.0
  Cr  Cr5  1  0.00000000  -0.00000000  0.50000000  1.0
  Se  Se6  1  0.91212137  -0.91212137  0.66465745  1.0
  Se  Se7  1  1.08787863  -0.08787863  0.33534255  1.0
  Se  Se8  1  0.82735556  -0.82735556  1.01355215  1.0
  Se  Se9  1  1.17264444  -0.17264444  -0.01355215  1.0
  Se  Se10  1  0.76061909  -0.76061909  0.34264309  1.0
  Se  Se11  1  1.23938091  -0.23938091  0.65735691  1.0
  Se  Se12  1  0.57577298  -0.57577298  0.65111462  1.0
  Se  Se13  1  1.42422702  -0.42422702  0.34888538  1.0
