# generated using pymatgen
data_Hf2CuSi4
_symmetry_space_group_name_H-M   'P 1'
_cell_length_a   16.40654149
_cell_length_b   16.40654149
_cell_length_c   3.67179855
_cell_angle_alpha   90.00000000
_cell_angle_beta   90.00000000
_cell_angle_gamma   167.09027286
_symmetry_Int_Tables_number   1
_chemical_formula_structural   Hf2CuSi4
_chemical_formula_sum   'Hf4 Cu2 Si8'
_cell_volume   220.81390600
_cell_formula_units_Z   2
loop_
 _symmetry_equiv_pos_site_id
 _symmetry_equiv_pos_as_xyz
  1  'x, y, z'
loop_
 _atom_site_type_symbol
 _atom_site_label
 _atom_site_symmetry_multiplicity
 _atom_site_fract_x
 _atom_site_fract_y
 _atom_site_fract_z
 _atom_site_occupancy
  Hf  Hf0  1  0.17608301  0.82391699  0.75000000  1.0
  Hf  Hf1  1  -0.17608301  0.17608301  0.25000000  1.0
  Hf  Hf2  1  0.45334069  0.54665931  0.75000000  1.0
  Hf  Hf3  1  -0.45334069  0.45334069  0.25000000  1.0
  Cu  Cu4  1  -0.24996497  0.24996497  0.75000000  1.0
  Cu  Cu5  1  0.24996497  0.75003503  0.25000000  1.0
  Si  Si6  1  0.02447407  0.97552593  0.75000000  1.0
  Si  Si7  1  -0.02447407  0.02447407  0.25000000  1.0
  Si  Si8  1  0.29780507  0.70219493  0.75000000  1.0
  Si  Si9  1  -0.29780507  0.29780507  0.25000000  1.0
  Si  Si10  1  -0.38779526  0.38779526  0.75000000  1.0
  Si  Si11  1  0.38779526  0.61220474  0.25000000  1.0
  Si  Si12  1  -0.11191686  0.11191686  0.75000000  1.0
  Si  Si13  1  0.11191686  0.88808314  0.25000000  1.0
