# generated using pymatgen
data_Nb3InTe4
_symmetry_space_group_name_H-M   'P 1'
_cell_length_a   10.04741120
_cell_length_b   10.04741120
_cell_length_c   4.81890537
_cell_angle_alpha   90.00000000
_cell_angle_beta   90.00000000
_cell_angle_gamma   120.00000000
_symmetry_Int_Tables_number   1
_chemical_formula_structural   Nb3InTe4
_chemical_formula_sum   'Nb6 In2 Te8'
_cell_volume   421.29604577
_cell_formula_units_Z   2
loop_
 _symmetry_equiv_pos_site_id
 _symmetry_equiv_pos_as_xyz
  1  'x, y, z'
loop_
 _atom_site_type_symbol
 _atom_site_label
 _atom_site_symmetry_multiplicity
 _atom_site_fract_x
 _atom_site_fract_y
 _atom_site_fract_z
 _atom_site_occupancy
  Nb  Nb0  1  0.34943195  0.83651298  0.25000000  1.0
  Nb  Nb1  1  0.83651298  0.48708103  0.75000000  1.0
  Nb  Nb2  1  0.48708103  0.65056805  0.25000000  1.0
  Nb  Nb3  1  0.16348702  0.51291897  0.25000000  1.0
  Nb  Nb4  1  0.65056805  0.16348702  0.75000000  1.0
  Nb  Nb5  1  0.51291897  0.34943195  0.75000000  1.0
  In  In6  1  0.00000000  0.00000000  0.25000000  1.0
  In  In7  1  -0.00000000  -0.00000000  0.75000000  1.0
  Te  Te8  1  0.00469828  0.68202687  0.25000000  1.0
  Te  Te9  1  0.68202687  0.67732858  0.75000000  1.0
  Te  Te10  1  0.67732858  0.99530172  0.25000000  1.0
  Te  Te11  1  0.31797313  0.32267142  0.25000000  1.0
  Te  Te12  1  0.99530172  0.31797313  0.75000000  1.0
  Te  Te13  1  0.32267142  0.00469828  0.75000000  1.0
  Te  Te14  1  0.66666667  0.33333333  0.25000000  1.0
  Te  Te15  1  0.33333333  0.66666667  0.75000000  1.0
