# generated using pymatgen
data_PH3PbCO3
_symmetry_space_group_name_H-M   'P 1'
_cell_length_a   12.18585954
_cell_length_b   12.18585954
_cell_length_c   12.18585954
_cell_angle_alpha   116.41272485
_cell_angle_beta   116.41272485
_cell_angle_gamma   116.41272485
_symmetry_Int_Tables_number   1
_chemical_formula_structural   PH3PbCO3
_chemical_formula_sum   'P6 H18 Pb6 C6 O18'
_cell_volume   868.43406013
_cell_formula_units_Z   6
loop_
 _symmetry_equiv_pos_site_id
 _symmetry_equiv_pos_as_xyz
  1  'x, y, z'
loop_
 _atom_site_type_symbol
 _atom_site_label
 _atom_site_symmetry_multiplicity
 _atom_site_fract_x
 _atom_site_fract_y
 _atom_site_fract_z
 _atom_site_occupancy
  P  P0  1  1.12371405  0.27113481  0.61283899  1.0
  P  P1  1  0.61283899  0.12371405  0.27113481  1.0
  P  P2  1  0.27113481  0.61283899  -0.87628595  1.0
  P  P3  1  0.87628595  0.72886519  0.38716101  1.0
  P  P4  1  1.38716101  0.87628595  0.72886519  1.0
  P  P5  1  0.72886519  0.38716101  -0.12371405  1.0
  H  H6  1  1.27146504  0.28409243  0.52870210  1.0
  H  H7  1  0.52870210  0.27146504  0.28409243  1.0
  H  H8  1  0.28409243  0.52870210  -0.72853496  1.0
  H  H9  1  0.72853496  0.71590757  0.47129790  1.0
  H  H10  1  1.47129790  0.72853496  0.71590757  1.0
  H  H11  1  0.71590757  0.47129790  -0.27146504  1.0
  H  H12  1  1.05807216  1.03195691  0.37708925  1.0
  H  H13  1  0.37708925  0.05807216  0.03195691  1.0
  H  H14  1  1.03195691  0.37708925  0.05807216  1.0
  H  H15  1  0.94192784  0.96804309  -0.37708925  1.0
  H  H16  1  0.62291075  -0.05807216  -0.03195691  1.0
  H  H17  1  0.96804309  1.62291075  -0.05807216  1.0
  H  H18  1  1.01735710  0.13242423  0.31913092  1.0
  H  H19  1  0.31913092  0.01735710  0.13242423  1.0
  H  H20  1  1.13242423  1.31913092  0.01735710  1.0
  H  H21  1  0.98264290  0.86757577  0.68086908  1.0
  H  H22  1  0.68086908  -0.01735710  -0.13242423  1.0
  H  H23  1  0.86757577  0.68086908  -0.01735710  1.0
  Pb  Pb24  1  0.58181010  -0.25736438  0.10708728  1.0
  Pb  Pb25  1  1.10708728  0.58181010  0.74263562  1.0
  Pb  Pb26  1  0.74263562  1.10708728  -0.41818990  1.0
  Pb  Pb27  1  0.41818990  0.25736438  -0.10708728  1.0
  Pb  Pb28  1  0.89291272  0.41818990  0.25736438  1.0
  Pb  Pb29  1  1.25736438  0.89291272  0.41818990  1.0
  C  C30  1  1.11632329  0.16974715  0.44217155  1.0
  C  C31  1  0.44217155  0.11632329  0.16974715  1.0
  C  C32  1  1.16974715  1.44217155  0.11632329  1.0
  C  C33  1  0.88367671  0.83025285  0.55782845  1.0
  C  C34  1  0.55782845  -0.11632329  -0.16974715  1.0
  C  C35  1  0.83025285  0.55782845  -0.11632329  1.0
  O  O36  1  0.90501608  0.10182354  0.48819941  1.0
  O  O37  1  0.48819941  -0.09498392  0.10182354  1.0
  O  O38  1  1.10182354  1.48819941  -0.09498392  1.0
  O  O39  1  1.09498392  0.89817646  0.51180059  1.0
  O  O40  1  0.51180059  0.09498392  -0.10182354  1.0
  O  O41  1  0.89817646  0.51180059  0.09498392  1.0
  O  O42  1  1.20920976  0.46697170  0.70037946  1.0
  O  O43  1  0.70037946  1.20920976  -0.53302830  1.0
  O  O44  1  0.46697170  0.70037946  -0.79079024  1.0
  O  O45  1  0.79079024  0.53302830  0.29962054  1.0
  O  O46  1  1.29962054  0.79079024  0.53302830  1.0
  O  O47  1  0.53302830  0.29962054  -0.20920976  1.0
  O  O48  1  1.28325991  0.34359455  0.79661512  1.0
  O  O49  1  0.79661512  0.28325991  0.34359455  1.0
  O  O50  1  0.34359455  0.79661512  -0.71674009  1.0
  O  O51  1  0.71674009  0.65640545  0.20338488  1.0
  O  O52  1  1.20338488  0.71674009  0.65640545  1.0
  O  O53  1  0.65640545  0.20338488  -0.28325991  1.0
