# generated using pymatgen
data_SrYb2O4
_symmetry_space_group_name_H-M   'P 1'
_cell_length_a   10.05560241
_cell_length_b   3.39465474
_cell_length_c   11.90752796
_cell_angle_alpha   90.00000000
_cell_angle_beta   90.00000000
_cell_angle_gamma   90.00000000
_symmetry_Int_Tables_number   1
_chemical_formula_structural   SrYb2O4
_chemical_formula_sum   'Sr4 Yb8 O16'
_cell_volume   406.46701999
_cell_formula_units_Z   4
loop_
 _symmetry_equiv_pos_site_id
 _symmetry_equiv_pos_as_xyz
  1  'x, y, z'
loop_
 _atom_site_type_symbol
 _atom_site_label
 _atom_site_symmetry_multiplicity
 _atom_site_fract_x
 _atom_site_fract_y
 _atom_site_fract_z
 _atom_site_occupancy
  Sr  Sr0  1  0.75420374  0.75000000  0.65133602  1.0
  Sr  Sr1  1  0.25420374  0.75000000  0.84866398  1.0
  Sr  Sr2  1  0.24579626  0.25000000  0.34866398  1.0
  Sr  Sr3  1  0.74579626  0.25000000  0.15133602  1.0
  Yb  Yb4  1  0.92078987  0.75000000  0.39153045  1.0
  Yb  Yb5  1  0.42078987  0.75000000  0.10846955  1.0
  Yb  Yb6  1  0.07921013  0.25000000  0.60846955  1.0
  Yb  Yb7  1  0.57921013  0.25000000  0.89153045  1.0
  Yb  Yb8  1  0.42624031  0.75000000  0.61204500  1.0
  Yb  Yb9  1  0.92624031  0.75000000  0.88795500  1.0
  Yb  Yb10  1  0.57375969  0.25000000  0.38795500  1.0
  Yb  Yb11  1  0.07375969  0.25000000  0.11204500  1.0
  O  O12  1  0.92293138  0.75000000  0.07684090  1.0
  O  O13  1  0.42293138  0.75000000  0.42315910  1.0
  O  O14  1  0.07706862  0.25000000  0.92315910  1.0
  O  O15  1  0.57706862  0.25000000  0.57684090  1.0
  O  O16  1  0.71100544  0.75000000  0.32641044  1.0
  O  O17  1  0.21100544  0.75000000  0.17358956  1.0
  O  O18  1  0.28899456  0.25000000  0.67358956  1.0
  O  O19  1  0.78899456  0.25000000  0.82641044  1.0
  O  O20  1  0.62311907  0.75000000  0.02090472  1.0
  O  O21  1  0.12311907  0.75000000  0.47909528  1.0
  O  O22  1  0.37688093  0.25000000  0.97909528  1.0
  O  O23  1  0.87688093  0.25000000  0.52090472  1.0
  O  O24  1  0.51601545  0.75000000  0.78446427  1.0
  O  O25  1  0.01601545  0.75000000  0.71553573  1.0
  O  O26  1  0.48398455  0.25000000  0.21553573  1.0
  O  O27  1  0.98398455  0.25000000  0.28446427  1.0
