# generated using pymatgen
data_Ba5LaSi6
_symmetry_space_group_name_H-M   'P 1'
_cell_length_a   17.30561571
_cell_length_b   4.87809324
_cell_length_c   17.99790790
_cell_angle_alpha   90.00000000
_cell_angle_beta   90.00000000
_cell_angle_gamma   90.00000000
_symmetry_Int_Tables_number   1
_chemical_formula_structural   Ba5LaSi6
_chemical_formula_sum   'Ba20 La4 Si24'
_cell_volume   1519.35471378
_cell_formula_units_Z   4
loop_
 _symmetry_equiv_pos_site_id
 _symmetry_equiv_pos_as_xyz
  1  'x, y, z'
loop_
 _atom_site_type_symbol
 _atom_site_label
 _atom_site_symmetry_multiplicity
 _atom_site_fract_x
 _atom_site_fract_y
 _atom_site_fract_z
 _atom_site_occupancy
  Ba  Ba0  1  0.93019395  0.75000000  0.69285421  1.0
  Ba  Ba1  1  0.43019395  0.75000000  0.80714579  1.0
  Ba  Ba2  1  0.06980605  0.25000000  0.30714579  1.0
  Ba  Ba3  1  0.56980605  0.25000000  0.19285421  1.0
  Ba  Ba4  1  0.92290481  0.75000000  0.43712804  1.0
  Ba  Ba5  1  0.42290481  0.75000000  0.06287196  1.0
  Ba  Ba6  1  0.07709519  0.25000000  0.56287196  1.0
  Ba  Ba7  1  0.57709519  0.25000000  0.93712804  1.0
  Ba  Ba8  1  0.67575329  0.75000000  0.76839073  1.0
  Ba  Ba9  1  0.17575329  0.75000000  0.73160927  1.0
  Ba  Ba10  1  0.32424671  0.25000000  0.23160927  1.0
  Ba  Ba11  1  0.82424671  0.25000000  0.26839073  1.0
  Ba  Ba12  1  0.66033167  0.75000000  0.36890073  1.0
  Ba  Ba13  1  0.16033167  0.75000000  0.13109927  1.0
  Ba  Ba14  1  0.33966833  0.25000000  0.63109927  1.0
  Ba  Ba15  1  0.83966833  0.25000000  0.86890073  1.0
  Ba  Ba16  1  0.53003975  0.75000000  0.59080133  1.0
  Ba  Ba17  1  0.03003975  0.75000000  0.90919867  1.0
  Ba  Ba18  1  0.46996025  0.25000000  0.40919867  1.0
  Ba  Ba19  1  0.96996025  0.25000000  0.09080133  1.0
  La  La20  1  0.74897726  0.75000000  0.56728805  1.0
  La  La21  1  0.24897726  0.75000000  0.93271195  1.0
  La  La22  1  0.25102274  0.25000000  0.43271195  1.0
  La  La23  1  0.75102274  0.25000000  0.06728805  1.0
  Si  Si24  1  0.95523063  0.75000000  0.22264337  1.0
  Si  Si25  1  0.45523063  0.75000000  0.27735663  1.0
  Si  Si26  1  0.04476937  0.25000000  0.77735663  1.0
  Si  Si27  1  0.54476937  0.25000000  0.72264337  1.0
  Si  Si28  1  0.85366113  0.75000000  0.00398162  1.0
  Si  Si29  1  0.35366113  0.75000000  0.49601838  1.0
  Si  Si30  1  0.14633887  0.25000000  0.99601838  1.0
  Si  Si31  1  0.64633887  0.25000000  0.50398162  1.0
  Si  Si32  1  0.84520518  0.75000000  0.13962437  1.0
  Si  Si33  1  0.34520518  0.75000000  0.36037563  1.0
  Si  Si34  1  0.15479482  0.25000000  0.86037563  1.0
  Si  Si35  1  0.65479482  0.25000000  0.63962437  1.0
  Si  Si36  1  0.71125714  0.75000000  0.17836687  1.0
  Si  Si37  1  0.21125714  0.75000000  0.32163313  1.0
  Si  Si38  1  0.28874286  0.25000000  0.82163313  1.0
  Si  Si39  1  0.78874286  0.25000000  0.67836687  1.0
  Si  Si40  1  0.63182064  0.75000000  0.06376066  1.0
  Si  Si41  1  0.13182064  0.75000000  0.43623934  1.0
  Si  Si42  1  0.36817936  0.25000000  0.93623934  1.0
  Si  Si43  1  0.86817936  0.25000000  0.56376066  1.0
  Si  Si44  1  0.22089606  0.75000000  0.54371035  1.0
  Si  Si45  1  0.72089606  0.75000000  0.95628965  1.0
  Si  Si46  1  0.77910394  0.25000000  0.45628965  1.0
  Si  Si47  1  0.27910394  0.25000000  0.04371035  1.0
