# generated using pymatgen
data_NaAl3(SO7)2
_symmetry_space_group_name_H-M   'P 1'
_cell_length_a   7.14307853
_cell_length_b   7.14307853
_cell_length_c   7.14307853
_cell_angle_alpha   58.55704219
_cell_angle_beta   58.55704219
_cell_angle_gamma   58.55704219
_symmetry_Int_Tables_number   1
_chemical_formula_structural   NaAl3(SO7)2
_chemical_formula_sum   'Na1 Al3 S2 O14'
_cell_volume   249.21174729
_cell_formula_units_Z   1
loop_
 _symmetry_equiv_pos_site_id
 _symmetry_equiv_pos_as_xyz
  1  'x, y, z'
loop_
 _atom_site_type_symbol
 _atom_site_label
 _atom_site_symmetry_multiplicity
 _atom_site_fract_x
 _atom_site_fract_y
 _atom_site_fract_z
 _atom_site_occupancy
  S  S0  1  0.80543714  0.80543714  -0.19456286  1.0
  S  S1  1  1.19456286  1.19456286  0.19456286  1.0
  O  O2  1  0.34238328  0.34238328  -0.00722777  1.0
  O  O3  1  0.34238328  0.99277223  -0.65761672  1.0
  O  O4  1  1.00722777  -0.34238328  -0.34238328  1.0
  O  O5  1  0.65761672  0.00722777  -0.34238328  1.0
  O  O6  1  0.65761672  -0.34238328  0.00722777  1.0
  O  O7  1  0.99277223  0.34238328  -0.65761672  1.0
  O  O8  1  0.24744464  0.24744464  -0.41197179  1.0
  O  O9  1  0.24744464  0.58802821  -0.75255536  1.0
  O  O10  1  0.41197179  0.75255536  -0.24744464  1.0
  O  O11  1  0.75255536  0.41197179  -0.24744464  1.0
  O  O12  1  0.75255536  0.75255536  -0.58802821  1.0
  O  O13  1  0.58802821  0.24744464  -0.75255536  1.0
  O  O14  1  0.88707128  0.88707128  -0.11292872  1.0
  O  O15  1  1.11292872  1.11292872  0.11292872  1.0
  Na  Na16  1  0.50000000  0.50000000  -0.50000000  1.0
  Al  Al17  1  0.50000000  1.00000000  -0.50000000  1.0
  Al  Al18  1  0.50000000  -0.50000000  0.00000000  1.0
  Al  Al19  1  -0.00000000  0.50000000  -0.50000000  1.0
