# generated using pymatgen
data_CaIn2Ni
_symmetry_space_group_name_H-M   'P 1'
_cell_length_a   5.70332108
_cell_length_b   5.70332108
_cell_length_c   7.65306613
_cell_angle_alpha   90.00000000
_cell_angle_beta   90.00000000
_cell_angle_gamma   135.27298177
_symmetry_Int_Tables_number   1
_chemical_formula_structural   CaIn2Ni
_chemical_formula_sum   'Ca2 In4 Ni2'
_cell_volume   175.18505582
_cell_formula_units_Z   2
loop_
 _symmetry_equiv_pos_site_id
 _symmetry_equiv_pos_as_xyz
  1  'x, y, z'
loop_
 _atom_site_type_symbol
 _atom_site_label
 _atom_site_symmetry_multiplicity
 _atom_site_fract_x
 _atom_site_fract_y
 _atom_site_fract_z
 _atom_site_occupancy
  Ca  Ca0  1  0.43903597  0.56096403  0.75000000  1.0
  Ca  Ca1  1  -0.43903597  0.43903597  0.25000000  1.0
  In  In2  1  0.14967565  0.85032435  0.94756289  1.0
  In  In3  1  0.14967565  0.85032435  0.55243711  1.0
  In  In4  1  -0.14967565  0.14967565  0.44756289  1.0
  In  In5  1  -0.14967565  0.14967565  0.05243711  1.0
  Ni  Ni6  1  -0.28104320  0.28104320  0.75000000  1.0
  Ni  Ni7  1  0.28104320  0.71895680  0.25000000  1.0
