# generated using pymatgen
data_Tl2GeTe5
_symmetry_space_group_name_H-M   'P 1'
_cell_length_a   8.48631428
_cell_length_b   8.48631428
_cell_length_c   15.10318439
_cell_angle_alpha   90.00000000
_cell_angle_beta   90.00000000
_cell_angle_gamma   90.00000000
_symmetry_Int_Tables_number   1
_chemical_formula_structural   Tl2GeTe5
_chemical_formula_sum   'Tl8 Ge4 Te20'
_cell_volume   1087.69403488
_cell_formula_units_Z   4
loop_
 _symmetry_equiv_pos_site_id
 _symmetry_equiv_pos_as_xyz
  1  'x, y, z'
loop_
 _atom_site_type_symbol
 _atom_site_label
 _atom_site_symmetry_multiplicity
 _atom_site_fract_x
 _atom_site_fract_y
 _atom_site_fract_z
 _atom_site_occupancy
  Tl  Tl0  1  0.50000000  0.50000000  0.87836981  1.0
  Tl  Tl1  1  0.50000000  0.50000000  0.12163019  1.0
  Tl  Tl2  1  0.00000000  0.00000000  0.87836981  1.0
  Tl  Tl3  1  0.00000000  0.00000000  0.12163019  1.0
  Tl  Tl4  1  0.50000000  0.50000000  0.62096968  1.0
  Tl  Tl5  1  0.50000000  0.50000000  0.37903032  1.0
  Tl  Tl6  1  0.00000000  0.00000000  0.62096968  1.0
  Tl  Tl7  1  0.00000000  0.00000000  0.37903032  1.0
  Ge  Ge8  1  0.50000000  0.00000000  0.88200128  1.0
  Ge  Ge9  1  0.50000000  0.00000000  0.11799872  1.0
  Ge  Ge10  1  0.00000000  0.50000000  0.88200128  1.0
  Ge  Ge11  1  0.00000000  0.50000000  0.11799872  1.0
  Te  Te12  1  0.32147853  0.17852147  0.78033863  1.0
  Te  Te13  1  0.32147853  0.17852147  0.21966137  1.0
  Te  Te14  1  0.82147853  0.32147853  0.78033863  1.0
  Te  Te15  1  0.82147853  0.32147853  0.21966137  1.0
  Te  Te16  1  0.67852147  0.82147853  0.78033863  1.0
  Te  Te17  1  0.67852147  0.82147853  0.21966137  1.0
  Te  Te18  1  0.17852147  0.67852147  0.78033863  1.0
  Te  Te19  1  0.17852147  0.67852147  0.21966137  1.0
  Te  Te20  1  0.31365287  0.18634713  0.50000000  1.0
  Te  Te21  1  0.81365287  0.31365287  0.50000000  1.0
  Te  Te22  1  0.68634713  0.81365287  0.50000000  1.0
  Te  Te23  1  0.18634713  0.68634713  0.50000000  1.0
  Te  Te24  1  0.83224601  0.66775399  0.00000000  1.0
  Te  Te25  1  0.33224601  0.83224601  0.00000000  1.0
  Te  Te26  1  0.16775399  0.33224601  0.00000000  1.0
  Te  Te27  1  0.66775399  0.16775399  0.00000000  1.0
  Te  Te28  1  0.50000000  0.00000000  0.62892261  1.0
  Te  Te29  1  0.50000000  0.00000000  0.37107739  1.0
  Te  Te30  1  0.00000000  0.50000000  0.62892261  1.0
  Te  Te31  1  0.00000000  0.50000000  0.37107739  1.0
