# generated using pymatgen
data_LiFeSO4F
_symmetry_space_group_name_H-M   'P 1'
_cell_length_a   5.49758383
_cell_length_b   5.27510953
_cell_length_c   7.41550705
_cell_angle_alpha   107.65134204
_cell_angle_beta   106.87837885
_cell_angle_gamma   97.08814881
_symmetry_Int_Tables_number   1
_chemical_formula_structural   LiFeSO4F
_chemical_formula_sum   'Li2 Fe2 S2 O8 F2'
_cell_volume   190.75561320
_cell_formula_units_Z   2
loop_
 _symmetry_equiv_pos_site_id
 _symmetry_equiv_pos_as_xyz
  1  'x, y, z'
loop_
 _atom_site_type_symbol
 _atom_site_label
 _atom_site_symmetry_multiplicity
 _atom_site_fract_x
 _atom_site_fract_y
 _atom_site_fract_z
 _atom_site_occupancy
  Li  Li0  1  -0.87415489  -0.73143266  -0.21049377  1.0
  Li  Li1  1  -0.12584511  -0.26856734  -0.78950623  1.0
  Fe  Fe2  1  -0.50000000  0.00000000  -0.50000000  1.0
  Fe  Fe3  1  -0.50000000  -0.00000000  -0.00000000  1.0
  S  S4  1  -0.87048678  -0.67866667  -0.75949446  1.0
  S  S5  1  -0.12951322  -0.32133333  -0.24050554  1.0
  O  O6  1  -0.85008245  -0.89784096  -0.66994338  1.0
  O  O7  1  -0.14991755  -0.10215904  -0.33005662  1.0
  O  O8  1  -0.74202874  -0.72569362  -0.91630819  1.0
  O  O9  1  -0.25797126  -0.27430638  -0.08369181  1.0
  O  O10  1  -0.15525787  -0.68585736  -0.85950750  1.0
  O  O11  1  -0.84474213  -0.31414264  -0.14049250  1.0
  O  O12  1  -0.75667837  -0.40206957  -0.60321116  1.0
  O  O13  1  -0.24332163  -0.59793043  -0.39678884  1.0
  F  F14  1  -0.60059018  -0.88222477  -0.25551399  1.0
  F  F15  1  -0.39940982  -0.11777523  -0.74448601  1.0
