# generated using pymatgen
data_Mg3Xe2
_symmetry_space_group_name_H-M   'P 1'
_cell_length_a   3.72998895
_cell_length_b   3.72998895
_cell_length_c   37.69119394
_cell_angle_alpha   90.00000000
_cell_angle_beta   90.00000000
_cell_angle_gamma   90.00000000
_symmetry_Int_Tables_number   1
_chemical_formula_structural   Mg3Xe2
_chemical_formula_sum   'Mg6 Xe4'
_cell_volume   524.39070421
_cell_formula_units_Z   2
loop_
 _symmetry_equiv_pos_site_id
 _symmetry_equiv_pos_as_xyz
  1  'x, y, z'
loop_
 _atom_site_type_symbol
 _atom_site_label
 _atom_site_symmetry_multiplicity
 _atom_site_fract_x
 _atom_site_fract_y
 _atom_site_fract_z
 _atom_site_occupancy
  Mg  Mg0  1  0.00000000  0.50000000  0.23513096  1.0
  Mg  Mg1  1  0.50000000  0.00000000  0.76486904  1.0
  Mg  Mg2  1  0.00000000  0.50000000  0.80789199  1.0
  Mg  Mg3  1  0.50000000  0.00000000  0.19210801  1.0
  Mg  Mg4  1  0.00000000  0.50000000  0.47853297  1.0
  Mg  Mg5  1  0.50000000  0.00000000  0.52146703  1.0
  Xe  Xe6  1  0.00000000  0.50000000  0.93882281  1.0
  Xe  Xe7  1  0.50000000  0.00000000  0.06117719  1.0
  Xe  Xe8  1  0.00000000  0.50000000  0.36086998  1.0
  Xe  Xe9  1  0.50000000  0.00000000  0.63913002  1.0
