# generated using pymatgen
data_ScSi7Ir3
_symmetry_space_group_name_H-M   'P 1'
_cell_length_a   7.97636128
_cell_length_b   7.97636128
_cell_length_c   7.97636128
_cell_angle_alpha   56.55027990
_cell_angle_beta   56.55027990
_cell_angle_gamma   56.55027990
_symmetry_Int_Tables_number   1
_chemical_formula_structural   ScSi7Ir3
_chemical_formula_sum   'Sc2 Si14 Ir6'
_cell_volume   330.23353174
_cell_formula_units_Z   2
loop_
 _symmetry_equiv_pos_site_id
 _symmetry_equiv_pos_as_xyz
  1  'x, y, z'
loop_
 _atom_site_type_symbol
 _atom_site_label
 _atom_site_symmetry_multiplicity
 _atom_site_fract_x
 _atom_site_fract_y
 _atom_site_fract_z
 _atom_site_occupancy
  Sc  Sc0  1  1.00000000  -0.00000000  0.00000000  1.0
  Sc  Sc1  1  0.50000000  0.50000000  0.50000000  1.0
  Si  Si2  1  0.75000000  0.75000000  -0.25000000  1.0
  Si  Si3  1  0.25000000  0.25000000  0.25000000  1.0
  Si  Si4  1  0.85054963  0.06535952  -0.32777817  1.0
  Si  Si5  1  1.35054963  0.17222183  -0.43464048  1.0
  Si  Si6  1  0.82777817  0.43464048  -0.35054963  1.0
  Si  Si7  1  1.32777817  0.14945037  -0.06535952  1.0
  Si  Si8  1  0.93464048  0.32777817  0.14945037  1.0
  Si  Si9  1  0.43464048  0.64945037  -0.17222183  1.0
  Si  Si10  1  1.14945037  -0.06535952  0.32777817  1.0
  Si  Si11  1  0.64945037  0.82777817  -0.56535952  1.0
  Si  Si12  1  0.67222183  -0.14945037  0.06535952  1.0
  Si  Si13  1  1.17222183  -0.43464048  0.35054963  1.0
  Si  Si14  1  0.56535952  0.35054963  0.17222183  1.0
  Si  Si15  1  1.06535952  -0.32777817  -0.14945037  1.0
  Ir  Ir16  1  0.42699358  0.75000000  0.07300642  1.0
  Ir  Ir17  1  0.92699358  -0.42699358  0.25000000  1.0
  Ir  Ir18  1  0.25000000  0.92699358  -0.42699358  1.0
  Ir  Ir19  1  0.75000000  1.07300642  -0.57300642  1.0
  Ir  Ir20  1  0.57300642  0.25000000  -0.07300642  1.0
  Ir  Ir21  1  1.07300642  0.42699358  -0.25000000  1.0
