# generated using pymatgen
data_Na2V(SO6)2
_symmetry_space_group_name_H-M   'P 1'
_cell_length_a   5.57531039
_cell_length_b   8.04801959
_cell_length_c   11.23324063
_cell_angle_alpha   90.00000000
_cell_angle_beta   99.21412685
_cell_angle_gamma   90.00000000
_symmetry_Int_Tables_number   1
_chemical_formula_structural   Na2V(SO6)2
_chemical_formula_sum   'Na4 V2 S4 O24'
_cell_volume   497.53414176
_cell_formula_units_Z   2
loop_
 _symmetry_equiv_pos_site_id
 _symmetry_equiv_pos_as_xyz
  1  'x, y, z'
loop_
 _atom_site_type_symbol
 _atom_site_label
 _atom_site_symmetry_multiplicity
 _atom_site_fract_x
 _atom_site_fract_y
 _atom_site_fract_z
 _atom_site_occupancy
  O  O0  1  0.67306469  0.89879291  0.92281671  1.0
  O  O1  1  0.67306469  0.60120709  0.42281671  1.0
  O  O2  1  0.32693531  0.39879291  0.57718329  1.0
  O  O3  1  0.32693531  0.10120709  0.07718329  1.0
  O  O4  1  0.88728686  0.19970337  0.94562785  1.0
  O  O5  1  0.88728686  0.30029663  0.44562785  1.0
  O  O6  1  0.11271314  0.69970337  0.55437215  1.0
  O  O7  1  0.11271314  0.80029663  0.05437215  1.0
  O  O8  1  0.89938780  0.49234740  0.64430080  1.0
  O  O9  1  0.89938780  0.00765260  0.14430080  1.0
  O  O10  1  0.10061220  0.99234740  0.85569920  1.0
  O  O11  1  0.10061220  0.50765260  0.35569920  1.0
  O  O12  1  0.69375273  0.74737980  0.73978352  1.0
  O  O13  1  0.69375273  0.75262020  0.23978352  1.0
  O  O14  1  0.30624727  0.24737980  0.76021648  1.0
  O  O15  1  0.30624727  0.25262020  0.26021648  1.0
  O  O16  1  0.36486791  0.68970624  0.85342372  1.0
  O  O17  1  0.36486791  0.81029376  0.35342372  1.0
  O  O18  1  0.63513209  0.18970624  0.64657628  1.0
  O  O19  1  0.63513209  0.31029376  0.14657628  1.0
  O  O20  1  0.77653434  0.60150646  0.93354473  1.0
  O  O21  1  0.77653434  0.89849354  0.43354473  1.0
  O  O22  1  0.22346566  0.10150646  0.56645527  1.0
  O  O23  1  0.22346566  0.39849354  0.06645527  1.0
  S  S24  1  0.62476147  0.72947312  0.86191101  1.0
  S  S25  1  0.62476147  0.77052688  0.36191101  1.0
  S  S26  1  0.37523853  0.22947312  0.63808899  1.0
  S  S27  1  0.37523853  0.27052688  0.13808899  1.0
  V  V28  1  0.00000000  -0.00000000  0.00000000  1.0
  V  V29  1  0.00000000  0.50000000  0.50000000  1.0
  Na  Na30  1  0.91163269  0.95092586  0.64517262  1.0
  Na  Na31  1  0.91163269  0.54907414  0.14517262  1.0
  Na  Na32  1  0.08836731  0.45092586  0.85482738  1.0
  Na  Na33  1  0.08836731  0.04907414  0.35482738  1.0
