# generated using pymatgen
data_CdI2
_symmetry_space_group_name_H-M   'P 1'
_cell_length_a   4.32838643
_cell_length_b   4.32838643
_cell_length_c   83.40767662
_cell_angle_alpha   90.00000000
_cell_angle_beta   90.00000000
_cell_angle_gamma   120.00000000
_symmetry_Int_Tables_number   1
_chemical_formula_structural   CdI2
_chemical_formula_sum   'Cd11 I22'
_cell_volume   1353.28326008
_cell_formula_units_Z   11
loop_
 _symmetry_equiv_pos_site_id
 _symmetry_equiv_pos_as_xyz
  1  'x, y, z'
loop_
 _atom_site_type_symbol
 _atom_site_label
 _atom_site_symmetry_multiplicity
 _atom_site_fract_x
 _atom_site_fract_y
 _atom_site_fract_z
 _atom_site_occupancy
  Cd  Cd0  1  0.00000000  0.00000000  0.02274623  1.0
  Cd  Cd1  1  0.00000000  0.00000000  0.11363918  1.0
  Cd  Cd2  1  0.00000000  0.00000000  0.20456019  1.0
  Cd  Cd3  1  0.00000000  0.00000000  0.29546693  1.0
  Cd  Cd4  1  0.00000000  0.00000000  0.38637464  1.0
  Cd  Cd5  1  0.00000000  0.00000000  0.47728378  1.0
  Cd  Cd6  1  0.00000000  0.00000000  0.56818315  1.0
  Cd  Cd7  1  0.00000000  0.00000000  0.65909371  1.0
  Cd  Cd8  1  0.00000000  0.00000000  0.74998586  1.0
  Cd  Cd9  1  0.66666667  0.33333333  0.84091811  1.0
  Cd  Cd10  1  0.66666667  0.33333333  0.93181545  1.0
  I  I11  1  0.00000000  0.00000000  0.86151980  1.0
  I  I12  1  0.00000000  0.00000000  0.95242775  1.0
  I  I13  1  0.66666667  0.33333333  0.04335692  1.0
  I  I14  1  0.66666667  0.33333333  0.13425100  1.0
  I  I15  1  0.66666667  0.33333333  0.22517201  1.0
  I  I16  1  0.66666667  0.33333333  0.31607859  1.0
  I  I17  1  0.66666667  0.33333333  0.40698583  1.0
  I  I18  1  0.66666667  0.33333333  0.49788636  1.0
  I  I19  1  0.66666667  0.33333333  0.58879501  1.0
  I  I20  1  0.66666667  0.33333333  0.67969674  1.0
  I  I21  1  0.66666667  0.33333333  0.77058856  1.0
  I  I22  1  0.33333333  0.66666667  0.00213606  1.0
  I  I23  1  0.33333333  0.66666667  0.09302780  1.0
  I  I24  1  0.33333333  0.66666667  0.18394836  1.0
  I  I25  1  0.33333333  0.66666667  0.27485449  1.0
  I  I26  1  0.33333333  0.66666667  0.36576265  1.0
  I  I27  1  0.33333333  0.66666667  0.45667931  1.0
  I  I28  1  0.33333333  0.66666667  0.54757190  1.0
  I  I29  1  0.33333333  0.66666667  0.63849042  1.0
  I  I30  1  0.33333333  0.66666667  0.72938193  1.0
  I  I31  1  0.33333333  0.66666667  0.82031647  1.0
  I  I32  1  0.33333333  0.66666667  0.91120479  1.0
