# generated using pymatgen
data_FeBr3
_symmetry_space_group_name_H-M   'P 1'
_cell_length_a   7.91577094
_cell_length_b   7.91577094
_cell_length_c   7.91577094
_cell_angle_alpha   49.04894344
_cell_angle_beta   49.04894344
_cell_angle_gamma   49.04894344
_symmetry_Int_Tables_number   1
_chemical_formula_structural   FeBr3
_chemical_formula_sum   'Fe2 Br6'
_cell_volume   259.81306631
_cell_formula_units_Z   2
loop_
 _symmetry_equiv_pos_site_id
 _symmetry_equiv_pos_as_xyz
  1  'x, y, z'
loop_
 _atom_site_type_symbol
 _atom_site_label
 _atom_site_symmetry_multiplicity
 _atom_site_fract_x
 _atom_site_fract_y
 _atom_site_fract_z
 _atom_site_occupancy
  Fe  Fe0  1  0.16640255  0.16640255  0.16640255  1.0
  Fe  Fe1  1  0.83359745  -0.16640255  -0.16640255  1.0
  Br  Br2  1  0.42919989  0.06422566  -0.20666680  1.0
  Br  Br3  1  1.20666680  -0.42919989  -0.06422566  1.0
  Br  Br4  1  0.93577434  0.20666680  -0.42919989  1.0
  Br  Br5  1  0.57080011  -0.06422566  0.20666680  1.0
  Br  Br6  1  0.79333320  -0.57080011  0.06422566  1.0
  Br  Br7  1  1.06422566  -0.20666680  -0.57080011  1.0
