# generated using pymatgen
data_CsSO4
_symmetry_space_group_name_H-M   'P 1'
_cell_length_a   8.17172018
_cell_length_b   6.00272085
_cell_length_c   10.95992471
_cell_angle_alpha   90.00000000
_cell_angle_beta   109.58162853
_cell_angle_gamma   90.00000000
_symmetry_Int_Tables_number   1
_chemical_formula_structural   CsSO4
_chemical_formula_sum   'Cs4 S4 O16'
_cell_volume   506.51948327
_cell_formula_units_Z   4
loop_
 _symmetry_equiv_pos_site_id
 _symmetry_equiv_pos_as_xyz
  1  'x, y, z'
loop_
 _atom_site_type_symbol
 _atom_site_label
 _atom_site_symmetry_multiplicity
 _atom_site_fract_x
 _atom_site_fract_y
 _atom_site_fract_z
 _atom_site_occupancy
  Cs  Cs0  1  0.25190410  0.24994398  0.31316782  1.0
  Cs  Cs1  1  0.25190410  0.25005602  0.81316782  1.0
  Cs  Cs2  1  0.74809590  0.74994398  0.18683218  1.0
  Cs  Cs3  1  0.74809590  0.75005602  0.68683218  1.0
  O  O4  1  0.88231754  0.25016028  0.35968109  1.0
  O  O5  1  0.88231754  0.24983972  0.85968109  1.0
  O  O6  1  0.11768246  0.75016028  0.14031891  1.0
  O  O7  1  0.11768246  0.74983972  0.64031891  1.0
  O  O8  1  0.65776195  0.04637204  0.41445277  1.0
  O  O9  1  0.65776195  0.45362796  0.91445277  1.0
  O  O10  1  0.34223805  0.54637204  0.08554723  1.0
  O  O11  1  0.34223805  0.95362796  0.58554723  1.0
  O  O12  1  0.65725195  0.45330837  0.41423437  1.0
  O  O13  1  0.65725195  0.04669163  0.91423437  1.0
  O  O14  1  0.34274805  0.95330837  0.08576563  1.0
  O  O15  1  0.34274805  0.54669163  0.58576563  1.0
  O  O16  1  0.88322767  0.24957751  0.08068263  1.0
  O  O17  1  0.88322767  0.25042249  0.58068263  1.0
  O  O18  1  0.11677233  0.74957751  0.41931737  1.0
  O  O19  1  0.11677233  0.75042249  0.91931737  1.0
  S  S20  1  0.76832146  0.25007200  0.44181796  1.0
  S  S21  1  0.76832146  0.24992800  0.94181796  1.0
  S  S22  1  0.23167854  0.75007200  0.05818204  1.0
  S  S23  1  0.23167854  0.74992800  0.55818204  1.0
