# generated using pymatgen
data_NiBiSe
_symmetry_space_group_name_H-M   'P 1'
_cell_length_a   6.25373403
_cell_length_b   6.25373403
_cell_length_c   6.25373403
_cell_angle_alpha   90.00000000
_cell_angle_beta   90.00000000
_cell_angle_gamma   90.00000000
_symmetry_Int_Tables_number   1
_chemical_formula_structural   NiBiSe
_chemical_formula_sum   'Ni4 Bi4 Se4'
_cell_volume   244.57846817
_cell_formula_units_Z   4
loop_
 _symmetry_equiv_pos_site_id
 _symmetry_equiv_pos_as_xyz
  1  'x, y, z'
loop_
 _atom_site_type_symbol
 _atom_site_label
 _atom_site_symmetry_multiplicity
 _atom_site_fract_x
 _atom_site_fract_y
 _atom_site_fract_z
 _atom_site_occupancy
  Ni  Ni0  1  0.47993755  0.97993755  0.52006245  1.0
  Ni  Ni1  1  0.97993755  0.52006245  0.47993755  1.0
  Ni  Ni2  1  0.52006245  0.47993755  0.97993755  1.0
  Ni  Ni3  1  0.02006245  0.02006245  0.02006245  1.0
  Bi  Bi4  1  0.13658349  0.63658349  0.86341651  1.0
  Bi  Bi5  1  0.63658349  0.86341651  0.13658349  1.0
  Bi  Bi6  1  0.86341651  0.13658349  0.63658349  1.0
  Bi  Bi7  1  0.36341651  0.36341651  0.36341651  1.0
  Se  Se8  1  0.87483125  0.37483125  0.12516875  1.0
  Se  Se9  1  0.37483125  0.12516875  0.87483125  1.0
  Se  Se10  1  0.12516875  0.87483125  0.37483125  1.0
  Se  Se11  1  0.62516875  0.62516875  0.62516875  1.0
