# generated using pymatgen
data_NaCa4(BO3)3
_symmetry_space_group_name_H-M   'P 1'
_cell_length_a   6.54256381
_cell_length_b   6.54256381
_cell_length_c   10.76403444
_cell_angle_alpha   90.00000000
_cell_angle_beta   90.00000000
_cell_angle_gamma   59.73256128
_symmetry_Int_Tables_number   1
_chemical_formula_structural   NaCa4(BO3)3
_chemical_formula_sum   'Na2 Ca8 B6 O18'
_cell_volume   397.94673834
_cell_formula_units_Z   2
loop_
 _symmetry_equiv_pos_site_id
 _symmetry_equiv_pos_as_xyz
  1  'x, y, z'
loop_
 _atom_site_type_symbol
 _atom_site_label
 _atom_site_symmetry_multiplicity
 _atom_site_fract_x
 _atom_site_fract_y
 _atom_site_fract_z
 _atom_site_occupancy
  Na  Na0  1  -0.12902803  0.98518492  0.75000000  1.0
  Na  Na1  1  0.01481508  0.12902803  0.25000000  1.0
  Ca  Ca2  1  -0.77693089  1.20453226  0.52850837  1.0
  Ca  Ca3  1  -0.20453226  0.77693089  0.02850837  1.0
  Ca  Ca4  1  -0.20453226  0.77693089  0.47149163  1.0
  Ca  Ca5  1  -0.77693089  1.20453226  0.97149163  1.0
  Ca  Ca6  1  -0.20799218  0.50825126  0.75000000  1.0
  Ca  Ca7  1  -0.50825126  1.20799218  0.25000000  1.0
  Ca  Ca8  1  -0.63016360  0.63016360  0.50000000  1.0
  Ca  Ca9  1  -0.63016360  0.63016360  0.00000000  1.0
  B  B10  1  -0.61082474  0.95590629  0.75000000  1.0
  B  B11  1  0.04409371  0.61082474  0.25000000  1.0
  B  B12  1  0.23585149  0.52190296  0.75000000  1.0
  B  B13  1  -0.52190296  0.76414851  0.25000000  1.0
  B  B14  1  -0.20632404  0.20632404  0.50000000  1.0
  B  B15  1  -0.20632404  0.20632404  0.00000000  1.0
  O  O16  1  -0.20856164  0.41448932  0.52873587  1.0
  O  O17  1  -0.41448932  1.20856164  0.02873587  1.0
  O  O18  1  -0.41448932  1.20856164  0.47126413  1.0
  O  O19  1  -0.20856164  0.41448932  0.97126413  1.0
  O  O20  1  -0.48710834  0.86859236  0.63888099  1.0
  O  O21  1  0.13140764  0.48710834  0.13888099  1.0
  O  O22  1  0.13140764  0.48710834  0.36111901  1.0
  O  O23  1  -0.48710834  0.86859236  0.86111901  1.0
  O  O24  1  -0.57382496  0.89578773  0.13907420  1.0
  O  O25  1  0.10421227  0.57382496  0.63907420  1.0
  O  O26  1  0.10421227  0.57382496  0.86092580  1.0
  O  O27  1  -0.57382496  0.89578773  0.36092580  1.0
  O  O28  1  -0.84711291  1.12790637  0.75000000  1.0
  O  O29  1  -0.12790637  0.84711291  0.25000000  1.0
  O  O30  1  -0.52609458  1.43873874  0.75000000  1.0
  O  O31  1  -0.43873874  0.52609458  0.25000000  1.0
  O  O32  1  0.00496088  -0.00496088  0.50000000  1.0
  O  O33  1  0.00496088  -0.00496088  0.00000000  1.0
