# generated using pymatgen
data_KFeH2S2O9
_symmetry_space_group_name_H-M   'P 1'
_cell_length_a   8.13322203
_cell_length_b   5.20129515
_cell_length_c   9.66700958
_cell_angle_alpha   90.00000000
_cell_angle_beta   104.12688549
_cell_angle_gamma   90.00000000
_symmetry_Int_Tables_number   1
_chemical_formula_structural   KFeH2S2O9
_chemical_formula_sum   'K2 Fe2 H4 S4 O18'
_cell_volume   396.57877320
_cell_formula_units_Z   2
loop_
 _symmetry_equiv_pos_site_id
 _symmetry_equiv_pos_as_xyz
  1  'x, y, z'
loop_
 _atom_site_type_symbol
 _atom_site_label
 _atom_site_symmetry_multiplicity
 _atom_site_fract_x
 _atom_site_fract_y
 _atom_site_fract_z
 _atom_site_occupancy
  Fe  Fe0  1  0.91191312  0.25000000  0.28435212  1.0
  Fe  Fe1  1  0.08808688  0.75000000  0.71564788  1.0
  S  S2  1  0.33589960  0.25000000  0.83897799  1.0
  S  S3  1  0.66410040  0.75000000  0.16102201  1.0
  S  S4  1  0.84076362  0.25000000  0.60989172  1.0
  S  S5  1  0.15923638  0.75000000  0.39010828  1.0
  K  K6  1  0.42154329  0.25000000  0.28033988  1.0
  K  K7  1  0.57845671  0.75000000  0.71966012  1.0
  O  O8  1  0.52124386  0.25000000  0.86967737  1.0
  O  O9  1  0.47875614  0.75000000  0.13032263  1.0
  O  O10  1  0.89173638  0.25000000  0.06299232  1.0
  O  O11  1  0.10826362  0.75000000  0.93700768  1.0
  O  O12  1  0.65604337  0.25000000  0.55820908  1.0
  O  O13  1  0.34395663  0.75000000  0.44179092  1.0
  O  O14  1  0.26428279  0.25000000  0.96613441  1.0
  O  O15  1  0.73571721  0.75000000  0.03386559  1.0
  O  O16  1  0.27118484  0.48397386  0.74682105  1.0
  O  O17  1  0.27118484  0.01602614  0.74682105  1.0
  O  O18  1  0.72881516  0.98397386  0.25317895  1.0
  O  O19  1  0.72881516  0.51602614  0.25317895  1.0
  O  O20  1  0.93145156  0.25000000  0.49219662  1.0
  O  O21  1  0.06854844  0.75000000  0.50780338  1.0
  O  O22  1  0.89678817  0.48483239  0.70118759  1.0
  O  O23  1  0.89678817  0.01516761  0.70118759  1.0
  O  O24  1  0.10321183  0.98483239  0.29881241  1.0
  O  O25  1  0.10321183  0.51516761  0.29881241  1.0
  H  H26  1  0.82730570  0.40366421  0.02108191  1.0
  H  H27  1  0.82730570  0.09633579  0.02108191  1.0
  H  H28  1  0.17269430  0.90366421  0.97891809  1.0
  H  H29  1  0.17269430  0.59633579  0.97891809  1.0
