# generated using pymatgen
data_KHfCuF7
_symmetry_space_group_name_H-M   'P 1'
_cell_length_a   7.74332205
_cell_length_b   7.74332205
_cell_length_c   10.20905982
_cell_angle_alpha   90.00000000
_cell_angle_beta   90.00000000
_cell_angle_gamma   112.52349996
_symmetry_Int_Tables_number   1
_chemical_formula_structural   KHfCuF7
_chemical_formula_sum   'K4 Hf4 Cu4 F28'
_cell_volume   565.43399342
_cell_formula_units_Z   4
loop_
 _symmetry_equiv_pos_site_id
 _symmetry_equiv_pos_as_xyz
  1  'x, y, z'
loop_
 _atom_site_type_symbol
 _atom_site_label
 _atom_site_symmetry_multiplicity
 _atom_site_fract_x
 _atom_site_fract_y
 _atom_site_fract_z
 _atom_site_occupancy
  K  K0  1  0.13543001  0.36230300  0.25000000  1.0
  K  K1  1  -0.63769700  1.13543001  0.75000000  1.0
  K  K2  1  0.63769700  0.86456999  0.25000000  1.0
  K  K3  1  -0.13543001  1.63769700  0.75000000  1.0
  Hf  Hf4  1  -0.36601428  1.36601428  0.42965909  1.0
  Hf  Hf5  1  -0.36601428  1.36601428  0.07034091  1.0
  Hf  Hf6  1  0.36601428  0.63398572  0.92965909  1.0
  Hf  Hf7  1  0.36601428  0.63398572  0.57034091  1.0
  Cu  Cu8  1  0.13395633  0.86604367  0.43000782  1.0
  Cu  Cu9  1  0.13395633  0.86604367  0.06999218  1.0
  Cu  Cu10  1  -0.13395633  1.13395633  0.93000782  1.0
  Cu  Cu11  1  -0.13395633  1.13395633  0.56999218  1.0
  F  F12  1  -0.15061208  1.59674630  0.48589797  1.0
  F  F13  1  -0.15061208  1.59674630  0.01410203  1.0
  F  F14  1  0.59674630  0.84938792  0.98589797  1.0
  F  F15  1  0.59674630  0.84938792  0.51410203  1.0
  F  F16  1  -0.59674630  1.15061208  0.48589797  1.0
  F  F17  1  -0.59674630  1.15061208  0.01410203  1.0
  F  F18  1  0.15061208  0.40325370  0.98589797  1.0
  F  F19  1  0.15061208  0.40325370  0.51410203  1.0
  F  F20  1  -0.22412306  1.49526795  0.25000000  1.0
  F  F21  1  0.49526795  0.77587694  0.75000000  1.0
  F  F22  1  -0.49526795  1.22412306  0.25000000  1.0
  F  F23  1  0.22412306  0.50473205  0.75000000  1.0
  F  F24  1  0.20452935  0.79547065  0.89180550  1.0
  F  F25  1  0.20452935  0.79547065  0.60819450  1.0
  F  F26  1  -0.20452935  1.20452935  0.39180550  1.0
  F  F27  1  -0.20452935  1.20452935  0.10819450  1.0
  F  F28  1  0.27912418  0.72087582  0.38666167  1.0
  F  F29  1  0.27912418  0.72087582  0.11333833  1.0
  F  F30  1  -0.27912418  1.27912418  0.88666167  1.0
  F  F31  1  -0.27912418  1.27912418  0.61333833  1.0
  F  F32  1  0.47734291  0.52265709  0.38581233  1.0
  F  F33  1  0.47734291  0.52265709  0.11418767  1.0
  F  F34  1  -0.47734291  1.47734291  0.88581233  1.0
  F  F35  1  -0.47734291  1.47734291  0.61418767  1.0
  F  F36  1  0.08568654  0.91431346  0.25000000  1.0
  F  F37  1  -0.08568654  1.08568654  0.75000000  1.0
  F  F38  1  0.00000000  0.00000000  0.50000000  1.0
  F  F39  1  0.00000000  0.00000000  0.00000000  1.0
