# generated using pymatgen
data_CO2
_symmetry_space_group_name_H-M   'P 1'
_cell_length_a   10.32622212
_cell_length_b   3.96809008
_cell_length_c   5.50208795
_cell_angle_alpha   90.00000000
_cell_angle_beta   90.00000000
_cell_angle_gamma   90.00000000
_symmetry_Int_Tables_number   1
_chemical_formula_structural   CO2
_chemical_formula_sum   'C4 O8'
_cell_volume   225.45014212
_cell_formula_units_Z   4
loop_
 _symmetry_equiv_pos_site_id
 _symmetry_equiv_pos_as_xyz
  1  'x, y, z'
loop_
 _atom_site_type_symbol
 _atom_site_label
 _atom_site_symmetry_multiplicity
 _atom_site_fract_x
 _atom_site_fract_y
 _atom_site_fract_z
 _atom_site_occupancy
  C  C0  1  0.63267532  0.05050099  0.10266028  1.0
  C  C1  1  0.36732468  0.94949901  0.60266028  1.0
  C  C2  1  0.86732468  0.55050099  0.60266028  1.0
  C  C3  1  0.13267532  0.44949901  0.10266028  1.0
  O  O4  1  0.53734727  0.21063355  0.10256420  1.0
  O  O5  1  0.46265273  0.78936645  0.60256420  1.0
  O  O6  1  0.96265273  0.71063355  0.60256420  1.0
  O  O7  1  0.03734727  0.28936645  0.10256420  1.0
  O  O8  1  0.72805357  -0.10959598  0.10277552  1.0
  O  O9  1  0.27194643  1.10959598  0.60277552  1.0
  O  O10  1  0.77194643  0.39040402  0.60277552  1.0
  O  O11  1  0.22805357  0.60959598  0.10277552  1.0
