# generated using pymatgen
data_Mg3N2
_symmetry_space_group_name_H-M   'P 1'
_cell_length_a   8.66730788
_cell_length_b   8.66730788
_cell_length_c   8.66730788
_cell_angle_alpha   109.47122063
_cell_angle_beta   109.47122063
_cell_angle_gamma   109.47122063
_symmetry_Int_Tables_number   1
_chemical_formula_structural   Mg3N2
_chemical_formula_sum   'Mg24 N16'
_cell_volume   501.22275753
_cell_formula_units_Z   8
loop_
 _symmetry_equiv_pos_site_id
 _symmetry_equiv_pos_as_xyz
  1  'x, y, z'
loop_
 _atom_site_type_symbol
 _atom_site_label
 _atom_site_symmetry_multiplicity
 _atom_site_fract_x
 _atom_site_fract_y
 _atom_site_fract_z
 _atom_site_occupancy
  Mg  Mg0  1  0.54179664  0.53483583  0.77149416  1.0
  Mg  Mg1  1  1.04179664  0.27030248  1.00696081  1.0
  Mg  Mg2  1  0.26334167  0.77030248  0.72850584  1.0
  Mg  Mg3  1  0.76334167  1.03483583  0.49303919  1.0
  Mg  Mg4  1  0.50696081  1.23665833  0.96516417  1.0
  Mg  Mg5  1  1.00696081  1.04179664  0.27030248  1.0
  Mg  Mg6  1  0.77149416  0.54179664  0.53483583  1.0
  Mg  Mg7  1  1.27149416  0.73665833  1.22969752  1.0
  Mg  Mg8  1  0.77030248  0.72850584  0.26334167  1.0
  Mg  Mg9  1  1.27030248  1.00696081  1.04179664  1.0
  Mg  Mg10  1  0.96516417  0.50696081  1.23665833  1.0
  Mg  Mg11  1  1.46516417  1.22850584  1.45820336  1.0
  Mg  Mg12  1  1.73665833  1.22969752  1.27149416  1.0
  Mg  Mg13  1  1.23665833  0.96516417  1.50696081  1.0
  Mg  Mg14  1  1.45820336  1.46516417  1.22850584  1.0
  Mg  Mg15  1  0.95820336  1.72969752  0.99303919  1.0
  Mg  Mg16  1  1.22850584  1.45820336  1.46516417  1.0
  Mg  Mg17  1  0.72850584  1.26334167  0.77030248  1.0
  Mg  Mg18  1  1.49303919  0.76334167  1.03483583  1.0
  Mg  Mg19  1  0.99303919  0.95820336  1.72969752  1.0
  Mg  Mg20  1  1.03483583  1.49303919  0.76334167  1.0
  Mg  Mg21  1  0.53483583  0.77149416  0.54179664  1.0
  Mg  Mg22  1  1.22969752  1.27149416  1.73665833  1.0
  Mg  Mg23  1  0.72969752  0.99303919  0.95820336  1.0
  N  N24  1  1.71905218  1.46905218  1.25000000  1.0
  N  N25  1  1.21905218  0.96905218  1.25000000  1.0
  N  N26  1  0.75000000  0.78094782  0.03094782  1.0
  N  N27  1  0.25000000  1.21905218  0.96905218  1.0
  N  N28  1  0.25000000  0.71905218  0.46905218  1.0
  N  N29  1  0.75000000  1.28094782  0.53094782  1.0
  N  N30  1  1.46905218  1.25000000  1.71905218  1.0
  N  N31  1  0.96905218  0.25000000  1.21905218  1.0
  N  N32  1  0.03094782  0.75000000  0.78094782  1.0
  N  N33  1  0.53094782  0.75000000  0.28094782  1.0
  N  N34  1  0.28094782  0.53094782  0.75000000  1.0
  N  N35  1  0.78094782  1.03094782  0.75000000  1.0
  N  N36  1  1.00000000  0.50000000  1.00000000  1.0
  N  N37  1  0.50000000  0.50000000  0.50000000  1.0
  N  N38  1  1.00000000  1.00000000  1.50000000  1.0
  N  N39  1  1.50000000  1.00000000  1.00000000  1.0
