# generated using pymatgen
data_Ba3InIr2O9
_symmetry_space_group_name_H-M   'P 1'
_cell_length_a   5.88599197
_cell_length_b   5.88599197
_cell_length_c   14.75697424
_cell_angle_alpha   90.00000000
_cell_angle_beta   90.00000000
_cell_angle_gamma   120.00000000
_symmetry_Int_Tables_number   1
_chemical_formula_structural   Ba3InIr2O9
_chemical_formula_sum   'Ba6 In2 Ir4 O18'
_cell_volume   442.75888054
_cell_formula_units_Z   2
loop_
 _symmetry_equiv_pos_site_id
 _symmetry_equiv_pos_as_xyz
  1  'x, y, z'
loop_
 _atom_site_type_symbol
 _atom_site_label
 _atom_site_symmetry_multiplicity
 _atom_site_fract_x
 _atom_site_fract_y
 _atom_site_fract_z
 _atom_site_occupancy
  Ba  Ba0  1  0.33333333  0.66666667  0.41532564  1.0
  Ba  Ba1  1  0.33333333  0.66666667  0.08467436  1.0
  Ba  Ba2  1  0.66666667  0.33333333  0.91532564  1.0
  Ba  Ba3  1  0.66666667  0.33333333  0.58467436  1.0
  Ba  Ba4  1  0.00000000  0.00000000  0.25000000  1.0
  Ba  Ba5  1  -0.00000000  -0.00000000  0.75000000  1.0
  In  In6  1  0.00000000  -0.00000000  0.50000000  1.0
  In  In7  1  0.00000000  -0.00000000  0.00000000  1.0
  Ir  Ir8  1  0.33333333  0.66666667  0.84023442  1.0
  Ir  Ir9  1  0.33333333  0.66666667  0.65976558  1.0
  Ir  Ir10  1  0.66666667  0.33333333  0.34023442  1.0
  Ir  Ir11  1  0.66666667  0.33333333  0.15976558  1.0
  O  O12  1  0.17242445  0.82757555  0.91641443  1.0
  O  O13  1  0.17242445  0.82757555  0.58358557  1.0
  O  O14  1  0.17242445  0.34484890  0.91641443  1.0
  O  O15  1  0.17242445  0.34484890  0.58358557  1.0
  O  O16  1  0.82757555  0.17242445  0.41641443  1.0
  O  O17  1  0.82757555  0.17242445  0.08358557  1.0
  O  O18  1  0.82757555  0.65515110  0.41641443  1.0
  O  O19  1  0.82757555  0.65515110  0.08358557  1.0
  O  O20  1  0.65515110  0.82757555  0.91641443  1.0
  O  O21  1  0.65515110  0.82757555  0.58358557  1.0
  O  O22  1  0.34484890  0.17242445  0.41641443  1.0
  O  O23  1  0.34484890  0.17242445  0.08358557  1.0
  O  O24  1  0.51630905  0.48369095  0.25000000  1.0
  O  O25  1  0.51630905  0.03261810  0.25000000  1.0
  O  O26  1  0.48369095  0.51630905  0.75000000  1.0
  O  O27  1  0.48369095  0.96738191  0.75000000  1.0
  O  O28  1  0.96738191  0.48369095  0.25000000  1.0
  O  O29  1  0.03261809  0.51630905  0.75000000  1.0
