# generated using pymatgen
data_TaCo2B
_symmetry_space_group_name_H-M   'P 1'
_cell_length_a   9.13869955
_cell_length_b   6.35954370
_cell_length_c   6.26684342
_cell_angle_alpha   90.00000000
_cell_angle_beta   109.71543175
_cell_angle_gamma   90.00000000
_symmetry_Int_Tables_number   1
_chemical_formula_structural   TaCo2B
_chemical_formula_sum   'Ta8 Co16 B8'
_cell_volume   342.86569706
_cell_formula_units_Z   8
loop_
 _symmetry_equiv_pos_site_id
 _symmetry_equiv_pos_as_xyz
  1  'x, y, z'
loop_
 _atom_site_type_symbol
 _atom_site_label
 _atom_site_symmetry_multiplicity
 _atom_site_fract_x
 _atom_site_fract_y
 _atom_site_fract_z
 _atom_site_occupancy
  Ta  Ta0  1  0.93823863  0.26527399  0.46894586  1.0
  Ta  Ta1  1  0.93823863  0.23472601  0.96894586  1.0
  Ta  Ta2  1  0.06176137  0.76527399  0.03105414  1.0
  Ta  Ta3  1  0.06176137  0.73472601  0.53105414  1.0
  Ta  Ta4  1  0.43822972  0.23465021  0.46897937  1.0
  Ta  Ta5  1  0.43822972  0.26534979  0.96897937  1.0
  Ta  Ta6  1  0.56177028  0.73465021  0.03102063  1.0
  Ta  Ta7  1  0.56177028  0.76534979  0.53102063  1.0
  Co  Co8  1  0.15079446  0.05455302  0.34857519  1.0
  Co  Co9  1  0.15079446  0.44544698  0.84857519  1.0
  Co  Co10  1  0.84920554  0.55455302  0.15142481  1.0
  Co  Co11  1  0.84920554  0.94544698  0.65142481  1.0
  Co  Co12  1  0.86082951  0.94241661  0.20314562  1.0
  Co  Co13  1  0.86082951  0.55758339  0.70314562  1.0
  Co  Co14  1  0.13917049  0.44241661  0.29685438  1.0
  Co  Co15  1  0.13917049  0.05758339  0.79685438  1.0
  Co  Co16  1  0.65077988  0.44546078  0.34866779  1.0
  Co  Co17  1  0.65077988  0.05453922  0.84866779  1.0
  Co  Co18  1  0.34922012  0.94546078  0.15133221  1.0
  Co  Co19  1  0.34922012  0.55453922  0.65133221  1.0
  Co  Co20  1  0.63924216  0.05758892  0.29670108  1.0
  Co  Co21  1  0.63924216  0.44241108  0.79670108  1.0
  Co  Co22  1  0.36075784  0.55758892  0.20329892  1.0
  Co  Co23  1  0.36075784  0.94241108  0.70329892  1.0
  B  B24  1  0.77739778  0.72596895  0.39044520  1.0
  B  B25  1  0.77739778  0.77403105  0.89044520  1.0
  B  B26  1  0.22260222  0.22596895  0.10955480  1.0
  B  B27  1  0.22260222  0.27403105  0.60955480  1.0
  B  B28  1  0.72256326  0.27422637  0.10948946  1.0
  B  B29  1  0.72256326  0.22577363  0.60948946  1.0
  B  B30  1  0.27743674  0.77422637  0.39051054  1.0
  B  B31  1  0.27743674  0.72577363  0.89051054  1.0
