# generated using pymatgen
data_H3CN4O
_symmetry_space_group_name_H-M   'P 1'
_cell_length_a   7.70031644
_cell_length_b   7.70031644
_cell_length_c   7.75982904
_cell_angle_alpha   72.78243287
_cell_angle_beta   107.21756713
_cell_angle_gamma   80.46965897
_symmetry_Int_Tables_number   1
_chemical_formula_structural   H3CN4O
_chemical_formula_sum   'H12 C4 N16 O4'
_cell_volume   403.31657944
_cell_formula_units_Z   4
loop_
 _symmetry_equiv_pos_site_id
 _symmetry_equiv_pos_as_xyz
  1  'x, y, z'
loop_
 _atom_site_type_symbol
 _atom_site_label
 _atom_site_symmetry_multiplicity
 _atom_site_fract_x
 _atom_site_fract_y
 _atom_site_fract_z
 _atom_site_occupancy
  H  H0  1  0.45216756  -0.37250083  0.74603659  1.0
  H  H1  1  1.37250083  0.54783244  0.24603659  1.0
  H  H2  1  0.62749917  -0.54783244  0.75396341  1.0
  H  H3  1  1.54783244  0.37250083  0.25396341  1.0
  H  H4  1  1.57253546  0.16283702  0.74787748  1.0
  H  H5  1  0.83716298  -0.57253546  0.24787748  1.0
  H  H6  1  1.16283702  0.57253546  0.75212252  1.0
  H  H7  1  0.42746454  -0.16283702  0.25212252  1.0
  H  H8  1  1.35783643  0.11634944  0.75596660  1.0
  H  H9  1  0.88365056  -0.35783643  0.25596660  1.0
  H  H10  1  1.11634944  0.35783643  0.74403340  1.0
  H  H11  1  0.64216357  -0.11634944  0.24403340  1.0
  C  C12  1  0.90195578  -0.09804422  0.75000000  1.0
  C  C13  1  1.09804422  0.09804422  0.25000000  1.0
  C  C14  1  1.38003939  0.38003939  0.75000000  1.0
  C  C15  1  0.61996061  -0.38003939  0.25000000  1.0
  N  N16  1  1.84954145  0.07914966  0.74390276  1.0
  N  N17  1  0.92085034  -0.84954145  0.24390276  1.0
  N  N18  1  1.07914966  0.84954145  0.75609724  1.0
  N  N19  1  0.15045855  -0.07914966  0.25609724  1.0
  N  N20  1  1.44018713  0.20813918  0.74810950  1.0
  N  N21  1  0.79186082  -0.44018713  0.24810950  1.0
  N  N22  1  1.20813918  0.44018713  0.75189050  1.0
  N  N23  1  0.55981287  -0.20813918  0.25189050  1.0
  N  N24  1  1.13929105  0.00183544  0.75358179  1.0
  N  N25  1  0.99816456  -0.13929105  0.25358179  1.0
  N  N26  1  1.00183544  0.13929105  0.74641821  1.0
  N  N27  1  0.86070895  -0.00183544  0.24641821  1.0
  N  N28  1  0.77983677  -0.22016323  0.75000000  1.0
  N  N29  1  1.22016323  0.22016323  0.25000000  1.0
  N  N30  1  0.49409288  -0.50590712  0.75000000  1.0
  N  N31  1  1.50590712  0.50590712  0.25000000  1.0
  O  O32  1  0.61853054  -0.15671782  0.74372300  1.0
  O  O33  1  1.15671782  0.38146946  0.24372300  1.0
  O  O34  1  0.84328218  -0.38146946  0.75627700  1.0
  O  O35  1  1.38146946  0.15671782  0.25627700  1.0
