# generated using pymatgen
data_InCl
_symmetry_space_group_name_H-M   'P 1'
_cell_length_a   12.57421979
_cell_length_b   12.57421979
_cell_length_c   12.57421979
_cell_angle_alpha   90.00000000
_cell_angle_beta   90.00000000
_cell_angle_gamma   90.00000000
_symmetry_Int_Tables_number   1
_chemical_formula_structural   InCl
_chemical_formula_sum   'In32 Cl32'
_cell_volume   1988.12250783
_cell_formula_units_Z   32
loop_
 _symmetry_equiv_pos_site_id
 _symmetry_equiv_pos_as_xyz
  1  'x, y, z'
loop_
 _atom_site_type_symbol
 _atom_site_label
 _atom_site_symmetry_multiplicity
 _atom_site_fract_x
 _atom_site_fract_y
 _atom_site_fract_z
 _atom_site_occupancy
  In  In0  1  0.49614013  0.72289358  0.52897184  1.0
  In  In1  1  0.99614013  0.77710642  0.47102816  1.0
  In  In2  1  0.22289358  0.97102816  0.50385987  1.0
  In  In3  1  0.72289358  0.52897184  0.49614013  1.0
  In  In4  1  0.47102816  0.99614013  0.77710642  1.0
  In  In5  1  0.97102816  0.50385987  0.22289358  1.0
  In  In6  1  0.50385987  0.22289358  0.97102816  1.0
  In  In7  1  0.00385987  0.27710642  0.02897184  1.0
  In  In8  1  0.77710642  0.47102816  0.99614013  1.0
  In  In9  1  0.27710642  0.02897184  0.00385987  1.0
  In  In10  1  0.52897184  0.49614013  0.72289358  1.0
  In  In11  1  0.02897184  0.00385987  0.27710642  1.0
  In  In12  1  0.27289250  0.52916190  1.00811433  1.0
  In  In13  1  0.77289250  0.97083810  -0.00811433  1.0
  In  In14  1  0.02916190  0.49188567  0.72710750  1.0
  In  In15  1  0.52916190  1.00811433  0.27289250  1.0
  In  In16  1  -0.00811433  0.77289250  0.97083810  1.0
  In  In17  1  0.49188567  0.72710750  0.02916190  1.0
  In  In18  1  0.72710750  0.02916190  0.49188567  1.0
  In  In19  1  0.22710750  0.47083810  0.50811433  1.0
  In  In20  1  0.97083810  -0.00811433  0.77289250  1.0
  In  In21  1  0.47083810  0.50811433  0.22710750  1.0
  In  In22  1  1.00811433  0.27289250  0.52916190  1.0
  In  In23  1  0.50811433  0.22710750  0.47083810  1.0
  In  In24  1  0.21981951  0.71981951  0.78018049  1.0
  In  In25  1  0.71981951  0.78018049  0.21981951  1.0
  In  In26  1  0.78018049  0.21981951  0.71981951  1.0
  In  In27  1  0.28018049  0.28018049  0.28018049  1.0
  In  In28  1  0.78080479  0.28080479  0.21919521  1.0
  In  In29  1  0.28080479  0.21919521  0.78080479  1.0
  In  In30  1  0.21919521  0.78080479  0.28080479  1.0
  In  In31  1  0.71919521  0.71919521  0.71919521  1.0
  Cl  Cl32  1  0.44883465  0.76209892  0.80557512  1.0
  Cl  Cl33  1  0.94883465  0.73790108  0.19442488  1.0
  Cl  Cl34  1  0.26209892  0.69442488  0.55116535  1.0
  Cl  Cl35  1  0.76209892  0.80557512  0.44883465  1.0
  Cl  Cl36  1  0.19442488  0.94883465  0.73790108  1.0
  Cl  Cl37  1  0.69442488  0.55116535  0.26209892  1.0
  Cl  Cl38  1  0.55116535  0.26209892  0.69442488  1.0
  Cl  Cl39  1  0.05116535  0.23790108  0.30557512  1.0
  Cl  Cl40  1  0.73790108  0.19442488  0.94883465  1.0
  Cl  Cl41  1  0.23790108  0.30557512  0.05116535  1.0
  Cl  Cl42  1  0.80557512  0.44883465  0.76209892  1.0
  Cl  Cl43  1  0.30557512  0.05116535  0.23790108  1.0
  Cl  Cl44  1  0.30217372  0.45002857  0.74596632  1.0
  Cl  Cl45  1  0.80217372  0.04997143  0.25403368  1.0
  Cl  Cl46  1  0.95002857  0.75403368  0.69782628  1.0
  Cl  Cl47  1  0.45002857  0.74596632  0.30217372  1.0
  Cl  Cl48  1  0.25403368  0.80217372  0.04997143  1.0
  Cl  Cl49  1  0.75403368  0.69782628  0.95002857  1.0
  Cl  Cl50  1  0.69782628  0.95002857  0.75403368  1.0
  Cl  Cl51  1  0.19782628  0.54997143  0.24596632  1.0
  Cl  Cl52  1  0.04997143  0.25403368  0.80217372  1.0
  Cl  Cl53  1  0.54997143  0.24596632  0.19782628  1.0
  Cl  Cl54  1  0.74596632  0.30217372  0.45002857  1.0
  Cl  Cl55  1  0.24596632  0.19782628  0.54997143  1.0
  Cl  Cl56  1  0.45131623  0.95131623  0.54868377  1.0
  Cl  Cl57  1  0.95131623  0.54868377  0.45131623  1.0
  Cl  Cl58  1  0.54868377  0.45131623  0.95131623  1.0
  Cl  Cl59  1  0.04868377  0.04868377  0.04868377  1.0
  Cl  Cl60  1  0.04306644  0.54306644  0.95693356  1.0
  Cl  Cl61  1  0.54306644  0.95693356  0.04306644  1.0
  Cl  Cl62  1  0.95693356  0.04306644  0.54306644  1.0
  Cl  Cl63  1  0.45693356  0.45693356  0.45693356  1.0
