# generated using pymatgen
data_HgH10C2(SO4)2
_symmetry_space_group_name_H-M   'P 1'
_cell_length_a   8.32416100
_cell_length_b   6.56909521
_cell_length_c   4.92528261
_cell_angle_alpha   79.23290253
_cell_angle_beta   85.62916344
_cell_angle_gamma   88.75139937
_symmetry_Int_Tables_number   1
_chemical_formula_structural   HgH10C2(SO4)2
_chemical_formula_sum   'Hg1 H10 C2 S2 O8'
_cell_volume   263.80642557
_cell_formula_units_Z   1
loop_
 _symmetry_equiv_pos_site_id
 _symmetry_equiv_pos_as_xyz
  1  'x, y, z'
loop_
 _atom_site_type_symbol
 _atom_site_label
 _atom_site_symmetry_multiplicity
 _atom_site_fract_x
 _atom_site_fract_y
 _atom_site_fract_z
 _atom_site_occupancy
  Hg  Hg0  1  0.00000000  0.00000000  0.00000000  1.0
  H  H1  1  -0.59538911  -0.33814048  -0.79780118  1.0
  H  H2  1  -0.40461089  -0.66185952  -0.20219882  1.0
  H  H3  1  -0.61961789  -0.06355501  -0.81120364  1.0
  H  H4  1  -0.38038211  -0.93644499  -0.18879636  1.0
  H  H5  1  -0.48811094  -0.21221349  -0.57219431  1.0
  H  H6  1  -0.51188906  -0.78778651  -0.42780569  1.0
  H  H7  1  -0.08409214  -0.28141470  -0.30151446  1.0
  H  H8  1  -0.91590786  -0.71858530  -0.69848554  1.0
  H  H9  1  -0.18102764  -0.36018378  -1.00302573  1.0
  H  H10  1  -0.81897236  -0.63981622  0.00302573  1.0
  C  C11  1  -0.59897620  -0.21331183  -0.67800157  1.0
  C  C12  1  -0.40102380  -0.78668817  -0.32199843  1.0
  S  S13  1  -0.76280853  -0.25974265  -0.42298189  1.0
  S  S14  1  -0.23719147  -0.74025735  -0.57701811  1.0
  O  O15  1  -0.76461181  -0.08071617  -0.27486249  1.0
  O  O16  1  -0.23538819  -0.91928383  -0.72513751  1.0
  O  O17  1  -0.72973631  -0.45937764  -0.24220775  1.0
  O  O18  1  -0.27026369  -0.54062236  -0.75779225  1.0
  O  O19  1  -0.15187232  -0.23633391  -0.14896845  1.0
  O  O20  1  -0.84812768  -0.76366609  -0.85103155  1.0
  O  O21  1  -0.91327133  -0.26660182  -0.56911593  1.0
  O  O22  1  -0.08672867  -0.73339818  -0.43088407  1.0
