# generated using pymatgen
data_Ta6Si7Ni16
_symmetry_space_group_name_H-M   'P 1'
_cell_length_a   7.94800215
_cell_length_b   7.94800215
_cell_length_c   7.94800215
_cell_angle_alpha   60.00000000
_cell_angle_beta   60.00000000
_cell_angle_gamma   60.00000000
_symmetry_Int_Tables_number   1
_chemical_formula_structural   Ta6Si7Ni16
_chemical_formula_sum   'Ta6 Si7 Ni16'
_cell_volume   355.02499472
_cell_formula_units_Z   1
loop_
 _symmetry_equiv_pos_site_id
 _symmetry_equiv_pos_as_xyz
  1  'x, y, z'
loop_
 _atom_site_type_symbol
 _atom_site_label
 _atom_site_symmetry_multiplicity
 _atom_site_fract_x
 _atom_site_fract_y
 _atom_site_fract_z
 _atom_site_occupancy
  Ta  Ta0  1  -0.70286039  0.70286039  0.70286039  1.0
  Ta  Ta1  1  -0.29713961  0.29713961  0.70286039  1.0
  Ta  Ta2  1  0.70286039  0.70286039  -0.70286039  1.0
  Ta  Ta3  1  0.29713961  1.29713961  -0.29713961  1.0
  Ta  Ta4  1  0.29713961  -0.29713961  1.29713961  1.0
  Ta  Ta5  1  -0.29713961  0.29713961  0.29713961  1.0
  Si  Si6  1  1.50000000  0.00000000  -0.00000000  1.0
  Si  Si7  1  1.00000000  0.50000000  -0.50000000  1.0
  Si  Si8  1  0.00000000  1.50000000  -0.00000000  1.0
  Si  Si9  1  0.50000000  1.00000000  -0.50000000  1.0
  Si  Si10  1  0.00000000  0.00000000  0.50000000  1.0
  Si  Si11  1  0.50000000  -0.50000000  1.00000000  1.0
  Si  Si12  1  0.00000000  0.00000000  0.00000000  1.0
  Ni  Ni13  1  0.88336745  0.88336745  -0.11663255  1.0
  Ni  Ni14  1  1.11663255  0.11663255  0.65010235  1.0
  Ni  Ni15  1  1.11663255  0.65010235  0.11663255  1.0
  Ni  Ni16  1  0.34989765  0.88336745  -0.11663255  1.0
  Ni  Ni17  1  1.65010235  0.11663255  0.11663255  1.0
  Ni  Ni18  1  0.88336745  0.34989765  -0.11663255  1.0
  Ni  Ni19  1  0.88336745  0.88336745  -0.65010235  1.0
  Ni  Ni20  1  1.11663255  0.11663255  0.11663255  1.0
  Ni  Ni21  1  0.66711289  0.66711289  -0.33288711  1.0
  Ni  Ni22  1  1.33288711  0.33288711  0.00133868  1.0
  Ni  Ni23  1  1.33288711  0.00133868  0.33288711  1.0
  Ni  Ni24  1  0.99866132  0.66711289  -0.33288711  1.0
  Ni  Ni25  1  1.00133868  0.33288711  0.33288711  1.0
  Ni  Ni26  1  0.66711289  0.99866132  -0.33288711  1.0
  Ni  Ni27  1  0.66711289  0.66711289  -0.00133868  1.0
  Ni  Ni28  1  1.33288711  0.33288711  0.33288711  1.0
