# generated using pymatgen
data_LiCaP(CO3)2
_symmetry_space_group_name_H-M   'P 1'
_cell_length_a   6.21338944
_cell_length_b   8.61218933
_cell_length_c   10.34183384
_cell_angle_alpha   90.00000000
_cell_angle_beta   91.97474149
_cell_angle_gamma   90.00000000
_symmetry_Int_Tables_number   1
_chemical_formula_structural   LiCaP(CO3)2
_chemical_formula_sum   'Li4 Ca4 P4 C8 O24'
_cell_volume   553.07203729
_cell_formula_units_Z   4
loop_
 _symmetry_equiv_pos_site_id
 _symmetry_equiv_pos_as_xyz
  1  'x, y, z'
loop_
 _atom_site_type_symbol
 _atom_site_label
 _atom_site_symmetry_multiplicity
 _atom_site_fract_x
 _atom_site_fract_y
 _atom_site_fract_z
 _atom_site_occupancy
  Li  Li0  1  0.33397491  0.56115510  0.68617210  1.0
  Li  Li1  1  0.66602509  0.06115510  0.81382790  1.0
  Li  Li2  1  0.66602509  0.43884490  0.31382790  1.0
  Li  Li3  1  0.33397491  0.93884490  0.18617210  1.0
  Ca  Ca4  1  0.20477317  0.93982472  0.68846688  1.0
  Ca  Ca5  1  0.79522683  0.43982472  0.81153312  1.0
  Ca  Ca6  1  0.79522683  0.06017528  0.31153312  1.0
  Ca  Ca7  1  0.20477317  0.56017528  0.18846688  1.0
  P  P8  1  0.48902350  0.74226526  0.44378710  1.0
  P  P9  1  0.51097650  0.24226526  0.05621290  1.0
  P  P10  1  0.51097650  0.25773474  0.55621290  1.0
  P  P11  1  0.48902350  0.75773474  0.94378710  1.0
  C  C12  1  0.77978134  0.75180668  0.49296854  1.0
  C  C13  1  0.22021866  0.25180668  0.00703146  1.0
  C  C14  1  0.22021866  0.24819332  0.50703146  1.0
  C  C15  1  0.77978134  0.74819332  0.99296854  1.0
  C  C16  1  0.92688456  0.79067965  0.88359791  1.0
  C  C17  1  0.07311544  0.29067965  0.61640209  1.0
  C  C18  1  0.07311544  0.20932035  0.11640209  1.0
  C  C19  1  0.92688456  0.70932035  0.38359791  1.0
  O  O20  1  0.35329662  0.74894864  0.56513052  1.0
  O  O21  1  0.64670338  0.24894864  0.93486948  1.0
  O  O22  1  0.64670338  0.25105136  0.43486948  1.0
  O  O23  1  0.35329662  0.75105136  0.06513052  1.0
  O  O24  1  0.44806620  0.59535379  0.36163883  1.0
  O  O25  1  0.55193380  0.09535379  0.13836117  1.0
  O  O26  1  0.55193380  0.40464621  0.63836117  1.0
  O  O27  1  0.44806620  0.90464621  0.86163883  1.0
  O  O28  1  0.49548585  0.89107566  0.35968055  1.0
  O  O29  1  0.50451415  0.39107566  0.14031945  1.0
  O  O30  1  0.50451415  0.10892434  0.64031945  1.0
  O  O31  1  0.49548585  0.60892434  0.85968055  1.0
  O  O32  1  0.85132420  0.81647823  0.59157362  1.0
  O  O33  1  0.14867580  0.31647823  0.90842638  1.0
  O  O34  1  0.14867580  0.18352177  0.40842638  1.0
  O  O35  1  0.85132420  0.68352177  0.09157362  1.0
  O  O36  1  1.01650645  0.67781963  0.82818142  1.0
  O  O37  1  -0.01650645  0.17781963  0.67181858  1.0
  O  O38  1  -0.01650645  0.32218037  0.17181858  1.0
  O  O39  1  1.01650645  0.82218037  0.32818142  1.0
  O  O40  1  0.94151170  0.93226317  0.85342848  1.0
  O  O41  1  0.05848830  0.43226317  0.64657152  1.0
  O  O42  1  0.05848830  0.06773683  0.14657152  1.0
  O  O43  1  0.94151170  0.56773683  0.35342848  1.0
