# generated using pymatgen
data_CoH8(IO5)2
_symmetry_space_group_name_H-M   'P 1'
_cell_length_a   8.43293268
_cell_length_b   6.50463300
_cell_length_c   8.49702477
_cell_angle_alpha   90.00000000
_cell_angle_beta   98.78170274
_cell_angle_gamma   90.00000000
_symmetry_Int_Tables_number   1
_chemical_formula_structural   CoH8(IO5)2
_chemical_formula_sum   'Co2 H16 I4 O20'
_cell_volume   460.62455518
_cell_formula_units_Z   2
loop_
 _symmetry_equiv_pos_site_id
 _symmetry_equiv_pos_as_xyz
  1  'x, y, z'
loop_
 _atom_site_type_symbol
 _atom_site_label
 _atom_site_symmetry_multiplicity
 _atom_site_fract_x
 _atom_site_fract_y
 _atom_site_fract_z
 _atom_site_occupancy
  Co  Co0  1  0.00000000  0.50000000  0.50000000  1.0
  Co  Co1  1  0.00000000  0.00000000  0.00000000  1.0
  H  H2  1  1.00791194  0.12320175  0.30664422  1.0
  H  H3  1  1.00791194  0.37679825  0.80664422  1.0
  H  H4  1  -0.00791194  0.62320175  0.19335578  1.0
  H  H5  1  -0.00791194  0.87679825  0.69335578  1.0
  H  H6  1  0.84167226  0.00793510  0.23715981  1.0
  H  H7  1  0.84167226  0.49206490  0.73715981  1.0
  H  H8  1  0.15832774  0.50793510  0.26284019  1.0
  H  H9  1  0.15832774  0.99206490  0.76284019  1.0
  H  H10  1  0.72849950  0.39459907  0.27709107  1.0
  H  H11  1  0.72849950  0.10540093  0.77709107  1.0
  H  H12  1  0.27150050  0.89459907  0.22290893  1.0
  H  H13  1  0.27150050  0.60540093  0.72290893  1.0
  H  H14  1  0.71940448  0.28817407  0.44687923  1.0
  H  H15  1  0.71940448  0.21182593  0.94687923  1.0
  H  H16  1  0.28059552  0.78817407  0.05312077  1.0
  H  H17  1  0.28059552  0.71182593  0.55312077  1.0
  I  I18  1  0.66460168  0.81779610  0.47169053  1.0
  I  I19  1  0.66460168  0.68220390  0.97169053  1.0
  I  I20  1  0.33539832  0.31779610  0.02830947  1.0
  I  I21  1  0.33539832  0.18220390  0.52830947  1.0
  O  O22  1  0.93362814  0.08648013  0.20727163  1.0
  O  O23  1  0.93362814  0.41351987  0.70727163  1.0
  O  O24  1  0.06637186  0.58648013  0.29272837  1.0
  O  O25  1  0.06637186  0.91351987  0.79272837  1.0
  O  O26  1  0.89125660  0.72091507  0.02784419  1.0
  O  O27  1  0.89125660  0.77908493  0.52784419  1.0
  O  O28  1  0.10874340  0.22091507  0.47215581  1.0
  O  O29  1  0.10874340  0.27908493  0.97215581  1.0
  O  O30  1  0.75512344  0.41344488  0.39419747  1.0
  O  O31  1  0.75512344  0.08655512  0.89419747  1.0
  O  O32  1  0.24487656  0.91344488  0.10580253  1.0
  O  O33  1  0.24487656  0.58655512  0.60580253  1.0
  O  O34  1  0.65638797  0.41470296  0.06192409  1.0
  O  O35  1  0.65638797  0.08529704  0.56192409  1.0
  O  O36  1  0.34361203  0.91470296  0.43807591  1.0
  O  O37  1  0.34361203  0.58529704  0.93807591  1.0
  O  O38  1  0.34066045  0.38476701  0.24474368  1.0
  O  O39  1  0.34066045  0.11523299  0.74474368  1.0
  O  O40  1  0.65933955  0.88476701  0.25525632  1.0
  O  O41  1  0.65933955  0.61523299  0.75525632  1.0
