# generated using pymatgen
data_TaCo3
_symmetry_space_group_name_H-M   'P 1'
_cell_length_a   6.91163692
_cell_length_b   6.91163692
_cell_length_c   6.91163692
_cell_angle_alpha   43.74372319
_cell_angle_beta   43.74372319
_cell_angle_gamma   43.74372319
_symmetry_Int_Tables_number   1
_chemical_formula_structural   TaCo3
_chemical_formula_sum   'Ta3 Co9'
_cell_volume   143.29426140
_cell_formula_units_Z   3
loop_
 _symmetry_equiv_pos_site_id
 _symmetry_equiv_pos_as_xyz
  1  'x, y, z'
loop_
 _atom_site_type_symbol
 _atom_site_label
 _atom_site_symmetry_multiplicity
 _atom_site_fract_x
 _atom_site_fract_y
 _atom_site_fract_z
 _atom_site_occupancy
  Ta  Ta0  1  0.78140770  0.78140770  0.78140770  1.0
  Ta  Ta1  1  1.21859230  1.21859230  0.21859230  1.0
  Ta  Ta2  1  0.00000000  0.00000000  0.00000000  1.0
  Co  Co3  1  1.28598584  0.28598584  0.75834476  1.0
  Co  Co4  1  1.28598584  0.75834476  0.28598584  1.0
  Co  Co5  1  1.24165524  0.71401416  0.71401416  1.0
  Co  Co6  1  1.71401416  0.24165524  0.71401416  1.0
  Co  Co7  1  1.71401416  0.71401416  0.24165524  1.0
  Co  Co8  1  0.75834476  1.28598584  0.28598584  1.0
  Co  Co9  1  0.50000000  0.00000000  -0.50000000  1.0
  Co  Co10  1  0.50000000  -0.50000000  0.00000000  1.0
  Co  Co11  1  0.00000000  0.50000000  -0.50000000  1.0
