# generated using pymatgen
data_LiMnAsO5
_symmetry_space_group_name_H-M   'P 1'
_cell_length_a   5.44958759
_cell_length_b   5.21828706
_cell_length_c   7.71645413
_cell_angle_alpha   61.58454063
_cell_angle_beta   64.29208368
_cell_angle_gamma   73.07143259
_symmetry_Int_Tables_number   1
_chemical_formula_structural   LiMnAsO5
_chemical_formula_sum   'Li2 Mn2 As2 O10'
_cell_volume   172.89795819
_cell_formula_units_Z   2
loop_
 _symmetry_equiv_pos_site_id
 _symmetry_equiv_pos_as_xyz
  1  'x, y, z'
loop_
 _atom_site_type_symbol
 _atom_site_label
 _atom_site_symmetry_multiplicity
 _atom_site_fract_x
 _atom_site_fract_y
 _atom_site_fract_z
 _atom_site_occupancy
  Li  Li0  1  0.22567904  -0.54084422  0.70760671  1.0
  Li  Li1  1  -0.22567904  -0.45915578  0.29239329  1.0
  Mn  Mn2  1  0.50000000  -0.50000000  -0.00000000  1.0
  Mn  Mn3  1  -0.50000000  -0.00000000  0.50000000  1.0
  As  As4  1  -0.17479430  -0.95049375  0.75925480  1.0
  As  As5  1  0.17479430  -0.04950625  0.24074520  1.0
  O  O6  1  0.14258503  -0.81327247  0.61627944  1.0
  O  O7  1  -0.14258503  -0.18672753  0.38372056  1.0
  O  O8  1  -0.35835129  -0.79377569  0.58641283  1.0
  O  O9  1  0.35835129  -0.20622431  0.41358717  1.0
  O  O10  1  -0.30199271  -0.85354668  0.97220224  1.0
  O  O11  1  0.30199271  -0.14645332  0.02779776  1.0
  O  O12  1  0.55200420  -0.65653789  0.25510090  1.0
  O  O13  1  -0.55200420  -0.34346211  0.74489910  1.0
  O  O14  1  -0.15001264  -0.33057871  0.85786042  1.0
  O  O15  1  0.15001264  -0.66942129  0.14213958  1.0
