# generated using pymatgen
data_Ti12Al4NiC
_symmetry_space_group_name_H-M   'P 1'
_cell_length_a   10.25311789
_cell_length_b   10.25311789
_cell_length_c   10.25311789
_cell_angle_alpha   60.00000000
_cell_angle_beta   60.00000000
_cell_angle_gamma   60.00000000
_symmetry_Int_Tables_number   1
_chemical_formula_structural   Ti12Al4NiC
_chemical_formula_sum   'Ti24 Al8 Ni2 C2'
_cell_volume   762.17176307
_cell_formula_units_Z   2
loop_
 _symmetry_equiv_pos_site_id
 _symmetry_equiv_pos_as_xyz
  1  'x, y, z'
loop_
 _atom_site_type_symbol
 _atom_site_label
 _atom_site_symmetry_multiplicity
 _atom_site_fract_x
 _atom_site_fract_y
 _atom_site_fract_z
 _atom_site_occupancy
  Ti  Ti0  1  0.99174137  -0.72805630  0.74457357  1.0
  Ti  Ti1  1  -0.00825863  0.74457357  0.27194370  1.0
  Ti  Ti2  1  -0.02194370  0.25825863  0.25825863  1.0
  Ti  Ti3  1  0.50542643  0.25825863  0.25825863  1.0
  Ti  Ti4  1  -0.72805630  0.99174137  0.74457357  1.0
  Ti  Ti5  1  0.99174137  -0.00825863  0.74457357  1.0
  Ti  Ti6  1  0.99174137  -0.25542643  0.99174137  1.0
  Ti  Ti7  1  -0.72805630  0.74457357  0.99174137  1.0
  Ti  Ti8  1  0.25825863  -0.02194370  0.25825863  1.0
  Ti  Ti9  1  0.25825863  0.25825863  -0.02194370  1.0
  Ti  Ti10  1  0.50542643  0.25825863  -0.02194370  1.0
  Ti  Ti11  1  0.50542643  -0.02194370  0.25825863  1.0
  Ti  Ti12  1  0.74457357  -0.00825863  0.99174137  1.0
  Ti  Ti13  1  -0.72805630  0.99174137  0.99174137  1.0
  Ti  Ti14  1  0.25825863  0.50542643  -0.02194370  1.0
  Ti  Ti15  1  0.25825863  -0.02194370  0.50542643  1.0
  Ti  Ti16  1  -0.25542643  0.99174137  0.27194370  1.0
  Ti  Ti17  1  0.74457357  -0.72805630  0.99174137  1.0
  Ti  Ti18  1  0.99174137  -0.72805630  0.99174137  1.0
  Ti  Ti19  1  -0.00825863  0.99174137  0.27194370  1.0
  Ti  Ti20  1  0.25825863  0.50542643  0.25825863  1.0
  Ti  Ti21  1  -0.02194370  0.50542643  0.25825863  1.0
  Ti  Ti22  1  -0.02194370  0.25825863  0.50542643  1.0
  Ti  Ti23  1  0.25825863  0.25825863  0.50542643  1.0
  Al  Al24  1  0.66931471  -0.33068529  0.99205588  1.0
  Al  Al25  1  0.66931471  -0.00794412  0.66931471  1.0
  Al  Al26  1  0.58068529  -0.41931471  0.58068529  1.0
  Al  Al27  1  1.25794412  -0.41931471  0.58068529  1.0
  Al  Al28  1  0.99205588  -0.33068529  0.66931471  1.0
  Al  Al29  1  0.66931471  -0.33068529  0.66931471  1.0
  Al  Al30  1  0.58068529  0.25794412  0.58068529  1.0
  Al  Al31  1  0.58068529  -0.41931471  1.25794412  1.0
  Ni  Ni32  1  0.50000000  0.50000000  -0.50000000  1.0
  Ni  Ni33  1  0.75000000  -0.25000000  0.75000000  1.0
  C  C34  1  0.00000000  1.00000000  -0.00000000  1.0
  C  C35  1  0.25000000  0.25000000  0.25000000  1.0
