# generated using pymatgen
data_Sc2PbS4
_symmetry_space_group_name_H-M   'P 1'
_cell_length_a   11.78574969
_cell_length_b   3.77817862
_cell_length_c   13.76265399
_cell_angle_alpha   90.00000000
_cell_angle_beta   90.00000000
_cell_angle_gamma   90.00000000
_symmetry_Int_Tables_number   1
_chemical_formula_structural   Sc2PbS4
_chemical_formula_sum   'Sc8 Pb4 S16'
_cell_volume   612.83264376
_cell_formula_units_Z   4
loop_
 _symmetry_equiv_pos_site_id
 _symmetry_equiv_pos_as_xyz
  1  'x, y, z'
loop_
 _atom_site_type_symbol
 _atom_site_label
 _atom_site_symmetry_multiplicity
 _atom_site_fract_x
 _atom_site_fract_y
 _atom_site_fract_z
 _atom_site_occupancy
  Sc  Sc0  1  0.91720636  0.75000000  0.40404982  1.0
  Sc  Sc1  1  0.41720636  0.75000000  0.09595018  1.0
  Sc  Sc2  1  0.08279364  0.25000000  0.59595018  1.0
  Sc  Sc3  1  0.58279364  0.25000000  0.90404982  1.0
  Sc  Sc4  1  0.44353065  0.75000000  0.61118323  1.0
  Sc  Sc5  1  0.94353065  0.75000000  0.88881677  1.0
  Sc  Sc6  1  0.55646935  0.25000000  0.38881677  1.0
  Sc  Sc7  1  0.05646935  0.25000000  0.11118323  1.0
  Pb  Pb8  1  0.75811217  0.75000000  0.67184214  1.0
  Pb  Pb9  1  0.25811217  0.75000000  0.82815786  1.0
  Pb  Pb10  1  0.24188783  0.25000000  0.32815786  1.0
  Pb  Pb11  1  0.74188783  0.25000000  0.17184214  1.0
  S  S12  1  0.91265068  0.75000000  0.07240514  1.0
  S  S13  1  0.41265068  0.75000000  0.42759486  1.0
  S  S14  1  0.08734932  0.25000000  0.92759486  1.0
  S  S15  1  0.58734932  0.25000000  0.57240514  1.0
  S  S16  1  0.70245406  0.75000000  0.34273409  1.0
  S  S17  1  0.20245406  0.75000000  0.15726591  1.0
  S  S18  1  0.29754594  0.25000000  0.65726591  1.0
  S  S19  1  0.79754594  0.25000000  0.84273409  1.0
  S  S20  1  0.62106442  0.75000000  0.02930167  1.0
  S  S21  1  0.12106442  0.75000000  0.47069833  1.0
  S  S22  1  0.37893558  0.25000000  0.97069833  1.0
  S  S23  1  0.87893558  0.25000000  0.52930167  1.0
  S  S24  1  0.53330890  0.75000000  0.78422633  1.0
  S  S25  1  0.03330890  0.75000000  0.71577367  1.0
  S  S26  1  0.46669110  0.25000000  0.21577367  1.0
  S  S27  1  0.96669110  0.25000000  0.28422633  1.0
