# generated using pymatgen
data_NaV(OF)2
_symmetry_space_group_name_H-M   'P 1'
_cell_length_a   6.60928632
_cell_length_b   3.49240499
_cell_length_c   7.39409016
_cell_angle_alpha   90.00000000
_cell_angle_beta   108.01295780
_cell_angle_gamma   90.00000000
_symmetry_Int_Tables_number   1
_chemical_formula_structural   NaV(OF)2
_chemical_formula_sum   'Na2 V2 O4 F4'
_cell_volume   162.30739523
_cell_formula_units_Z   2
loop_
 _symmetry_equiv_pos_site_id
 _symmetry_equiv_pos_as_xyz
  1  'x, y, z'
loop_
 _atom_site_type_symbol
 _atom_site_label
 _atom_site_symmetry_multiplicity
 _atom_site_fract_x
 _atom_site_fract_y
 _atom_site_fract_z
 _atom_site_occupancy
  Na  Na0  1  0.86152672  0.25000000  0.28602680  1.0
  Na  Na1  1  0.13847328  0.75000000  0.71397320  1.0
  V  V2  1  0.64651812  0.25000000  0.72443045  1.0
  V  V3  1  0.35348188  0.75000000  0.27556955  1.0
  O  O4  1  0.78362637  0.25000000  0.94350648  1.0
  O  O5  1  0.21637363  0.75000000  0.05649352  1.0
  O  O6  1  0.39505059  0.25000000  0.35155604  1.0
  O  O7  1  0.60494941  0.75000000  0.64844396  1.0
  F  F8  1  0.37282598  0.25000000  0.74977892  1.0
  F  F9  1  0.62717402  0.75000000  0.25022108  1.0
  F  F10  1  0.88252905  0.25000000  0.62057755  1.0
  F  F11  1  0.11747095  0.75000000  0.37942245  1.0
