# generated using pymatgen
data_BaGd2CoO5
_symmetry_space_group_name_H-M   'P 1'
_cell_length_a   6.84774297
_cell_length_b   6.84774297
_cell_length_c   6.84774297
_cell_angle_alpha   148.41161588
_cell_angle_beta   129.10336361
_cell_angle_gamma   61.14762544
_symmetry_Int_Tables_number   1
_chemical_formula_structural   BaGd2CoO5
_chemical_formula_sum   'Ba1 Gd2 Co1 O5'
_cell_volume   129.33477259
_cell_formula_units_Z   1
loop_
 _symmetry_equiv_pos_site_id
 _symmetry_equiv_pos_as_xyz
  1  'x, y, z'
loop_
 _atom_site_type_symbol
 _atom_site_label
 _atom_site_symmetry_multiplicity
 _atom_site_fract_x
 _atom_site_fract_y
 _atom_site_fract_z
 _atom_site_occupancy
  O  O0  1  0.39156507  0.64843279  0.74313228  1.0
  O  O1  1  1.09469949  0.35156721  0.74313228  1.0
  O  O2  1  0.90530051  0.64843279  1.25686772  1.0
  O  O3  1  0.60843493  0.35156721  0.25686772  1.0
  O  O4  1  0.00000000  0.00000000  0.00000000  1.0
  Co  Co5  1  -0.00000000  0.50000000  0.50000000  1.0
  Gd  Gd6  1  0.79638665  0.79638665  1.00000000  1.0
  Gd  Gd7  1  0.20361335  0.20361335  -0.00000000  1.0
  Ba  Ba8  1  0.50000000  0.00000000  0.50000000  1.0
