# generated using pymatgen
data_Gd3Al2(Ni2H3)3
_symmetry_space_group_name_H-M   'P 1'
_cell_length_a   8.02947530
_cell_length_b   8.02947530
_cell_length_c   8.02947530
_cell_angle_alpha   109.47122063
_cell_angle_beta   109.47122063
_cell_angle_gamma   109.47122063
_symmetry_Int_Tables_number   1
_chemical_formula_structural   Gd3Al2(Ni2H3)3
_chemical_formula_sum   'Gd6 Al4 Ni12 H18'
_cell_volume   398.51035331
_cell_formula_units_Z   2
loop_
 _symmetry_equiv_pos_site_id
 _symmetry_equiv_pos_as_xyz
  1  'x, y, z'
loop_
 _atom_site_type_symbol
 _atom_site_label
 _atom_site_symmetry_multiplicity
 _atom_site_fract_x
 _atom_site_fract_y
 _atom_site_fract_z
 _atom_site_occupancy
  Ni  Ni0  1  0.33819370  0.33819370  0.67638740  1.0
  Ni  Ni1  1  0.66180630  1.00000000  0.33819370  1.0
  Ni  Ni2  1  1.00000000  0.66180630  0.33819370  1.0
  Ni  Ni3  1  0.66180630  1.33819370  1.00000000  1.0
  Ni  Ni4  1  1.33819370  1.67638740  1.33819370  1.0
  Ni  Ni5  1  1.00000000  1.33819370  0.66180630  1.0
  Ni  Ni6  1  1.33819370  0.66180630  1.00000000  1.0
  Ni  Ni7  1  1.33819370  1.00000000  0.66180630  1.0
  Ni  Ni8  1  1.67638740  1.33819370  1.33819370  1.0
  Ni  Ni9  1  0.66180630  0.66180630  0.32361260  1.0
  Ni  Ni10  1  0.66180630  0.32361260  0.66180630  1.0
  Ni  Ni11  1  0.32361260  0.66180630  0.66180630  1.0
  Gd  Gd12  1  0.72957359  0.72957359  -0.00000000  1.0
  Gd  Gd13  1  0.27042641  -0.00000000  0.27042641  1.0
  Gd  Gd14  1  0.00000000  0.27042641  0.27042641  1.0
  Gd  Gd15  1  0.27042641  0.27042641  -0.00000000  1.0
  Gd  Gd16  1  0.72957359  -0.00000000  0.72957359  1.0
  Gd  Gd17  1  0.00000000  0.72957359  0.72957359  1.0
  H  H18  1  1.00000000  1.00000000  0.73209974  1.0
  H  H19  1  1.00000000  1.73209974  1.00000000  1.0
  H  H20  1  1.73209974  1.00000000  1.00000000  1.0
  H  H21  1  0.26790026  0.26790026  0.26790026  1.0
  H  H22  1  1.00000000  1.00000000  0.26790026  1.0
  H  H23  1  1.00000000  1.26790026  1.00000000  1.0
  H  H24  1  1.26790026  1.00000000  1.00000000  1.0
  H  H25  1  0.73209974  0.73209974  0.73209974  1.0
  H  H26  1  0.50000000  0.75000000  0.25000000  1.0
  H  H27  1  1.25000000  0.75000000  0.50000000  1.0
  H  H28  1  0.25000000  0.50000000  0.75000000  1.0
  H  H29  1  0.50000000  0.25000000  0.75000000  1.0
  H  H30  1  0.75000000  0.50000000  0.25000000  1.0
  H  H31  1  0.75000000  1.25000000  0.50000000  1.0
  H  H32  1  0.50000000  0.50000000  -0.00000000  1.0
  H  H33  1  0.50000000  -0.00000000  0.50000000  1.0
  H  H34  1  0.00000000  0.50000000  0.50000000  1.0
  H  H35  1  0.00000000  0.00000000  0.00000000  1.0
  Al  Al36  1  1.00000000  1.00000000  0.50000000  1.0
  Al  Al37  1  1.00000000  1.50000000  1.00000000  1.0
  Al  Al38  1  1.50000000  1.00000000  1.00000000  1.0
  Al  Al39  1  0.50000000  0.50000000  0.50000000  1.0
