# generated using pymatgen
data_Te4Xe(OF5)4
_symmetry_space_group_name_H-M   'P 1'
_cell_length_a   9.18882720
_cell_length_b   6.06200439
_cell_length_c   10.88505348
_cell_angle_alpha   94.90582409
_cell_angle_beta   110.89537411
_cell_angle_gamma   92.91066953
_symmetry_Int_Tables_number   1
_chemical_formula_structural   Te4Xe(OF5)4
_chemical_formula_sum   'Te4 Xe1 O4 F20'
_cell_volume   562.21988707
_cell_formula_units_Z   1
loop_
 _symmetry_equiv_pos_site_id
 _symmetry_equiv_pos_as_xyz
  1  'x, y, z'
loop_
 _atom_site_type_symbol
 _atom_site_label
 _atom_site_symmetry_multiplicity
 _atom_site_fract_x
 _atom_site_fract_y
 _atom_site_fract_z
 _atom_site_occupancy
  Te  Te0  1  -0.62589387  -0.77624376  -0.75099687  1.0
  Te  Te1  1  -0.37410613  -0.22375624  -0.24900313  1.0
  Te  Te2  1  -0.89451784  -0.75180024  -0.25193412  1.0
  Te  Te3  1  -0.10548216  -0.24819976  -0.74806588  1.0
  Xe  Xe4  1  0.00000000  0.00000000  0.00000000  1.0
  O  O5  1  -0.85209225  -0.75515576  -0.85015350  1.0
  O  O6  1  -0.14790775  -0.24484424  -0.14984650  1.0
  O  O7  1  -0.97518226  -0.22976312  -0.85901710  1.0
  O  O8  1  -0.02481774  -0.77023688  -0.14098290  1.0
  F  F9  1  -0.02073832  -0.95977651  -0.65171175  1.0
  F  F10  1  -0.97926168  -0.04022349  -0.34828825  1.0
  F  F11  1  -0.66970504  -0.94088214  -0.62234402  1.0
  F  F12  1  -0.33029496  -0.05911786  -0.37765598  1.0
  F  F13  1  -0.73043388  -0.89602129  -0.12694781  1.0
  F  F14  1  -0.26956612  -0.10397871  -0.87305219  1.0
  F  F15  1  -0.40683026  -0.78969645  -0.65322374  1.0
  F  F16  1  -0.59316974  -0.21030355  -0.34677626  1.0
  F  F17  1  -0.76690297  -0.72280022  -0.35712067  1.0
  F  F18  1  -0.23309703  -0.27719978  -0.64287933  1.0
  F  F19  1  -0.56832870  -0.61261451  -0.87373826  1.0
  F  F20  1  -0.43167130  -0.38738549  -0.12626174  1.0
  F  F21  1  -0.19755937  -0.53638892  -0.84189380  1.0
  F  F22  1  -0.80244063  -0.46361108  -0.15810620  1.0
  F  F23  1  -0.62483221  -0.50069127  -0.64853391  1.0
  F  F24  1  -0.37516779  -0.49930873  -0.35146609  1.0
  F  F25  1  -0.94213961  -0.38808770  -0.62265898  1.0
  F  F26  1  -0.05786039  -0.61191230  -0.37734102  1.0
  F  F27  1  -0.62860386  -0.05424152  -0.85484657  1.0
  F  F28  1  -0.37139614  -0.94575848  -0.14515343  1.0
