# generated using pymatgen
data_NaTiFeO4
_symmetry_space_group_name_H-M   'P 1'
_cell_length_a   8.87808872
_cell_length_b   2.92620172
_cell_length_c   11.30224494
_cell_angle_alpha   90.00000000
_cell_angle_beta   90.00000000
_cell_angle_gamma   90.00000000
_symmetry_Int_Tables_number   1
_chemical_formula_structural   NaTiFeO4
_chemical_formula_sum   'Na4 Ti4 Fe4 O16'
_cell_volume   293.62190790
_cell_formula_units_Z   4
loop_
 _symmetry_equiv_pos_site_id
 _symmetry_equiv_pos_as_xyz
  1  'x, y, z'
loop_
 _atom_site_type_symbol
 _atom_site_label
 _atom_site_symmetry_multiplicity
 _atom_site_fract_x
 _atom_site_fract_y
 _atom_site_fract_z
 _atom_site_occupancy
  Na  Na0  1  0.36679524  0.75000000  0.90086513  1.0
  Na  Na1  1  0.86679524  0.75000000  0.59913487  1.0
  Na  Na2  1  0.63320476  0.25000000  0.09913487  1.0
  Na  Na3  1  0.13320476  0.25000000  0.40086513  1.0
  Ti  Ti4  1  0.20152414  0.75000000  0.67487214  1.0
  Ti  Ti5  1  0.70152414  0.75000000  0.82512786  1.0
  Ti  Ti6  1  0.79847586  0.25000000  0.32512786  1.0
  Ti  Ti7  1  0.29847586  0.25000000  0.17487214  1.0
  Fe  Fe8  1  -0.00761677  0.25000000  0.89786931  1.0
  Fe  Fe9  1  0.49238323  0.25000000  0.60213069  1.0
  Fe  Fe10  1  1.00761677  0.75000000  0.10213069  1.0
  Fe  Fe11  1  0.50761677  0.75000000  0.39786931  1.0
  O  O12  1  0.10010787  0.75000000  0.82015586  1.0
  O  O13  1  0.60010787  0.75000000  0.67984414  1.0
  O  O14  1  0.89989213  0.25000000  0.17984414  1.0
  O  O15  1  0.39989213  0.25000000  0.32015586  1.0
  O  O16  1  0.09816109  0.25000000  0.60087057  1.0
  O  O17  1  0.59816109  0.25000000  0.89912943  1.0
  O  O18  1  0.90183891  0.75000000  0.39912943  1.0
  O  O19  1  0.40183891  0.75000000  0.10087057  1.0
  O  O20  1  0.34246358  0.25000000  0.72778349  1.0
  O  O21  1  0.84246358  0.25000000  0.77221651  1.0
  O  O22  1  0.65753642  0.75000000  0.27221651  1.0
  O  O23  1  0.15753642  0.75000000  0.22778349  1.0
  O  O24  1  0.37507936  0.75000000  0.53384399  1.0
  O  O25  1  0.87507936  0.75000000  0.96615601  1.0
  O  O26  1  0.62492064  0.25000000  0.46615601  1.0
  O  O27  1  0.12492064  0.25000000  0.03384399  1.0
