# generated using pymatgen
data_CdI2
_symmetry_space_group_name_H-M   'P 1'
_cell_length_a   4.32830900
_cell_length_b   4.32830900
_cell_length_c   68.29043912
_cell_angle_alpha   90.00000000
_cell_angle_beta   90.00000000
_cell_angle_gamma   120.00000000
_symmetry_Int_Tables_number   1
_chemical_formula_structural   CdI2
_chemical_formula_sum   'Cd9 I18'
_cell_volume   1107.96757764
_cell_formula_units_Z   9
loop_
 _symmetry_equiv_pos_site_id
 _symmetry_equiv_pos_as_xyz
  1  'x, y, z'
loop_
 _atom_site_type_symbol
 _atom_site_label
 _atom_site_symmetry_multiplicity
 _atom_site_fract_x
 _atom_site_fract_y
 _atom_site_fract_z
 _atom_site_occupancy
  Cd  Cd0  1  0.00000000  0.00000000  0.02780661  1.0
  Cd  Cd1  1  0.00000000  0.00000000  0.13888068  1.0
  Cd  Cd2  1  0.00000000  0.00000000  0.36111602  1.0
  Cd  Cd3  1  0.00000000  0.00000000  0.47219007  1.0
  Cd  Cd4  1  0.00000000  0.00000000  0.69444197  1.0
  Cd  Cd5  1  0.66666667  0.33333333  0.25000267  1.0
  Cd  Cd6  1  0.66666667  0.33333333  0.58332804  1.0
  Cd  Cd7  1  0.66666667  0.33333333  0.80557511  1.0
  Cd  Cd8  1  0.66666667  0.33333333  0.91665678  1.0
  I  I9  1  0.00000000  0.00000000  0.27517807  1.0
  I  I10  1  0.00000000  0.00000000  0.60849483  1.0
  I  I11  1  0.00000000  0.00000000  0.83074101  1.0
  I  I12  1  0.00000000  0.00000000  0.94182456  1.0
  I  I13  1  0.66666667  0.33333333  0.05298139  1.0
  I  I14  1  0.66666667  0.33333333  0.16405729  1.0
  I  I15  1  0.66666667  0.33333333  0.38629100  1.0
  I  I16  1  0.66666667  0.33333333  0.49736641  1.0
  I  I17  1  0.66666667  0.33333333  0.71960855  1.0
  I  I18  1  0.33333333  0.66666667  0.00263261  1.0
  I  I19  1  0.33333333  0.66666667  0.11370425  1.0
  I  I20  1  0.33333333  0.66666667  0.22482827  1.0
  I  I21  1  0.33333333  0.66666667  0.33594203  1.0
  I  I22  1  0.33333333  0.66666667  0.44701400  1.0
  I  I23  1  0.33333333  0.66666667  0.55816243  1.0
  I  I24  1  0.33333333  0.66666667  0.66927684  1.0
  I  I25  1  0.33333333  0.66666667  0.78040970  1.0
  I  I26  1  0.33333333  0.66666667  0.89148880  1.0
