# generated using pymatgen
data_Sc2SO2
_symmetry_space_group_name_H-M   'P 1'
_cell_length_a   3.54700825
_cell_length_b   3.54700825
_cell_length_c   12.61012927
_cell_angle_alpha   90.00000000
_cell_angle_beta   90.00000000
_cell_angle_gamma   120.00000000
_symmetry_Int_Tables_number   1
_chemical_formula_structural   Sc2SO2
_chemical_formula_sum   'Sc4 S2 O4'
_cell_volume   137.39615133
_cell_formula_units_Z   2
loop_
 _symmetry_equiv_pos_site_id
 _symmetry_equiv_pos_as_xyz
  1  'x, y, z'
loop_
 _atom_site_type_symbol
 _atom_site_label
 _atom_site_symmetry_multiplicity
 _atom_site_fract_x
 _atom_site_fract_y
 _atom_site_fract_z
 _atom_site_occupancy
  Sc  Sc0  1  0.33333333  0.66666667  0.39312338  1.0
  Sc  Sc1  1  0.33333333  0.66666667  0.10687662  1.0
  Sc  Sc2  1  0.66666667  0.33333333  0.89312338  1.0
  Sc  Sc3  1  0.66666667  0.33333333  0.60687662  1.0
  S  S4  1  0.00000000  0.00000000  0.25000000  1.0
  S  S5  1  0.00000000  0.00000000  0.75000000  1.0
  O  O6  1  0.33333333  0.66666667  0.93440252  1.0
  O  O7  1  0.33333333  0.66666667  0.56559748  1.0
  O  O8  1  0.66666667  0.33333333  0.43440252  1.0
  O  O9  1  0.66666667  0.33333333  0.06559748  1.0
