# generated using pymatgen
data_Cu3Se2(ClO3)2
_symmetry_space_group_name_H-M   'P 1'
_cell_length_a   5.65899123
_cell_length_b   5.65899123
_cell_length_c   8.31990009
_cell_angle_alpha   82.98335611
_cell_angle_beta   97.01664389
_cell_angle_gamma   112.92158034
_symmetry_Int_Tables_number   1
_chemical_formula_structural   Cu3Se2(ClO3)2
_chemical_formula_sum   'Cu3 Se2 Cl2 O6'
_cell_volume   242.74989859
_cell_formula_units_Z   1
loop_
 _symmetry_equiv_pos_site_id
 _symmetry_equiv_pos_as_xyz
  1  'x, y, z'
loop_
 _atom_site_type_symbol
 _atom_site_label
 _atom_site_symmetry_multiplicity
 _atom_site_fract_x
 _atom_site_fract_y
 _atom_site_fract_z
 _atom_site_occupancy
  O  O0  1  0.29529030  0.08493174  0.87337477  1.0
  O  O1  1  0.91506826  0.70470970  0.87337477  1.0
  O  O2  1  1.08493174  -0.70470970  0.12662523  1.0
  O  O3  1  1.70470970  -0.08493174  0.12662523  1.0
  O  O4  1  1.36718144  -0.36718144  0.88597914  1.0
  O  O5  1  0.63281856  0.36718144  0.11402086  1.0
  Cu  Cu6  1  0.00000000  0.00000000  0.00000000  1.0
  Cu  Cu7  1  0.62815758  0.37184242  0.87068990  1.0
  Cu  Cu8  1  1.37184242  -0.37184242  0.12931010  1.0
  Cl  Cl9  1  0.72684832  0.27315168  0.64674982  1.0
  Cl  Cl10  1  1.27315168  -0.27315168  0.35325018  1.0
  Se  Se11  1  0.79679716  0.20320284  0.22838056  1.0
  Se  Se12  1  1.20320284  -0.20320284  0.77161944  1.0
