# generated using pymatgen
data_Nd2Ti2S2O5
_symmetry_space_group_name_H-M   'P 1'
_cell_length_a   11.96215002
_cell_length_b   11.96215002
_cell_length_c   11.96215002
_cell_angle_alpha   161.46797490
_cell_angle_beta   161.46797490
_cell_angle_gamma   26.32509242
_symmetry_Int_Tables_number   1
_chemical_formula_structural   Nd2Ti2S2O5
_chemical_formula_sum   'Nd2 Ti2 S2 O5'
_cell_volume   172.85277886
_cell_formula_units_Z   1
loop_
 _symmetry_equiv_pos_site_id
 _symmetry_equiv_pos_as_xyz
  1  'x, y, z'
loop_
 _atom_site_type_symbol
 _atom_site_label
 _atom_site_symmetry_multiplicity
 _atom_site_fract_x
 _atom_site_fract_y
 _atom_site_fract_z
 _atom_site_occupancy
  Nd  Nd0  1  0.66534751  0.66534751  1.00000000  1.0
  Nd  Nd1  1  0.33465249  0.33465249  -0.00000000  1.0
  Ti  Ti2  1  0.92245637  0.92245637  1.00000000  1.0
  Ti  Ti3  1  0.07754363  0.07754363  0.00000000  1.0
  S  S4  1  0.79662702  0.79662702  1.00000000  1.0
  S  S5  1  0.20337298  0.20337298  -0.00000000  1.0
  O  O6  1  0.40315511  0.90315511  0.50000000  1.0
  O  O7  1  0.59684489  0.09684489  0.50000000  1.0
  O  O8  1  0.90315511  0.40315511  0.50000000  1.0
  O  O9  1  0.09684489  0.59684489  0.50000000  1.0
  O  O10  1  0.00000000  0.00000000  0.00000000  1.0
