# generated using pymatgen
data_YCuS2
_symmetry_space_group_name_H-M   'P 1'
_cell_length_a   4.23028708
_cell_length_b   6.05646791
_cell_length_c   12.59342176
_cell_angle_alpha   90.00000000
_cell_angle_beta   90.00000000
_cell_angle_gamma   90.00000000
_symmetry_Int_Tables_number   1
_chemical_formula_structural   YCuS2
_chemical_formula_sum   'Y4 Cu4 S8'
_cell_volume   322.65099559
_cell_formula_units_Z   4
loop_
 _symmetry_equiv_pos_site_id
 _symmetry_equiv_pos_as_xyz
  1  'x, y, z'
loop_
 _atom_site_type_symbol
 _atom_site_label
 _atom_site_symmetry_multiplicity
 _atom_site_fract_x
 _atom_site_fract_y
 _atom_site_fract_z
 _atom_site_occupancy
  Y  Y0  1  0.23248369  0.81337790  0.87712979  1.0
  Y  Y1  1  0.73248369  0.68662210  0.12287021  1.0
  Y  Y2  1  0.76751631  0.31337790  0.62287021  1.0
  Y  Y3  1  0.26751631  0.18662210  0.37712979  1.0
  Cu  Cu4  1  0.50763879  0.81093660  0.62971495  1.0
  Cu  Cu5  1  1.00763879  0.68906340  0.37028505  1.0
  Cu  Cu6  1  0.49236121  0.31093660  0.87028505  1.0
  Cu  Cu7  1  -0.00763879  0.18906340  0.12971495  1.0
  S  S8  1  0.23077847  0.88702268  0.22307820  1.0
  S  S9  1  0.73077847  0.61297732  0.77692180  1.0
  S  S10  1  0.76922153  0.38702268  0.27692180  1.0
  S  S11  1  0.26922153  0.11297732  0.72307820  1.0
  S  S12  1  0.26311576  0.52402418  0.52010395  1.0
  S  S13  1  0.76311576  -0.02402418  0.47989605  1.0
  S  S14  1  0.73688424  1.02402418  0.97989605  1.0
  S  S15  1  0.23688424  0.47597582  0.02010395  1.0
