# generated using pymatgen
data_Ca(PO3)2
_symmetry_space_group_name_H-M   'P 1'
_cell_length_a   6.80831625
_cell_length_b   6.80831625
_cell_length_c   10.63393808
_cell_angle_alpha   87.34788065
_cell_angle_beta   92.65211935
_cell_angle_gamma   90.55522240
_symmetry_Int_Tables_number   1
_chemical_formula_structural   Ca(PO3)2
_chemical_formula_sum   'Ca4 P8 O24'
_cell_volume   491.84729604
_cell_formula_units_Z   4
loop_
 _symmetry_equiv_pos_site_id
 _symmetry_equiv_pos_as_xyz
  1  'x, y, z'
loop_
 _atom_site_type_symbol
 _atom_site_label
 _atom_site_symmetry_multiplicity
 _atom_site_fract_x
 _atom_site_fract_y
 _atom_site_fract_z
 _atom_site_occupancy
  Ca  Ca0  1  0.98397585  0.37332754  0.02601097  1.0
  Ca  Ca1  1  0.62667246  0.01602415  0.52601097  1.0
  Ca  Ca2  1  1.47393518  -0.48604218  0.50726301  1.0
  Ca  Ca3  1  1.48604218  -0.47393518  0.00726301  1.0
  P  P4  1  0.79878869  0.66430028  0.75987599  1.0
  P  P5  1  0.33569972  0.20121131  0.25987599  1.0
  P  P6  1  1.08826421  -0.11581492  0.91111968  1.0
  P  P7  1  1.11581492  -0.08826421  0.41111968  1.0
  P  P8  1  0.98610486  0.39248512  0.59819536  1.0
  P  P9  1  0.60751488  0.01389514  0.09819536  1.0
  P  P10  1  0.27862888  0.19048988  0.76483830  1.0
  P  P11  1  0.80951012  0.72137112  0.26483830  1.0
  O  O12  1  0.95671871  0.96065606  0.49650515  1.0
  O  O13  1  0.03934394  0.04328129  -0.00349485  1.0
  O  O14  1  0.89631836  0.86013458  0.81354277  1.0
  O  O15  1  0.13986542  0.10368164  0.31354277  1.0
  O  O16  1  0.75196206  0.51927768  0.86731703  1.0
  O  O17  1  0.48072232  0.24803794  0.36731703  1.0
  O  O18  1  0.97894620  0.58395753  0.68449136  1.0
  O  O19  1  0.41604247  0.02105380  0.18449136  1.0
  O  O20  1  0.77860618  0.33734337  0.55612435  1.0
  O  O21  1  0.66265663  0.22139382  0.05612435  1.0
  O  O22  1  1.15251982  -0.31667810  0.96360559  1.0
  O  O23  1  1.31667810  -0.15251982  0.46360559  1.0
  O  O24  1  1.14210229  -0.56319822  0.50645482  1.0
  O  O25  1  1.56319822  -0.14210229  0.00645482  1.0
  O  O26  1  1.05815337  -0.77560517  0.70173352  1.0
  O  O27  1  1.77560517  -0.05815337  0.20173352  1.0
  O  O28  1  1.27488985  -0.63124160  0.16733594  1.0
  O  O29  1  1.63124160  -0.27488985  0.66733594  1.0
  O  O30  1  1.30057041  -0.67413485  0.87333102  1.0
  O  O31  1  1.67413485  -0.30057041  0.37333102  1.0
  O  O32  1  0.43044023  0.19994813  0.66559147  1.0
  O  O33  1  0.80005187  0.56955977  0.16559147  1.0
  O  O34  1  1.25305421  -0.03682576  0.81376366  1.0
  O  O35  1  1.03682576  -0.25305421  0.31376366  1.0
