# generated using pymatgen
data_Y2B6Os
_symmetry_space_group_name_H-M   'P 1'
_cell_length_a   9.15623725
_cell_length_b   11.53007145
_cell_length_c   3.65465742
_cell_angle_alpha   90.00000000
_cell_angle_beta   90.00000000
_cell_angle_gamma   90.00000000
_symmetry_Int_Tables_number   1
_chemical_formula_structural   Y2B6Os
_chemical_formula_sum   'Y8 B24 Os4'
_cell_volume   385.82974774
_cell_formula_units_Z   4
loop_
 _symmetry_equiv_pos_site_id
 _symmetry_equiv_pos_as_xyz
  1  'x, y, z'
loop_
 _atom_site_type_symbol
 _atom_site_label
 _atom_site_symmetry_multiplicity
 _atom_site_fract_x
 _atom_site_fract_y
 _atom_site_fract_z
 _atom_site_occupancy
  Y  Y0  1  0.17797605  0.91361883  0.50000000  1.0
  Y  Y1  1  0.67797605  0.58638117  0.50000000  1.0
  Y  Y2  1  0.82202395  0.08638117  0.50000000  1.0
  Y  Y3  1  0.32202395  0.41361883  0.50000000  1.0
  Y  Y4  1  0.05602926  0.62656552  0.50000000  1.0
  Y  Y5  1  0.55602926  0.87343448  0.50000000  1.0
  Y  Y6  1  0.94397074  0.37343448  0.50000000  1.0
  Y  Y7  1  0.44397074  0.12656552  0.50000000  1.0
  B  B8  1  0.20961686  0.73290502  0.00000000  1.0
  B  B9  1  0.70961686  0.76709498  0.00000000  1.0
  B  B10  1  0.79038314  0.26709498  0.00000000  1.0
  B  B11  1  0.29038314  0.23290502  0.00000000  1.0
  B  B12  1  0.44642731  0.56722587  0.00000000  1.0
  B  B13  1  0.94642731  0.93277413  0.00000000  1.0
  B  B14  1  0.55357269  0.43277413  0.00000000  1.0
  B  B15  1  0.05357269  0.06722587  0.00000000  1.0
  B  B16  1  0.38962114  0.96933457  0.00000000  1.0
  B  B17  1  0.88962114  0.53066543  0.00000000  1.0
  B  B18  1  0.61037886  0.03066543  0.00000000  1.0
  B  B19  1  0.11037886  0.46933457  0.00000000  1.0
  B  B20  1  0.36827494  0.81416469  0.00000000  1.0
  B  B21  1  0.86827494  0.68583531  0.00000000  1.0
  B  B22  1  0.63172506  0.18583531  0.00000000  1.0
  B  B23  1  0.13172506  0.31416469  0.00000000  1.0
  B  B24  1  0.25268168  0.57993614  0.00000000  1.0
  B  B25  1  0.75268168  0.92006386  0.00000000  1.0
  B  B26  1  0.74731832  0.42006386  0.00000000  1.0
  B  B27  1  0.24731832  0.07993614  0.00000000  1.0
  B  B28  1  0.01670527  0.78696923  0.00000000  1.0
  B  B29  1  0.51670527  0.71303077  0.00000000  1.0
  B  B30  1  0.98329473  0.21303077  0.00000000  1.0
  B  B31  1  0.48329473  0.28696923  0.00000000  1.0
  Os  Os32  1  0.36268935  0.67849897  0.50000000  1.0
  Os  Os33  1  0.86268935  0.82150103  0.50000000  1.0
  Os  Os34  1  0.63731065  0.32150103  0.50000000  1.0
  Os  Os35  1  0.13731065  0.17849897  0.50000000  1.0
