# generated using pymatgen
data_Mn3CuAs2
_symmetry_space_group_name_H-M   'P 1'
_cell_length_a   12.63710601
_cell_length_b   3.56239771
_cell_length_c   7.36252898
_cell_angle_alpha   90.00000000
_cell_angle_beta   90.00000000
_cell_angle_gamma   90.00000000
_symmetry_Int_Tables_number   1
_chemical_formula_structural   Mn3CuAs2
_chemical_formula_sum   'Mn12 Cu4 As8'
_cell_volume   331.44925663
_cell_formula_units_Z   4
loop_
 _symmetry_equiv_pos_site_id
 _symmetry_equiv_pos_as_xyz
  1  'x, y, z'
loop_
 _atom_site_type_symbol
 _atom_site_label
 _atom_site_symmetry_multiplicity
 _atom_site_fract_x
 _atom_site_fract_y
 _atom_site_fract_z
 _atom_site_occupancy
  Mn  Mn0  1  0.39726718  0.75000000  0.94303396  1.0
  Mn  Mn1  1  0.89726718  0.75000000  0.55696604  1.0
  Mn  Mn2  1  0.60273282  0.25000000  0.05696604  1.0
  Mn  Mn3  1  0.10273282  0.25000000  0.44303396  1.0
  Mn  Mn4  1  0.15196396  0.75000000  0.78619952  1.0
  Mn  Mn5  1  0.65196396  0.75000000  0.71380048  1.0
  Mn  Mn6  1  0.84803604  0.25000000  0.21380048  1.0
  Mn  Mn7  1  0.34803604  0.25000000  0.28619952  1.0
  Mn  Mn8  1  0.19108072  0.75000000  0.17946897  1.0
  Mn  Mn9  1  0.69108072  0.75000000  0.32053103  1.0
  Mn  Mn10  1  0.80891928  0.25000000  0.82053103  1.0
  Mn  Mn11  1  0.30891928  0.25000000  0.67946897  1.0
  Cu  Cu12  1  0.44038934  0.75000000  0.55619728  1.0
  Cu  Cu13  1  0.94038934  0.75000000  0.94380272  1.0
  Cu  Cu14  1  0.55961066  0.25000000  0.44380272  1.0
  Cu  Cu15  1  0.05961066  0.25000000  0.05619728  1.0
  As  As16  1  0.49811530  0.75000000  0.22641583  1.0
  As  As17  1  0.99811530  0.75000000  0.27358417  1.0
  As  As18  1  0.50188470  0.25000000  0.77358417  1.0
  As  As19  1  0.00188470  0.25000000  0.72641583  1.0
  As  As20  1  0.24694335  0.75000000  0.48499419  1.0
  As  As21  1  0.74694335  0.75000000  1.01500581  1.0
  As  As22  1  0.75305665  0.25000000  0.51500581  1.0
  As  As23  1  0.25305665  0.25000000  -0.01500581  1.0
