# generated using pymatgen
data_Y2Cu2O5
_symmetry_space_group_name_H-M   'P 1'
_cell_length_a   10.91394219
_cell_length_b   3.53246688
_cell_length_c   12.54080937
_cell_angle_alpha   90.00000000
_cell_angle_beta   90.00000000
_cell_angle_gamma   90.00000000
_symmetry_Int_Tables_number   1
_chemical_formula_structural   Y2Cu2O5
_chemical_formula_sum   'Y8 Cu8 O20'
_cell_volume   483.48757054
_cell_formula_units_Z   4
loop_
 _symmetry_equiv_pos_site_id
 _symmetry_equiv_pos_as_xyz
  1  'x, y, z'
loop_
 _atom_site_type_symbol
 _atom_site_label
 _atom_site_symmetry_multiplicity
 _atom_site_fract_x
 _atom_site_fract_y
 _atom_site_fract_z
 _atom_site_occupancy
  Y  Y0  1  0.45727356  0.72477662  0.76412643  1.0
  Y  Y1  1  0.95727356  0.77522338  0.76412643  1.0
  Y  Y2  1  0.54272644  0.27522338  0.26412643  1.0
  Y  Y3  1  0.04272644  0.22477662  0.26412643  1.0
  Y  Y4  1  0.29241640  0.72344578  0.43683213  1.0
  Y  Y5  1  0.79241640  0.77655422  0.43683213  1.0
  Y  Y6  1  0.70758360  0.27655422  0.93683213  1.0
  Y  Y7  1  0.20758360  0.22344578  0.93683213  1.0
  O  O8  1  0.42318441  0.23011869  0.40812306  1.0
  O  O9  1  0.92318441  0.26988131  0.40812306  1.0
  O  O10  1  0.57681559  0.76988131  0.90812306  1.0
  O  O11  1  0.07681559  0.73011869  0.90812306  1.0
  O  O12  1  0.17351819  0.72781118  0.29220440  1.0
  O  O13  1  0.67351819  0.77218882  0.29220440  1.0
  O  O14  1  0.82648181  0.27218882  0.79220440  1.0
  O  O15  1  0.32648181  0.22781118  0.79220440  1.0
  O  O16  1  0.37519597  0.85186680  0.60037177  1.0
  O  O17  1  0.87519597  0.64813320  0.60037177  1.0
  O  O18  1  0.62480403  0.14813320  0.10037177  1.0
  O  O19  1  0.12480403  0.35186680  0.10037177  1.0
  O  O20  1  0.42861835  0.77271276  0.19827647  1.0
  O  O21  1  0.92861835  0.72728724  0.19827647  1.0
  O  O22  1  0.57138165  0.22728724  0.69827647  1.0
  O  O23  1  0.07138165  0.27271276  0.69827647  1.0
  O  O24  1  0.32212844  0.72167774  0.00171374  1.0
  O  O25  1  0.82212844  0.77832226  0.00171374  1.0
  O  O26  1  0.67787156  0.27832226  0.50171374  1.0
  O  O27  1  0.17787156  0.22167774  0.50171374  1.0
  Cu  Cu28  1  0.48837730  0.83746791  0.04723978  1.0
  Cu  Cu29  1  0.98837730  0.66253209  0.04723978  1.0
  Cu  Cu30  1  0.51162270  0.16253209  0.54723978  1.0
  Cu  Cu31  1  0.01162270  0.33746791  0.54723978  1.0
  Cu  Cu32  1  0.26218017  0.65843593  0.15321223  1.0
  Cu  Cu33  1  0.76218017  0.84156407  0.15321223  1.0
  Cu  Cu34  1  0.73781983  0.34156407  0.65321223  1.0
  Cu  Cu35  1  0.23781983  0.15843593  0.65321223  1.0
