# generated using pymatgen
data_BaY2ZnO5
_symmetry_space_group_name_H-M   'P 1'
_cell_length_a   12.41218040
_cell_length_b   5.74803898
_cell_length_c   7.13910748
_cell_angle_alpha   90.00000000
_cell_angle_beta   90.00000000
_cell_angle_gamma   90.00000000
_symmetry_Int_Tables_number   1
_chemical_formula_structural   BaY2ZnO5
_chemical_formula_sum   'Ba4 Y8 Zn4 O20'
_cell_volume   509.34459787
_cell_formula_units_Z   4
loop_
 _symmetry_equiv_pos_site_id
 _symmetry_equiv_pos_as_xyz
  1  'x, y, z'
loop_
 _atom_site_type_symbol
 _atom_site_label
 _atom_site_symmetry_multiplicity
 _atom_site_fract_x
 _atom_site_fract_y
 _atom_site_fract_z
 _atom_site_occupancy
  Ba  Ba0  1  0.10144266  0.75000000  0.57710353  1.0
  Ba  Ba1  1  0.60144266  0.75000000  0.92289647  1.0
  Ba  Ba2  1  0.89855734  0.25000000  0.42289647  1.0
  Ba  Ba3  1  0.39855734  0.25000000  0.07710353  1.0
  Y  Y4  1  0.20805304  0.75000000  0.11824600  1.0
  Y  Y5  1  0.70805304  0.75000000  0.38175400  1.0
  Y  Y6  1  0.79194696  0.25000000  0.88175400  1.0
  Y  Y7  1  0.29194696  0.25000000  0.61824600  1.0
  Y  Y8  1  0.92560707  0.75000000  0.10084356  1.0
  Y  Y9  1  0.42560707  0.75000000  0.39915644  1.0
  Y  Y10  1  0.07439293  0.25000000  0.89915644  1.0
  Y  Y11  1  0.57439293  0.25000000  0.60084356  1.0
  Zn  Zn12  1  0.35032465  0.75000000  0.80818270  1.0
  Zn  Zn13  1  0.85032465  0.75000000  0.69181730  1.0
  Zn  Zn14  1  0.64967535  0.25000000  0.19181730  1.0
  Zn  Zn15  1  0.14967535  0.25000000  0.30818270  1.0
  O  O16  1  0.43395415  0.99843376  0.66316494  1.0
  O  O17  1  0.43395415  0.50156624  0.66316494  1.0
  O  O18  1  0.93395415  0.99843376  0.83683506  1.0
  O  O19  1  0.93395415  0.50156624  0.83683506  1.0
  O  O20  1  0.56604585  0.49843376  0.33683506  1.0
  O  O21  1  0.56604585  0.00156624  0.33683506  1.0
  O  O22  1  0.06604585  0.49843376  0.16316494  1.0
  O  O23  1  0.06604585  0.00156624  0.16316494  1.0
  O  O24  1  0.22458270  0.99951106  0.85778238  1.0
  O  O25  1  0.22458270  0.50048894  0.85778238  1.0
  O  O26  1  0.72458270  0.99951106  0.64221762  1.0
  O  O27  1  0.72458270  0.50048894  0.64221762  1.0
  O  O28  1  0.77541730  0.49951106  0.14221762  1.0
  O  O29  1  0.77541730  0.00048894  0.14221762  1.0
  O  O30  1  0.27541730  0.49951106  0.35778238  1.0
  O  O31  1  0.27541730  0.00048894  0.35778238  1.0
  O  O32  1  0.39990876  0.75000000  0.07457648  1.0
  O  O33  1  0.89990876  0.75000000  0.42542352  1.0
  O  O34  1  0.60009124  0.25000000  0.92542352  1.0
  O  O35  1  0.10009124  0.25000000  0.57457648  1.0
