# generated using pymatgen
data_Be17Nb2
_symmetry_space_group_name_H-M   'P 1'
_cell_length_a   5.55870426
_cell_length_b   5.55870426
_cell_length_c   5.55870426
_cell_angle_alpha   83.06227456
_cell_angle_beta   83.06227456
_cell_angle_gamma   83.06227456
_symmetry_Int_Tables_number   1
_chemical_formula_structural   Be17Nb2
_chemical_formula_sum   'Be17 Nb2'
_cell_volume   168.26764319
_cell_formula_units_Z   1
loop_
 _symmetry_equiv_pos_site_id
 _symmetry_equiv_pos_as_xyz
  1  'x, y, z'
loop_
 _atom_site_type_symbol
 _atom_site_label
 _atom_site_symmetry_multiplicity
 _atom_site_fract_x
 _atom_site_fract_y
 _atom_site_fract_z
 _atom_site_occupancy
  Be  Be0  1  0.34682772  0.34682772  -0.16068085  1.0
  Be  Be1  1  0.34682772  0.83931915  -0.65317228  1.0
  Be  Be2  1  0.16068085  0.65317228  -0.34682772  1.0
  Be  Be3  1  0.65317228  0.16068085  -0.34682772  1.0
  Be  Be4  1  0.65317228  0.65317228  -0.83931915  1.0
  Be  Be5  1  0.83931915  0.34682772  -0.65317228  1.0
  Be  Be6  1  0.70590764  -0.00000000  0.29409236  1.0
  Be  Be7  1  0.70590764  -0.70590764  0.00000000  1.0
  Be  Be8  1  0.00000000  0.70590764  -0.70590764  1.0
  Be  Be9  1  -0.00000000  0.29409236  -0.29409236  1.0
  Be  Be10  1  1.29409236  -0.00000000  -0.29409236  1.0
  Be  Be11  1  0.29409236  -0.29409236  0.00000000  1.0
  Be  Be12  1  1.00000000  1.50000000  0.00000000  1.0
  Be  Be13  1  1.00000000  0.00000000  -0.50000000  1.0
  Be  Be14  1  0.50000000  -0.00000000  0.00000000  1.0
  Be  Be15  1  0.90125684  0.90125684  -0.09874316  1.0
  Be  Be16  1  1.09874316  1.09874316  0.09874316  1.0
  Nb  Nb17  1  0.66021638  0.66021638  -0.33978362  1.0
  Nb  Nb18  1  0.33978362  0.33978362  -0.66021638  1.0
