# generated using pymatgen
data_Mn4Be3Si3SO12
_symmetry_space_group_name_H-M   'P 1'
_cell_length_a   8.33110680
_cell_length_b   8.33110680
_cell_length_c   8.33110680
_cell_angle_alpha   90.00000000
_cell_angle_beta   90.00000000
_cell_angle_gamma   90.00000000
_symmetry_Int_Tables_number   1
_chemical_formula_structural   Mn4Be3Si3SO12
_chemical_formula_sum   'Mn8 Be6 Si6 S2 O24'
_cell_volume   578.23996649
_cell_formula_units_Z   2
loop_
 _symmetry_equiv_pos_site_id
 _symmetry_equiv_pos_as_xyz
  1  'x, y, z'
loop_
 _atom_site_type_symbol
 _atom_site_label
 _atom_site_symmetry_multiplicity
 _atom_site_fract_x
 _atom_site_fract_y
 _atom_site_fract_z
 _atom_site_occupancy
  Mn  Mn0  1  0.33060644  0.33060644  0.66939356  1.0
  Mn  Mn1  1  0.33060644  0.66939356  0.33060644  1.0
  Mn  Mn2  1  0.83060644  0.83060644  0.16939356  1.0
  Mn  Mn3  1  0.83060644  0.16939356  0.83060644  1.0
  Mn  Mn4  1  0.66939356  0.33060644  0.33060644  1.0
  Mn  Mn5  1  0.66939356  0.66939356  0.66939356  1.0
  Mn  Mn6  1  0.16939356  0.83060644  0.83060644  1.0
  Mn  Mn7  1  0.16939356  0.16939356  0.16939356  1.0
  Be  Be8  1  0.25000000  0.00000000  0.50000000  1.0
  Be  Be9  1  0.75000000  0.00000000  0.50000000  1.0
  Be  Be10  1  0.50000000  0.25000000  0.00000000  1.0
  Be  Be11  1  0.50000000  0.75000000  0.00000000  1.0
  Be  Be12  1  0.00000000  0.50000000  0.25000000  1.0
  Be  Be13  1  0.00000000  0.50000000  0.75000000  1.0
  Si  Si14  1  0.25000000  0.50000000  0.00000000  1.0
  Si  Si15  1  0.75000000  0.50000000  0.00000000  1.0
  Si  Si16  1  0.00000000  0.25000000  0.50000000  1.0
  Si  Si17  1  0.00000000  0.75000000  0.50000000  1.0
  Si  Si18  1  0.50000000  0.00000000  0.25000000  1.0
  Si  Si19  1  0.50000000  0.00000000  0.75000000  1.0
  S  S20  1  0.50000000  0.50000000  0.50000000  1.0
  S  S21  1  0.00000000  0.00000000  0.00000000  1.0
  O  O22  1  0.35959060  0.08556568  0.64031930  1.0
  O  O23  1  0.35959060  0.91443432  0.35968070  1.0
  O  O24  1  0.85959060  0.85968070  0.41443432  1.0
  O  O25  1  0.85959060  0.14031930  0.58556568  1.0
  O  O26  1  0.35968070  0.35959060  0.91443432  1.0
  O  O27  1  0.35968070  0.64040940  0.08556568  1.0
  O  O28  1  0.85968070  0.58556568  0.14040940  1.0
  O  O29  1  0.85968070  0.41443432  0.85959060  1.0
  O  O30  1  0.08556568  0.35968070  0.64040940  1.0
  O  O31  1  0.08556568  0.64031930  0.35959060  1.0
  O  O32  1  0.58556568  0.85959060  0.14031930  1.0
  O  O33  1  0.58556568  0.14040940  0.85968070  1.0
  O  O34  1  0.64040940  0.08556568  0.35968070  1.0
  O  O35  1  0.64040940  0.91443432  0.64031930  1.0
  O  O36  1  0.14040940  0.85968070  0.58556568  1.0
  O  O37  1  0.14040940  0.14031930  0.41443432  1.0
  O  O38  1  0.64031930  0.35959060  0.08556568  1.0
  O  O39  1  0.64031930  0.64040940  0.91443432  1.0
  O  O40  1  0.14031930  0.58556568  0.85959060  1.0
  O  O41  1  0.14031930  0.41443432  0.14040940  1.0
  O  O42  1  0.91443432  0.35968070  0.35959060  1.0
  O  O43  1  0.91443432  0.64031930  0.64040940  1.0
  O  O44  1  0.41443432  0.85959060  0.85968070  1.0
  O  O45  1  0.41443432  0.14040940  0.14031930  1.0
