# generated using pymatgen
data_Ta3Co5B2
_symmetry_space_group_name_H-M   'P 1'
_cell_length_a   8.39741749
_cell_length_b   8.39741749
_cell_length_c   3.24105613
_cell_angle_alpha   90.00000000
_cell_angle_beta   90.00000000
_cell_angle_gamma   90.00000000
_symmetry_Int_Tables_number   1
_chemical_formula_structural   Ta3Co5B2
_chemical_formula_sum   'Ta6 Co10 B4'
_cell_volume   228.54832461
_cell_formula_units_Z   2
loop_
 _symmetry_equiv_pos_site_id
 _symmetry_equiv_pos_as_xyz
  1  'x, y, z'
loop_
 _atom_site_type_symbol
 _atom_site_label
 _atom_site_symmetry_multiplicity
 _atom_site_fract_x
 _atom_site_fract_y
 _atom_site_fract_z
 _atom_site_occupancy
  Ta  Ta0  1  0.32550048  0.17449952  0.00000000  1.0
  Ta  Ta1  1  0.82550048  0.32550048  0.00000000  1.0
  Ta  Ta2  1  0.67449952  0.82550048  0.00000000  1.0
  Ta  Ta3  1  0.17449952  0.67449952  0.00000000  1.0
  Ta  Ta4  1  0.50000000  0.50000000  0.00000000  1.0
  Ta  Ta5  1  0.00000000  0.00000000  0.00000000  1.0
  Co  Co6  1  0.43012172  0.72044224  0.50000000  1.0
  Co  Co7  1  0.93012172  0.77955776  0.50000000  1.0
  Co  Co8  1  0.27955776  0.43012172  0.50000000  1.0
  Co  Co9  1  0.77955776  0.06987828  0.50000000  1.0
  Co  Co10  1  0.56987828  0.27955776  0.50000000  1.0
  Co  Co11  1  0.06987828  0.22044224  0.50000000  1.0
  Co  Co12  1  0.72044224  0.56987828  0.50000000  1.0
  Co  Co13  1  0.22044224  0.93012172  0.50000000  1.0
  Co  Co14  1  0.50000000  0.00000000  0.50000000  1.0
  Co  Co15  1  0.00000000  0.50000000  0.50000000  1.0
  B  B16  1  0.88121088  0.61878912  0.00000000  1.0
  B  B17  1  0.38121088  0.88121088  0.00000000  1.0
  B  B18  1  0.11878912  0.38121088  0.00000000  1.0
  B  B19  1  0.61878912  0.11878912  0.00000000  1.0
