# generated using pymatgen
data_Nb4FeSi
_symmetry_space_group_name_H-M   'P 1'
_cell_length_a   6.17123374
_cell_length_b   6.17123374
_cell_length_c   5.09746336
_cell_angle_alpha   90.00000000
_cell_angle_beta   90.00000000
_cell_angle_gamma   90.00000000
_symmetry_Int_Tables_number   1
_chemical_formula_structural   Nb4FeSi
_chemical_formula_sum   'Nb8 Fe2 Si2'
_cell_volume   194.13243663
_cell_formula_units_Z   2
loop_
 _symmetry_equiv_pos_site_id
 _symmetry_equiv_pos_as_xyz
  1  'x, y, z'
loop_
 _atom_site_type_symbol
 _atom_site_label
 _atom_site_symmetry_multiplicity
 _atom_site_fract_x
 _atom_site_fract_y
 _atom_site_fract_z
 _atom_site_occupancy
  Nb  Nb0  1  0.84724557  0.66830559  0.00000000  1.0
  Nb  Nb1  1  0.84724557  0.33169441  0.50000000  1.0
  Nb  Nb2  1  0.66830559  0.84724557  0.50000000  1.0
  Nb  Nb3  1  0.66830559  0.15275443  0.00000000  1.0
  Nb  Nb4  1  0.15275443  0.66830559  0.50000000  1.0
  Nb  Nb5  1  0.15275443  0.33169441  0.00000000  1.0
  Nb  Nb6  1  0.33169441  0.84724557  0.00000000  1.0
  Nb  Nb7  1  0.33169441  0.15275443  0.50000000  1.0
  Fe  Fe8  1  0.00000000  0.00000000  0.75000000  1.0
  Fe  Fe9  1  0.00000000  0.00000000  0.25000000  1.0
  Si  Si10  1  0.50000000  0.50000000  0.75000000  1.0
  Si  Si11  1  0.50000000  0.50000000  0.25000000  1.0
