# generated using pymatgen
data_SnP3
_symmetry_space_group_name_H-M   'P 1'
_cell_length_a   5.61447739
_cell_length_b   5.61447739
_cell_length_c   5.61447739
_cell_angle_alpha   83.20413847
_cell_angle_beta   83.20413847
_cell_angle_gamma   83.20413847
_symmetry_Int_Tables_number   1
_chemical_formula_structural   SnP3
_chemical_formula_sum   'Sn2 P6'
_cell_volume   173.52374633
_cell_formula_units_Z   2
loop_
 _symmetry_equiv_pos_site_id
 _symmetry_equiv_pos_as_xyz
  1  'x, y, z'
loop_
 _atom_site_type_symbol
 _atom_site_label
 _atom_site_symmetry_multiplicity
 _atom_site_fract_x
 _atom_site_fract_y
 _atom_site_fract_z
 _atom_site_occupancy
  Sn  Sn0  1  0.75469952  0.75469952  -0.24530048  1.0
  Sn  Sn1  1  1.24530048  1.24530048  0.24530048  1.0
  P  P2  1  0.29861934  0.29861934  -0.24368739  1.0
  P  P3  1  0.29861934  0.75631261  -0.70138066  1.0
  P  P4  1  0.24368739  0.70138066  -0.29861934  1.0
  P  P5  1  0.70138066  0.24368739  -0.29861934  1.0
  P  P6  1  0.70138066  0.70138066  -0.75631261  1.0
  P  P7  1  0.75631261  0.29861934  -0.70138066  1.0
