# generated using pymatgen
data_Ba3SbI3
_symmetry_space_group_name_H-M   'P 1'
_cell_length_a   12.33182299
_cell_length_b   12.33182299
_cell_length_c   12.33182299
_cell_angle_alpha   109.47122063
_cell_angle_beta   109.47122063
_cell_angle_gamma   109.47122063
_symmetry_Int_Tables_number   1
_chemical_formula_structural   Ba3SbI3
_chemical_formula_sum   'Ba12 Sb4 I12'
_cell_volume   1443.64348836
_cell_formula_units_Z   4
loop_
 _symmetry_equiv_pos_site_id
 _symmetry_equiv_pos_as_xyz
  1  'x, y, z'
loop_
 _atom_site_type_symbol
 _atom_site_label
 _atom_site_symmetry_multiplicity
 _atom_site_fract_x
 _atom_site_fract_y
 _atom_site_fract_z
 _atom_site_occupancy
  Ba  Ba0  1  1.75000000  1.24300302  1.25699698  1.0
  Ba  Ba1  1  0.75000000  1.00699698  0.49300302  1.0
  Ba  Ba2  1  1.01399396  0.25699698  1.00699698  1.0
  Ba  Ba3  1  0.48600604  0.49300302  0.24300302  1.0
  Ba  Ba4  1  1.25699698  1.00699698  1.01399396  1.0
  Ba  Ba5  1  1.24300302  1.25699698  0.75000000  1.0
  Ba  Ba6  1  1.00699698  1.01399396  0.25699698  1.0
  Ba  Ba7  1  1.49300302  0.75000000  1.00699698  1.0
  Ba  Ba8  1  1.00699698  1.49300302  0.75000000  1.0
  Ba  Ba9  1  1.49300302  1.24300302  1.48600604  1.0
  Ba  Ba10  1  0.24300302  0.48600604  0.49300302  1.0
  Ba  Ba11  1  1.25699698  0.75000000  1.24300302  1.0
  Sb  Sb12  1  1.50000000  1.00000000  1.25000000  1.0
  Sb  Sb13  1  1.00000000  1.25000000  0.50000000  1.0
  Sb  Sb14  1  0.25000000  0.25000000  0.25000000  1.0
  Sb  Sb15  1  1.25000000  0.50000000  1.00000000  1.0
  I  I16  1  0.49501512  0.49750756  0.74750756  1.0
  I  I17  1  1.00498488  0.75249244  1.00249244  1.0
  I  I18  1  1.25000000  0.74750756  0.75249244  1.0
  I  I19  1  1.25000000  1.00249244  0.49750756  1.0
  I  I20  1  1.00249244  1.49750756  1.25000000  1.0
  I  I21  1  1.49750756  1.74750756  1.49501512  1.0
  I  I22  1  0.75249244  0.25000000  0.74750756  1.0
  I  I23  1  0.74750756  0.49501512  0.49750756  1.0
  I  I24  1  1.00249244  1.00498488  0.75249244  1.0
  I  I25  1  1.49750756  1.25000000  1.00249244  1.0
  I  I26  1  0.74750756  0.75249244  0.25000000  1.0
  I  I27  1  1.75249244  1.00249244  1.00498488  1.0
