# generated using pymatgen
data_CsHf2(PO4)3
_symmetry_space_group_name_H-M   'P 1'
_cell_length_a   9.73518901
_cell_length_b   9.73518901
_cell_length_c   9.73518901
_cell_angle_alpha   52.91618583
_cell_angle_beta   52.91618583
_cell_angle_gamma   52.91618583
_symmetry_Int_Tables_number   1
_chemical_formula_structural   CsHf2(PO4)3
_chemical_formula_sum   'Cs2 Hf4 P6 O24'
_cell_volume   544.05397569
_cell_formula_units_Z   2
loop_
 _symmetry_equiv_pos_site_id
 _symmetry_equiv_pos_as_xyz
  1  'x, y, z'
loop_
 _atom_site_type_symbol
 _atom_site_label
 _atom_site_symmetry_multiplicity
 _atom_site_fract_x
 _atom_site_fract_y
 _atom_site_fract_z
 _atom_site_occupancy
  Cs  Cs0  1  1.00000000  -0.00000000  -0.00000000  1.0
  Cs  Cs1  1  0.50000000  0.50000000  0.50000000  1.0
  Hf  Hf2  1  0.84726403  -0.15273597  -0.15273597  1.0
  Hf  Hf3  1  0.34726403  0.34726403  0.34726403  1.0
  Hf  Hf4  1  0.65273597  0.65273597  -0.34726403  1.0
  Hf  Hf5  1  1.15273597  0.15273597  0.15273597  1.0
  P  P6  1  0.46739640  0.75000000  0.03260360  1.0
  P  P7  1  0.96739640  -0.46739640  0.25000000  1.0
  P  P8  1  0.25000000  0.96739640  -0.46739640  1.0
  P  P9  1  0.75000000  1.03260360  -0.53260360  1.0
  P  P10  1  0.53260360  0.25000000  -0.03260360  1.0
  P  P11  1  1.03260360  0.46739640  -0.25000000  1.0
  O  O12  1  0.73339960  1.01390381  -0.35383302  1.0
  O  O13  1  1.23339960  0.14616698  -0.48609619  1.0
  O  O14  1  0.85383302  0.48609619  -0.23339960  1.0
  O  O15  1  0.35383302  0.26660040  -0.01390381  1.0
  O  O16  1  0.98609619  0.35383302  -0.73339960  1.0
  O  O17  1  0.48609619  0.76660040  -0.14616698  1.0
  O  O18  1  0.26660040  0.98609619  -0.64616698  1.0
  O  O19  1  0.76660040  0.85383302  -0.51390381  1.0
  O  O20  1  0.64616698  0.73339960  0.01390381  1.0
  O  O21  1  1.14616698  -0.48609619  0.23339960  1.0
  O  O22  1  0.51390381  0.23339960  0.14616698  1.0
  O  O23  1  1.01390381  0.64616698  -0.26660040  1.0
  O  O24  1  0.69373333  0.07407979  -0.07648150  1.0
  O  O25  1  1.19373333  0.42351850  -0.42592021  1.0
  O  O26  1  0.57648150  0.42592021  -0.19373333  1.0
  O  O27  1  1.07648150  0.30626667  -0.07407979  1.0
  O  O28  1  0.92592021  0.07648150  0.30626667  1.0
  O  O29  1  0.42592021  0.80626667  -0.42351850  1.0
  O  O30  1  1.30626667  -0.07407979  0.07648150  1.0
  O  O31  1  0.80626667  0.57648150  -0.57407979  1.0
  O  O32  1  0.92351850  -0.30626667  0.07407979  1.0
  O  O33  1  0.42351850  0.57407979  0.19373333  1.0
  O  O34  1  0.57407979  1.19373333  -0.57648150  1.0
  O  O35  1  1.07407979  -0.07648150  -0.30626667  1.0
