# generated using pymatgen
data_GdBe13
_symmetry_space_group_name_H-M   'P 1'
_cell_length_a   7.21732286
_cell_length_b   7.21732286
_cell_length_c   7.21732286
_cell_angle_alpha   60.00000000
_cell_angle_beta   60.00000000
_cell_angle_gamma   60.00000000
_symmetry_Int_Tables_number   1
_chemical_formula_structural   GdBe13
_chemical_formula_sum   'Gd2 Be26'
_cell_volume   265.83576059
_cell_formula_units_Z   2
loop_
 _symmetry_equiv_pos_site_id
 _symmetry_equiv_pos_as_xyz
  1  'x, y, z'
loop_
 _atom_site_type_symbol
 _atom_site_label
 _atom_site_symmetry_multiplicity
 _atom_site_fract_x
 _atom_site_fract_y
 _atom_site_fract_z
 _atom_site_occupancy
  Gd  Gd0  1  0.25000000  0.25000000  0.25000000  1.0
  Gd  Gd1  1  0.75000000  -0.25000000  0.75000000  1.0
  Be  Be2  1  1.21009559  -0.56274198  0.56274198  1.0
  Be  Be3  1  0.56274198  -0.21009559  1.21009559  1.0
  Be  Be4  1  0.71009559  0.06274198  0.93725802  1.0
  Be  Be5  1  0.93725802  -0.71009559  0.71009559  1.0
  Be  Be6  1  0.43725802  0.21009559  -0.21009559  1.0
  Be  Be7  1  -0.21009559  0.56274198  0.43725802  1.0
  Be  Be8  1  0.06274198  0.71009559  0.28990441  1.0
  Be  Be9  1  0.28990441  -0.06274198  0.06274198  1.0
  Be  Be10  1  -0.06274198  0.71009559  0.06274198  1.0
  Be  Be11  1  -0.71009559  1.06274198  0.71009559  1.0
  Be  Be12  1  0.43725802  0.56274198  0.21009559  1.0
  Be  Be13  1  0.78990441  0.21009559  0.56274198  1.0
  Be  Be14  1  -0.43725802  1.21009559  0.43725802  1.0
  Be  Be15  1  -0.21009559  0.43725802  0.21009559  1.0
  Be  Be16  1  1.06274198  -0.06274198  0.71009559  1.0
  Be  Be17  1  0.28990441  0.71009559  -0.06274198  1.0
  Be  Be18  1  -0.28990441  0.93725802  0.28990441  1.0
  Be  Be19  1  0.06274198  0.28990441  -0.06274198  1.0
  Be  Be20  1  0.21009559  0.78990441  0.43725802  1.0
  Be  Be21  1  0.56274198  0.43725802  0.78990441  1.0
  Be  Be22  1  0.21009559  0.56274198  -0.21009559  1.0
  Be  Be23  1  -0.56274198  0.78990441  0.56274198  1.0
  Be  Be24  1  0.71009559  0.28990441  1.06274198  1.0
  Be  Be25  1  -0.06274198  1.06274198  0.28990441  1.0
  Be  Be26  1  0.50000000  0.50000000  -0.50000000  1.0
  Be  Be27  1  0.00000000  1.00000000  0.00000000  1.0
