# generated using pymatgen
data_CsLi2Cl3
_symmetry_space_group_name_H-M   'P 1'
_cell_length_a   12.66295158
_cell_length_b   7.49781067
_cell_length_c   6.88147034
_cell_angle_alpha   90.00000000
_cell_angle_beta   90.00000000
_cell_angle_gamma   90.00000000
_symmetry_Int_Tables_number   1
_chemical_formula_structural   CsLi2Cl3
_chemical_formula_sum   'Cs4 Li8 Cl12'
_cell_volume   653.35716511
_cell_formula_units_Z   4
loop_
 _symmetry_equiv_pos_site_id
 _symmetry_equiv_pos_as_xyz
  1  'x, y, z'
loop_
 _atom_site_type_symbol
 _atom_site_label
 _atom_site_symmetry_multiplicity
 _atom_site_fract_x
 _atom_site_fract_y
 _atom_site_fract_z
 _atom_site_occupancy
  Cs  Cs0  1  0.00000000  0.29950893  0.75000000  1.0
  Cs  Cs1  1  0.00000000  0.70049107  0.25000000  1.0
  Cs  Cs2  1  0.50000000  0.79950893  0.75000000  1.0
  Cs  Cs3  1  0.50000000  0.20049107  0.25000000  1.0
  Li  Li4  1  0.81548233  0.85043832  0.74767757  1.0
  Li  Li5  1  0.81548233  0.14956168  0.24767757  1.0
  Li  Li6  1  0.31548233  0.35043832  0.75232243  1.0
  Li  Li7  1  0.31548233  0.64956168  0.25232243  1.0
  Li  Li8  1  0.18451767  0.85043832  0.75232243  1.0
  Li  Li9  1  0.18451767  0.14956168  0.25232243  1.0
  Li  Li10  1  0.68451767  0.35043832  0.74767757  1.0
  Li  Li11  1  0.68451767  0.64956168  0.24767757  1.0
  Cl  Cl12  1  0.74405293  0.60679774  0.57274902  1.0
  Cl  Cl13  1  0.74405293  0.39320226  0.07274902  1.0
  Cl  Cl14  1  0.24405293  0.10679774  0.92725098  1.0
  Cl  Cl15  1  0.24405293  0.89320226  0.42725098  1.0
  Cl  Cl16  1  0.25594707  0.60679774  0.92725098  1.0
  Cl  Cl17  1  0.25594707  0.39320226  0.42725098  1.0
  Cl  Cl18  1  0.75594707  0.10679774  0.57274902  1.0
  Cl  Cl19  1  0.75594707  0.89320226  0.07274902  1.0
  Cl  Cl20  1  0.00000000  0.80503515  0.75000000  1.0
  Cl  Cl21  1  0.00000000  0.19496485  0.25000000  1.0
  Cl  Cl22  1  0.50000000  0.30503515  0.75000000  1.0
  Cl  Cl23  1  0.50000000  0.69496485  0.25000000  1.0
