# generated using pymatgen
data_BiSI
_symmetry_space_group_name_H-M   'P 1'
_cell_length_a   8.83973269
_cell_length_b   4.18996402
_cell_length_c   11.11528828
_cell_angle_alpha   90.00000000
_cell_angle_beta   90.00000000
_cell_angle_gamma   90.00000000
_symmetry_Int_Tables_number   1
_chemical_formula_structural   BiSI
_chemical_formula_sum   'Bi4 S4 I4'
_cell_volume   411.68984644
_cell_formula_units_Z   4
loop_
 _symmetry_equiv_pos_site_id
 _symmetry_equiv_pos_as_xyz
  1  'x, y, z'
loop_
 _atom_site_type_symbol
 _atom_site_label
 _atom_site_symmetry_multiplicity
 _atom_site_fract_x
 _atom_site_fract_y
 _atom_site_fract_z
 _atom_site_occupancy
  Bi  Bi0  1  0.89003928  0.75000000  0.12414333  1.0
  Bi  Bi1  1  0.39003928  0.75000000  0.37585667  1.0
  Bi  Bi2  1  0.10996072  0.25000000  0.87585667  1.0
  Bi  Bi3  1  0.60996072  0.25000000  0.62414333  1.0
  S  S4  1  0.66277605  0.75000000  0.46575839  1.0
  S  S5  1  0.16277605  0.75000000  0.03424161  1.0
  S  S6  1  0.33722395  0.25000000  0.53424161  1.0
  S  S7  1  0.83722395  0.25000000  0.96575839  1.0
  I  I8  1  0.97110294  0.75000000  0.68501757  1.0
  I  I9  1  0.47110294  0.75000000  0.81498243  1.0
  I  I10  1  0.02889706  0.25000000  0.31498243  1.0
  I  I11  1  0.52889706  0.25000000  0.18501757  1.0
