# generated using pymatgen
data_SnB4O7
_symmetry_space_group_name_H-M   'P 1'
_cell_length_a   10.96292700
_cell_length_b   4.48744147
_cell_length_c   4.27349738
_cell_angle_alpha   90.00000000
_cell_angle_beta   90.00000000
_cell_angle_gamma   90.00000000
_symmetry_Int_Tables_number   1
_chemical_formula_structural   SnB4O7
_chemical_formula_sum   'Sn2 B8 O14'
_cell_volume   210.23681163
_cell_formula_units_Z   2
loop_
 _symmetry_equiv_pos_site_id
 _symmetry_equiv_pos_as_xyz
  1  'x, y, z'
loop_
 _atom_site_type_symbol
 _atom_site_label
 _atom_site_symmetry_multiplicity
 _atom_site_fract_x
 _atom_site_fract_y
 _atom_site_fract_z
 _atom_site_occupancy
  Sn  Sn0  1  0.50000000  0.33477628  0.50183299  1.0
  Sn  Sn1  1  0.00000000  0.66522372  0.00183299  1.0
  B  B2  1  0.24884591  0.32401466  0.07867293  1.0
  B  B3  1  0.74884591  0.67598534  0.57867293  1.0
  B  B4  1  0.75115409  0.32401466  0.07867293  1.0
  B  B5  1  0.25115409  0.67598534  0.57867293  1.0
  B  B6  1  0.12264558  0.17201023  0.54794344  1.0
  B  B7  1  0.62264558  0.82798977  0.04794344  1.0
  B  B8  1  0.87735442  0.17201023  0.54794344  1.0
  B  B9  1  0.37735442  0.82798977  0.04794344  1.0
  O  O10  1  0.35581081  0.13983196  0.12454037  1.0
  O  O11  1  0.85581081  0.86016804  0.62454037  1.0
  O  O12  1  0.64418919  0.13983196  0.12454037  1.0
  O  O13  1  0.14418919  0.86016804  0.62454037  1.0
  O  O14  1  0.28206513  0.62724641  0.22501971  1.0
  O  O15  1  0.78206513  0.37275359  0.72501971  1.0
  O  O16  1  0.71793487  0.62724641  0.22501971  1.0
  O  O17  1  0.21793487  0.37275359  0.72501971  1.0
  O  O18  1  0.13768161  0.23147912  0.21903376  1.0
  O  O19  1  0.63768161  0.76852088  0.71903376  1.0
  O  O20  1  0.86231839  0.23147912  0.21903376  1.0
  O  O21  1  0.36231839  0.76852088  0.71903376  1.0
  O  O22  1  0.50000000  0.73595511  0.15594659  1.0
  O  O23  1  0.00000000  0.26404489  0.65594659  1.0
