# generated using pymatgen
data_CuH8C4(NO4)2
_symmetry_space_group_name_H-M   'P 1'
_cell_length_a   4.95058378
_cell_length_b   13.42628420
_cell_length_c   7.70896858
_cell_angle_alpha   90.00000000
_cell_angle_beta   101.76001888
_cell_angle_gamma   90.00000000
_symmetry_Int_Tables_number   1
_chemical_formula_structural   CuH8C4(NO4)2
_chemical_formula_sum   'Cu2 H16 C8 N4 O16'
_cell_volume   501.64395934
_cell_formula_units_Z   2
loop_
 _symmetry_equiv_pos_site_id
 _symmetry_equiv_pos_as_xyz
  1  'x, y, z'
loop_
 _atom_site_type_symbol
 _atom_site_label
 _atom_site_symmetry_multiplicity
 _atom_site_fract_x
 _atom_site_fract_y
 _atom_site_fract_z
 _atom_site_occupancy
  Cu  Cu0  1  0.00000000  0.50000000  0.00000000  1.0
  Cu  Cu1  1  -0.00000000  0.00000000  0.50000000  1.0
  H  H2  1  0.80816845  0.32904113  0.68046091  1.0
  H  H3  1  0.19183155  0.82904113  0.81953909  1.0
  H  H4  1  0.19183154  0.67095887  0.31953909  1.0
  H  H5  1  0.80816846  0.17095887  0.18046091  1.0
  H  H6  1  0.02160944  0.25418047  0.59248902  1.0
  H  H7  1  0.97839056  0.75418047  0.90751098  1.0
  H  H8  1  0.97839056  0.74581953  0.40751098  1.0
  H  H9  1  0.02160944  0.24581953  0.09248902  1.0
  H  H10  1  0.07705339  0.38029746  0.61031262  1.0
  H  H11  1  0.92294661  0.88029746  0.88968738  1.0
  H  H12  1  0.92294661  0.61970254  0.38968738  1.0
  H  H13  1  0.07705339  0.11970254  0.11031262  1.0
  H  H14  1  0.79983438  0.33291263  0.46162450  1.0
  H  H15  1  0.20016562  0.83291263  0.03837550  1.0
  H  H16  1  0.20016562  0.66708737  0.53837550  1.0
  H  H17  1  0.79983438  0.16708737  0.96162450  1.0
  C  C18  1  0.49135338  0.49188228  0.23621401  1.0
  C  C19  1  0.50864662  0.99188228  0.26378599  1.0
  C  C20  1  0.50864662  0.50811772  0.76378599  1.0
  C  C21  1  0.49135338  0.00811772  0.73621401  1.0
  C  C22  1  0.39998748  0.38199405  0.19458909  1.0
  C  C23  1  0.60001252  0.88199405  0.30541091  1.0
  C  C24  1  0.60001252  0.61800595  0.80541091  1.0
  C  C25  1  0.39998748  0.11800595  0.69458909  1.0
  N  N26  1  0.92864539  0.32398100  0.58650610  1.0
  N  N27  1  0.07135461  0.82398100  0.91349390  1.0
  N  N28  1  0.07135461  0.67601900  0.41349390  1.0
  N  N29  1  0.92864539  0.17601900  0.08650610  1.0
  O  O30  1  0.32084241  0.55822664  0.15671616  1.0
  O  O31  1  0.67915759  0.05822664  0.34328384  1.0
  O  O32  1  0.67915759  0.44177336  0.84328384  1.0
  O  O33  1  0.32084241  0.94177336  0.65671616  1.0
  O  O34  1  0.16596116  0.37193643  0.08451529  1.0
  O  O35  1  0.83403884  0.87193643  0.41548471  1.0
  O  O36  1  0.83403884  0.62806357  0.91548471  1.0
  O  O37  1  0.16596116  0.12806357  0.58451529  1.0
  O  O38  1  0.71388449  0.50907966  0.33904033  1.0
  O  O39  1  0.28611551  1.00907966  0.16095967  1.0
  O  O40  1  0.28611551  0.49092034  0.66095967  1.0
  O  O41  1  0.71388449  -0.00907966  0.83904033  1.0
  O  O42  1  0.54381871  0.31180630  0.26533414  1.0
  O  O43  1  0.45618129  0.81180630  0.23466586  1.0
  O  O44  1  0.45618129  0.68819370  0.73466586  1.0
  O  O45  1  0.54381871  0.18819370  0.76533414  1.0
