# generated using pymatgen
data_H4C4N(OF)2
_symmetry_space_group_name_H-M   'P 1'
_cell_length_a   10.28750862
_cell_length_b   10.28750862
_cell_length_c   4.42301007
_cell_angle_alpha   92.86675290
_cell_angle_beta   87.13324710
_cell_angle_gamma   39.93633116
_symmetry_Int_Tables_number   1
_chemical_formula_structural   H4C4N(OF)2
_chemical_formula_sum   'H8 C8 N2 O4 F4'
_cell_volume   297.25002894
_cell_formula_units_Z   2
loop_
 _symmetry_equiv_pos_site_id
 _symmetry_equiv_pos_as_xyz
  1  'x, y, z'
loop_
 _atom_site_type_symbol
 _atom_site_label
 _atom_site_symmetry_multiplicity
 _atom_site_fract_x
 _atom_site_fract_y
 _atom_site_fract_z
 _atom_site_occupancy
  H  H0  1  0.56620853  -0.20654410  0.60929469  1.0
  H  H1  1  1.20654410  -0.56620853  0.60929469  1.0
  H  H2  1  0.79345590  -0.43379147  0.39070531  1.0
  H  H3  1  0.43379147  0.20654410  0.39070531  1.0
  H  H4  1  0.30964646  0.20683255  0.65861842  1.0
  H  H5  1  0.79316745  -0.30964646  0.65861842  1.0
  H  H6  1  1.20683255  -0.69035354  0.34138158  1.0
  H  H7  1  0.69035354  -0.20683255  0.34138158  1.0
  C  C8  1  0.81389239  0.11409197  0.90569188  1.0
  C  C9  1  0.88590803  -0.81389239  0.90569188  1.0
  C  C10  1  1.11409197  -0.18610761  0.09430812  1.0
  C  C11  1  0.18610761  -0.11409197  0.09430812  1.0
  C  C12  1  0.92633044  -0.07366956  -0.00000000  1.0
  C  C13  1  0.07366956  0.07366956  0.00000000  1.0
  C  C14  1  0.84768066  -0.15231934  -0.00000000  1.0
  C  C15  1  0.15231934  0.15231934  -0.00000000  1.0
  N  N16  1  0.70885105  -0.29114895  0.50000000  1.0
  N  N17  1  0.29114895  0.29114895  0.50000000  1.0
  O  O18  1  0.31707286  0.04712773  0.82851968  1.0
  O  O19  1  0.95287227  -0.31707286  0.82851968  1.0
  O  O20  1  1.04712773  -0.68292714  0.17148032  1.0
  O  O21  1  0.68292714  -0.04712773  0.17148032  1.0
  F  F22  1  0.63163640  0.22897847  0.80604129  1.0
  F  F23  1  0.77102153  -0.63163640  0.80604129  1.0
  F  F24  1  1.22897847  -0.36836360  0.19395871  1.0
  F  F25  1  0.36836360  -0.22897847  0.19395871  1.0
