# generated using pymatgen
data_Na2CrCuF7
_symmetry_space_group_name_H-M   'P 1'
_cell_length_a   10.50542490
_cell_length_b   7.25000057
_cell_length_c   7.60504000
_cell_angle_alpha   90.00000000
_cell_angle_beta   90.00000000
_cell_angle_gamma   90.00000000
_symmetry_Int_Tables_number   1
_chemical_formula_structural   Na2CrCuF7
_chemical_formula_sum   'Na8 Cr4 Cu4 F28'
_cell_volume   579.23282572
_cell_formula_units_Z   4
loop_
 _symmetry_equiv_pos_site_id
 _symmetry_equiv_pos_as_xyz
  1  'x, y, z'
loop_
 _atom_site_type_symbol
 _atom_site_label
 _atom_site_symmetry_multiplicity
 _atom_site_fract_x
 _atom_site_fract_y
 _atom_site_fract_z
 _atom_site_occupancy
  Na  Na0  1  0.26482581  0.75000000  0.27483047  1.0
  Na  Na1  1  0.76482581  0.75000000  0.22516953  1.0
  Na  Na2  1  0.73517419  0.25000000  0.72516953  1.0
  Na  Na3  1  0.23517419  0.25000000  0.77483047  1.0
  Na  Na4  1  0.50000000  0.00000000  0.00000000  1.0
  Na  Na5  1  0.50000000  0.50000000  0.00000000  1.0
  Na  Na6  1  0.00000000  0.00000000  0.50000000  1.0
  Na  Na7  1  0.00000000  0.50000000  0.50000000  1.0
  Cr  Cr8  1  0.26635553  0.75000000  0.77063405  1.0
  Cr  Cr9  1  0.76635553  0.75000000  0.72936595  1.0
  Cr  Cr10  1  0.73364447  0.25000000  0.22936595  1.0
  Cr  Cr11  1  0.23364447  0.25000000  0.27063405  1.0
  Cu  Cu12  1  0.50000000  0.00000000  0.50000000  1.0
  Cu  Cu13  1  0.50000000  0.50000000  0.50000000  1.0
  Cu  Cu14  1  0.00000000  0.00000000  0.00000000  1.0
  Cu  Cu15  1  0.00000000  0.50000000  0.00000000  1.0
  F  F16  1  0.38244628  0.94672812  0.71616703  1.0
  F  F17  1  0.38244628  0.55327188  0.71616703  1.0
  F  F18  1  0.88244628  0.94672812  0.78383297  1.0
  F  F19  1  0.88244628  0.55327188  0.78383297  1.0
  F  F20  1  0.61755372  0.44672812  0.28383297  1.0
  F  F21  1  0.61755372  0.05327188  0.28383297  1.0
  F  F22  1  0.11755372  0.44672812  0.21616703  1.0
  F  F23  1  0.11755372  0.05327188  0.21616703  1.0
  F  F24  1  0.15522744  0.94346696  0.83753515  1.0
  F  F25  1  0.15522744  0.55653304  0.83753515  1.0
  F  F26  1  0.65522744  0.94346696  0.66246485  1.0
  F  F27  1  0.65522744  0.55653304  0.66246485  1.0
  F  F28  1  0.84477256  0.44346696  0.16246485  1.0
  F  F29  1  0.84477256  0.05653304  0.16246485  1.0
  F  F30  1  0.34477256  0.44346696  0.33753515  1.0
  F  F31  1  0.34477256  0.05653304  0.33753515  1.0
  F  F32  1  0.35169532  0.75000000  -0.00017323  1.0
  F  F33  1  0.85169532  0.75000000  0.50017323  1.0
  F  F34  1  0.64830468  0.25000000  1.00017323  1.0
  F  F35  1  0.14830468  0.25000000  0.49982677  1.0
  F  F36  1  0.17788739  0.75000000  0.54795539  1.0
  F  F37  1  0.67788739  0.75000000  0.95204461  1.0
  F  F38  1  0.82211261  0.25000000  0.45204461  1.0
  F  F39  1  0.32211261  0.25000000  0.04795539  1.0
  F  F40  1  0.98413246  0.75000000  0.09193089  1.0
  F  F41  1  0.48413246  0.75000000  0.40806911  1.0
  F  F42  1  0.01586754  0.25000000  0.90806911  1.0
  F  F43  1  0.51586754  0.25000000  0.59193089  1.0
