# generated using pymatgen
data_NaZnF3
_symmetry_space_group_name_H-M   'P 1'
_cell_length_a   5.38140630
_cell_length_b   5.38140630
_cell_length_c   7.55385749
_cell_angle_alpha   90.00000000
_cell_angle_beta   90.00000000
_cell_angle_gamma   146.50041988
_symmetry_Int_Tables_number   1
_chemical_formula_structural   NaZnF3
_chemical_formula_sum   'Na2 Zn2 F6'
_cell_volume   120.73829585
_cell_formula_units_Z   2
loop_
 _symmetry_equiv_pos_site_id
 _symmetry_equiv_pos_as_xyz
  1  'x, y, z'
loop_
 _atom_site_type_symbol
 _atom_site_label
 _atom_site_symmetry_multiplicity
 _atom_site_fract_x
 _atom_site_fract_y
 _atom_site_fract_z
 _atom_site_occupancy
  Na  Na0  1  -0.25541379  0.25541379  0.75000000  1.0
  Na  Na1  1  0.25541379  0.74458621  0.25000000  1.0
  Zn  Zn2  1  0.00000000  0.00000000  0.00000000  1.0
  Zn  Zn3  1  0.00000000  0.00000000  0.50000000  1.0
  F  F4  1  0.37145507  0.62854493  0.94107193  1.0
  F  F5  1  0.37145507  0.62854493  0.55892807  1.0
  F  F6  1  -0.37145507  0.37145507  0.44107193  1.0
  F  F7  1  -0.37145507  0.37145507  0.05892807  1.0
  F  F8  1  0.07722937  0.92277063  0.75000000  1.0
  F  F9  1  -0.07722937  0.07722937  0.25000000  1.0
