# generated using pymatgen
data_Ba2SrTeO6
_symmetry_space_group_name_H-M   'P 1'
_cell_length_a   6.14031702
_cell_length_b   6.14031702
_cell_length_c   6.14031702
_cell_angle_alpha   60.95359183
_cell_angle_beta   60.95359183
_cell_angle_gamma   60.95359183
_symmetry_Int_Tables_number   1
_chemical_formula_structural   Ba2SrTeO6
_chemical_formula_sum   'Ba2 Sr1 Te1 O6'
_cell_volume   167.22065484
_cell_formula_units_Z   1
loop_
 _symmetry_equiv_pos_site_id
 _symmetry_equiv_pos_as_xyz
  1  'x, y, z'
loop_
 _atom_site_type_symbol
 _atom_site_label
 _atom_site_symmetry_multiplicity
 _atom_site_fract_x
 _atom_site_fract_y
 _atom_site_fract_z
 _atom_site_occupancy
  Ba  Ba0  1  0.75291108  0.75291108  -0.24708892  1.0
  Ba  Ba1  1  1.24708892  1.24708892  0.24708892  1.0
  Sr  Sr2  1  0.50000000  0.50000000  -0.50000000  1.0
  Te  Te3  1  0.00000000  0.00000000  0.00000000  1.0
  O  O4  1  0.83331956  -0.28471221  0.21893338  1.0
  O  O5  1  0.28471221  0.78106662  -0.83331956  1.0
  O  O6  1  0.78106662  0.16668044  -0.71528779  1.0
  O  O7  1  0.16668044  0.28471221  -0.21893338  1.0
  O  O8  1  0.71528779  0.21893338  -0.16668044  1.0
  O  O9  1  1.21893338  -0.16668044  -0.28471221  1.0
