# generated using pymatgen
data_K2Zr2O5
_symmetry_space_group_name_H-M   'P 1'
_cell_length_a   5.89435016
_cell_length_b   10.83727954
_cell_length_c   8.83669912
_cell_angle_alpha   90.00000000
_cell_angle_beta   90.00000000
_cell_angle_gamma   90.00000000
_symmetry_Int_Tables_number   1
_chemical_formula_structural   K2Zr2O5
_chemical_formula_sum   'K8 Zr8 O20'
_cell_volume   564.47703179
_cell_formula_units_Z   4
loop_
 _symmetry_equiv_pos_site_id
 _symmetry_equiv_pos_as_xyz
  1  'x, y, z'
loop_
 _atom_site_type_symbol
 _atom_site_label
 _atom_site_symmetry_multiplicity
 _atom_site_fract_x
 _atom_site_fract_y
 _atom_site_fract_z
 _atom_site_occupancy
  K  K0  1  0.56393744  0.33371448  0.07820538  1.0
  K  K1  1  0.56393744  0.16628552  0.42179462  1.0
  K  K2  1  0.06393744  0.33371448  0.92179462  1.0
  K  K3  1  0.06393744  0.16628552  0.57820538  1.0
  K  K4  1  0.43606256  0.83371448  0.57820538  1.0
  K  K5  1  0.43606256  0.66628552  0.92179462  1.0
  K  K6  1  0.93606256  0.83371448  0.42179462  1.0
  K  K7  1  0.93606256  0.66628552  0.07820538  1.0
  Zr  Zr8  1  0.53156165  0.42343277  0.65912017  1.0
  Zr  Zr9  1  0.53156165  0.07656723  0.84087983  1.0
  Zr  Zr10  1  0.03156165  0.42343277  0.34087983  1.0
  Zr  Zr11  1  0.03156165  0.07656723  0.15912017  1.0
  Zr  Zr12  1  0.46843835  0.92343277  0.15912017  1.0
  Zr  Zr13  1  0.46843835  0.57656723  0.34087983  1.0
  Zr  Zr14  1  0.96843835  0.92343277  0.84087983  1.0
  Zr  Zr15  1  0.96843835  0.57656723  0.65912017  1.0
  O  O16  1  0.87334272  0.39330182  0.54983784  1.0
  O  O17  1  0.87334272  0.10669818  0.95016216  1.0
  O  O18  1  0.37334272  0.39330182  0.45016216  1.0
  O  O19  1  0.37334272  0.10669818  0.04983784  1.0
  O  O20  1  0.12665728  0.89330182  0.04983784  1.0
  O  O21  1  0.12665728  0.60669818  0.45016216  1.0
  O  O22  1  0.62665728  0.89330182  0.95016216  1.0
  O  O23  1  0.62665728  0.60669818  0.54983784  1.0
  O  O24  1  0.49335151  0.25000000  0.75000000  1.0
  O  O25  1  0.99335151  0.25000000  0.25000000  1.0
  O  O26  1  0.50664849  0.75000000  0.25000000  1.0
  O  O27  1  0.00664849  0.75000000  0.75000000  1.0
  O  O28  1  0.75000000  0.50000000  0.82178043  1.0
  O  O29  1  0.75000000  0.00000000  0.67821957  1.0
  O  O30  1  0.25000000  0.50000000  0.17821957  1.0
  O  O31  1  0.25000000  0.00000000  0.32178043  1.0
  O  O32  1  0.75000000  0.50000000  0.24600575  1.0
  O  O33  1  0.75000000  0.00000000  0.25399425  1.0
  O  O34  1  0.25000000  0.50000000  0.75399425  1.0
  O  O35  1  0.25000000  0.00000000  0.74600575  1.0
