# generated using pymatgen
data_PC4S4N4(ClF3)2
_symmetry_space_group_name_H-M   'P 1'
_cell_length_a   9.06361378
_cell_length_b   9.06361378
_cell_length_c   11.06145303
_cell_angle_alpha   73.23240335
_cell_angle_beta   106.76759665
_cell_angle_gamma   88.34601601
_symmetry_Int_Tables_number   1
_chemical_formula_structural   PC4S4N4(ClF3)2
_chemical_formula_sum   'P2 C8 S8 N8 Cl4 F12'
_cell_volume   826.81109593
_cell_formula_units_Z   2
loop_
 _symmetry_equiv_pos_site_id
 _symmetry_equiv_pos_as_xyz
  1  'x, y, z'
loop_
 _atom_site_type_symbol
 _atom_site_label
 _atom_site_symmetry_multiplicity
 _atom_site_fract_x
 _atom_site_fract_y
 _atom_site_fract_z
 _atom_site_occupancy
  F  F0  1  1.29519461  0.04655516  0.38445448  1.0
  F  F1  1  0.70480539  -0.04655516  0.61554552  1.0
  F  F2  1  1.04655516  0.29519461  0.11554552  1.0
  F  F3  1  0.95344484  -0.29519461  0.88445448  1.0
  F  F4  1  1.13252037  0.03038718  0.18370101  1.0
  F  F5  1  0.86747963  -0.03038718  0.81629899  1.0
  F  F6  1  1.03038718  0.13252037  0.31629899  1.0
  F  F7  1  0.96961282  -0.13252037  0.68370101  1.0
  F  F8  1  1.31133474  0.20875233  0.18369366  1.0
  F  F9  1  0.68866526  -0.20875233  0.81630634  1.0
  F  F10  1  1.20875233  0.31133474  0.31630634  1.0
  F  F11  1  0.79124767  -0.31133474  0.68369366  1.0
  P  P12  1  1.17131212  0.17131212  0.25000000  1.0
  P  P13  1  0.82868788  -0.17131212  0.75000000  1.0
  Cl  Cl14  1  0.59032143  -0.22369809  0.35940047  1.0
  Cl  Cl15  1  1.40967857  0.22369809  0.64059953  1.0
  Cl  Cl16  1  0.77630191  -0.40967857  0.14059953  1.0
  Cl  Cl17  1  1.22369809  0.40967857  0.85940047  1.0
  N  N18  1  0.33571611  -0.32730545  0.25085905  1.0
  N  N19  1  1.66428389  0.32730545  0.74914095  1.0
  N  N20  1  0.67269455  -0.66428389  0.24914095  1.0
  N  N21  1  1.32730545  0.66428389  0.75085905  1.0
  N  N22  1  0.51878437  -0.03819615  0.06402895  1.0
  N  N23  1  1.48121563  0.03819615  0.93597105  1.0
  N  N24  1  0.96180385  -0.48121563  0.43597105  1.0
  N  N25  1  1.03819615  0.48121563  0.56402895  1.0
  C  C26  1  0.43720215  -0.23124923  0.22901363  1.0
  C  C27  1  1.56279785  0.23124923  0.77098637  1.0
  C  C28  1  0.76875077  -0.56279785  0.27098637  1.0
  C  C29  1  1.23124923  0.56279785  0.72901363  1.0
  C  C30  1  0.41776192  -0.13452151  0.09554433  1.0
  C  C31  1  1.58223808  0.13452151  0.90445567  1.0
  C  C32  1  0.86547849  -0.58223808  0.40445567  1.0
  C  C33  1  1.13452151  0.58223808  0.59554433  1.0
  S  S34  1  1.19281114  0.67458078  0.12258021  1.0
  S  S35  1  0.80718886  -0.67458078  0.87741979  1.0
  S  S36  1  1.67458078  0.19281114  0.37741979  1.0
  S  S37  1  0.32541922  -0.19281114  0.62258021  1.0
  S  S38  1  0.25119580  -0.15657520  0.97872388  1.0
  S  S39  1  1.74880420  0.15657520  0.02127612  1.0
  S  S40  1  0.84342480  -0.74880420  0.52127612  1.0
  S  S41  1  1.15657520  0.74880420  0.47872388  1.0
