# generated using pymatgen
data_La3MoO7
_symmetry_space_group_name_H-M   'P 1'
_cell_length_a   6.76331471
_cell_length_b   6.76331471
_cell_length_c   7.77949811
_cell_angle_alpha   90.00000000
_cell_angle_beta   90.00000000
_cell_angle_gamma   68.19576845
_symmetry_Int_Tables_number   1
_chemical_formula_structural   La3MoO7
_chemical_formula_sum   'La6 Mo2 O14'
_cell_volume   330.39481366
_cell_formula_units_Z   2
loop_
 _symmetry_equiv_pos_site_id
 _symmetry_equiv_pos_as_xyz
  1  'x, y, z'
loop_
 _atom_site_type_symbol
 _atom_site_label
 _atom_site_symmetry_multiplicity
 _atom_site_fract_x
 _atom_site_fract_y
 _atom_site_fract_z
 _atom_site_occupancy
  La  La0  1  0.07932342  0.47238566  0.25000000  1.0
  La  La1  1  -0.52761434  1.07932342  0.75000000  1.0
  La  La2  1  0.52761434  0.92067658  0.25000000  1.0
  La  La3  1  -0.07932342  1.52761434  0.75000000  1.0
  La  La4  1  0.00000000  0.00000000  0.50000000  1.0
  La  La5  1  0.00000000  0.00000000  0.00000000  1.0
  Mo  Mo6  1  0.50000000  0.50000000  0.50000000  1.0
  Mo  Mo7  1  0.50000000  0.50000000  0.00000000  1.0
  O  O8  1  -0.19096897  1.43859969  0.46767262  1.0
  O  O9  1  -0.19096897  1.43859969  0.03232738  1.0
  O  O10  1  0.43859969  0.80903103  0.96767262  1.0
  O  O11  1  0.43859969  0.80903103  0.53232738  1.0
  O  O12  1  -0.43859969  1.19096897  0.46767262  1.0
  O  O13  1  -0.43859969  1.19096897  0.03232738  1.0
  O  O14  1  0.19096897  0.56140031  0.96767262  1.0
  O  O15  1  0.19096897  0.56140031  0.53232738  1.0
  O  O16  1  -0.10421563  1.84388404  0.25000000  1.0
  O  O17  1  0.84388404  0.89578437  0.75000000  1.0
  O  O18  1  -0.84388404  1.10421563  0.25000000  1.0
  O  O19  1  0.10421563  0.15611596  0.75000000  1.0
  O  O20  1  0.44695653  0.55304347  0.25000000  1.0
  O  O21  1  -0.44695653  1.44695653  0.75000000  1.0
