# generated using pymatgen
data_HfTe3
_symmetry_space_group_name_H-M   'P 1'
_cell_length_a   5.93646121
_cell_length_b   3.91925548
_cell_length_c   10.55675066
_cell_angle_alpha   90.00000000
_cell_angle_beta   96.96007153
_cell_angle_gamma   90.00000000
_symmetry_Int_Tables_number   1
_chemical_formula_structural   HfTe3
_chemical_formula_sum   'Hf2 Te6'
_cell_volume   243.80872123
_cell_formula_units_Z   2
loop_
 _symmetry_equiv_pos_site_id
 _symmetry_equiv_pos_as_xyz
  1  'x, y, z'
loop_
 _atom_site_type_symbol
 _atom_site_label
 _atom_site_symmetry_multiplicity
 _atom_site_fract_x
 _atom_site_fract_y
 _atom_site_fract_z
 _atom_site_occupancy
  Hf  Hf0  1  0.78504891  0.75000000  0.66282733  1.0
  Hf  Hf1  1  0.21495109  0.25000000  0.33717267  1.0
  Te  Te2  1  0.26126062  0.75000000  0.54964035  1.0
  Te  Te3  1  0.73873938  0.25000000  0.45035965  1.0
  Te  Te4  1  0.42268529  0.75000000  0.17661194  1.0
  Te  Te5  1  0.57731471  0.25000000  0.82338806  1.0
  Te  Te6  1  -0.06327284  0.75000000  0.17867479  1.0
  Te  Te7  1  1.06327284  0.25000000  0.82132521  1.0
