# generated using pymatgen
data_V3Sb2
_symmetry_space_group_name_H-M   'P 1'
_cell_length_a   7.55449199
_cell_length_b   7.55449199
_cell_length_c   7.55449199
_cell_angle_alpha   42.84815813
_cell_angle_beta   42.84815813
_cell_angle_gamma   42.84815813
_symmetry_Int_Tables_number   1
_chemical_formula_structural   V3Sb2
_chemical_formula_sum   'V6 Sb4'
_cell_volume   180.67313649
_cell_formula_units_Z   2
loop_
 _symmetry_equiv_pos_site_id
 _symmetry_equiv_pos_as_xyz
  1  'x, y, z'
loop_
 _atom_site_type_symbol
 _atom_site_label
 _atom_site_symmetry_multiplicity
 _atom_site_fract_x
 _atom_site_fract_y
 _atom_site_fract_z
 _atom_site_occupancy
  V  V0  1  1.40008653  0.40008653  0.86943587  1.0
  V  V1  1  1.40008653  0.86943587  0.40008653  1.0
  V  V2  1  1.13056413  0.59991347  0.59991347  1.0
  V  V3  1  1.59991347  0.13056413  0.59991347  1.0
  V  V4  1  1.59991347  0.59991347  0.13056413  1.0
  V  V5  1  1.86943587  0.40008653  0.40008653  1.0
  Sb  Sb6  1  0.88824411  0.88824411  0.88824411  1.0
  Sb  Sb7  1  1.11175589  1.11175589  0.11175589  1.0
  Sb  Sb8  1  0.66929034  0.66929034  0.66929034  1.0
  Sb  Sb9  1  1.33070966  1.33070966  0.33070966  1.0
