# generated using pymatgen
data_RbHfF5
_symmetry_space_group_name_H-M   'P 1'
_cell_length_a   7.88818185
_cell_length_b   8.02759046
_cell_length_c   8.03598254
_cell_angle_alpha   90.00000000
_cell_angle_beta   120.64608485
_cell_angle_gamma   90.00000000
_symmetry_Int_Tables_number   1
_chemical_formula_structural   RbHfF5
_chemical_formula_sum   'Rb4 Hf4 F20'
_cell_volume   437.79151543
_cell_formula_units_Z   4
loop_
 _symmetry_equiv_pos_site_id
 _symmetry_equiv_pos_as_xyz
  1  'x, y, z'
loop_
 _atom_site_type_symbol
 _atom_site_label
 _atom_site_symmetry_multiplicity
 _atom_site_fract_x
 _atom_site_fract_y
 _atom_site_fract_z
 _atom_site_occupancy
  Rb  Rb0  1  0.40714884  0.00013443  0.20357427  1.0
  Rb  Rb1  1  0.40714884  0.49986557  0.70357427  1.0
  Rb  Rb2  1  0.59285116  0.50013443  0.29642573  1.0
  Rb  Rb3  1  0.59285116  -0.00013443  0.79642573  1.0
  Hf  Hf4  1  -0.00026195  0.33945671  0.16115875  1.0
  Hf  Hf5  1  -0.00026195  0.16054329  0.66115875  1.0
  Hf  Hf6  1  0.00026195  0.83945671  0.33884125  1.0
  Hf  Hf7  1  0.00026195  0.66054329  0.83884125  1.0
  F  F8  1  -0.00044642  0.06240921  0.21075002  1.0
  F  F9  1  -0.00044642  0.43759079  0.71075002  1.0
  F  F10  1  1.00044642  0.56240921  0.28924998  1.0
  F  F11  1  1.00044642  0.93759079  0.78924998  1.0
  F  F12  1  0.99927098  0.28947302  0.43905220  1.0
  F  F13  1  0.99927098  0.21052698  0.93905220  1.0
  F  F14  1  0.00072902  0.78947302  0.06094780  1.0
  F  F15  1  0.00072902  0.71052698  0.56094780  1.0
  F  F16  1  0.82555105  0.99963436  0.41289355  1.0
  F  F17  1  0.82555105  0.50036564  0.91289355  1.0
  F  F18  1  0.17444895  0.49963436  0.08710645  1.0
  F  F19  1  0.17444895  0.00036564  0.58710645  1.0
  F  F20  1  0.71545658  0.29065680  0.07151831  1.0
  F  F21  1  0.71545658  0.20934320  0.57151831  1.0
  F  F22  1  0.28454342  0.79065680  0.42848169  1.0
  F  F23  1  0.28454342  0.70934320  0.92848169  1.0
  F  F24  1  0.28381399  0.29026119  0.35614668  1.0
  F  F25  1  0.28381399  0.20973881  0.85614668  1.0
  F  F26  1  0.71618601  0.79026119  0.14385332  1.0
  F  F27  1  0.71618601  0.70973881  0.64385332  1.0
