# generated using pymatgen
data_ZnO
_symmetry_space_group_name_H-M   'P 1'
_cell_length_a   8.18196392
_cell_length_b   8.18196392
_cell_length_c   8.18196392
_cell_angle_alpha   23.07705267
_cell_angle_beta   23.07705267
_cell_angle_gamma   23.07705267
_symmetry_Int_Tables_number   1
_chemical_formula_structural   ZnO
_chemical_formula_sum   'Zn3 O3'
_cell_volume   73.86436182
_cell_formula_units_Z   3
loop_
 _symmetry_equiv_pos_site_id
 _symmetry_equiv_pos_as_xyz
  1  'x, y, z'
loop_
 _atom_site_type_symbol
 _atom_site_label
 _atom_site_symmetry_multiplicity
 _atom_site_fract_x
 _atom_site_fract_y
 _atom_site_fract_z
 _atom_site_occupancy
  Zn  Zn0  1  0.00061824  0.00061824  0.00061824  1.0
  Zn  Zn1  1  0.44498308  0.44498308  -0.55501692  1.0
  Zn  Zn2  1  0.22270147  0.22270147  0.22270147  1.0
  O  O3  1  0.08445431  0.08445431  0.08445431  1.0
  O  O4  1  0.52880166  0.52880166  -0.47119834  1.0
  O  O5  1  0.30674124  0.30674124  0.30674124  1.0
