# generated using pymatgen
data_Ba2Tl7Au
_symmetry_space_group_name_H-M   'P 1'
_cell_length_a   22.59581581
_cell_length_b   5.24121003
_cell_length_c   10.84614996
_cell_angle_alpha   90.00000000
_cell_angle_beta   90.00000000
_cell_angle_gamma   90.00000000
_symmetry_Int_Tables_number   1
_chemical_formula_structural   Ba2Tl7Au
_chemical_formula_sum   'Ba8 Tl28 Au4'
_cell_volume   1284.50320970
_cell_formula_units_Z   4
loop_
 _symmetry_equiv_pos_site_id
 _symmetry_equiv_pos_as_xyz
  1  'x, y, z'
loop_
 _atom_site_type_symbol
 _atom_site_label
 _atom_site_symmetry_multiplicity
 _atom_site_fract_x
 _atom_site_fract_y
 _atom_site_fract_z
 _atom_site_occupancy
  Ba  Ba0  1  0.45323169  0.75000000  0.24546270  1.0
  Ba  Ba1  1  0.95323169  0.75000000  0.25453730  1.0
  Ba  Ba2  1  0.54676831  0.25000000  0.75453730  1.0
  Ba  Ba3  1  0.04676831  0.25000000  0.74546270  1.0
  Ba  Ba4  1  0.29034473  0.75000000  -0.01500382  1.0
  Ba  Ba5  1  0.79034473  0.75000000  0.51500382  1.0
  Ba  Ba6  1  0.70965527  0.25000000  1.01500382  1.0
  Ba  Ba7  1  0.20965527  0.25000000  0.48499618  1.0
  Tl  Tl8  1  0.45000788  0.75000000  0.88886334  1.0
  Tl  Tl9  1  0.95000788  0.75000000  0.61113666  1.0
  Tl  Tl10  1  0.54999212  0.25000000  0.11113666  1.0
  Tl  Tl11  1  0.04999212  0.25000000  0.38886334  1.0
  Tl  Tl12  1  0.45449032  0.75000000  0.59065087  1.0
  Tl  Tl13  1  0.95449032  0.75000000  0.90934913  1.0
  Tl  Tl14  1  0.54550968  0.25000000  0.40934913  1.0
  Tl  Tl15  1  0.04550968  0.25000000  0.09065087  1.0
  Tl  Tl16  1  0.28995432  0.75000000  0.32380243  1.0
  Tl  Tl17  1  0.78995432  0.75000000  0.17619757  1.0
  Tl  Tl18  1  0.71004568  0.25000000  0.67619757  1.0
  Tl  Tl19  1  0.21004568  0.25000000  0.82380243  1.0
  Tl  Tl20  1  0.30439004  0.75000000  0.62174709  1.0
  Tl  Tl21  1  0.80439004  0.75000000  0.87825291  1.0
  Tl  Tl22  1  0.69560996  0.25000000  0.37825291  1.0
  Tl  Tl23  1  0.19560996  0.25000000  0.12174709  1.0
  Tl  Tl24  1  0.14324110  0.75000000  0.25335581  1.0
  Tl  Tl25  1  0.64324110  0.75000000  0.24664419  1.0
  Tl  Tl26  1  0.85675890  0.25000000  0.74664419  1.0
  Tl  Tl27  1  0.35675890  0.25000000  0.75335581  1.0
  Tl  Tl28  1  0.10930831  0.75000000  0.96041424  1.0
  Tl  Tl29  1  0.60930831  0.75000000  0.53958576  1.0
  Tl  Tl30  1  0.89069169  0.25000000  0.03958576  1.0
  Tl  Tl31  1  0.39069169  0.25000000  0.46041424  1.0
  Tl  Tl32  1  0.08979862  0.75000000  0.52929393  1.0
  Tl  Tl33  1  0.58979862  0.75000000  0.97070607  1.0
  Tl  Tl34  1  0.91020138  0.25000000  0.47070607  1.0
  Tl  Tl35  1  0.41020138  0.25000000  0.02929393  1.0
  Au  Au36  1  0.17804444  0.75000000  0.72118910  1.0
  Au  Au37  1  0.67804444  0.75000000  0.77881090  1.0
  Au  Au38  1  0.82195556  0.25000000  0.27881090  1.0
  Au  Au39  1  0.32195556  0.25000000  0.22118910  1.0
