# generated using pymatgen
data_Tl(IO3)3
_symmetry_space_group_name_H-M   'P 1'
_cell_length_a   7.71959562
_cell_length_b   7.71959562
_cell_length_c   7.71959562
_cell_angle_alpha   80.79498003
_cell_angle_beta   80.79498003
_cell_angle_gamma   80.79498003
_symmetry_Int_Tables_number   1
_chemical_formula_structural   Tl(IO3)3
_chemical_formula_sum   'Tl2 I6 O18'
_cell_volume   443.97240861
_cell_formula_units_Z   2
loop_
 _symmetry_equiv_pos_site_id
 _symmetry_equiv_pos_as_xyz
  1  'x, y, z'
loop_
 _atom_site_type_symbol
 _atom_site_label
 _atom_site_symmetry_multiplicity
 _atom_site_fract_x
 _atom_site_fract_y
 _atom_site_fract_z
 _atom_site_occupancy
  Tl  Tl0  1  0.82007127  0.82007127  -0.17992873  1.0
  Tl  Tl1  1  1.17992873  1.17992873  0.17992873  1.0
  I  I2  1  0.86312923  0.57993791  -0.71299092  1.0
  I  I3  1  0.42006209  0.71299092  -0.86312923  1.0
  I  I4  1  0.71299092  0.13687077  -0.57993791  1.0
  I  I5  1  0.13687077  0.42006209  -0.28700908  1.0
  I  I6  1  0.57993791  0.28700908  -0.13687077  1.0
  I  I7  1  0.28700908  0.86312923  -0.42006209  1.0
  O  O8  1  0.73059369  0.41431856  -0.77169500  1.0
  O  O9  1  0.58568144  0.77169500  -0.73059369  1.0
  O  O10  1  0.77169500  0.26940631  -0.41431856  1.0
  O  O11  1  0.26940631  0.58568144  -0.22830500  1.0
  O  O12  1  0.41431856  0.22830500  -0.26940631  1.0
  O  O13  1  0.22830500  0.73059369  -0.58568144  1.0
  O  O14  1  0.57501216  0.68176840  -0.07895646  1.0
  O  O15  1  1.31823160  1.07895646  0.42498784  1.0
  O  O16  1  1.07895646  1.42498784  0.31823160  1.0
  O  O17  1  1.42498784  1.31823160  0.07895646  1.0
  O  O18  1  0.68176840  0.92104354  -0.42498784  1.0
  O  O19  1  0.92104354  0.57501216  -0.31823160  1.0
  O  O20  1  0.69860273  0.06536004  -0.04739806  1.0
  O  O21  1  0.93463996  0.04739806  -0.69860273  1.0
  O  O22  1  1.04739806  -0.69860273  -0.06536004  1.0
  O  O23  1  0.30139727  -0.06536004  0.04739806  1.0
  O  O24  1  1.06536004  -0.04739806  -0.30139727  1.0
  O  O25  1  0.95260194  -0.30139727  0.06536004  1.0
