# generated using pymatgen
data_Sr2RhO4
_symmetry_space_group_name_H-M   'P 1'
_cell_length_a   13.63765475
_cell_length_b   13.63765475
_cell_length_c   13.63765475
_cell_angle_alpha   156.80438469
_cell_angle_beta   156.80438469
_cell_angle_gamma   33.03570866
_symmetry_Int_Tables_number   1
_chemical_formula_structural   Sr2RhO4
_chemical_formula_sum   'Sr8 Rh4 O16'
_cell_volume   393.13595701
_cell_formula_units_Z   4
loop_
 _symmetry_equiv_pos_site_id
 _symmetry_equiv_pos_as_xyz
  1  'x, y, z'
loop_
 _atom_site_type_symbol
 _atom_site_label
 _atom_site_symmetry_multiplicity
 _atom_site_fract_x
 _atom_site_fract_y
 _atom_site_fract_z
 _atom_site_occupancy
  O  O0  1  1.42015104  1.42015104  1.00000000  1.0
  O  O1  1  0.92015104  0.92015104  0.00000000  1.0
  O  O2  1  0.67015104  1.17015104  0.50000000  1.0
  O  O3  1  1.17015104  0.67015104  0.50000000  1.0
  O  O4  1  1.32984896  0.82984896  0.50000000  1.0
  O  O5  1  0.82984896  1.32984896  0.50000000  1.0
  O  O6  1  0.07984896  0.07984896  -0.00000000  1.0
  O  O7  1  0.57984896  0.57984896  1.00000000  1.0
  O  O8  1  1.55603005  0.94396995  1.00000000  1.0
  O  O9  1  0.80603005  0.69396995  1.50000000  1.0
  O  O10  1  0.19396995  0.30603005  0.50000000  1.0
  O  O11  1  0.94396995  1.55603005  1.00000000  1.0
  O  O12  1  1.05603005  1.05603005  0.61206011  1.0
  O  O13  1  0.30603005  0.80603005  1.11206011  1.0
  O  O14  1  0.69396995  0.19396995  0.88793989  1.0
  O  O15  1  1.44396995  1.44396995  1.38793989  1.0
  Sr  Sr16  1  1.32458660  1.32458660  1.00000000  1.0
  Sr  Sr17  1  0.82458660  0.82458660  -0.00000000  1.0
  Sr  Sr18  1  0.57458660  0.07458660  0.50000000  1.0
  Sr  Sr19  1  0.07458660  0.57458660  0.50000000  1.0
  Sr  Sr20  1  1.42541340  0.92541340  0.50000000  1.0
  Sr  Sr21  1  0.92541340  1.42541340  0.50000000  1.0
  Sr  Sr22  1  1.17541340  1.17541340  1.00000000  1.0
  Sr  Sr23  1  0.67541340  0.67541340  0.00000000  1.0
  Rh  Rh24  1  0.50000000  0.50000000  1.00000000  1.0
  Rh  Rh25  1  0.00000000  0.00000000  0.00000000  1.0
  Rh  Rh26  1  0.75000000  1.25000000  0.50000000  1.0
  Rh  Rh27  1  1.25000000  0.75000000  0.50000000  1.0
