# generated using pymatgen
data_Zr5Sb3
_symmetry_space_group_name_H-M   'P 1'
_cell_length_a   10.84227139
_cell_length_b   8.87601001
_cell_length_c   7.60578413
_cell_angle_alpha   90.00000000
_cell_angle_beta   90.00000000
_cell_angle_gamma   90.00000000
_symmetry_Int_Tables_number   1
_chemical_formula_structural   Zr5Sb3
_chemical_formula_sum   'Zr20 Sb12'
_cell_volume   731.95107320
_cell_formula_units_Z   4
loop_
 _symmetry_equiv_pos_site_id
 _symmetry_equiv_pos_as_xyz
  1  'x, y, z'
loop_
 _atom_site_type_symbol
 _atom_site_label
 _atom_site_symmetry_multiplicity
 _atom_site_fract_x
 _atom_site_fract_y
 _atom_site_fract_z
 _atom_site_occupancy
  Zr  Zr0  1  0.50361725  0.75000000  0.47388830  1.0
  Zr  Zr1  1  1.00361725  0.75000000  0.02611170  1.0
  Zr  Zr2  1  0.49638275  0.25000000  0.52611170  1.0
  Zr  Zr3  1  -0.00361725  0.25000000  0.97388830  1.0
  Zr  Zr4  1  0.23300910  0.75000000  0.31822367  1.0
  Zr  Zr5  1  0.73300910  0.75000000  0.18177633  1.0
  Zr  Zr6  1  0.76699090  0.25000000  0.68177633  1.0
  Zr  Zr7  1  0.26699090  0.25000000  0.81822367  1.0
  Zr  Zr8  1  0.71155631  0.25000000  0.17325867  1.0
  Zr  Zr9  1  0.21155631  0.25000000  0.32674133  1.0
  Zr  Zr10  1  0.28844369  0.75000000  0.82674133  1.0
  Zr  Zr11  1  0.78844369  0.75000000  0.67325867  1.0
  Zr  Zr12  1  0.44696052  0.05655331  0.19893615  1.0
  Zr  Zr13  1  0.94696052  0.44344669  0.30106385  1.0
  Zr  Zr14  1  0.55303948  0.55655331  0.80106385  1.0
  Zr  Zr15  1  0.05303948  0.94344669  0.69893615  1.0
  Zr  Zr16  1  0.55303948  0.94344669  0.80106385  1.0
  Zr  Zr17  1  0.05303948  0.55655331  0.69893615  1.0
  Zr  Zr18  1  0.44696052  0.44344669  0.19893615  1.0
  Zr  Zr19  1  0.94696052  0.05655331  0.30106385  1.0
  Sb  Sb20  1  0.47397361  0.75000000  0.09056832  1.0
  Sb  Sb21  1  0.97397361  0.75000000  0.40943168  1.0
  Sb  Sb22  1  0.52602639  0.25000000  0.90943168  1.0
  Sb  Sb23  1  0.02602639  0.25000000  0.59056832  1.0
  Sb  Sb24  1  0.17827369  0.49220755  0.06501108  1.0
  Sb  Sb25  1  0.67827369  0.00779245  0.43498892  1.0
  Sb  Sb26  1  0.82172631  0.99220755  0.93498892  1.0
  Sb  Sb27  1  0.32172631  0.50779245  0.56501108  1.0
  Sb  Sb28  1  0.82172631  0.50779245  0.93498892  1.0
  Sb  Sb29  1  0.32172631  0.99220755  0.56501108  1.0
  Sb  Sb30  1  0.17827369  0.00779245  0.06501108  1.0
  Sb  Sb31  1  0.67827369  0.49220755  0.43498892  1.0
