# generated using pymatgen
data_Ga
_symmetry_space_group_name_H-M   'P 1'
_cell_length_a   8.64684624
_cell_length_b   8.64684624
_cell_length_c   5.29500696
_cell_angle_alpha   90.00000000
_cell_angle_beta   90.00000000
_cell_angle_gamma   104.07892149
_symmetry_Int_Tables_number   1
_chemical_formula_structural   Ga
_chemical_formula_sum   Ga20
_cell_volume   384.00469782
_cell_formula_units_Z   20
loop_
 _symmetry_equiv_pos_site_id
 _symmetry_equiv_pos_as_xyz
  1  'x, y, z'
loop_
 _atom_site_type_symbol
 _atom_site_label
 _atom_site_symmetry_multiplicity
 _atom_site_fract_x
 _atom_site_fract_y
 _atom_site_fract_z
 _atom_site_occupancy
  Ga  Ga0  1  -0.17049822  1.72693290  0.25000000  1.0
  Ga  Ga1  1  0.72693290  0.82950178  0.75000000  1.0
  Ga  Ga2  1  -0.72693290  1.17049822  0.25000000  1.0
  Ga  Ga3  1  0.17049822  0.27306710  0.75000000  1.0
  Ga  Ga4  1  0.13264767  0.41033099  0.25000000  1.0
  Ga  Ga5  1  -0.58966901  1.13264767  0.75000000  1.0
  Ga  Ga6  1  0.58966901  0.86735233  0.25000000  1.0
  Ga  Ga7  1  -0.13264767  1.58966901  0.75000000  1.0
  Ga  Ga8  1  -0.16884526  1.41959425  0.25000000  1.0
  Ga  Ga9  1  0.41959425  0.83115474  0.75000000  1.0
  Ga  Ga10  1  -0.41959425  1.16884526  0.25000000  1.0
  Ga  Ga11  1  0.16884526  0.58040575  0.75000000  1.0
  Ga  Ga12  1  0.10759078  0.89240922  0.50263421  1.0
  Ga  Ga13  1  0.10759078  0.89240922  -0.00263421  1.0
  Ga  Ga14  1  -0.10759078  1.10759078  0.00263421  1.0
  Ga  Ga15  1  -0.10759078  1.10759078  0.49736579  1.0
  Ga  Ga16  1  0.28771522  0.71228478  0.25000000  1.0
  Ga  Ga17  1  -0.28771522  1.28771522  0.75000000  1.0
  Ga  Ga18  1  -0.49741509  1.49741509  0.25000000  1.0
  Ga  Ga19  1  0.49741509  0.50258491  0.75000000  1.0
