# generated using pymatgen
data_LiCu(PO3)3
_symmetry_space_group_name_H-M   'P 1'
_cell_length_a   8.27144937
_cell_length_b   8.81375365
_cell_length_c   8.92559042
_cell_angle_alpha   90.00000000
_cell_angle_beta   90.00000000
_cell_angle_gamma   90.00000000
_symmetry_Int_Tables_number   1
_chemical_formula_structural   LiCu(PO3)3
_chemical_formula_sum   'Li4 Cu4 P12 O36'
_cell_volume   650.69800819
_cell_formula_units_Z   4
loop_
 _symmetry_equiv_pos_site_id
 _symmetry_equiv_pos_as_xyz
  1  'x, y, z'
loop_
 _atom_site_type_symbol
 _atom_site_label
 _atom_site_symmetry_multiplicity
 _atom_site_fract_x
 _atom_site_fract_y
 _atom_site_fract_z
 _atom_site_occupancy
  Li  Li0  1  0.37854943  0.91432745  0.11395603  1.0
  Li  Li1  1  0.87854943  0.58567255  0.88604397  1.0
  Li  Li2  1  0.62145057  0.41432745  0.38604397  1.0
  Li  Li3  1  0.12145057  0.08567255  0.61395603  1.0
  Cu  Cu4  1  0.09573313  0.86138076  0.88445878  1.0
  Cu  Cu5  1  0.59573313  0.63861924  0.11554122  1.0
  Cu  Cu6  1  0.90426687  0.36138076  0.61554122  1.0
  Cu  Cu7  1  0.40426687  0.13861924  0.38445878  1.0
  P  P8  1  0.43055468  0.93987027  0.73397691  1.0
  P  P9  1  0.93055468  0.56012973  0.26602309  1.0
  P  P10  1  0.56944532  0.43987027  0.76602309  1.0
  P  P11  1  0.06944532  0.06012973  0.23397691  1.0
  P  P12  1  0.27886001  0.42501633  0.56394511  1.0
  P  P13  1  0.77886001  0.07498367  0.43605489  1.0
  P  P14  1  0.72113999  0.92501633  0.93605489  1.0
  P  P15  1  0.22113999  0.57498367  0.06394511  1.0
  P  P16  1  0.04610402  0.68087437  0.54948789  1.0
  P  P17  1  0.54610402  0.81912563  0.45051211  1.0
  P  P18  1  0.95389598  0.18087437  0.95051211  1.0
  P  P19  1  0.45389598  0.31912563  0.04948789  1.0
  O  O20  1  0.47038157  0.80293233  0.61727159  1.0
  O  O21  1  0.97038157  0.69706767  0.38272841  1.0
  O  O22  1  0.52961843  0.30293233  0.88272841  1.0
  O  O23  1  0.02961843  0.19706767  0.11727159  1.0
  O  O24  1  0.39019196  0.47718004  0.70241924  1.0
  O  O25  1  0.89019196  0.02281996  0.29758076  1.0
  O  O26  1  0.60980804  0.97718004  0.79758076  1.0
  O  O27  1  0.10980804  0.52281996  0.20241924  1.0
  O  O28  1  0.35903386  0.67351668  0.11941479  1.0
  O  O29  1  0.85903386  0.82648332  0.88058521  1.0
  O  O30  1  0.64096614  0.17351668  0.38058521  1.0
  O  O31  1  0.14096614  0.32648332  0.61941479  1.0
  O  O32  1  0.33287962  0.87676424  0.86397962  1.0
  O  O33  1  0.83287962  0.62323576  0.13602038  1.0
  O  O34  1  0.66712038  0.37676424  0.63602038  1.0
  O  O35  1  0.16712038  0.12323576  0.36397962  1.0
  O  O36  1  0.21151833  0.58682232  0.51033389  1.0
  O  O37  1  0.71151833  0.91317768  0.48966611  1.0
  O  O38  1  0.78848167  0.08682232  0.98966611  1.0
  O  O39  1  0.28848167  0.41317768  0.01033389  1.0
  O  O40  1  0.13210395  0.92605093  0.14860055  1.0
  O  O41  1  0.63210395  0.57394907  0.85139945  1.0
  O  O42  1  0.86789605  0.42605093  0.35139945  1.0
  O  O43  1  0.36789605  0.07394907  0.64860055  1.0
  O  O44  1  0.11645015  0.63935582  0.93945666  1.0
  O  O45  1  0.61645015  0.86064418  0.06054334  1.0
  O  O46  1  0.88354985  0.13935582  0.56054334  1.0
  O  O47  1  0.38354985  0.36064418  0.43945666  1.0
  O  O48  1  0.08644894  0.83602552  0.60525685  1.0
  O  O49  1  0.58644894  0.66397448  0.39474315  1.0
  O  O50  1  0.91355106  0.33602552  0.89474315  1.0
  O  O51  1  0.41355106  0.16397448  0.10525685  1.0
  O  O52  1  0.93951490  0.58168810  0.64950942  1.0
  O  O53  1  0.43951490  0.91831190  0.35049058  1.0
  O  O54  1  0.06048510  0.08168810  0.85049058  1.0
  O  O55  1  0.56048510  0.41831190  0.14950942  1.0
