# generated using pymatgen
data_KMgPO5
_symmetry_space_group_name_H-M   'P 1'
_cell_length_a   5.45336272
_cell_length_b   8.44874678
_cell_length_c   5.07148736
_cell_angle_alpha   90.00000000
_cell_angle_beta   90.00000000
_cell_angle_gamma   90.00000000
_symmetry_Int_Tables_number   1
_chemical_formula_structural   KMgPO5
_chemical_formula_sum   'K2 Mg2 P2 O10'
_cell_volume   233.66411820
_cell_formula_units_Z   2
loop_
 _symmetry_equiv_pos_site_id
 _symmetry_equiv_pos_as_xyz
  1  'x, y, z'
loop_
 _atom_site_type_symbol
 _atom_site_label
 _atom_site_symmetry_multiplicity
 _atom_site_fract_x
 _atom_site_fract_y
 _atom_site_fract_z
 _atom_site_occupancy
  K  K0  1  0.50000000  0.01289174  0.05056510  1.0
  K  K1  1  0.00000000  0.98710826  0.55056510  1.0
  P  P2  1  0.50000000  0.71040823  0.47860260  1.0
  P  P3  1  0.00000000  0.28959177  -0.02139740  1.0
  O  O4  1  0.50000000  0.88603055  0.55176625  1.0
  O  O5  1  0.00000000  0.11396945  0.05176625  1.0
  O  O6  1  0.50000000  0.28552484  0.74795288  1.0
  O  O7  1  0.00000000  0.71447516  0.24795288  1.0
  O  O8  1  0.50000000  0.68920240  0.17424910  1.0
  O  O9  1  0.00000000  0.31079760  0.67424910  1.0
  O  O10  1  0.27818275  0.61792201  0.60863616  1.0
  O  O11  1  0.77818275  0.38207799  0.10863616  1.0
  O  O12  1  0.72181725  0.61792201  0.60863616  1.0
  O  O13  1  0.22181725  0.38207799  0.10863616  1.0
  Mg  Mg14  1  0.50000000  0.50763028  0.92519176  1.0
  Mg  Mg15  1  0.00000000  0.49236972  0.42519176  1.0
