# generated using pymatgen
data_CsVP2O7
_symmetry_space_group_name_H-M   'P 1'
_cell_length_a   7.84500446
_cell_length_b   10.17410508
_cell_length_c   8.43655905
_cell_angle_alpha   90.00000000
_cell_angle_beta   105.16838218
_cell_angle_gamma   90.00000000
_symmetry_Int_Tables_number   1
_chemical_formula_structural   CsVP2O7
_chemical_formula_sum   'Cs4 V4 P8 O28'
_cell_volume   649.91198155
_cell_formula_units_Z   4
loop_
 _symmetry_equiv_pos_site_id
 _symmetry_equiv_pos_as_xyz
  1  'x, y, z'
loop_
 _atom_site_type_symbol
 _atom_site_label
 _atom_site_symmetry_multiplicity
 _atom_site_fract_x
 _atom_site_fract_y
 _atom_site_fract_z
 _atom_site_occupancy
  Cs  Cs0  1  0.80111978  0.79850699  0.45755966  1.0
  Cs  Cs1  1  0.80111978  0.70149301  0.95755966  1.0
  Cs  Cs2  1  0.19888022  0.29850699  0.04244034  1.0
  Cs  Cs3  1  0.19888022  0.20149301  0.54244034  1.0
  V  V4  1  0.75855742  0.39814663  0.24193306  1.0
  V  V5  1  0.75855742  0.10185337  0.74193306  1.0
  V  V6  1  0.24144258  0.89814663  0.25806694  1.0
  V  V7  1  0.24144258  0.60185337  0.75806694  1.0
  P  P8  1  0.87042958  0.09710383  0.16754230  1.0
  P  P9  1  0.87042958  0.40289617  0.66754230  1.0
  P  P10  1  0.12957042  0.59710383  0.33245770  1.0
  P  P11  1  0.12957042  0.90289617  0.83245770  1.0
  P  P12  1  0.57580121  0.12650244  0.31764138  1.0
  P  P13  1  0.57580121  0.37349756  0.81764138  1.0
  P  P14  1  0.42419879  0.62650244  0.18235862  1.0
  P  P15  1  0.42419879  0.87349756  0.68235862  1.0
  O  O16  1  0.98347225  0.50672632  0.23496968  1.0
  O  O17  1  0.98347225  0.99327368  0.73496968  1.0
  O  O18  1  0.01652775  0.00672632  0.26503032  1.0
  O  O19  1  0.01652775  0.49327368  0.76503032  1.0
  O  O20  1  0.90605787  0.23992954  0.23076656  1.0
  O  O21  1  0.90605787  0.26007046  0.73076656  1.0
  O  O22  1  0.09394213  0.73992954  0.26923344  1.0
  O  O23  1  0.09394213  0.76007046  0.76923344  1.0
  O  O24  1  0.84054243  0.41316655  0.48192053  1.0
  O  O25  1  0.84054243  0.08683345  0.98192053  1.0
  O  O26  1  0.15945757  0.91316655  0.01807947  1.0
  O  O27  1  0.15945757  0.58683345  0.51807947  1.0
  O  O28  1  0.67686391  0.10103483  0.49665539  1.0
  O  O29  1  0.67686391  0.39896517  0.99665539  1.0
  O  O30  1  0.32313609  0.60103483  0.00334461  1.0
  O  O31  1  0.32313609  0.89896517  0.50334461  1.0
  O  O32  1  0.68739878  0.04803134  0.20655272  1.0
  O  O33  1  0.68739878  0.45196866  0.70655272  1.0
  O  O34  1  0.31260122  0.54803134  0.29344728  1.0
  O  O35  1  0.31260122  0.95196866  0.79344728  1.0
  O  O36  1  0.56550306  0.27219862  0.26670884  1.0
  O  O37  1  0.56550306  0.22780138  0.76670884  1.0
  O  O38  1  0.43449694  0.77219862  0.23329116  1.0
  O  O39  1  0.43449694  0.72780138  0.73329116  1.0
  O  O40  1  0.39057583  0.06574819  0.26843879  1.0
  O  O41  1  0.39057583  0.43425181  0.76843879  1.0
  O  O42  1  0.60942417  0.56574819  0.23156121  1.0
  O  O43  1  0.60942417  0.93425181  0.73156121  1.0
