# generated using pymatgen
data_La2S3
_symmetry_space_group_name_H-M   'P 1'
_cell_length_a   7.62793476
_cell_length_b   4.16551324
_cell_length_c   15.90267130
_cell_angle_alpha   90.00000000
_cell_angle_beta   90.00000000
_cell_angle_gamma   90.00000000
_symmetry_Int_Tables_number   1
_chemical_formula_structural   La2S3
_chemical_formula_sum   'La8 S12'
_cell_volume   505.29566495
_cell_formula_units_Z   4
loop_
 _symmetry_equiv_pos_site_id
 _symmetry_equiv_pos_as_xyz
  1  'x, y, z'
loop_
 _atom_site_type_symbol
 _atom_site_label
 _atom_site_symmetry_multiplicity
 _atom_site_fract_x
 _atom_site_fract_y
 _atom_site_fract_z
 _atom_site_occupancy
  La  La0  1  0.85370982  0.75000000  0.79503494  1.0
  La  La1  1  0.35370982  0.75000000  0.70496506  1.0
  La  La2  1  0.14629018  0.25000000  0.20496506  1.0
  La  La3  1  0.64629018  0.25000000  0.29503494  1.0
  La  La4  1  0.73580254  0.75000000  0.04389041  1.0
  La  La5  1  0.23580254  0.75000000  0.45610959  1.0
  La  La6  1  0.26419746  0.25000000  0.95610959  1.0
  La  La7  1  0.76419746  0.25000000  0.54389041  1.0
  S  S8  1  0.98837216  0.75000000  0.60944101  1.0
  S  S9  1  0.48837216  0.75000000  0.89055899  1.0
  S  S10  1  0.01162784  0.25000000  0.39055899  1.0
  S  S11  1  0.51162784  0.25000000  0.10944101  1.0
  S  S12  1  0.85458854  0.75000000  0.21961521  1.0
  S  S13  1  0.35458854  0.75000000  0.28038479  1.0
  S  S14  1  0.14541146  0.25000000  0.78038479  1.0
  S  S15  1  0.64541146  0.25000000  0.71961521  1.0
  S  S16  1  0.62849104  0.75000000  0.43270295  1.0
  S  S17  1  0.12849104  0.75000000  0.06729705  1.0
  S  S18  1  0.37150896  0.25000000  0.56729705  1.0
  S  S19  1  0.87150896  0.25000000  0.93270295  1.0
