# generated using pymatgen
data_Cl2
_symmetry_space_group_name_H-M   'P 1'
_cell_length_a   4.46291080
_cell_length_b   4.46291080
_cell_length_c   8.30617324
_cell_angle_alpha   90.00000000
_cell_angle_beta   90.00000000
_cell_angle_gamma   57.59397805
_symmetry_Int_Tables_number   1
_chemical_formula_structural   Cl2
_chemical_formula_sum   Cl4
_cell_volume   139.67528952
_cell_formula_units_Z   2
loop_
 _symmetry_equiv_pos_site_id
 _symmetry_equiv_pos_as_xyz
  1  'x, y, z'
loop_
 _atom_site_type_symbol
 _atom_site_label
 _atom_site_symmetry_multiplicity
 _atom_site_fract_x
 _atom_site_fract_y
 _atom_site_fract_z
 _atom_site_occupancy
  Cl  Cl0  1  -0.38502481  1.38502481  0.39353954  1.0
  Cl  Cl1  1  0.11497519  0.88502481  0.10646046  1.0
  Cl  Cl2  1  0.38502481  0.61497519  0.60646046  1.0
  Cl  Cl3  1  -0.11497519  1.11497519  0.89353954  1.0
