# generated using pymatgen
data_Sc3P
_symmetry_space_group_name_H-M   'P 1'
_cell_length_a   6.81621838
_cell_length_b   8.41248503
_cell_length_c   5.74397843
_cell_angle_alpha   90.00000000
_cell_angle_beta   90.00000000
_cell_angle_gamma   90.00000000
_symmetry_Int_Tables_number   1
_chemical_formula_structural   Sc3P
_chemical_formula_sum   'Sc12 P4'
_cell_volume   329.36739168
_cell_formula_units_Z   4
loop_
 _symmetry_equiv_pos_site_id
 _symmetry_equiv_pos_as_xyz
  1  'x, y, z'
loop_
 _atom_site_type_symbol
 _atom_site_label
 _atom_site_symmetry_multiplicity
 _atom_site_fract_x
 _atom_site_fract_y
 _atom_site_fract_z
 _atom_site_occupancy
  Sc  Sc0  1  0.32393033  0.94976066  0.65024134  1.0
  Sc  Sc1  1  0.32393033  0.55023934  0.65024134  1.0
  Sc  Sc2  1  0.82393033  0.94976066  0.84975866  1.0
  Sc  Sc3  1  0.82393033  0.55023934  0.84975866  1.0
  Sc  Sc4  1  0.67606967  0.44976066  0.34975866  1.0
  Sc  Sc5  1  0.67606967  0.05023934  0.34975866  1.0
  Sc  Sc6  1  0.17606967  0.44976066  0.15024134  1.0
  Sc  Sc7  1  0.17606967  0.05023934  0.15024134  1.0
  Sc  Sc8  1  0.47332498  0.75000000  0.13721671  1.0
  Sc  Sc9  1  0.97332498  0.75000000  0.36278329  1.0
  Sc  Sc10  1  0.52667502  0.25000000  0.86278329  1.0
  Sc  Sc11  1  0.02667502  0.25000000  0.63721671  1.0
  P  P12  1  0.12426619  0.75000000  0.92879178  1.0
  P  P13  1  0.62426619  0.75000000  0.57120822  1.0
  P  P14  1  0.87573381  0.25000000  0.07120822  1.0
  P  P15  1  0.37573381  0.25000000  0.42879178  1.0
