# generated using pymatgen
data_Nd2WO6
_symmetry_space_group_name_H-M   'P 1'
_cell_length_a   5.11511474
_cell_length_b   5.11511474
_cell_length_c   10.26606240
_cell_angle_alpha   90.00000000
_cell_angle_beta   90.00000000
_cell_angle_gamma   90.00000000
_symmetry_Int_Tables_number   1
_chemical_formula_structural   Nd2WO6
_chemical_formula_sum   'Nd4 W2 O12'
_cell_volume   268.60535042
_cell_formula_units_Z   2
loop_
 _symmetry_equiv_pos_site_id
 _symmetry_equiv_pos_as_xyz
  1  'x, y, z'
loop_
 _atom_site_type_symbol
 _atom_site_label
 _atom_site_symmetry_multiplicity
 _atom_site_fract_x
 _atom_site_fract_y
 _atom_site_fract_z
 _atom_site_occupancy
  Nd  Nd0  1  0.50000000  0.50000000  0.16729560  1.0
  Nd  Nd1  1  0.50000000  0.50000000  0.83270440  1.0
  Nd  Nd2  1  0.00000000  0.00000000  0.66729560  1.0
  Nd  Nd3  1  0.00000000  0.00000000  0.33270440  1.0
  W  W4  1  0.50000000  0.50000000  0.50000000  1.0
  W  W5  1  0.00000000  0.00000000  0.00000000  1.0
  O  O6  1  0.18045296  0.81954704  0.14113387  1.0
  O  O7  1  0.18045296  0.81954704  0.85886613  1.0
  O  O8  1  0.68045296  0.68045296  0.64113387  1.0
  O  O9  1  0.68045296  0.68045296  0.35886613  1.0
  O  O10  1  0.81954704  0.18045296  0.14113387  1.0
  O  O11  1  0.81954704  0.18045296  0.85886613  1.0
  O  O12  1  0.31954704  0.31954704  0.64113387  1.0
  O  O13  1  0.31954704  0.31954704  0.35886613  1.0
  O  O14  1  0.23121794  0.76878206  0.50000000  1.0
  O  O15  1  0.73121794  0.73121794  0.00000000  1.0
  O  O16  1  0.76878206  0.23121794  0.50000000  1.0
  O  O17  1  0.26878206  0.26878206  0.00000000  1.0
