# generated using pymatgen
data_FeAsSe
_symmetry_space_group_name_H-M   'P 1'
_cell_length_a   5.94575146
_cell_length_b   5.86866114
_cell_length_c   5.98881152
_cell_angle_alpha   90.00000000
_cell_angle_beta   113.29619241
_cell_angle_gamma   90.00000000
_symmetry_Int_Tables_number   1
_chemical_formula_structural   FeAsSe
_chemical_formula_sum   'Fe4 As4 Se4'
_cell_volume   191.93433185
_cell_formula_units_Z   4
loop_
 _symmetry_equiv_pos_site_id
 _symmetry_equiv_pos_as_xyz
  1  'x, y, z'
loop_
 _atom_site_type_symbol
 _atom_site_label
 _atom_site_symmetry_multiplicity
 _atom_site_fract_x
 _atom_site_fract_y
 _atom_site_fract_z
 _atom_site_occupancy
  Fe  Fe0  1  0.77665858  0.49995489  0.29239829  1.0
  Fe  Fe1  1  0.77665858  0.00004511  0.79239829  1.0
  Fe  Fe2  1  0.22334142  0.99995489  0.20760171  1.0
  Fe  Fe3  1  0.22334142  0.50004511  0.70760171  1.0
  As  As4  1  0.64227137  0.86171504  0.37822319  1.0
  As  As5  1  0.64227137  0.63828496  0.87822319  1.0
  As  As6  1  0.35772863  0.36171504  0.12177681  1.0
  As  As7  1  0.35772863  0.13828496  0.62177681  1.0
  Se  Se8  1  0.84453539  0.13304618  0.17839103  1.0
  Se  Se9  1  0.84453539  0.36695382  0.67839103  1.0
  Se  Se10  1  0.15546461  0.63304618  0.32160897  1.0
  Se  Se11  1  0.15546461  0.86695382  0.82160897  1.0
