# generated using pymatgen
data_Ba2BiSbO6
_symmetry_space_group_name_H-M   'P 1'
_cell_length_a   6.10130269
_cell_length_b   6.10130269
_cell_length_c   6.16150274
_cell_angle_alpha   60.01083746
_cell_angle_beta   119.98916254
_cell_angle_gamma   119.98228684
_symmetry_Int_Tables_number   1
_chemical_formula_structural   Ba2BiSbO6
_chemical_formula_sum   'Ba2 Bi1 Sb1 O6'
_cell_volume   162.23555363
_cell_formula_units_Z   1
loop_
 _symmetry_equiv_pos_site_id
 _symmetry_equiv_pos_as_xyz
  1  'x, y, z'
loop_
 _atom_site_type_symbol
 _atom_site_label
 _atom_site_symmetry_multiplicity
 _atom_site_fract_x
 _atom_site_fract_y
 _atom_site_fract_z
 _atom_site_occupancy
  Ba  Ba0  1  0.75134360  -0.75134360  0.25603843  1.0
  Ba  Ba1  1  0.24865640  -0.24865640  0.74396157  1.0
  Bi  Bi2  1  0.00000000  0.00000000  0.00000000  1.0
  Sb  Sb3  1  0.50000000  0.50000000  0.50000000  1.0
  O  O4  1  1.70060871  -0.23112155  0.69609335  1.0
  O  O5  1  1.23112155  -0.70060871  0.69609335  1.0
  O  O6  1  0.76887845  0.70060871  0.30390665  1.0
  O  O7  1  0.29939129  0.23112155  0.30390665  1.0
  O  O8  1  0.73144860  0.26855140  0.79425870  1.0
  O  O9  1  1.26855140  -0.26855140  0.20574130  1.0
