# generated using pymatgen
data_TaO12
_symmetry_space_group_name_H-M   'P 1'
_cell_length_a   7.62809483
_cell_length_b   7.62809483
_cell_length_c   7.62809483
_cell_angle_alpha   60.00000000
_cell_angle_beta   60.00000000
_cell_angle_gamma   60.00000000
_symmetry_Int_Tables_number   1
_chemical_formula_structural   TaO12
_chemical_formula_sum   'Ta2 O24'
_cell_volume   313.85803603
_cell_formula_units_Z   2
loop_
 _symmetry_equiv_pos_site_id
 _symmetry_equiv_pos_as_xyz
  1  'x, y, z'
loop_
 _atom_site_type_symbol
 _atom_site_label
 _atom_site_symmetry_multiplicity
 _atom_site_fract_x
 _atom_site_fract_y
 _atom_site_fract_z
 _atom_site_occupancy
  Ta  Ta0  1  0.50000000  0.50000000  -0.50000000  1.0
  Ta  Ta1  1  0.75000000  -0.25000000  0.75000000  1.0
  O  O2  1  0.77797892  -0.56379388  1.00783604  1.0
  O  O3  1  -0.22202108  1.00783604  0.43620612  1.0
  O  O4  1  -0.18620612  0.47202108  0.47202108  1.0
  O  O5  1  0.24216396  0.47202108  0.47202108  1.0
  O  O6  1  -0.56379388  0.77797892  1.00783604  1.0
  O  O7  1  0.77797892  -0.22202108  1.00783604  1.0
  O  O8  1  0.77797892  0.00783604  0.77797892  1.0
  O  O9  1  -0.56379388  1.00783604  0.77797892  1.0
  O  O10  1  0.47202108  -0.18620612  0.47202108  1.0
  O  O11  1  0.47202108  0.47202108  -0.18620612  1.0
  O  O12  1  0.24216396  0.47202108  -0.18620612  1.0
  O  O13  1  0.24216396  -0.18620612  0.47202108  1.0
  O  O14  1  1.00783604  -0.22202108  0.77797892  1.0
  O  O15  1  -0.56379388  0.77797892  0.77797892  1.0
  O  O16  1  0.47202108  0.24216396  -0.18620612  1.0
  O  O17  1  0.47202108  -0.18620612  0.24216396  1.0
  O  O18  1  0.00783604  0.77797892  0.43620612  1.0
  O  O19  1  1.00783604  -0.56379388  0.77797892  1.0
  O  O20  1  0.77797892  -0.56379388  0.77797892  1.0
  O  O21  1  -0.22202108  0.77797892  0.43620612  1.0
  O  O22  1  0.47202108  0.24216396  0.47202108  1.0
  O  O23  1  -0.18620612  0.24216396  0.47202108  1.0
  O  O24  1  -0.18620612  0.47202108  0.24216396  1.0
  O  O25  1  0.47202108  0.47202108  0.24216396  1.0
