# generated using pymatgen
data_LiLa6IrI12
_symmetry_space_group_name_H-M   'P 1'
_cell_length_a   10.19216336
_cell_length_b   10.19216336
_cell_length_c   10.19216336
_cell_angle_alpha   107.66797318
_cell_angle_beta   107.66797318
_cell_angle_gamma   107.66797318
_symmetry_Int_Tables_number   1
_chemical_formula_structural   LiLa6IrI12
_chemical_formula_sum   'Li1 La6 Ir1 I12'
_cell_volume   865.17916459
_cell_formula_units_Z   1
loop_
 _symmetry_equiv_pos_site_id
 _symmetry_equiv_pos_as_xyz
  1  'x, y, z'
loop_
 _atom_site_type_symbol
 _atom_site_label
 _atom_site_symmetry_multiplicity
 _atom_site_fract_x
 _atom_site_fract_y
 _atom_site_fract_z
 _atom_site_occupancy
  Li  Li0  1  0.50000000  0.50000000  0.50000000  1.0
  La  La1  1  1.68627558  0.88921937  -0.03467842  1.0
  La  La2  1  1.11078063  0.03467842  -0.68627558  1.0
  La  La3  1  1.03467842  -0.68627558  0.11078063  1.0
  La  La4  1  0.31372442  0.11078063  0.03467842  1.0
  La  La5  1  0.88921937  0.96532158  0.68627558  1.0
  La  La6  1  0.96532158  1.68627558  -0.11078063  1.0
  Ir  Ir7  1  0.00000000  0.00000000  0.00000000  1.0
  I  I8  1  1.61134545  0.53169651  -0.17209427  1.0
  I  I9  1  0.46830349  1.17209427  -0.61134545  1.0
  I  I10  1  1.17209427  0.38865455  -0.53169651  1.0
  I  I11  1  0.38865455  0.46830349  0.17209427  1.0
  I  I12  1  1.53169651  -0.17209427  0.61134545  1.0
  I  I13  1  0.82790573  0.61134545  0.53169651  1.0
  I  I14  1  0.68182152  0.22260499  0.07102013  1.0
  I  I15  1  0.77739501  0.92897987  0.31817848  1.0
  I  I16  1  0.92897987  1.31817848  -0.22260499  1.0
  I  I17  1  1.31817848  0.77739501  -0.07102013  1.0
  I  I18  1  1.22260499  0.07102013  -0.31817848  1.0
  I  I19  1  1.07102013  -0.31817848  0.22260499  1.0
