# generated using pymatgen
data_CrRe6(NiMo)4
_symmetry_space_group_name_H-M   'P 1'
_cell_length_a   9.18548610
_cell_length_b   9.18548610
_cell_length_c   4.90754803
_cell_angle_alpha   90.00000000
_cell_angle_beta   90.00000000
_cell_angle_gamma   90.00000000
_symmetry_Int_Tables_number   1
_chemical_formula_structural   CrRe6(NiMo)4
_chemical_formula_sum   'Cr2 Re12 Ni8 Mo8'
_cell_volume   414.06531066
_cell_formula_units_Z   2
loop_
 _symmetry_equiv_pos_site_id
 _symmetry_equiv_pos_as_xyz
  1  'x, y, z'
loop_
 _atom_site_type_symbol
 _atom_site_label
 _atom_site_symmetry_multiplicity
 _atom_site_fract_x
 _atom_site_fract_y
 _atom_site_fract_z
 _atom_site_occupancy
  Cr  Cr0  1  0.50000000  0.50000000  0.50000000  1.0
  Cr  Cr1  1  0.00000000  0.00000000  0.00000000  1.0
  Re  Re2  1  0.10010306  0.89989694  0.50000000  1.0
  Re  Re3  1  0.89989694  0.10010306  0.50000000  1.0
  Re  Re4  1  0.39989694  0.39989694  0.00000000  1.0
  Re  Re5  1  0.60010306  0.60010306  0.00000000  1.0
  Re  Re6  1  0.31734133  0.68265867  0.25100125  1.0
  Re  Re7  1  0.68265867  0.31734133  0.25100125  1.0
  Re  Re8  1  0.18265867  0.18265867  0.75100125  1.0
  Re  Re9  1  0.81734133  0.81734133  0.75100125  1.0
  Re  Re10  1  0.68265867  0.31734133  0.74899875  1.0
  Re  Re11  1  0.31734133  0.68265867  0.74899875  1.0
  Re  Re12  1  0.81734133  0.81734133  0.24899875  1.0
  Re  Re13  1  0.18265867  0.18265867  0.24899875  1.0
  Ni  Ni14  1  0.43269666  0.24593825  0.50000000  1.0
  Ni  Ni15  1  0.56730334  0.75406175  0.50000000  1.0
  Ni  Ni16  1  0.06730334  0.74593825  0.00000000  1.0
  Ni  Ni17  1  0.93269666  0.25406175  0.00000000  1.0
  Ni  Ni18  1  0.24593825  0.43269666  0.50000000  1.0
  Ni  Ni19  1  0.75406175  0.56730334  0.50000000  1.0
  Ni  Ni20  1  0.74593825  0.06730334  0.00000000  1.0
  Ni  Ni21  1  0.25406175  0.93269666  0.00000000  1.0
  Mo  Mo22  1  0.36868361  0.96247074  0.50000000  1.0
  Mo  Mo23  1  0.63131639  0.03752926  0.50000000  1.0
  Mo  Mo24  1  0.13131639  0.46247074  0.00000000  1.0
  Mo  Mo25  1  0.86868361  0.53752926  0.00000000  1.0
  Mo  Mo26  1  0.96247074  0.36868361  0.50000000  1.0
  Mo  Mo27  1  0.03752926  0.63131639  0.50000000  1.0
  Mo  Mo28  1  0.46247074  0.13131639  0.00000000  1.0
  Mo  Mo29  1  0.53752926  0.86868361  0.00000000  1.0
