# generated using pymatgen
data_Cu(RhO2)2
_symmetry_space_group_name_H-M   'P 1'
_cell_length_a   6.07739929
_cell_length_b   6.07739929
_cell_length_c   6.07739929
_cell_angle_alpha   120.03499677
_cell_angle_beta   120.03499677
_cell_angle_gamma   89.93939450
_symmetry_Int_Tables_number   1
_chemical_formula_structural   Cu(RhO2)2
_chemical_formula_sum   'Cu2 Rh4 O8'
_cell_volume   158.63837727
_cell_formula_units_Z   2
loop_
 _symmetry_equiv_pos_site_id
 _symmetry_equiv_pos_as_xyz
  1  'x, y, z'
loop_
 _atom_site_type_symbol
 _atom_site_label
 _atom_site_symmetry_multiplicity
 _atom_site_fract_x
 _atom_site_fract_y
 _atom_site_fract_z
 _atom_site_occupancy
  Cu  Cu0  1  0.00000000  0.00000000  0.00000000  1.0
  Cu  Cu1  1  0.75000000  1.25000000  0.50000000  1.0
  Rh  Rh2  1  0.87500000  1.62500338  1.25000338  1.0
  Rh  Rh3  1  1.37500338  1.12500000  0.75000338  1.0
  Rh  Rh4  1  0.37499662  0.62500000  0.24999662  1.0
  Rh  Rh5  1  0.37500000  0.62499662  0.74999662  1.0
  O  O6  1  1.13675983  0.86372675  0.72697378  1.0
  O  O7  1  0.61324017  0.84021394  0.22696692  1.0
  O  O8  1  0.61372675  1.38675983  1.22697378  1.0
  O  O9  1  1.13627325  1.86324702  1.27303308  1.0
  O  O10  1  0.61324702  0.38627325  0.77303308  1.0
  O  O11  1  1.13675298  1.40978606  1.27302622  1.0
  O  O12  1  1.59021394  0.86324017  0.72696692  1.0
  O  O13  1  1.15978606  1.38675298  0.77302622  1.0
