# generated using pymatgen
data_Y(Al5Ru)2
_symmetry_space_group_name_H-M   'P 1'
_cell_length_a   6.84973569
_cell_length_b   6.84973569
_cell_length_c   9.14297140
_cell_angle_alpha   90.00000000
_cell_angle_beta   90.00000000
_cell_angle_gamma   96.71686922
_symmetry_Int_Tables_number   1
_chemical_formula_structural   Y(Al5Ru)2
_chemical_formula_sum   'Y2 Al20 Ru4'
_cell_volume   426.03357372
_cell_formula_units_Z   2
loop_
 _symmetry_equiv_pos_site_id
 _symmetry_equiv_pos_as_xyz
  1  'x, y, z'
loop_
 _atom_site_type_symbol
 _atom_site_label
 _atom_site_symmetry_multiplicity
 _atom_site_fract_x
 _atom_site_fract_y
 _atom_site_fract_z
 _atom_site_occupancy
  Y  Y0  1  0.12775480  0.87224520  0.25000000  1.0
  Y  Y1  1  -0.12775480  1.12775480  0.75000000  1.0
  Al  Al2  1  0.14237793  0.41378696  0.25000000  1.0
  Al  Al3  1  -0.58621304  1.14237793  0.75000000  1.0
  Al  Al4  1  0.58621304  0.85762207  0.25000000  1.0
  Al  Al5  1  -0.14237793  1.58621304  0.75000000  1.0
  Al  Al6  1  -0.21906456  1.51963025  0.25000000  1.0
  Al  Al7  1  0.51963025  0.78093544  0.75000000  1.0
  Al  Al8  1  -0.51963025  1.21906456  0.25000000  1.0
  Al  Al9  1  0.21906456  0.48036975  0.75000000  1.0
  Al  Al10  1  0.15672740  0.84327260  0.89944622  1.0
  Al  Al11  1  0.15672740  0.84327260  0.60055378  1.0
  Al  Al12  1  -0.15672740  1.15672740  0.39944622  1.0
  Al  Al13  1  -0.15672740  1.15672740  0.10055378  1.0
  Al  Al14  1  0.37662573  0.62337427  0.45138736  1.0
  Al  Al15  1  0.37662573  0.62337427  0.04861264  1.0
  Al  Al16  1  -0.37662573  1.37662573  0.95138736  1.0
  Al  Al17  1  -0.37662573  1.37662573  0.54861264  1.0
  Al  Al18  1  0.77460722  0.77460722  0.50000000  1.0
  Al  Al19  1  0.77460722  0.77460722  -0.00000000  1.0
  Al  Al20  1  0.22539278  0.22539278  0.50000000  1.0
  Al  Al21  1  0.22539278  0.22539278  -0.00000000  1.0
  Ru  Ru22  1  0.00000000  1.50000000  0.50000000  1.0
  Ru  Ru23  1  0.00000000  1.50000000  0.00000000  1.0
  Ru  Ru24  1  0.50000000  1.00000000  -0.00000000  1.0
  Ru  Ru25  1  0.50000000  1.00000000  0.50000000  1.0
