# generated using pymatgen
data_CsSmHgSe3
_symmetry_space_group_name_H-M   'P 1'
_cell_length_a   8.43715583
_cell_length_b   8.43715583
_cell_length_c   11.35513811
_cell_angle_alpha   90.00000000
_cell_angle_beta   90.00000000
_cell_angle_gamma   149.82794666
_symmetry_Int_Tables_number   1
_chemical_formula_structural   CsSmHgSe3
_chemical_formula_sum   'Cs2 Sm2 Hg2 Se6'
_cell_volume   406.26143712
_cell_formula_units_Z   2
loop_
 _symmetry_equiv_pos_site_id
 _symmetry_equiv_pos_as_xyz
  1  'x, y, z'
loop_
 _atom_site_type_symbol
 _atom_site_label
 _atom_site_symmetry_multiplicity
 _atom_site_fract_x
 _atom_site_fract_y
 _atom_site_fract_z
 _atom_site_occupancy
  Hg  Hg0  1  0.45675012  0.54324988  0.75000000  1.0
  Hg  Hg1  1  -0.45675012  0.45675012  0.25000000  1.0
  Se  Se2  1  0.06157603  0.93842397  0.75000000  1.0
  Se  Se3  1  -0.06157603  0.06157603  0.25000000  1.0
  Se  Se4  1  0.38015604  0.61984396  0.95340275  1.0
  Se  Se5  1  0.38015604  0.61984396  0.54659725  1.0
  Se  Se6  1  -0.38015604  0.38015604  0.45340275  1.0
  Se  Se7  1  -0.38015604  0.38015604  0.04659725  1.0
  Sm  Sm8  1  0.00000000  0.00000000  0.00000000  1.0
  Sm  Sm9  1  0.00000000  0.00000000  0.50000000  1.0
  Cs  Cs10  1  -0.25623179  0.25623179  0.75000000  1.0
  Cs  Cs11  1  0.25623179  0.74376821  0.25000000  1.0
