# generated using pymatgen
data_K2ZnCr2(H2O5)2
_symmetry_space_group_name_H-M   'P 1'
_cell_length_a   8.03794885
_cell_length_b   8.03794885
_cell_length_c   12.61714293
_cell_angle_alpha   66.56009167
_cell_angle_beta   113.43990833
_cell_angle_gamma   138.40631248
_symmetry_Int_Tables_number   1
_chemical_formula_structural   K2ZnCr2(H2O5)2
_chemical_formula_sum   'K4 Zn2 Cr4 H8 O20'
_cell_volume   489.71514557
_cell_formula_units_Z   2
loop_
 _symmetry_equiv_pos_site_id
 _symmetry_equiv_pos_as_xyz
  1  'x, y, z'
loop_
 _atom_site_type_symbol
 _atom_site_label
 _atom_site_symmetry_multiplicity
 _atom_site_fract_x
 _atom_site_fract_y
 _atom_site_fract_z
 _atom_site_occupancy
  K  K0  1  0.69846382  -0.03765214  0.45676463  1.0
  K  K1  1  1.03765214  -0.69846382  0.95676463  1.0
  K  K2  1  0.96234786  0.69846382  0.04323537  1.0
  K  K3  1  1.30153618  0.03765214  0.54323537  1.0
  Zn  Zn4  1  0.85958519  0.85958519  0.25000000  1.0
  Zn  Zn5  1  0.14041481  0.14041481  0.75000000  1.0
  Cr  Cr6  1  0.46719636  0.24177140  0.20967390  1.0
  Cr  Cr7  1  0.75822860  -0.46719636  0.70967390  1.0
  Cr  Cr8  1  1.24177140  0.46719636  0.29032610  1.0
  Cr  Cr9  1  1.53280364  -0.24177140  0.79032610  1.0
  H  H10  1  1.50519077  -0.19320425  0.10283960  1.0
  H  H11  1  1.19320425  -0.50519077  0.60283960  1.0
  H  H12  1  0.80679575  0.50519077  0.39716040  1.0
  H  H13  1  0.49480923  0.19320425  0.89716040  1.0
  H  H14  1  1.67178839  0.06682312  0.13493521  1.0
  H  H15  1  0.93317688  -0.67178839  0.63493521  1.0
  H  H16  1  1.06682312  0.67178839  0.36506479  1.0
  H  H17  1  0.32821161  -0.06682312  0.86506479  1.0
  O  O18  1  1.54639520  -0.37493354  0.33961214  1.0
  O  O19  1  1.37493354  -0.54639520  0.83961214  1.0
  O  O20  1  0.62506646  0.54639520  0.16038786  1.0
  O  O21  1  0.45360480  0.37493354  0.66038786  1.0
  O  O22  1  1.84700168  -0.05782588  0.83685874  1.0
  O  O23  1  1.05782588  -0.84700168  0.33685874  1.0
  O  O24  1  0.94217412  0.84700168  0.66314126  1.0
  O  O25  1  0.15299832  0.05782588  0.16314126  1.0
  O  O26  1  1.68445098  -0.02677241  0.11063134  1.0
  O  O27  1  1.02677241  -0.68445098  0.61063134  1.0
  O  O28  1  0.97322759  0.68445098  0.38936866  1.0
  O  O29  1  0.31554902  0.02677241  0.88936866  1.0
  O  O30  1  0.56638629  0.17341838  0.15877790  1.0
  O  O31  1  0.82658162  -0.56638629  0.65877790  1.0
  O  O32  1  1.17341838  0.56638629  0.34122210  1.0
  O  O33  1  1.43361371  -0.17341838  0.84122210  1.0
  O  O34  1  0.52748113  0.19702854  0.35373499  1.0
  O  O35  1  0.80297146  0.47251887  0.85373499  1.0
  O  O36  1  1.19702854  -0.47251887  0.14626501  1.0
  O  O37  1  1.47251887  -0.19702854  0.64626501  1.0
