# generated using pymatgen
data_Hf9AsW4
_symmetry_space_group_name_H-M   'P 1'
_cell_length_a   8.70784203
_cell_length_b   8.70784203
_cell_length_c   8.69896438
_cell_angle_alpha   90.00000000
_cell_angle_beta   90.00000000
_cell_angle_gamma   120.00000000
_symmetry_Int_Tables_number   1
_chemical_formula_structural   Hf9AsW4
_chemical_formula_sum   'Hf18 As2 W8'
_cell_volume   571.24086502
_cell_formula_units_Z   2
loop_
 _symmetry_equiv_pos_site_id
 _symmetry_equiv_pos_as_xyz
  1  'x, y, z'
loop_
 _atom_site_type_symbol
 _atom_site_label
 _atom_site_symmetry_multiplicity
 _atom_site_fract_x
 _atom_site_fract_y
 _atom_site_fract_z
 _atom_site_occupancy
  Hf  Hf0  1  0.19495541  0.80504459  0.45342441  1.0
  Hf  Hf1  1  0.19495541  0.38991082  0.45342441  1.0
  Hf  Hf2  1  0.61008918  0.80504459  0.45342441  1.0
  Hf  Hf3  1  0.80504459  0.19495541  0.54657559  1.0
  Hf  Hf4  1  0.80504459  0.61008918  0.54657559  1.0
  Hf  Hf5  1  0.38991082  0.19495541  0.54657559  1.0
  Hf  Hf6  1  0.80504459  0.19495541  0.95342441  1.0
  Hf  Hf7  1  0.80504459  0.61008918  0.95342441  1.0
  Hf  Hf8  1  0.38991082  0.19495541  0.95342441  1.0
  Hf  Hf9  1  0.19495541  0.80504459  0.04657559  1.0
  Hf  Hf10  1  0.19495541  0.38991082  0.04657559  1.0
  Hf  Hf11  1  0.61008918  0.80504459  0.04657559  1.0
  Hf  Hf12  1  0.54052624  0.45947376  0.25000000  1.0
  Hf  Hf13  1  0.54052624  0.08105248  0.25000000  1.0
  Hf  Hf14  1  0.91894752  0.45947376  0.25000000  1.0
  Hf  Hf15  1  0.45947376  0.54052624  0.75000000  1.0
  Hf  Hf16  1  0.45947376  0.91894752  0.75000000  1.0
  Hf  Hf17  1  0.08105248  0.54052624  0.75000000  1.0
  As  As18  1  0.33333333  0.66666667  0.25000000  1.0
  As  As19  1  0.66666667  0.33333333  0.75000000  1.0
  W  W20  1  0.89015522  0.10984478  0.25000000  1.0
  W  W21  1  0.89015522  0.78031044  0.25000000  1.0
  W  W22  1  0.21968956  0.10984478  0.25000000  1.0
  W  W23  1  0.10984478  0.89015522  0.75000000  1.0
  W  W24  1  0.10984478  0.21968956  0.75000000  1.0
  W  W25  1  0.78031044  0.89015522  0.75000000  1.0
  W  W26  1  0.00000000  0.00000000  0.50000000  1.0
  W  W27  1  0.00000000  0.00000000  0.00000000  1.0
