# generated using pymatgen
data_ZrNCl
_symmetry_space_group_name_H-M   'P 1'
_cell_length_a   3.54647777
_cell_length_b   4.14571784
_cell_length_c   8.99228486
_cell_angle_alpha   90.00000000
_cell_angle_beta   90.00000000
_cell_angle_gamma   90.00000000
_symmetry_Int_Tables_number   1
_chemical_formula_structural   ZrNCl
_chemical_formula_sum   'Zr2 N2 Cl2'
_cell_volume   132.21083215
_cell_formula_units_Z   2
loop_
 _symmetry_equiv_pos_site_id
 _symmetry_equiv_pos_as_xyz
  1  'x, y, z'
loop_
 _atom_site_type_symbol
 _atom_site_label
 _atom_site_symmetry_multiplicity
 _atom_site_fract_x
 _atom_site_fract_y
 _atom_site_fract_z
 _atom_site_occupancy
  Zr  Zr0  1  0.00000000  0.50000000  0.09941815  1.0
  Zr  Zr1  1  0.50000000  0.00000000  0.90058185  1.0
  N  N2  1  0.00000000  0.00000000  0.03498939  1.0
  N  N3  1  0.50000000  0.50000000  0.96501061  1.0
  Cl  Cl4  1  0.00000000  0.00000000  0.68522071  1.0
  Cl  Cl5  1  0.50000000  0.50000000  0.31477929  1.0
