# generated using pymatgen
data_C3BrF2
_symmetry_space_group_name_H-M   'P 1'
_cell_length_a   6.45411317
_cell_length_b   24.43280054
_cell_length_c   6.06559846
_cell_angle_alpha   90.00000000
_cell_angle_beta   87.70506785
_cell_angle_gamma   90.00000000
_symmetry_Int_Tables_number   1
_chemical_formula_structural   C3BrF2
_chemical_formula_sum   'C24 Br8 F16'
_cell_volume   955.72954732
_cell_formula_units_Z   8
loop_
 _symmetry_equiv_pos_site_id
 _symmetry_equiv_pos_as_xyz
  1  'x, y, z'
loop_
 _atom_site_type_symbol
 _atom_site_label
 _atom_site_symmetry_multiplicity
 _atom_site_fract_x
 _atom_site_fract_y
 _atom_site_fract_z
 _atom_site_occupancy
  C  C0  1  0.84059682  0.15272144  0.69824048  1.0
  C  C1  1  0.15940318  0.65272144  0.80175952  1.0
  C  C2  1  0.15940318  0.84727856  0.30175952  1.0
  C  C3  1  0.84059682  0.34727856  0.19824048  1.0
  C  C4  1  0.76675557  0.10708686  0.58859367  1.0
  C  C5  1  0.23324443  0.60708686  0.91140633  1.0
  C  C6  1  0.23324443  0.89291314  0.41140633  1.0
  C  C7  1  0.76675557  0.39291314  0.08859367  1.0
  C  C8  1  0.87912205  0.08346885  0.41168121  1.0
  C  C9  1  0.12087795  0.58346885  0.08831879  1.0
  C  C10  1  0.12087795  0.91653115  0.58831879  1.0
  C  C11  1  0.87912205  0.41653115  0.91168121  1.0
  C  C12  1  0.07049481  0.10651613  0.34474808  1.0
  C  C13  1  0.92950519  0.60651613  0.15525192  1.0
  C  C14  1  0.92950519  0.89348387  0.65525192  1.0
  C  C15  1  0.07049481  0.39348387  0.84474808  1.0
  C  C16  1  0.14775869  0.15187700  0.45279187  1.0
  C  C17  1  0.85224131  0.65187700  0.04720813  1.0
  C  C18  1  0.85224131  0.84812300  0.54720813  1.0
  C  C19  1  0.14775869  0.34812300  0.95279187  1.0
  C  C20  1  0.03270540  0.17475807  0.62879166  1.0
  C  C21  1  0.96729460  0.67475807  0.87120834  1.0
  C  C22  1  0.96729460  0.82524193  0.37120834  1.0
  C  C23  1  0.03270540  0.32524193  0.12879166  1.0
  Br  Br24  1  0.68545181  0.18497475  0.93430526  1.0
  Br  Br25  1  0.31454819  0.68497475  0.56569474  1.0
  Br  Br26  1  0.31454819  0.81502525  0.06569474  1.0
  Br  Br27  1  0.68545181  0.31502525  0.43430526  1.0
  Br  Br28  1  0.77657256  0.02223072  0.26271570  1.0
  Br  Br29  1  0.22342744  0.52223072  0.23728430  1.0
  Br  Br30  1  0.22342744  0.97776928  0.73728430  1.0
  Br  Br31  1  0.77657256  0.47776928  0.76271570  1.0
  F  F32  1  0.58217803  0.08529576  0.65417403  1.0
  F  F33  1  0.41782197  0.58529576  0.84582597  1.0
  F  F34  1  0.41782197  0.91470424  0.34582597  1.0
  F  F35  1  0.58217803  0.41470424  0.15417403  1.0
  F  F36  1  0.18222830  0.08518058  0.17342043  1.0
  F  F37  1  0.81777170  0.58518058  0.32657957  1.0
  F  F38  1  0.81777170  0.91481942  0.82657957  1.0
  F  F39  1  0.18222830  0.41481942  0.67342043  1.0
  F  F40  1  0.33213860  0.17379916  0.38748724  1.0
  F  F41  1  0.66786140  0.67379916  0.11251276  1.0
  F  F42  1  0.66786140  0.82620084  0.61251276  1.0
  F  F43  1  0.33213860  0.32620084  0.88748724  1.0
  F  F44  1  0.10968895  0.21863912  0.73122528  1.0
  F  F45  1  0.89031105  0.71863912  0.76877472  1.0
  F  F46  1  0.89031105  0.78136088  0.26877472  1.0
  F  F47  1  0.10968895  0.28136088  0.23122528  1.0
