# generated using pymatgen
data_TePb
_symmetry_space_group_name_H-M   'P 1'
_cell_length_a   9.26228335
_cell_length_b   4.63557957
_cell_length_c   6.55619215
_cell_angle_alpha   90.00000000
_cell_angle_beta   90.00000000
_cell_angle_gamma   90.00000000
_symmetry_Int_Tables_number   1
_chemical_formula_structural   TePb
_chemical_formula_sum   'Te4 Pb4'
_cell_volume   281.49700332
_cell_formula_units_Z   4
loop_
 _symmetry_equiv_pos_site_id
 _symmetry_equiv_pos_as_xyz
  1  'x, y, z'
loop_
 _atom_site_type_symbol
 _atom_site_label
 _atom_site_symmetry_multiplicity
 _atom_site_fract_x
 _atom_site_fract_y
 _atom_site_fract_z
 _atom_site_occupancy
  Te  Te0  1  0.37474193  0.75000000  0.25027376  1.0
  Te  Te1  1  0.87474193  0.75000000  0.24972624  1.0
  Te  Te2  1  0.62525807  0.25000000  0.74972624  1.0
  Te  Te3  1  0.12525807  0.25000000  0.75027376  1.0
  Pb  Pb4  1  0.37561866  0.75000000  0.75030195  1.0
  Pb  Pb5  1  0.87561866  0.75000000  0.74969805  1.0
  Pb  Pb6  1  0.62438134  0.25000000  0.24969805  1.0
  Pb  Pb7  1  0.12438134  0.25000000  0.25030195  1.0
