# generated using pymatgen
data_MnB4
_symmetry_space_group_name_H-M   'P 1'
_cell_length_a   4.60637714
_cell_length_b   5.35203473
_cell_length_c   2.93699358
_cell_angle_alpha   90.00000000
_cell_angle_beta   90.00000000
_cell_angle_gamma   90.00000000
_symmetry_Int_Tables_number   1
_chemical_formula_structural   MnB4
_chemical_formula_sum   'Mn2 B8'
_cell_volume   72.40714326
_cell_formula_units_Z   2
loop_
 _symmetry_equiv_pos_site_id
 _symmetry_equiv_pos_as_xyz
  1  'x, y, z'
loop_
 _atom_site_type_symbol
 _atom_site_label
 _atom_site_symmetry_multiplicity
 _atom_site_fract_x
 _atom_site_fract_y
 _atom_site_fract_z
 _atom_site_occupancy
  Mn  Mn0  1  0.50000000  0.50000000  0.50000000  1.0
  Mn  Mn1  1  0.00000000  0.00000000  0.00000000  1.0
  B  B2  1  0.33411568  0.13164692  0.50000000  1.0
  B  B3  1  0.83411568  0.36835308  0.00000000  1.0
  B  B4  1  0.66588432  0.86835308  0.50000000  1.0
  B  B5  1  0.16588432  0.63164692  0.00000000  1.0
  B  B6  1  0.26508664  0.81669052  0.50000000  1.0
  B  B7  1  0.76508664  0.68330948  0.00000000  1.0
  B  B8  1  0.73491336  0.18330948  0.50000000  1.0
  B  B9  1  0.23491336  0.31669052  0.00000000  1.0
