# generated using pymatgen
data_SiO2
_symmetry_space_group_name_H-M   'P 1'
_cell_length_a   12.74843796
_cell_length_b   12.74843796
_cell_length_c   3.78544081
_cell_angle_alpha   90.00000000
_cell_angle_beta   90.00000000
_cell_angle_gamma   120.00000000
_symmetry_Int_Tables_number   1
_chemical_formula_structural   SiO2
_chemical_formula_sum   'Si12 O24'
_cell_volume   532.79610550
_cell_formula_units_Z   12
loop_
 _symmetry_equiv_pos_site_id
 _symmetry_equiv_pos_as_xyz
  1  'x, y, z'
loop_
 _atom_site_type_symbol
 _atom_site_label
 _atom_site_symmetry_multiplicity
 _atom_site_fract_x
 _atom_site_fract_y
 _atom_site_fract_z
 _atom_site_occupancy
  Si  Si0  1  0.68656114  0.54460614  0.65455267  1.0
  Si  Si1  1  0.45539386  0.14195500  0.65455267  1.0
  Si  Si2  1  0.85804500  0.31343886  0.65455267  1.0
  Si  Si3  1  0.31343886  0.45539386  0.65455267  1.0
  Si  Si4  1  0.54460614  0.85804500  0.65455267  1.0
  Si  Si5  1  0.14195500  0.68656114  0.65455267  1.0
  Si  Si6  1  0.54460614  0.68656114  0.34544733  1.0
  Si  Si7  1  0.14195500  0.45539386  0.34544733  1.0
  Si  Si8  1  0.31343886  0.85804500  0.34544733  1.0
  Si  Si9  1  0.45539386  0.31343886  0.34544733  1.0
  Si  Si10  1  0.85804500  0.54460614  0.34544733  1.0
  Si  Si11  1  0.68656114  0.14195500  0.34544733  1.0
  O  O12  1  0.17912257  0.35824513  0.50000000  1.0
  O  O13  1  0.64175487  0.82087743  0.50000000  1.0
  O  O14  1  0.17912257  0.82087743  0.50000000  1.0
  O  O15  1  0.82087743  0.64175487  0.50000000  1.0
  O  O16  1  0.35824513  0.17912257  0.50000000  1.0
  O  O17  1  0.82087743  0.17912257  0.50000000  1.0
  O  O18  1  0.18364747  0.59182373  0.50000000  1.0
  O  O19  1  0.40817627  0.59182373  0.50000000  1.0
  O  O20  1  0.40817627  0.81635253  0.50000000  1.0
  O  O21  1  0.81635253  0.40817627  0.50000000  1.0
  O  O22  1  0.59182373  0.40817627  0.50000000  1.0
  O  O23  1  0.59182373  0.18364747  0.50000000  1.0
  O  O24  1  -0.00000000  0.38633390  0.50000000  1.0
  O  O25  1  0.61366610  0.61366610  0.50000000  1.0
  O  O26  1  0.38633390  -0.00000000  0.50000000  1.0
  O  O27  1  0.00000000  0.61366610  0.50000000  1.0
  O  O28  1  0.38633390  0.38633390  0.50000000  1.0
  O  O29  1  0.61366610  -0.00000000  0.50000000  1.0
  O  O30  1  0.24564927  0.49129854  -0.00000000  1.0
  O  O31  1  0.50870146  0.75435073  -0.00000000  1.0
  O  O32  1  0.24564927  0.75435073  -0.00000000  1.0
  O  O33  1  0.75435073  0.50870146  0.00000000  1.0
  O  O34  1  0.49129854  0.24564927  -0.00000000  1.0
  O  O35  1  0.75435073  0.24564927  -0.00000000  1.0
