# generated using pymatgen
data_BaCuSn2
_symmetry_space_group_name_H-M   'P 1'
_cell_length_a   10.09574758
_cell_length_b   10.09574758
_cell_length_c   4.71227667
_cell_angle_alpha   90.00000000
_cell_angle_beta   90.00000000
_cell_angle_gamma   152.18642878
_symmetry_Int_Tables_number   1
_chemical_formula_structural   BaCuSn2
_chemical_formula_sum   'Ba2 Cu2 Sn4'
_cell_volume   224.10363499
_cell_formula_units_Z   2
loop_
 _symmetry_equiv_pos_site_id
 _symmetry_equiv_pos_as_xyz
  1  'x, y, z'
loop_
 _atom_site_type_symbol
 _atom_site_label
 _atom_site_symmetry_multiplicity
 _atom_site_fract_x
 _atom_site_fract_y
 _atom_site_fract_z
 _atom_site_occupancy
  Ba  Ba0  1  0.39157194  0.60842806  0.75000000  1.0
  Ba  Ba1  1  -0.39157194  0.39157194  0.25000000  1.0
  Cu  Cu2  1  0.17932356  0.82067644  0.75000000  1.0
  Cu  Cu3  1  -0.17932356  0.17932356  0.25000000  1.0
  Sn  Sn4  1  0.04333101  0.95666899  0.75000000  1.0
  Sn  Sn5  1  -0.04333101  0.04333101  0.25000000  1.0
  Sn  Sn6  1  -0.24956185  0.24956185  0.75000000  1.0
  Sn  Sn7  1  0.24956185  0.75043815  0.25000000  1.0
