# generated using pymatgen
data_GaBiSe
_symmetry_space_group_name_H-M   'P 1'
_cell_length_a   9.54107946
_cell_length_b   9.54107946
_cell_length_c   14.73082214
_cell_angle_alpha   90.00000000
_cell_angle_beta   90.00000000
_cell_angle_gamma   90.00000000
_symmetry_Int_Tables_number   1
_chemical_formula_structural   GaBiSe
_chemical_formula_sum   'Ga16 Bi16 Se16'
_cell_volume   1340.97910795
_cell_formula_units_Z   16
loop_
 _symmetry_equiv_pos_site_id
 _symmetry_equiv_pos_as_xyz
  1  'x, y, z'
loop_
 _atom_site_type_symbol
 _atom_site_label
 _atom_site_symmetry_multiplicity
 _atom_site_fract_x
 _atom_site_fract_y
 _atom_site_fract_z
 _atom_site_occupancy
  Ga  Ga0  1  0.35124539  0.64875461  0.50000000  1.0
  Ga  Ga1  1  0.35124539  0.35124539  0.50000000  1.0
  Ga  Ga2  1  0.85124539  0.14875461  -0.00000000  1.0
  Ga  Ga3  1  0.85124539  0.85124539  0.00000000  1.0
  Ga  Ga4  1  0.64875461  0.35124539  0.50000000  1.0
  Ga  Ga5  1  0.64875461  0.64875461  0.50000000  1.0
  Ga  Ga6  1  0.14875461  0.85124539  -0.00000000  1.0
  Ga  Ga7  1  0.14875461  0.14875461  0.00000000  1.0
  Ga  Ga8  1  0.25000000  0.75000000  0.75000000  1.0
  Ga  Ga9  1  0.25000000  0.25000000  0.25000000  1.0
  Ga  Ga10  1  0.75000000  0.25000000  0.75000000  1.0
  Ga  Ga11  1  0.75000000  0.75000000  0.25000000  1.0
  Ga  Ga12  1  0.75000000  0.25000000  0.25000000  1.0
  Ga  Ga13  1  0.75000000  0.75000000  0.75000000  1.0
  Ga  Ga14  1  0.25000000  0.75000000  0.25000000  1.0
  Ga  Ga15  1  0.25000000  0.25000000  0.75000000  1.0
  Bi  Bi16  1  0.26542695  -0.00000570  0.39421700  1.0
  Bi  Bi17  1  0.26542695  1.00000570  0.60578300  1.0
  Bi  Bi18  1  0.76542695  0.49999430  0.10578300  1.0
  Bi  Bi19  1  0.76542695  0.50000570  0.89421700  1.0
  Bi  Bi20  1  -0.00000570  0.26542695  0.60578300  1.0
  Bi  Bi21  1  -0.00000570  0.73457305  0.39421700  1.0
  Bi  Bi22  1  0.49999430  0.76542695  0.89421700  1.0
  Bi  Bi23  1  0.49999430  0.23457305  0.10578300  1.0
  Bi  Bi24  1  0.73457305  -0.00000570  0.60578300  1.0
  Bi  Bi25  1  0.73457305  1.00000570  0.39421700  1.0
  Bi  Bi26  1  0.23457305  0.49999430  0.89421700  1.0
  Bi  Bi27  1  0.23457305  0.50000570  0.10578300  1.0
  Bi  Bi28  1  1.00000570  0.26542695  0.39421700  1.0
  Bi  Bi29  1  1.00000570  0.73457305  0.60578300  1.0
  Bi  Bi30  1  0.50000570  0.76542695  0.10578300  1.0
  Bi  Bi31  1  0.50000570  0.23457305  0.89421700  1.0
  Se  Se32  1  0.49999671  0.79761462  0.35554185  1.0
  Se  Se33  1  0.49999671  0.20238538  0.64445815  1.0
  Se  Se34  1  0.99999671  0.29761462  0.14445815  1.0
  Se  Se35  1  0.99999671  0.70238538  0.85554185  1.0
  Se  Se36  1  0.79761462  0.49999671  0.64445815  1.0
  Se  Se37  1  0.79761462  0.50000329  0.35554185  1.0
  Se  Se38  1  0.29761462  0.99999671  0.85554185  1.0
  Se  Se39  1  0.29761462  0.00000329  0.14445815  1.0
  Se  Se40  1  0.50000329  0.79761462  0.64445815  1.0
  Se  Se41  1  0.50000329  0.20238538  0.35554185  1.0
  Se  Se42  1  0.00000329  0.29761462  0.85554185  1.0
  Se  Se43  1  0.00000329  0.70238538  0.14445815  1.0
  Se  Se44  1  0.20238538  0.49999671  0.35554185  1.0
  Se  Se45  1  0.20238538  0.50000329  0.64445815  1.0
  Se  Se46  1  0.70238538  0.99999671  0.14445815  1.0
  Se  Se47  1  0.70238538  0.00000329  0.85554185  1.0
