# generated using pymatgen
data_SiNi2
_symmetry_space_group_name_H-M   'P 1'
_cell_length_a   5.01514080
_cell_length_b   3.73264865
_cell_length_c   7.07950647
_cell_angle_alpha   90.00000000
_cell_angle_beta   90.00000000
_cell_angle_gamma   90.00000000
_symmetry_Int_Tables_number   1
_chemical_formula_structural   SiNi2
_chemical_formula_sum   'Si4 Ni8'
_cell_volume   132.52665153
_cell_formula_units_Z   4
loop_
 _symmetry_equiv_pos_site_id
 _symmetry_equiv_pos_as_xyz
  1  'x, y, z'
loop_
 _atom_site_type_symbol
 _atom_site_label
 _atom_site_symmetry_multiplicity
 _atom_site_fract_x
 _atom_site_fract_y
 _atom_site_fract_z
 _atom_site_occupancy
  Si  Si0  1  0.78767695  0.75000000  0.38550436  1.0
  Si  Si1  1  0.28767695  0.75000000  0.11449564  1.0
  Si  Si2  1  0.21232305  0.25000000  0.61449564  1.0
  Si  Si3  1  0.71232305  0.25000000  0.88550436  1.0
  Ni  Ni4  1  0.95893391  0.75000000  0.70432187  1.0
  Ni  Ni5  1  0.45893391  0.75000000  0.79567813  1.0
  Ni  Ni6  1  0.04106609  0.25000000  0.29567813  1.0
  Ni  Ni7  1  0.54106609  0.25000000  0.20432187  1.0
  Ni  Ni8  1  0.83026368  0.75000000  0.06028739  1.0
  Ni  Ni9  1  0.33026368  0.75000000  0.43971261  1.0
  Ni  Ni10  1  0.16973632  0.25000000  0.93971261  1.0
  Ni  Ni11  1  0.66973632  0.25000000  0.56028739  1.0
