# generated using pymatgen
data_Ca4Ni20H
_symmetry_space_group_name_H-M   'P 1'
_cell_length_a   9.82840248
_cell_length_b   3.94748272
_cell_length_c   9.93500670
_cell_angle_alpha   90.00000000
_cell_angle_beta   119.64473495
_cell_angle_gamma   90.00000000
_symmetry_Int_Tables_number   1
_chemical_formula_structural   Ca4Ni20H
_chemical_formula_sum   'Ca4 Ni20 H1'
_cell_volume   335.00060077
_cell_formula_units_Z   1
loop_
 _symmetry_equiv_pos_site_id
 _symmetry_equiv_pos_as_xyz
  1  'x, y, z'
loop_
 _atom_site_type_symbol
 _atom_site_label
 _atom_site_symmetry_multiplicity
 _atom_site_fract_x
 _atom_site_fract_y
 _atom_site_fract_z
 _atom_site_occupancy
  Ca  Ca0  1  0.75203228  0.99783232  0.00000350  1.0
  Ca  Ca1  1  0.74627504  0.99865656  0.49255043  1.0
  Ca  Ca2  1  0.24796772  0.99783232  -0.00000350  1.0
  Ca  Ca3  1  0.25372496  0.99865656  0.50744957  1.0
  Ni  Ni4  1  0.91803510  0.99892552  0.33293049  1.0
  Ni  Ni5  1  0.41487892  0.99892596  0.33292634  1.0
  Ni  Ni6  1  0.90815225  0.00107031  0.81631078  1.0
  Ni  Ni7  1  0.41795546  0.99882338  0.83591618  1.0
  Ni  Ni8  1  0.00000000  0.49239796  0.00000000  1.0
  Ni  Ni9  1  -0.00000000  0.49889589  0.50000000  1.0
  Ni  Ni10  1  0.74993389  0.49890232  0.24885324  1.0
  Ni  Ni11  1  0.25275300  0.49861715  0.25508812  1.0
  Ni  Ni12  1  0.74724700  0.49861715  0.74491188  1.0
  Ni  Ni13  1  0.25006611  0.49890232  0.75114676  1.0
  Ni  Ni14  1  0.09184775  0.00107031  0.18368922  1.0
  Ni  Ni15  1  0.58204454  0.99882338  0.16408382  1.0
  Ni  Ni16  1  0.08196490  0.99892552  0.66706951  1.0
  Ni  Ni17  1  0.58512108  0.99892596  0.66707366  1.0
  Ni  Ni18  1  0.50000000  0.49869721  0.00000000  1.0
  Ni  Ni19  1  0.50000000  0.49889606  0.50000000  1.0
  Ni  Ni20  1  0.00234762  0.49861662  0.25510125  1.0
  Ni  Ni21  1  0.49893255  0.49890244  0.24886408  1.0
  Ni  Ni22  1  0.99765238  0.49861662  0.74489875  1.0
  Ni  Ni23  1  0.50106745  0.49890244  0.75113592  1.0
  H  H24  1  0.00000000  0.91576771  0.00000000  1.0
