# generated using pymatgen
data_SrV2CuO7
_symmetry_space_group_name_H-M   'P 1'
_cell_length_a   14.66328602
_cell_length_b   5.52033310
_cell_length_c   7.46686836
_cell_angle_alpha   90.00000000
_cell_angle_beta   90.00000000
_cell_angle_gamma   90.00000000
_symmetry_Int_Tables_number   1
_chemical_formula_structural   SrV2CuO7
_chemical_formula_sum   'Sr4 V8 Cu4 O28'
_cell_volume   604.41479292
_cell_formula_units_Z   4
loop_
 _symmetry_equiv_pos_site_id
 _symmetry_equiv_pos_as_xyz
  1  'x, y, z'
loop_
 _atom_site_type_symbol
 _atom_site_label
 _atom_site_symmetry_multiplicity
 _atom_site_fract_x
 _atom_site_fract_y
 _atom_site_fract_z
 _atom_site_occupancy
  Sr  Sr0  1  0.19751392  0.75000000  0.38548607  1.0
  Sr  Sr1  1  0.69751392  0.75000000  0.11451393  1.0
  Sr  Sr2  1  0.80248608  0.25000000  0.61451393  1.0
  Sr  Sr3  1  0.30248608  0.25000000  0.88548607  1.0
  V  V4  1  0.41136232  0.75000000  0.11320271  1.0
  V  V5  1  0.91136232  0.75000000  0.38679729  1.0
  V  V6  1  0.58863768  0.25000000  0.88679729  1.0
  V  V7  1  0.08863768  0.25000000  0.61320271  1.0
  V  V8  1  0.38772638  0.75000000  0.64203539  1.0
  V  V9  1  0.88772638  0.75000000  0.85796461  1.0
  V  V10  1  0.61227362  0.25000000  0.35796461  1.0
  V  V11  1  0.11227362  0.25000000  0.14203539  1.0
  Cu  Cu12  1  0.13594478  0.75000000  0.88820230  1.0
  Cu  Cu13  1  0.63594478  0.75000000  0.61179770  1.0
  Cu  Cu14  1  0.86405522  0.25000000  0.11179770  1.0
  Cu  Cu15  1  0.36405522  0.25000000  0.38820230  1.0
  O  O16  1  0.32822515  0.00145695  0.56404310  1.0
  O  O17  1  0.32822515  0.49854305  0.56404310  1.0
  O  O18  1  0.82822515  0.00145695  0.93595690  1.0
  O  O19  1  0.82822515  0.49854305  0.93595690  1.0
  O  O20  1  0.67177485  0.50145695  0.43595690  1.0
  O  O21  1  0.67177485  -0.00145695  0.43595690  1.0
  O  O22  1  0.17177485  0.50145695  0.06404310  1.0
  O  O23  1  0.17177485  -0.00145695  0.06404310  1.0
  O  O24  1  0.14061881  0.50116943  0.70292314  1.0
  O  O25  1  0.14061881  -0.00116943  0.70292314  1.0
  O  O26  1  0.64061881  0.50116943  0.79707686  1.0
  O  O27  1  0.64061881  -0.00116943  0.79707686  1.0
  O  O28  1  0.85938119  1.00116943  0.29707686  1.0
  O  O29  1  0.85938119  0.49883057  0.29707686  1.0
  O  O30  1  0.35938119  1.00116943  0.20292314  1.0
  O  O31  1  0.35938119  0.49883057  0.20292314  1.0
  O  O32  1  0.49261947  0.75000000  0.57231390  1.0
  O  O33  1  0.99261947  0.75000000  0.92768610  1.0
  O  O34  1  0.50738053  0.25000000  0.42768610  1.0
  O  O35  1  0.00738053  0.25000000  0.07231390  1.0
  O  O36  1  0.37118655  0.75000000  0.88184223  1.0
  O  O37  1  0.87118655  0.75000000  0.61815777  1.0
  O  O38  1  0.62881345  0.25000000  0.11815777  1.0
  O  O39  1  0.12881345  0.25000000  0.38184223  1.0
  O  O40  1  0.02384727  0.75000000  0.36587043  1.0
  O  O41  1  0.52384727  0.75000000  0.13412957  1.0
  O  O42  1  0.97615273  0.25000000  0.63412957  1.0
  O  O43  1  0.47615273  0.25000000  0.86587043  1.0
