# generated using pymatgen
data_Li2CaGeO4
_symmetry_space_group_name_H-M   'P 1'
_cell_length_a   4.98511682
_cell_length_b   4.98511682
_cell_length_c   4.98511682
_cell_angle_alpha   117.90428754
_cell_angle_beta   117.90428754
_cell_angle_gamma   93.66990325
_symmetry_Int_Tables_number   1
_chemical_formula_structural   Li2CaGeO4
_chemical_formula_sum   'Li2 Ca1 Ge1 O4'
_cell_volume   90.17621472
_cell_formula_units_Z   1
loop_
 _symmetry_equiv_pos_site_id
 _symmetry_equiv_pos_as_xyz
  1  'x, y, z'
loop_
 _atom_site_type_symbol
 _atom_site_label
 _atom_site_symmetry_multiplicity
 _atom_site_fract_x
 _atom_site_fract_y
 _atom_site_fract_z
 _atom_site_occupancy
  Li  Li0  1  0.75000000  1.25000000  0.50000000  1.0
  Li  Li1  1  1.25000000  0.75000000  0.50000000  1.0
  Ca  Ca2  1  0.50000000  0.50000000  -0.00000000  1.0
  Ge  Ge3  1  0.00000000  0.00000000  0.00000000  1.0
  O  O4  1  0.94087955  0.94087955  0.59142378  1.0
  O  O5  1  1.05912045  0.65054423  1.00000000  1.0
  O  O6  1  0.65054423  1.05912045  1.00000000  1.0
  O  O7  1  0.34945577  0.34945577  0.40857622  1.0
