# generated using pymatgen
data_KLaSi(CN2)4
_symmetry_space_group_name_H-M   'P 1'
_cell_length_a   7.72973571
_cell_length_b   9.49117765
_cell_length_c   6.97668852
_cell_angle_alpha   90.00000000
_cell_angle_beta   90.00000000
_cell_angle_gamma   90.00000000
_symmetry_Int_Tables_number   1
_chemical_formula_structural   KLaSi(CN2)4
_chemical_formula_sum   'K2 La2 Si2 C8 N16'
_cell_volume   511.83983378
_cell_formula_units_Z   2
loop_
 _symmetry_equiv_pos_site_id
 _symmetry_equiv_pos_as_xyz
  1  'x, y, z'
loop_
 _atom_site_type_symbol
 _atom_site_label
 _atom_site_symmetry_multiplicity
 _atom_site_fract_x
 _atom_site_fract_y
 _atom_site_fract_z
 _atom_site_occupancy
  K  K0  1  0.50000000  0.00000000  0.90410788  1.0
  K  K1  1  0.00000000  0.50000000  0.09589212  1.0
  La  La2  1  0.50000000  0.50000000  0.25856677  1.0
  La  La3  1  0.00000000  0.00000000  0.74143323  1.0
  Si  Si4  1  0.50000000  0.50000000  0.75202131  1.0
  Si  Si5  1  0.00000000  0.00000000  0.24797869  1.0
  C  C6  1  0.28648289  0.70080587  0.87248851  1.0
  C  C7  1  0.78648289  0.79919413  0.12751149  1.0
  C  C8  1  0.71351711  0.29919413  0.87248851  1.0
  C  C9  1  0.21351711  0.20080587  0.12751149  1.0
  C  C10  1  0.17452594  0.77203493  0.36510120  1.0
  C  C11  1  0.67452594  0.72796507  0.63489880  1.0
  C  C12  1  0.82547406  0.22796507  0.36510120  1.0
  C  C13  1  0.32547406  0.27203493  0.63489880  1.0
  N  N14  1  0.36666797  0.58762851  0.91210497  1.0
  N  N15  1  0.86666797  0.91237149  0.08789503  1.0
  N  N16  1  0.63333203  0.41237149  0.91210497  1.0
  N  N17  1  0.13333203  0.08762851  0.08789503  1.0
  N  N18  1  0.24270086  0.66213060  0.32938020  1.0
  N  N19  1  0.74270086  0.83786940  0.67061980  1.0
  N  N20  1  0.75729914  0.33786940  0.32938020  1.0
  N  N21  1  0.25729914  0.16213060  0.67061980  1.0
  N  N22  1  0.20981299  0.80786589  0.84327545  1.0
  N  N23  1  0.70981299  0.69213411  0.15672455  1.0
  N  N24  1  0.79018701  0.19213411  0.84327545  1.0
  N  N25  1  0.29018701  0.30786589  0.15672455  1.0
  N  N26  1  0.10058621  0.88766287  0.40694361  1.0
  N  N27  1  0.60058621  0.61233713  0.59305639  1.0
  N  N28  1  0.89941379  0.11233713  0.40694361  1.0
  N  N29  1  0.39941379  0.38766287  0.59305639  1.0
