# generated using pymatgen
data_ZnS
_symmetry_space_group_name_H-M   'P 1'
_cell_length_a   3.84960060
_cell_length_b   3.84960060
_cell_length_c   75.51801449
_cell_angle_alpha   90.00000000
_cell_angle_beta   90.00000000
_cell_angle_gamma   120.00000000
_symmetry_Int_Tables_number   1
_chemical_formula_structural   ZnS
_chemical_formula_sum   'Zn24 S24'
_cell_volume   969.19806961
_cell_formula_units_Z   24
loop_
 _symmetry_equiv_pos_site_id
 _symmetry_equiv_pos_as_xyz
  1  'x, y, z'
loop_
 _atom_site_type_symbol
 _atom_site_label
 _atom_site_symmetry_multiplicity
 _atom_site_fract_x
 _atom_site_fract_y
 _atom_site_fract_z
 _atom_site_occupancy
  Zn  Zn0  1  0.00000000  0.00000000  0.00003609  1.0
  Zn  Zn1  1  0.33333333  0.66666667  0.04167420  1.0
  Zn  Zn2  1  0.66666667  0.33333333  0.08333794  1.0
  Zn  Zn3  1  0.00000000  0.00000000  0.12500071  1.0
  Zn  Zn4  1  0.33333333  0.66666667  0.16664377  1.0
  Zn  Zn5  1  0.66666667  0.33333333  0.20833855  1.0
  Zn  Zn6  1  0.33333333  0.66666667  0.25003559  1.0
  Zn  Zn7  1  0.00000000  0.00000000  0.29167359  1.0
  Zn  Zn8  1  0.66666667  0.33333333  0.33333440  1.0
  Zn  Zn9  1  0.33333333  0.66666667  0.37497740  1.0
  Zn  Zn10  1  0.00000000  0.00000000  0.41667026  1.0
  Zn  Zn11  1  0.33333333  0.66666667  0.45836468  1.0
  Zn  Zn12  1  0.66666667  0.33333333  0.49998005  1.0
  Zn  Zn13  1  0.00000000  0.00000000  0.54167079  1.0
  Zn  Zn14  1  0.66666667  0.33333333  0.58336470  1.0
  Zn  Zn15  1  0.33333333  0.66666667  0.62498000  1.0
  Zn  Zn16  1  0.00000000  0.00000000  0.66667117  1.0
  Zn  Zn17  1  0.33333333  0.66666667  0.70836554  1.0
  Zn  Zn18  1  0.66666667  0.33333333  0.74998026  1.0
  Zn  Zn19  1  0.00000000  0.00000000  0.79167117  1.0
  Zn  Zn20  1  0.66666667  0.33333333  0.83336949  1.0
  Zn  Zn21  1  0.33333333  0.66666667  0.87500405  1.0
  Zn  Zn22  1  0.00000000  0.00000000  0.91664368  1.0
  Zn  Zn23  1  0.66666667  0.33333333  0.95833814  1.0
  S  S24  1  0.00000000  0.00000000  0.03125784  1.0
  S  S25  1  0.33333333  0.66666667  0.07291240  1.0
  S  S26  1  0.66666667  0.33333333  0.11457676  1.0
  S  S27  1  0.00000000  0.00000000  0.15623378  1.0
  S  S28  1  0.33333333  0.66666667  0.19786953  1.0
  S  S29  1  0.66666667  0.33333333  0.23962014  1.0
  S  S30  1  0.33333333  0.66666667  0.28125700  1.0
  S  S31  1  0.00000000  0.00000000  0.32291071  1.0
  S  S32  1  0.66666667  0.33333333  0.36456782  1.0
  S  S33  1  0.33333333  0.66666667  0.40620223  1.0
  S  S34  1  0.00000000  0.00000000  0.44795042  1.0
  S  S35  1  0.33333333  0.66666667  0.48957945  1.0
  S  S36  1  0.66666667  0.33333333  0.53120333  1.0
  S  S37  1  0.00000000  0.00000000  0.57295111  1.0
  S  S38  1  0.66666667  0.33333333  0.61457928  1.0
  S  S39  1  0.33333333  0.66666667  0.65620291  1.0
  S  S40  1  0.00000000  0.00000000  0.69795154  1.0
  S  S41  1  0.33333333  0.66666667  0.73958018  1.0
  S  S42  1  0.66666667  0.33333333  0.78120272  1.0
  S  S43  1  0.00000000  0.00000000  0.82295231  1.0
  S  S44  1  0.66666667  0.33333333  0.86459017  1.0
  S  S45  1  0.33333333  0.66666667  0.90623472  1.0
  S  S46  1  0.00000000  0.00000000  0.94786813  1.0
  S  S47  1  0.66666667  0.33333333  0.98961929  1.0
