# generated using pymatgen
data_NaLa6PtI12
_symmetry_space_group_name_H-M   'P 1'
_cell_length_a   10.21797918
_cell_length_b   10.21797918
_cell_length_c   10.21797918
_cell_angle_alpha   107.08696224
_cell_angle_beta   107.08696224
_cell_angle_gamma   107.08696224
_symmetry_Int_Tables_number   1
_chemical_formula_structural   NaLa6PtI12
_chemical_formula_sum   'Na1 La6 Pt1 I12'
_cell_volume   886.34977551
_cell_formula_units_Z   1
loop_
 _symmetry_equiv_pos_site_id
 _symmetry_equiv_pos_as_xyz
  1  'x, y, z'
loop_
 _atom_site_type_symbol
 _atom_site_label
 _atom_site_symmetry_multiplicity
 _atom_site_fract_x
 _atom_site_fract_y
 _atom_site_fract_z
 _atom_site_occupancy
  Na  Na0  1  0.50000000  0.50000000  0.50000000  1.0
  La  La1  1  1.68637960  0.89088810  -0.03030716  1.0
  La  La2  1  1.10911190  0.03030716  -0.68637960  1.0
  La  La3  1  1.03030716  -0.68637960  0.10911190  1.0
  La  La4  1  0.31362040  0.10911190  0.03030716  1.0
  La  La5  1  0.89088810  0.96969284  0.68637960  1.0
  La  La6  1  0.96969284  1.68637960  -0.10911190  1.0
  Pt  Pt7  1  0.00000000  0.00000000  0.00000000  1.0
  I  I8  1  1.62344632  0.53974409  -0.15316748  1.0
  I  I9  1  0.46025591  1.15316748  -0.62344632  1.0
  I  I10  1  1.15316748  0.37655368  -0.53974409  1.0
  I  I11  1  0.37655368  0.46025591  0.15316748  1.0
  I  I12  1  1.53974409  -0.15316748  0.62344632  1.0
  I  I13  1  0.84683252  0.62344632  0.53974409  1.0
  I  I14  1  0.67977755  0.22185161  0.07255799  1.0
  I  I15  1  0.77814839  0.92744201  0.32022245  1.0
  I  I16  1  0.92744201  1.32022245  -0.22185161  1.0
  I  I17  1  1.32022245  0.77814839  -0.07255799  1.0
  I  I18  1  1.22185161  0.07255799  -0.32022245  1.0
  I  I19  1  1.07255799  -0.32022245  0.22185161  1.0
