# generated using pymatgen
data_HfBr4
_symmetry_space_group_name_H-M   'P 1'
_cell_length_a   12.37193677
_cell_length_b   12.37193677
_cell_length_c   12.37193677
_cell_angle_alpha   90.00000000
_cell_angle_beta   90.00000000
_cell_angle_gamma   90.00000000
_symmetry_Int_Tables_number   1
_chemical_formula_structural   HfBr4
_chemical_formula_sum   'Hf8 Br32'
_cell_volume   1893.70826999
_cell_formula_units_Z   8
loop_
 _symmetry_equiv_pos_site_id
 _symmetry_equiv_pos_as_xyz
  1  'x, y, z'
loop_
 _atom_site_type_symbol
 _atom_site_label
 _atom_site_symmetry_multiplicity
 _atom_site_fract_x
 _atom_site_fract_y
 _atom_site_fract_z
 _atom_site_occupancy
  Hf  Hf0  1  0.36957331  0.86957331  0.63042669  1.0
  Hf  Hf1  1  0.36957331  0.63042669  0.13042669  1.0
  Hf  Hf2  1  0.86957331  0.86957331  0.86957331  1.0
  Hf  Hf3  1  0.86957331  0.63042669  0.36957331  1.0
  Hf  Hf4  1  0.63042669  0.36957331  0.86957331  1.0
  Hf  Hf5  1  0.63042669  0.13042669  0.36957331  1.0
  Hf  Hf6  1  0.13042669  0.36957331  0.63042669  1.0
  Hf  Hf7  1  0.13042669  0.13042669  0.13042669  1.0
  Br  Br8  1  0.25481701  0.75481701  0.74518299  1.0
  Br  Br9  1  0.25481701  0.74518299  0.24518299  1.0
  Br  Br10  1  0.75481701  0.75481701  0.75481701  1.0
  Br  Br11  1  0.75481701  0.74518299  0.25481701  1.0
  Br  Br12  1  0.74518299  0.25481701  0.75481701  1.0
  Br  Br13  1  0.74518299  0.24518299  0.25481701  1.0
  Br  Br14  1  0.24518299  0.25481701  0.74518299  1.0
  Br  Br15  1  0.24518299  0.24518299  0.24518299  1.0
  Br  Br16  1  0.52128342  0.49044430  0.75527480  1.0
  Br  Br17  1  0.52128342  1.00955570  0.25527480  1.0
  Br  Br18  1  1.02128342  0.49044430  0.74472520  1.0
  Br  Br19  1  1.02128342  1.00955570  0.24472520  1.0
  Br  Br20  1  -0.00955570  0.74472520  0.47871658  1.0
  Br  Br21  1  -0.00955570  0.75527480  -0.02128342  1.0
  Br  Br22  1  0.49044430  0.74472520  1.02128342  1.0
  Br  Br23  1  0.49044430  0.75527480  0.52128342  1.0
  Br  Br24  1  0.24472520  1.02128342  1.00955570  1.0
  Br  Br25  1  0.24472520  0.47871658  0.50955570  1.0
  Br  Br26  1  0.74472520  1.02128342  0.49044430  1.0
  Br  Br27  1  0.74472520  0.47871658  -0.00955570  1.0
  Br  Br28  1  0.47871658  -0.00955570  0.74472520  1.0
  Br  Br29  1  0.47871658  0.50955570  0.24472520  1.0
  Br  Br30  1  -0.02128342  -0.00955570  0.75527480  1.0
  Br  Br31  1  -0.02128342  0.50955570  0.25527480  1.0
  Br  Br32  1  1.00955570  0.24472520  1.02128342  1.0
  Br  Br33  1  1.00955570  0.25527480  0.52128342  1.0
  Br  Br34  1  0.50955570  0.24472520  0.47871658  1.0
  Br  Br35  1  0.50955570  0.25527480  -0.02128342  1.0
  Br  Br36  1  0.75527480  0.52128342  0.49044430  1.0
  Br  Br37  1  0.75527480  -0.02128342  -0.00955570  1.0
  Br  Br38  1  0.25527480  0.52128342  1.00955570  1.0
  Br  Br39  1  0.25527480  -0.02128342  0.50955570  1.0
