# generated using pymatgen
data_SrSnPt
_symmetry_space_group_name_H-M   'P 1'
_cell_length_a   7.71424007
_cell_length_b   4.77524826
_cell_length_c   8.10365990
_cell_angle_alpha   90.00000000
_cell_angle_beta   90.00000000
_cell_angle_gamma   90.00000000
_symmetry_Int_Tables_number   1
_chemical_formula_structural   SrSnPt
_chemical_formula_sum   'Sr4 Sn4 Pt4'
_cell_volume   298.51785444
_cell_formula_units_Z   4
loop_
 _symmetry_equiv_pos_site_id
 _symmetry_equiv_pos_as_xyz
  1  'x, y, z'
loop_
 _atom_site_type_symbol
 _atom_site_label
 _atom_site_symmetry_multiplicity
 _atom_site_fract_x
 _atom_site_fract_y
 _atom_site_fract_z
 _atom_site_occupancy
  Sr  Sr0  1  0.97871155  0.75000000  0.68278897  1.0
  Sr  Sr1  1  0.47871155  0.75000000  0.81721103  1.0
  Sr  Sr2  1  0.02128845  0.25000000  0.31721103  1.0
  Sr  Sr3  1  0.52128845  0.25000000  0.18278897  1.0
  Sn  Sn4  1  0.83799085  0.75000000  0.07427918  1.0
  Sn  Sn5  1  0.33799085  0.75000000  0.42572082  1.0
  Sn  Sn6  1  0.16200915  0.25000000  0.92572082  1.0
  Sn  Sn7  1  0.66200915  0.25000000  0.57427918  1.0
  Pt  Pt8  1  0.70253712  0.75000000  0.39302544  1.0
  Pt  Pt9  1  0.20253712  0.75000000  0.10697456  1.0
  Pt  Pt10  1  0.29746288  0.25000000  0.60697456  1.0
  Pt  Pt11  1  0.79746288  0.25000000  0.89302544  1.0
