# generated using pymatgen
data_K3TaSe4
_symmetry_space_group_name_H-M   'P 1'
_cell_length_a   9.75728257
_cell_length_b   11.33641561
_cell_length_c   9.90060875
_cell_angle_alpha   90.00000000
_cell_angle_beta   90.00000000
_cell_angle_gamma   90.00000000
_symmetry_Int_Tables_number   1
_chemical_formula_structural   K3TaSe4
_chemical_formula_sum   'K12 Ta4 Se16'
_cell_volume   1095.13217903
_cell_formula_units_Z   4
loop_
 _symmetry_equiv_pos_site_id
 _symmetry_equiv_pos_as_xyz
  1  'x, y, z'
loop_
 _atom_site_type_symbol
 _atom_site_label
 _atom_site_symmetry_multiplicity
 _atom_site_fract_x
 _atom_site_fract_y
 _atom_site_fract_z
 _atom_site_occupancy
  K  K0  1  0.44011615  0.45230458  0.79105452  1.0
  K  K1  1  0.44011615  0.04769542  0.79105452  1.0
  K  K2  1  0.94011615  0.45230458  0.70894548  1.0
  K  K3  1  0.94011615  0.04769542  0.70894548  1.0
  K  K4  1  0.55988385  0.95230458  0.20894548  1.0
  K  K5  1  0.55988385  0.54769542  0.20894548  1.0
  K  K6  1  0.05988385  0.95230458  0.29105452  1.0
  K  K7  1  0.05988385  0.54769542  0.29105452  1.0
  K  K8  1  0.12688874  0.25000000  0.08228762  1.0
  K  K9  1  0.62688874  0.25000000  0.41771238  1.0
  K  K10  1  0.87311126  0.75000000  0.91771238  1.0
  K  K11  1  0.37311126  0.75000000  0.58228762  1.0
  Ta  Ta12  1  0.21225956  0.25000000  0.51362624  1.0
  Ta  Ta13  1  0.71225956  0.25000000  0.98637376  1.0
  Ta  Ta14  1  0.78774044  0.75000000  0.48637376  1.0
  Ta  Ta15  1  0.28774044  0.75000000  0.01362624  1.0
  Se  Se16  1  0.16552490  0.92562668  0.94786909  1.0
  Se  Se17  1  0.16552490  0.57437332  0.94786909  1.0
  Se  Se18  1  0.66552490  0.92562668  0.55213091  1.0
  Se  Se19  1  0.66552490  0.57437332  0.55213091  1.0
  Se  Se20  1  0.83447510  0.42562668  0.05213091  1.0
  Se  Se21  1  0.83447510  0.07437332  0.05213091  1.0
  Se  Se22  1  0.33447510  0.42562668  0.44786909  1.0
  Se  Se23  1  0.33447510  0.07437332  0.44786909  1.0
  Se  Se24  1  0.48691469  0.25000000  0.08772788  1.0
  Se  Se25  1  -0.01308531  0.25000000  0.41227212  1.0
  Se  Se26  1  0.51308531  0.75000000  0.91227212  1.0
  Se  Se27  1  0.01308531  0.75000000  0.58772788  1.0
  Se  Se28  1  0.18818581  0.25000000  0.75634338  1.0
  Se  Se29  1  0.68818581  0.25000000  0.74365662  1.0
  Se  Se30  1  0.81181419  0.75000000  0.24365662  1.0
  Se  Se31  1  0.31181419  0.75000000  0.25634338  1.0
