# generated using pymatgen
data_Nb7(B2C)3
_symmetry_space_group_name_H-M   'P 1'
_cell_length_a   16.69836823
_cell_length_b   16.69836823
_cell_length_c   3.24945551
_cell_angle_alpha   90.00000000
_cell_angle_beta   90.00000000
_cell_angle_gamma   169.22106419
_symmetry_Int_Tables_number   1
_chemical_formula_structural   Nb7(B2C)3
_chemical_formula_sum   'Nb7 B6 C3'
_cell_volume   169.45216448
_cell_formula_units_Z   1
loop_
 _symmetry_equiv_pos_site_id
 _symmetry_equiv_pos_as_xyz
  1  'x, y, z'
loop_
 _atom_site_type_symbol
 _atom_site_label
 _atom_site_symmetry_multiplicity
 _atom_site_fract_x
 _atom_site_fract_y
 _atom_site_fract_z
 _atom_site_occupancy
  Nb  Nb0  1  -0.79050285  0.79050285  0.50000000  1.0
  Nb  Nb1  1  -0.20949715  1.20949715  0.50000000  1.0
  Nb  Nb2  1  -0.63056811  0.63056811  0.50000000  1.0
  Nb  Nb3  1  -0.36943189  1.36943189  0.50000000  1.0
  Nb  Nb4  1  -0.93308004  0.93308004  0.00000000  1.0
  Nb  Nb5  1  -0.06691996  1.06691996  0.00000000  1.0
  Nb  Nb6  1  0.50000000  0.50000000  0.50000000  1.0
  B  B7  1  -0.84734989  0.84734989  0.00000000  1.0
  B  B8  1  -0.15265011  1.15265011  0.00000000  1.0
  B  B9  1  -0.73657350  0.73657350  0.00000000  1.0
  B  B10  1  -0.26342650  1.26342650  0.00000000  1.0
  B  B11  1  -0.68164741  0.68164741  0.00000000  1.0
  B  B12  1  -0.31835259  1.31835259  0.00000000  1.0
  C  C13  1  -0.56617064  0.56617064  0.50000000  1.0
  C  C14  1  -0.43382936  1.43382936  0.50000000  1.0
  C  C15  1  0.00000000  0.00000000  0.00000000  1.0
