# generated using pymatgen
data_BaAl2O6
_symmetry_space_group_name_H-M   'P 1'
_cell_length_a   9.98037595
_cell_length_b   5.41723366
_cell_length_c   10.04208473
_cell_angle_alpha   73.67516312
_cell_angle_beta   31.39299163
_cell_angle_gamma   74.93184525
_symmetry_Int_Tables_number   1
_chemical_formula_structural   BaAl2O6
_chemical_formula_sum   'Ba2 Al4 O12'
_cell_volume   271.19779889
_cell_formula_units_Z   2
loop_
 _symmetry_equiv_pos_site_id
 _symmetry_equiv_pos_as_xyz
  1  'x, y, z'
loop_
 _atom_site_type_symbol
 _atom_site_label
 _atom_site_symmetry_multiplicity
 _atom_site_fract_x
 _atom_site_fract_y
 _atom_site_fract_z
 _atom_site_occupancy
  Ba  Ba0  1  0.98596706  -0.01403294  0.01403294  1.0
  Ba  Ba1  1  0.23596706  0.23596706  0.26403294  1.0
  Al  Al2  1  0.44904436  1.45048070  0.39482521  1.0
  Al  Al3  1  -0.14482521  0.54435027  0.80095564  1.0
  Al  Al4  1  0.45048070  0.44904436  -0.29435027  1.0
  Al  Al5  1  -0.45564973  0.85517479  0.79951930  1.0
  O  O6  1  0.70523400  1.37068923  0.07962134  1.0
  O  O7  1  0.17037866  1.40554457  0.54476600  1.0
  O  O8  1  0.37068923  0.70523400  -0.15554457  1.0
  O  O9  1  0.40554457  0.17037866  -0.12068923  1.0
  O  O10  1  0.87917620  0.89506224  -0.26690681  1.0
  O  O11  1  -0.48309319  0.75733163  1.37082380  1.0
  O  O12  1  -0.10493776  0.87917620  0.49266837  1.0
  O  O13  1  0.75733163  0.51690681  -0.64506224  1.0
  O  O14  1  0.51276306  1.21578315  0.51020599  1.0
  O  O15  1  0.73979401  0.48875220  -0.26276306  1.0
  O  O16  1  0.21578315  0.51276306  -0.23875220  1.0
  O  O17  1  -0.51124780  0.73979401  1.03421685  1.0
