# generated using pymatgen
data_ZrTe5
_symmetry_space_group_name_H-M   'P 1'
_cell_length_a   8.18434223
_cell_length_b   8.18434223
_cell_length_c   13.83666401
_cell_angle_alpha   90.00000000
_cell_angle_beta   90.00000000
_cell_angle_gamma   151.36707293
_symmetry_Int_Tables_number   1
_chemical_formula_structural   ZrTe5
_chemical_formula_sum   'Zr2 Te10'
_cell_volume   444.13239632
_cell_formula_units_Z   2
loop_
 _symmetry_equiv_pos_site_id
 _symmetry_equiv_pos_as_xyz
  1  'x, y, z'
loop_
 _atom_site_type_symbol
 _atom_site_label
 _atom_site_symmetry_multiplicity
 _atom_site_fract_x
 _atom_site_fract_y
 _atom_site_fract_z
 _atom_site_occupancy
  Zr  Zr0  1  -0.31280302  0.31280302  0.75000000  1.0
  Zr  Zr1  1  0.31280302  0.68719698  0.25000000  1.0
  Te  Te2  1  0.08141943  0.91858057  0.85059314  1.0
  Te  Te3  1  0.08141943  0.91858057  0.64940686  1.0
  Te  Te4  1  -0.08141943  0.08141943  0.35059314  1.0
  Te  Te5  1  -0.08141943  0.08141943  0.14940686  1.0
  Te  Te6  1  0.21360788  0.78639212  0.43418207  1.0
  Te  Te7  1  0.21360788  0.78639212  0.06581793  1.0
  Te  Te8  1  -0.21360788  0.21360788  0.93418207  1.0
  Te  Te9  1  -0.21360788  0.21360788  0.56581793  1.0
  Te  Te10  1  0.32822205  0.67177795  0.75000000  1.0
  Te  Te11  1  -0.32822205  0.32822205  0.25000000  1.0
