# generated using pymatgen
data_Sr(InAs)2
_symmetry_space_group_name_H-M   'P 1'
_cell_length_a   4.29896280
_cell_length_b   4.29896280
_cell_length_c   18.33176262
_cell_angle_alpha   90.00000000
_cell_angle_beta   90.00000000
_cell_angle_gamma   120.00000000
_symmetry_Int_Tables_number   1
_chemical_formula_structural   Sr(InAs)2
_chemical_formula_sum   'Sr2 In4 As4'
_cell_volume   293.40143335
_cell_formula_units_Z   2
loop_
 _symmetry_equiv_pos_site_id
 _symmetry_equiv_pos_as_xyz
  1  'x, y, z'
loop_
 _atom_site_type_symbol
 _atom_site_label
 _atom_site_symmetry_multiplicity
 _atom_site_fract_x
 _atom_site_fract_y
 _atom_site_fract_z
 _atom_site_occupancy
  Sr  Sr0  1  0.00000000  0.00000000  0.50000000  1.0
  Sr  Sr1  1  -0.00000000  0.00000000  -0.00000000  1.0
  In  In2  1  0.33333333  0.66666667  0.32714150  1.0
  In  In3  1  0.33333333  0.66666667  0.17285850  1.0
  In  In4  1  0.66666667  0.33333333  0.82714150  1.0
  In  In5  1  0.66666667  0.33333333  0.67285850  1.0
  As  As6  1  0.33333333  0.66666667  0.89188202  1.0
  As  As7  1  0.33333333  0.66666667  0.60811798  1.0
  As  As8  1  0.66666667  0.33333333  0.39188202  1.0
  As  As9  1  0.66666667  0.33333333  0.10811798  1.0
