# generated using pymatgen
data_Sr(GaSe2)2
_symmetry_space_group_name_H-M   'P 1'
_cell_length_a   6.36770748
_cell_length_b   6.36770748
_cell_length_c   11.11089753
_cell_angle_alpha   90.00000000
_cell_angle_beta   90.00000000
_cell_angle_gamma   120.21591428
_symmetry_Int_Tables_number   1
_chemical_formula_structural   Sr(GaSe2)2
_chemical_formula_sum   'Sr2 Ga4 Se8'
_cell_volume   389.31126789
_cell_formula_units_Z   2
loop_
 _symmetry_equiv_pos_site_id
 _symmetry_equiv_pos_as_xyz
  1  'x, y, z'
loop_
 _atom_site_type_symbol
 _atom_site_label
 _atom_site_symmetry_multiplicity
 _atom_site_fract_x
 _atom_site_fract_y
 _atom_site_fract_z
 _atom_site_occupancy
  Sr  Sr0  1  0.50000000  0.50000000  0.75000000  1.0
  Sr  Sr1  1  0.50000000  0.50000000  0.25000000  1.0
  Ga  Ga2  1  -0.23652187  1.23953852  0.50000000  1.0
  Ga  Ga3  1  0.23652187  0.76046148  0.50000000  1.0
  Ga  Ga4  1  -0.23953852  1.23652187  0.00000000  1.0
  Ga  Ga5  1  0.23953852  0.76347813  0.00000000  1.0
  Se  Se6  1  -0.64905992  1.18719795  0.50000000  1.0
  Se  Se7  1  0.64905992  0.81280205  0.50000000  1.0
  Se  Se8  1  -0.18719795  1.64905992  0.00000000  1.0
  Se  Se9  1  0.18719795  0.35094008  0.00000000  1.0
  Se  Se10  1  0.50000000  1.00000000  0.83145652  1.0
  Se  Se11  1  0.00000000  1.50000000  0.66854348  1.0
  Se  Se12  1  0.50000000  1.00000000  0.16854348  1.0
  Se  Se13  1  0.00000000  1.50000000  0.33145652  1.0
