# generated using pymatgen
data_MnH8(ClO2)2
_symmetry_space_group_name_H-M   'P 1'
_cell_length_a   6.17617469
_cell_length_b   9.59488902
_cell_length_c   11.89993997
_cell_angle_alpha   90.00000000
_cell_angle_beta   111.59979404
_cell_angle_gamma   90.00000000
_symmetry_Int_Tables_number   1
_chemical_formula_structural   MnH8(ClO2)2
_chemical_formula_sum   'Mn4 H32 Cl8 O16'
_cell_volume   655.66722415
_cell_formula_units_Z   4
loop_
 _symmetry_equiv_pos_site_id
 _symmetry_equiv_pos_as_xyz
  1  'x, y, z'
loop_
 _atom_site_type_symbol
 _atom_site_label
 _atom_site_symmetry_multiplicity
 _atom_site_fract_x
 _atom_site_fract_y
 _atom_site_fract_z
 _atom_site_occupancy
  Mn  Mn0  1  0.75153705  0.67511737  0.26276830  1.0
  Mn  Mn1  1  0.75153705  0.82488263  0.76276830  1.0
  Mn  Mn2  1  0.24846295  0.32488263  0.73723170  1.0
  Mn  Mn3  1  0.24846295  0.17511737  0.23723170  1.0
  H  H4  1  1.00951657  0.65180069  0.11244353  1.0
  H  H5  1  1.00951657  0.84819931  0.61244353  1.0
  H  H6  1  -0.00951657  0.34819931  0.88755647  1.0
  H  H7  1  -0.00951657  0.15180069  0.38755647  1.0
  H  H8  1  0.05638611  0.51566400  0.18712935  1.0
  H  H9  1  0.05638611  0.98433600  0.68712935  1.0
  H  H10  1  0.94361389  0.48433600  0.81287065  1.0
  H  H11  1  0.94361389  0.01566400  0.31287065  1.0
  H  H12  1  0.52221288  0.70161809  0.42322719  1.0
  H  H13  1  0.52221288  0.79838191  0.92322719  1.0
  H  H14  1  0.47778712  0.29838191  0.57677281  1.0
  H  H15  1  0.47778712  0.20161809  0.07677281  1.0
  H  H16  1  0.32366916  0.69266056  0.29334531  1.0
  H  H17  1  0.32366916  0.80733944  0.79334531  1.0
  H  H18  1  0.67633084  0.30733944  0.70665469  1.0
  H  H19  1  0.67633084  0.19266056  0.20665469  1.0
  H  H20  1  0.71283580  0.42939316  0.38970073  1.0
  H  H21  1  0.71283580  0.07060684  0.88970073  1.0
  H  H22  1  0.28716420  0.57060684  0.61029927  1.0
  H  H23  1  0.28716420  0.92939316  0.11029927  1.0
  H  H24  1  0.98044939  0.43373487  0.40424021  1.0
  H  H25  1  0.98044939  1.06626513  0.90424021  1.0
  H  H26  1  0.01955061  0.56626513  0.59575979  1.0
  H  H27  1  0.01955061  -0.06626513  0.09575979  1.0
  H  H28  1  0.37158181  0.55939413  0.06159807  1.0
  H  H29  1  0.37158181  0.94060587  0.56159807  1.0
  H  H30  1  0.62841819  0.44060587  0.93840193  1.0
  H  H31  1  0.62841819  0.05939413  0.43840193  1.0
  H  H32  1  0.50733611  0.43091564  0.14213396  1.0
  H  H33  1  0.50733611  0.06908436  0.64213396  1.0
  H  H34  1  0.49266389  0.56908436  0.85786604  1.0
  H  H35  1  0.49266389  0.93091564  0.35786604  1.0
  Cl  Cl36  1  0.02435272  0.81564409  0.43301070  1.0
  Cl  Cl37  1  0.02435272  0.68435591  0.93301070  1.0
  Cl  Cl38  1  0.97564728  0.18435591  0.56698930  1.0
  Cl  Cl39  1  0.97564728  0.31564409  0.06698930  1.0
  Cl  Cl40  1  0.64221078  0.86175591  0.10996652  1.0
  Cl  Cl41  1  0.64221078  0.63824409  0.60996652  1.0
  Cl  Cl42  1  0.35778922  0.13824409  0.89003348  1.0
  Cl  Cl43  1  0.35778922  0.36175591  0.39003348  1.0
  O  O44  1  0.04181661  0.61727006  0.19570267  1.0
  O  O45  1  0.04181661  0.88272994  0.69570267  1.0
  O  O46  1  0.95818339  0.38272994  0.80429733  1.0
  O  O47  1  0.95818339  0.11727006  0.30429733  1.0
  O  O48  1  0.48040757  0.73227570  0.33814263  1.0
  O  O49  1  0.48040757  0.76772430  0.83814263  1.0
  O  O50  1  0.51959243  0.26772430  0.66185737  1.0
  O  O51  1  0.51959243  0.23227570  0.16185737  1.0
  O  O52  1  0.82920146  0.47928526  0.36639731  1.0
  O  O53  1  0.82920146  0.02071474  0.86639731  1.0
  O  O54  1  0.17079854  0.52071474  0.63360269  1.0
  O  O55  1  0.17079854  0.97928526  0.13360269  1.0
  O  O56  1  0.50943211  0.53279836  0.13122293  1.0
  O  O57  1  0.50943211  0.96720164  0.63122293  1.0
  O  O58  1  0.49056789  0.46720164  0.86877707  1.0
  O  O59  1  0.49056789  0.03279836  0.36877707  1.0
