# generated using pymatgen
data_VO2
_symmetry_space_group_name_H-M   'P 1'
_cell_length_a   9.40308095
_cell_length_b   2.84871093
_cell_length_c   4.87803450
_cell_angle_alpha   90.00000000
_cell_angle_beta   90.00000000
_cell_angle_gamma   90.00000000
_symmetry_Int_Tables_number   1
_chemical_formula_structural   VO2
_chemical_formula_sum   'V4 O8'
_cell_volume   130.66624895
_cell_formula_units_Z   4
loop_
 _symmetry_equiv_pos_site_id
 _symmetry_equiv_pos_as_xyz
  1  'x, y, z'
loop_
 _atom_site_type_symbol
 _atom_site_label
 _atom_site_symmetry_multiplicity
 _atom_site_fract_x
 _atom_site_fract_y
 _atom_site_fract_z
 _atom_site_occupancy
  V  V0  1  0.63865186  0.25000000  0.41838645  1.0
  V  V1  1  0.13865186  0.25000000  1.08161355  1.0
  V  V2  1  0.36134814  0.75000000  0.58161355  1.0
  V  V3  1  0.86134814  0.75000000  -0.08161355  1.0
  O  O4  1  0.26959899  0.25000000  0.36368367  1.0
  O  O5  1  0.76959899  0.25000000  0.13631633  1.0
  O  O6  1  0.73040101  0.75000000  0.63631633  1.0
  O  O7  1  0.23040101  0.75000000  0.86368367  1.0
  O  O8  1  0.47383054  0.25000000  0.70793374  1.0
  O  O9  1  0.97383054  0.25000000  0.79206626  1.0
  O  O10  1  0.52616946  0.75000000  0.29206626  1.0
  O  O11  1  0.02616946  0.75000000  0.20793374  1.0
