# generated using pymatgen
data_BiIrO14
_symmetry_space_group_name_H-M   'P 1'
_cell_length_a   8.03443068
_cell_length_b   8.03443068
_cell_length_c   8.03443068
_cell_angle_alpha   60.00000000
_cell_angle_beta   60.00000000
_cell_angle_gamma   60.00000000
_symmetry_Int_Tables_number   1
_chemical_formula_structural   BiIrO14
_chemical_formula_sum   'Bi2 Ir2 O28'
_cell_volume   366.73328361
_cell_formula_units_Z   2
loop_
 _symmetry_equiv_pos_site_id
 _symmetry_equiv_pos_as_xyz
  1  'x, y, z'
loop_
 _atom_site_type_symbol
 _atom_site_label
 _atom_site_symmetry_multiplicity
 _atom_site_fract_x
 _atom_site_fract_y
 _atom_site_fract_z
 _atom_site_occupancy
  Bi  Bi0  1  0.50000000  0.50000000  -0.50000000  1.0
  Bi  Bi1  1  0.75000000  -0.25000000  0.75000000  1.0
  Ir  Ir2  1  -0.00000000  1.00000000  -0.00000000  1.0
  Ir  Ir3  1  0.25000000  0.25000000  0.25000000  1.0
  O  O4  1  1.01133512  -0.69771552  0.67504528  1.0
  O  O5  1  0.01133512  0.67504528  0.30228448  1.0
  O  O6  1  -0.05228448  0.23866488  0.23866488  1.0
  O  O7  1  0.57495472  0.23866488  0.23866488  1.0
  O  O8  1  -0.69771552  1.01133512  0.67504528  1.0
  O  O9  1  1.01133512  0.01133512  0.67504528  1.0
  O  O10  1  1.01133512  -0.32495472  1.01133512  1.0
  O  O11  1  -0.69771552  0.67504528  1.01133512  1.0
  O  O12  1  0.23866488  -0.05228448  0.23866488  1.0
  O  O13  1  0.23866488  0.23866488  -0.05228448  1.0
  O  O14  1  0.57495472  0.23866488  -0.05228448  1.0
  O  O15  1  0.57495472  -0.05228448  0.23866488  1.0
  O  O16  1  0.67504528  0.01133512  1.01133512  1.0
  O  O17  1  -0.69771552  1.01133512  1.01133512  1.0
  O  O18  1  0.23866488  0.57495472  -0.05228448  1.0
  O  O19  1  0.23866488  -0.05228448  0.57495472  1.0
  O  O20  1  -0.32495472  1.01133512  0.30228448  1.0
  O  O21  1  0.67504528  -0.69771552  1.01133512  1.0
  O  O22  1  1.01133512  -0.69771552  1.01133512  1.0
  O  O23  1  0.01133512  1.01133512  0.30228448  1.0
  O  O24  1  0.23866488  0.57495472  0.23866488  1.0
  O  O25  1  -0.05228448  0.57495472  0.23866488  1.0
  O  O26  1  -0.05228448  0.23866488  0.57495472  1.0
  O  O27  1  0.23866488  0.23866488  0.57495472  1.0
  O  O28  1  0.62500000  -0.37500000  1.12500000  1.0
  O  O29  1  0.62500000  0.12500000  0.62500000  1.0
  O  O30  1  0.62500000  -0.37500000  0.62500000  1.0
  O  O31  1  1.12500000  -0.37500000  0.62500000  1.0
