# generated using pymatgen
data_BaZnTe2O7
_symmetry_space_group_name_H-M   'P 1'
_cell_length_a   8.71811840
_cell_length_b   8.71811840
_cell_length_c   5.69723485
_cell_angle_alpha   90.00000000
_cell_angle_beta   90.00000000
_cell_angle_gamma   50.64926844
_symmetry_Int_Tables_number   1
_chemical_formula_structural   BaZnTe2O7
_chemical_formula_sum   'Ba2 Zn2 Te4 O14'
_cell_volume   334.84661627
_cell_formula_units_Z   2
loop_
 _symmetry_equiv_pos_site_id
 _symmetry_equiv_pos_as_xyz
  1  'x, y, z'
loop_
 _atom_site_type_symbol
 _atom_site_label
 _atom_site_symmetry_multiplicity
 _atom_site_fract_x
 _atom_site_fract_y
 _atom_site_fract_z
 _atom_site_occupancy
  Ba  Ba0  1  -0.33898654  0.91739633  0.75000000  1.0
  Ba  Ba1  1  0.08260367  0.33898654  0.25000000  1.0
  Zn  Zn2  1  0.24073869  0.52785001  0.75000000  1.0
  Zn  Zn3  1  -0.52785001  0.75926131  0.25000000  1.0
  Te  Te4  1  -0.81037973  0.96723822  0.75000000  1.0
  Te  Te5  1  0.03276178  0.81037973  0.25000000  1.0
  Te  Te6  1  -0.30196908  0.44960064  0.75000000  1.0
  Te  Te7  1  -0.44960064  1.30196908  0.25000000  1.0
  O  O8  1  0.00756244  0.26817442  0.75000000  1.0
  O  O9  1  -0.26817442  0.99243756  0.25000000  1.0
  O  O10  1  -0.65841074  0.97405316  0.50182607  1.0
  O  O11  1  0.02594684  0.65841074  0.00182607  1.0
  O  O12  1  0.02594684  0.65841074  0.49817393  1.0
  O  O13  1  -0.65841074  0.97405316  0.99817393  1.0
  O  O14  1  -0.58311216  1.29202009  0.51263656  1.0
  O  O15  1  -0.29202009  0.58311216  0.01263656  1.0
  O  O16  1  -0.29202009  0.58311216  0.48736344  1.0
  O  O17  1  -0.58311216  1.29202009  0.98736344  1.0
  O  O18  1  -0.64034072  0.66991344  0.75000000  1.0
  O  O19  1  0.33008656  0.64034072  0.25000000  1.0
  O  O20  1  -0.00642986  0.00642986  0.50000000  1.0
  O  O21  1  -0.00642986  0.00642986  -0.00000000  1.0
