# generated using pymatgen
data_FeClO
_symmetry_space_group_name_H-M   'P 1'
_cell_length_a   3.30775305
_cell_length_b   3.81994129
_cell_length_c   8.69701973
_cell_angle_alpha   90.00000000
_cell_angle_beta   90.00000000
_cell_angle_gamma   90.00000000
_symmetry_Int_Tables_number   1
_chemical_formula_structural   FeClO
_chemical_formula_sum   'Fe2 Cl2 O2'
_cell_volume   109.89051847
_cell_formula_units_Z   2
loop_
 _symmetry_equiv_pos_site_id
 _symmetry_equiv_pos_as_xyz
  1  'x, y, z'
loop_
 _atom_site_type_symbol
 _atom_site_label
 _atom_site_symmetry_multiplicity
 _atom_site_fract_x
 _atom_site_fract_y
 _atom_site_fract_z
 _atom_site_occupancy
  Fe  Fe0  1  0.00000000  0.50000000  0.10382209  1.0
  Fe  Fe1  1  0.50000000  0.00000000  0.89617791  1.0
  Cl  Cl2  1  0.00000000  0.00000000  0.69936000  1.0
  Cl  Cl3  1  0.50000000  0.50000000  0.30064000  1.0
  O  O4  1  0.00000000  0.00000000  0.05209208  1.0
  O  O5  1  0.50000000  0.50000000  0.94790792  1.0
