# generated using pymatgen
data_Sr2SiO4
_symmetry_space_group_name_H-M   'P 1'
_cell_length_a   5.74905914
_cell_length_b   7.15009107
_cell_length_c   11.10496496
_cell_angle_alpha   90.00000000
_cell_angle_beta   117.74254426
_cell_angle_gamma   90.00000000
_symmetry_Int_Tables_number   1
_chemical_formula_structural   Sr2SiO4
_chemical_formula_sum   'Sr8 Si4 O16'
_cell_volume   404.01033528
_cell_formula_units_Z   4
loop_
 _symmetry_equiv_pos_site_id
 _symmetry_equiv_pos_as_xyz
  1  'x, y, z'
loop_
 _atom_site_type_symbol
 _atom_site_label
 _atom_site_symmetry_multiplicity
 _atom_site_fract_x
 _atom_site_fract_y
 _atom_site_fract_z
 _atom_site_occupancy
  Sr  Sr0  1  0.97193691  0.49785576  0.19805223  1.0
  Sr  Sr1  1  0.97193691  0.00214424  0.69805223  1.0
  Sr  Sr2  1  0.02806309  0.99785576  0.30194777  1.0
  Sr  Sr3  1  0.02806309  0.50214424  0.80194777  1.0
  Sr  Sr4  1  0.31075770  0.16011271  0.07499517  1.0
  Sr  Sr5  1  0.31075770  0.33988729  0.57499517  1.0
  Sr  Sr6  1  0.68924230  0.66011271  0.42500483  1.0
  Sr  Sr7  1  0.68924230  0.83988729  0.92500483  1.0
  Si  Si8  1  0.65885920  0.22067886  0.41816008  1.0
  Si  Si9  1  0.65885920  0.27932114  0.91816008  1.0
  Si  Si10  1  0.34114080  0.72067886  0.08183992  1.0
  Si  Si11  1  0.34114080  0.77932114  0.58183992  1.0
  O  O12  1  0.84618703  0.32340048  0.36021292  1.0
  O  O13  1  0.84618703  0.17659952  0.86021292  1.0
  O  O14  1  0.15381297  0.82340048  0.13978708  1.0
  O  O15  1  0.15381297  0.67659952  0.63978708  1.0
  O  O16  1  0.74708919  0.18006391  0.06928502  1.0
  O  O17  1  0.74708919  0.31993609  0.56928502  1.0
  O  O18  1  0.25291081  0.68006391  0.43071498  1.0
  O  O19  1  0.25291081  0.81993609  0.93071498  1.0
  O  O20  1  0.71402635  0.99575400  0.43314842  1.0
  O  O21  1  0.71402635  0.50424600  0.93314842  1.0
  O  O22  1  0.28597365  0.49575400  0.06685158  1.0
  O  O23  1  0.28597365  0.00424600  0.56685158  1.0
  O  O24  1  0.34428869  0.26308163  0.31790125  1.0
  O  O25  1  0.34428869  0.23691837  0.81790125  1.0
  O  O26  1  0.65571131  0.76308163  0.18209875  1.0
  O  O27  1  0.65571131  0.73691837  0.68209875  1.0
