# generated using pymatgen
data_CuSb(MoO4)2
_symmetry_space_group_name_H-M   'P 1'
_cell_length_a   12.18726765
_cell_length_b   12.18726765
_cell_length_c   5.66315176
_cell_angle_alpha   83.13493005
_cell_angle_beta   96.86506995
_cell_angle_gamma   155.66402220
_symmetry_Int_Tables_number   1
_chemical_formula_structural   CuSb(MoO4)2
_chemical_formula_sum   'Cu2 Sb2 Mo4 O16'
_cell_volume   344.02344680
_cell_formula_units_Z   2
loop_
 _symmetry_equiv_pos_site_id
 _symmetry_equiv_pos_as_xyz
  1  'x, y, z'
loop_
 _atom_site_type_symbol
 _atom_site_label
 _atom_site_symmetry_multiplicity
 _atom_site_fract_x
 _atom_site_fract_y
 _atom_site_fract_z
 _atom_site_occupancy
  Cu  Cu0  1  1.50000000  -0.00000000  0.00000000  1.0
  Cu  Cu1  1  1.00000000  -0.50000000  0.50000000  1.0
  Sb  Sb2  1  0.31877362  0.31877362  0.75000000  1.0
  Sb  Sb3  1  0.68122638  0.68122638  0.25000000  1.0
  Mo  Mo4  1  1.63410947  -0.11298021  0.78607225  1.0
  Mo  Mo5  1  1.11298021  -0.63410947  0.28607225  1.0
  Mo  Mo6  1  0.88701979  -0.36589053  0.71392775  1.0
  Mo  Mo7  1  1.36589053  0.11298021  0.21392775  1.0
  O  O8  1  1.55191929  -0.35362449  0.89247130  1.0
  O  O9  1  1.35362449  -0.55191929  0.39247130  1.0
  O  O10  1  0.64637551  -0.44808071  0.60752870  1.0
  O  O11  1  1.44808071  0.35362449  0.10752870  1.0
  O  O12  1  1.91982667  0.12039270  0.61653297  1.0
  O  O13  1  0.87960730  -0.91982667  0.11653297  1.0
  O  O14  1  1.12039270  -0.08017333  0.88346703  1.0
  O  O15  1  1.08017333  -0.12039270  0.38346703  1.0
  O  O16  1  1.66531235  0.05929798  0.81930034  1.0
  O  O17  1  0.94070202  -0.66531235  0.31930034  1.0
  O  O18  1  1.05929798  -0.33468765  0.68069966  1.0
  O  O19  1  1.33468765  -0.05929798  0.18069966  1.0
  O  O20  1  1.66085419  0.37755233  0.93312042  1.0
  O  O21  1  0.62244767  -0.66085419  0.43312042  1.0
  O  O22  1  1.37755233  -0.33914581  0.56687958  1.0
  O  O23  1  1.33914581  -0.37755233  0.06687958  1.0
