# generated using pymatgen
data_Ho6Al7Cu16
_symmetry_space_group_name_H-M   'P 1'
_cell_length_a   8.71512726
_cell_length_b   8.71512726
_cell_length_c   8.71512726
_cell_angle_alpha   60.00000000
_cell_angle_beta   60.00000000
_cell_angle_gamma   60.00000000
_symmetry_Int_Tables_number   1
_chemical_formula_structural   Ho6Al7Cu16
_chemical_formula_sum   'Ho6 Al7 Cu16'
_cell_volume   468.06503684
_cell_formula_units_Z   1
loop_
 _symmetry_equiv_pos_site_id
 _symmetry_equiv_pos_as_xyz
  1  'x, y, z'
loop_
 _atom_site_type_symbol
 _atom_site_label
 _atom_site_symmetry_multiplicity
 _atom_site_fract_x
 _atom_site_fract_y
 _atom_site_fract_z
 _atom_site_occupancy
  Ho  Ho0  1  -0.70876466  0.70876466  0.70876466  1.0
  Ho  Ho1  1  -0.29123534  0.29123534  0.70876466  1.0
  Ho  Ho2  1  0.70876466  0.70876466  -0.70876466  1.0
  Ho  Ho3  1  0.29123534  1.29123534  -0.29123534  1.0
  Ho  Ho4  1  0.29123534  -0.29123534  1.29123534  1.0
  Ho  Ho5  1  -0.29123534  0.29123534  0.29123534  1.0
  Al  Al6  1  1.50000000  0.00000000  -0.00000000  1.0
  Al  Al7  1  1.00000000  0.50000000  -0.50000000  1.0
  Al  Al8  1  0.00000000  1.50000000  -0.00000000  1.0
  Al  Al9  1  0.50000000  1.00000000  -0.50000000  1.0
  Al  Al10  1  0.00000000  -0.00000000  0.50000000  1.0
  Al  Al11  1  0.50000000  -0.50000000  1.00000000  1.0
  Al  Al12  1  -0.00000000  0.00000000  -0.00000000  1.0
  Cu  Cu13  1  0.87813462  0.87813462  -0.12186538  1.0
  Cu  Cu14  1  1.12186538  0.12186538  0.63440385  1.0
  Cu  Cu15  1  1.12186538  0.63440385  0.12186538  1.0
  Cu  Cu16  1  0.36559615  0.87813462  -0.12186538  1.0
  Cu  Cu17  1  1.63440385  0.12186538  0.12186538  1.0
  Cu  Cu18  1  0.87813462  0.36559615  -0.12186538  1.0
  Cu  Cu19  1  0.87813462  0.87813462  -0.63440385  1.0
  Cu  Cu20  1  1.12186538  0.12186538  0.12186538  1.0
  Cu  Cu21  1  0.67333289  0.67333289  -0.32666711  1.0
  Cu  Cu22  1  1.32666711  0.32666711  0.01999867  1.0
  Cu  Cu23  1  1.32666711  0.01999867  0.32666711  1.0
  Cu  Cu24  1  0.98000133  0.67333289  -0.32666711  1.0
  Cu  Cu25  1  1.01999867  0.32666711  0.32666711  1.0
  Cu  Cu26  1  0.67333289  0.98000133  -0.32666711  1.0
  Cu  Cu27  1  0.67333289  0.67333289  -0.01999867  1.0
  Cu  Cu28  1  1.32666711  0.32666711  0.32666711  1.0
