# generated using pymatgen
data_AlH3
_symmetry_space_group_name_H-M   'P 1'
_cell_length_a   5.44853611
_cell_length_b   7.42953790
_cell_length_c   5.80718672
_cell_angle_alpha   90.00000000
_cell_angle_beta   90.00000000
_cell_angle_gamma   90.00000000
_symmetry_Int_Tables_number   1
_chemical_formula_structural   AlH3
_chemical_formula_sum   'Al6 H18'
_cell_volume   235.07553143
_cell_formula_units_Z   6
loop_
 _symmetry_equiv_pos_site_id
 _symmetry_equiv_pos_as_xyz
  1  'x, y, z'
loop_
 _atom_site_type_symbol
 _atom_site_label
 _atom_site_symmetry_multiplicity
 _atom_site_fract_x
 _atom_site_fract_y
 _atom_site_fract_z
 _atom_site_occupancy
  Al  Al0  1  0.21123036  0.58537012  0.50000000  1.0
  Al  Al1  1  0.71123036  0.91462988  0.00000000  1.0
  Al  Al2  1  0.78876964  0.41462988  0.50000000  1.0
  Al  Al3  1  0.28876964  0.08537012  0.00000000  1.0
  Al  Al4  1  0.50000000  0.00000000  0.50000000  1.0
  Al  Al5  1  0.00000000  0.50000000  0.00000000  1.0
  H  H6  1  0.20126077  0.58383981  0.20190468  1.0
  H  H7  1  0.20126077  0.58383981  0.79809532  1.0
  H  H8  1  0.70126077  0.91616019  0.70190468  1.0
  H  H9  1  0.70126077  0.91616019  0.29809532  1.0
  H  H10  1  0.79873923  0.41616019  0.20190468  1.0
  H  H11  1  0.79873923  0.41616019  0.79809532  1.0
  H  H12  1  0.29873923  0.08383981  0.70190468  1.0
  H  H13  1  0.29873923  0.08383981  0.29809532  1.0
  H  H14  1  0.32514513  0.80045782  0.50000000  1.0
  H  H15  1  0.82514513  0.69954218  0.00000000  1.0
  H  H16  1  0.67485487  0.19954218  0.50000000  1.0
  H  H17  1  0.17485487  0.30045782  0.00000000  1.0
  H  H18  1  0.90151665  0.63801877  0.50000000  1.0
  H  H19  1  0.40151665  0.86198123  0.00000000  1.0
  H  H20  1  0.09848335  0.36198123  0.50000000  1.0
  H  H21  1  0.59848335  0.13801877  0.00000000  1.0
  H  H22  1  0.50000000  0.50000000  0.50000000  1.0
  H  H23  1  0.00000000  0.00000000  0.00000000  1.0
