# generated using pymatgen
data_Ba2YCoO5
_symmetry_space_group_name_H-M   'P 1'
_cell_length_a   8.00090633
_cell_length_b   6.14520598
_cell_length_c   14.65465130
_cell_angle_alpha   90.00000000
_cell_angle_beta   122.09849096
_cell_angle_gamma   90.00000000
_symmetry_Int_Tables_number   1
_chemical_formula_structural   Ba2YCoO5
_chemical_formula_sum   'Ba8 Y4 Co4 O20'
_cell_volume   610.38550908
_cell_formula_units_Z   4
loop_
 _symmetry_equiv_pos_site_id
 _symmetry_equiv_pos_as_xyz
  1  'x, y, z'
loop_
 _atom_site_type_symbol
 _atom_site_label
 _atom_site_symmetry_multiplicity
 _atom_site_fract_x
 _atom_site_fract_y
 _atom_site_fract_z
 _atom_site_occupancy
  Y  Y0  1  0.87001460  0.74561958  0.12870170  1.0
  Y  Y1  1  0.87001460  0.75438042  0.62870170  1.0
  Y  Y2  1  0.12998540  0.24561958  0.37129830  1.0
  Y  Y3  1  0.12998540  0.25438042  0.87129830  1.0
  O  O4  1  0.97216916  0.44811119  0.22459019  1.0
  O  O5  1  0.97216916  0.05188881  0.72459019  1.0
  O  O6  1  0.02783084  0.94811119  0.27540981  1.0
  O  O7  1  0.02783084  0.55188881  0.77540981  1.0
  O  O8  1  0.38446081  0.26368160  0.33619350  1.0
  O  O9  1  0.38446081  0.23631840  0.83619350  1.0
  O  O10  1  0.61553919  0.76368160  0.16380650  1.0
  O  O11  1  0.61553919  0.73631840  0.66380650  1.0
  O  O12  1  0.83081614  0.25958585  0.36233130  1.0
  O  O13  1  0.83081614  0.24041415  0.86233130  1.0
  O  O14  1  0.16918386  0.75958585  0.13766870  1.0
  O  O15  1  0.16918386  0.74041415  0.63766870  1.0
  O  O16  1  0.75067456  0.03600116  0.01519610  1.0
  O  O17  1  0.75067456  0.46399884  0.51519610  1.0
  O  O18  1  0.24932544  0.53600116  0.48480390  1.0
  O  O19  1  0.24932544  0.96399884  0.98480390  1.0
  O  O20  1  0.71534064  0.95912148  0.47526890  1.0
  O  O21  1  0.71534064  0.54087852  0.97526890  1.0
  O  O22  1  0.28465936  0.45912148  0.02473110  1.0
  O  O23  1  0.28465936  0.04087852  0.52473110  1.0
  Ba  Ba24  1  0.88357493  0.74006688  0.37971599  1.0
  Ba  Ba25  1  0.88357493  0.75993312  0.87971599  1.0
  Ba  Ba26  1  0.11642507  0.24006688  0.12028401  1.0
  Ba  Ba27  1  0.11642507  0.25993312  0.62028401  1.0
  Ba  Ba28  1  0.62983595  0.23581760  0.13735877  1.0
  Ba  Ba29  1  0.62983595  0.26418240  0.63735877  1.0
  Ba  Ba30  1  0.37016405  0.73581760  0.36264123  1.0
  Ba  Ba31  1  0.37016405  0.76418240  0.86264123  1.0
  Co  Co32  1  0.65450013  0.23780053  0.40780214  1.0
  Co  Co33  1  0.65450013  0.26219947  0.90780214  1.0
  Co  Co34  1  0.34549987  0.73780053  0.09219786  1.0
  Co  Co35  1  0.34549987  0.76219947  0.59219786  1.0
