# generated using pymatgen
data_LaMgNi2
_symmetry_space_group_name_H-M   'P 1'
_cell_length_a   6.72265855
_cell_length_b   6.72265855
_cell_length_c   6.00850736
_cell_angle_alpha   90.00000000
_cell_angle_beta   90.00000000
_cell_angle_gamma   145.08829064
_symmetry_Int_Tables_number   1
_chemical_formula_structural   LaMgNi2
_chemical_formula_sum   'La2 Mg2 Ni4'
_cell_volume   155.41132926
_cell_formula_units_Z   2
loop_
 _symmetry_equiv_pos_site_id
 _symmetry_equiv_pos_as_xyz
  1  'x, y, z'
loop_
 _atom_site_type_symbol
 _atom_site_label
 _atom_site_symmetry_multiplicity
 _atom_site_fract_x
 _atom_site_fract_y
 _atom_site_fract_z
 _atom_site_occupancy
  La  La0  1  -0.27390554  0.27390554  0.75000000  1.0
  La  La1  1  0.27390554  0.72609446  0.25000000  1.0
  Mg  Mg2  1  0.46124454  0.53875546  0.75000000  1.0
  Mg  Mg3  1  -0.46124454  0.46124454  0.25000000  1.0
  Ni  Ni4  1  0.08875165  0.91124835  0.94939108  1.0
  Ni  Ni5  1  0.08875165  0.91124835  0.55060892  1.0
  Ni  Ni6  1  -0.08875165  0.08875165  0.44939108  1.0
  Ni  Ni7  1  -0.08875165  0.08875165  0.05060892  1.0
