# generated using pymatgen
data_FeAs2
_symmetry_space_group_name_H-M   'P 1'
_cell_length_a   5.31079258
_cell_length_b   6.00024418
_cell_length_c   2.89410264
_cell_angle_alpha   90.00000000
_cell_angle_beta   90.00000000
_cell_angle_gamma   90.00000000
_symmetry_Int_Tables_number   1
_chemical_formula_structural   FeAs2
_chemical_formula_sum   'Fe2 As4'
_cell_volume   92.22362614
_cell_formula_units_Z   2
loop_
 _symmetry_equiv_pos_site_id
 _symmetry_equiv_pos_as_xyz
  1  'x, y, z'
loop_
 _atom_site_type_symbol
 _atom_site_label
 _atom_site_symmetry_multiplicity
 _atom_site_fract_x
 _atom_site_fract_y
 _atom_site_fract_z
 _atom_site_occupancy
  Fe  Fe0  1  0.50000000  0.50000000  0.50000000  1.0
  Fe  Fe1  1  0.00000000  0.00000000  0.00000000  1.0
  As  As2  1  0.32099732  0.86126059  0.50000000  1.0
  As  As3  1  0.82099732  0.63873941  0.00000000  1.0
  As  As4  1  0.67900268  0.13873941  0.50000000  1.0
  As  As5  1  0.17900268  0.36126059  0.00000000  1.0
