# generated using pymatgen
data_Na2PrO3
_symmetry_space_group_name_H-M   'P 1'
_cell_length_a   6.00850285
_cell_length_b   6.00850285
_cell_length_c   10.93592444
_cell_angle_alpha   79.78110527
_cell_angle_beta   100.21889473
_cell_angle_gamma   69.25042789
_symmetry_Int_Tables_number   1
_chemical_formula_structural   Na2PrO3
_chemical_formula_sum   'Na8 Pr4 O12'
_cell_volume   350.74437263
_cell_formula_units_Z   4
loop_
 _symmetry_equiv_pos_site_id
 _symmetry_equiv_pos_as_xyz
  1  'x, y, z'
loop_
 _atom_site_type_symbol
 _atom_site_label
 _atom_site_symmetry_multiplicity
 _atom_site_fract_x
 _atom_site_fract_y
 _atom_site_fract_z
 _atom_site_occupancy
  Na  Na0  1  0.79582903  -0.04574947  0.09168976  1.0
  Na  Na1  1  1.04574947  0.20417097  0.59168976  1.0
  Na  Na2  1  0.95425053  -0.20417097  0.40831024  1.0
  Na  Na3  1  1.20417097  0.04574947  0.90831024  1.0
  Na  Na4  1  0.37154954  -0.12164063  0.24287650  1.0
  Na  Na5  1  1.12164063  0.62845046  0.74287650  1.0
  Na  Na6  1  0.87835937  -0.62845046  0.25712350  1.0
  Na  Na7  1  1.62845046  0.12164063  0.75712350  1.0
  Pr  Pr8  1  1.45866439  0.29129031  0.41740547  1.0
  Pr  Pr9  1  0.70870969  -0.45866439  0.91740547  1.0
  Pr  Pr10  1  1.29129031  0.45866439  0.08259453  1.0
  Pr  Pr11  1  0.54133561  -0.29129031  0.58259453  1.0
  O  O12  1  0.52496193  -0.31882763  0.06795789  1.0
  O  O13  1  1.31882763  0.47503807  0.56795789  1.0
  O  O14  1  0.68117237  -0.47503807  0.43204211  1.0
  O  O15  1  1.47503807  0.31882763  0.93204211  1.0
  O  O16  1  1.59146373  0.15842046  0.24996024  1.0
  O  O17  1  0.84157954  -0.59146373  0.74996024  1.0
  O  O18  1  1.15842046  0.59146373  0.25003976  1.0
  O  O19  1  0.40853627  -0.15842046  0.75003976  1.0
  O  O20  1  1.25085340  0.04298278  0.43208781  1.0
  O  O21  1  0.95701722  -0.25085340  0.93208781  1.0
  O  O22  1  1.04298278  0.25085340  0.06791219  1.0
  O  O23  1  0.74914660  -0.04298278  0.56791219  1.0
