# generated using pymatgen
data_NaCo2(SeO5)2
_symmetry_space_group_name_H-M   'P 1'
_cell_length_a   5.47695485
_cell_length_b   5.47695485
_cell_length_c   8.05562065
_cell_angle_alpha   68.52636521
_cell_angle_beta   111.47363479
_cell_angle_gamma   113.11619621
_symmetry_Int_Tables_number   1
_chemical_formula_structural   NaCo2(SeO5)2
_chemical_formula_sum   'Na1 Co2 Se2 O10'
_cell_volume   199.71495026
_cell_formula_units_Z   1
loop_
 _symmetry_equiv_pos_site_id
 _symmetry_equiv_pos_as_xyz
  1  'x, y, z'
loop_
 _atom_site_type_symbol
 _atom_site_label
 _atom_site_symmetry_multiplicity
 _atom_site_fract_x
 _atom_site_fract_y
 _atom_site_fract_z
 _atom_site_occupancy
  Co  Co0  1  1.50000000  -0.00000000  0.50000000  1.0
  Co  Co1  1  1.00000000  0.50000000  0.50000000  1.0
  Se  Se2  1  0.57246941  0.42753059  0.77789610  1.0
  Se  Se3  1  1.42753059  -0.42753059  0.22210390  1.0
  O  O4  1  1.68635902  -0.22341611  0.73042995  1.0
  O  O5  1  1.22341611  -0.68635902  0.73042995  1.0
  O  O6  1  0.77658389  0.68635902  0.26957005  1.0
  O  O7  1  0.31364098  0.22341611  0.26957005  1.0
  O  O8  1  0.67141550  0.32858450  0.64132681  1.0
  O  O9  1  1.32858450  -0.32858450  0.35867319  1.0
  O  O10  1  1.29548024  -0.29548024  1.00572645  1.0
  O  O11  1  0.70451976  0.29548024  -0.00572645  1.0
  O  O12  1  0.81709535  0.18290465  0.44417267  1.0
  O  O13  1  1.18290465  -0.18290465  0.55582733  1.0
  Na  Na14  1  -0.00000000  -0.00000000  0.00000000  1.0
