# generated using pymatgen
data_Bi3(TeCl5)2
_symmetry_space_group_name_H-M   'P 1'
_cell_length_a   14.51924910
_cell_length_b   9.58949783
_cell_length_c   7.70463070
_cell_angle_alpha   86.48795501
_cell_angle_beta   79.88931447
_cell_angle_gamma   77.95216030
_symmetry_Int_Tables_number   1
_chemical_formula_structural   Bi3(TeCl5)2
_chemical_formula_sum   'Bi6 Te4 Cl20'
_cell_volume   1032.47536986
_cell_formula_units_Z   2
loop_
 _symmetry_equiv_pos_site_id
 _symmetry_equiv_pos_as_xyz
  1  'x, y, z'
loop_
 _atom_site_type_symbol
 _atom_site_label
 _atom_site_symmetry_multiplicity
 _atom_site_fract_x
 _atom_site_fract_y
 _atom_site_fract_z
 _atom_site_occupancy
  Bi  Bi0  1  -0.83103743  -1.01415447  -0.91663172  1.0
  Bi  Bi1  1  -0.16896257  0.01415447  -0.08336828  1.0
  Bi  Bi2  1  -0.24307868  -0.50496546  -0.82266755  1.0
  Bi  Bi3  1  -0.75692132  -0.49503454  -0.17733245  1.0
  Bi  Bi4  1  -0.97976166  -0.72460887  -0.35910283  1.0
  Bi  Bi5  1  -0.02023834  -0.27539113  -0.64089717  1.0
  Te  Te6  1  -0.59381912  -0.87298289  -0.61615574  1.0
  Te  Te7  1  -0.40618088  -0.12701711  -0.38384426  1.0
  Te  Te8  1  -0.49005715  -0.84500076  -0.36160806  1.0
  Te  Te9  1  -0.50994285  -0.15499924  -0.63839194  1.0
  Cl  Cl10  1  -0.64862867  -1.01896277  -0.93005258  1.0
  Cl  Cl11  1  -0.35137133  0.01896277  -0.06994742  1.0
  Cl  Cl12  1  -0.94181494  -0.36852952  -0.94994172  1.0
  Cl  Cl13  1  -0.05818506  -0.63147048  -0.05005828  1.0
  Cl  Cl14  1  -0.64316769  -0.59384743  -0.96941074  1.0
  Cl  Cl15  1  -0.35683231  -0.40615257  -0.03058926  1.0
  Cl  Cl16  1  -0.26919895  -0.76649065  -0.81038053  1.0
  Cl  Cl17  1  -0.73080105  -0.23350935  -0.18961947  1.0
  Cl  Cl18  1  -0.85419406  -0.80265336  -0.70128998  1.0
  Cl  Cl19  1  -0.14580594  -0.19734664  -0.29871002  1.0
  Cl  Cl20  1  -0.03257379  -0.99850066  -0.76718681  1.0
  Cl  Cl21  1  -0.96742621  -0.00149934  -0.23281319  1.0
  Cl  Cl22  1  -0.37330776  -0.45048776  -0.54636463  1.0
  Cl  Cl23  1  -0.62669224  -0.54951224  -0.45363537  1.0
  Cl  Cl24  1  -0.82372118  -0.20569613  -0.66667752  1.0
  Cl  Cl25  1  -0.17627882  -0.79430387  -0.33332248  1.0
  Cl  Cl26  1  -0.90156450  -0.47790257  -0.43308861  1.0
  Cl  Cl27  1  -0.09843550  -0.52209743  -0.56691139  1.0
  Cl  Cl28  1  -0.81211382  -0.78172519  -0.21492554  1.0
  Cl  Cl29  1  -0.18788618  -0.21827481  -0.78507446  1.0
