# generated using pymatgen
data_ZrAg2
_symmetry_space_group_name_H-M   'P 1'
_cell_length_a   5.18064285
_cell_length_b   5.18064285
_cell_length_c   5.18064285
_cell_angle_alpha   139.73174115
_cell_angle_beta   139.73174115
_cell_angle_gamma   58.26083870
_symmetry_Int_Tables_number   1
_chemical_formula_structural   ZrAg2
_chemical_formula_sum   'Zr1 Ag2'
_cell_volume   57.56393951
_cell_formula_units_Z   1
loop_
 _symmetry_equiv_pos_site_id
 _symmetry_equiv_pos_as_xyz
  1  'x, y, z'
loop_
 _atom_site_type_symbol
 _atom_site_label
 _atom_site_symmetry_multiplicity
 _atom_site_fract_x
 _atom_site_fract_y
 _atom_site_fract_z
 _atom_site_occupancy
  Zr  Zr0  1  0.00000000  0.00000000  0.00000000  1.0
  Ag  Ag1  1  0.67165956  0.67165956  1.00000000  1.0
  Ag  Ag2  1  0.32834044  0.32834044  0.00000000  1.0
