# generated using pymatgen
data_Al3(BRu2)2
_symmetry_space_group_name_H-M   'P 1'
_cell_length_a   8.53246205
_cell_length_b   8.53246205
_cell_length_c   2.93941370
_cell_angle_alpha   90.00000000
_cell_angle_beta   90.00000000
_cell_angle_gamma   90.00000000
_symmetry_Int_Tables_number   1
_chemical_formula_structural   Al3(BRu2)2
_chemical_formula_sum   'Al6 B4 Ru8'
_cell_volume   213.99786710
_cell_formula_units_Z   2
loop_
 _symmetry_equiv_pos_site_id
 _symmetry_equiv_pos_as_xyz
  1  'x, y, z'
loop_
 _atom_site_type_symbol
 _atom_site_label
 _atom_site_symmetry_multiplicity
 _atom_site_fract_x
 _atom_site_fract_y
 _atom_site_fract_z
 _atom_site_occupancy
  Al  Al0  1  0.84662350  0.50000000  0.00000000  1.0
  Al  Al1  1  0.50000000  0.84662350  0.00000000  1.0
  Al  Al2  1  0.50000000  0.15337650  0.00000000  1.0
  Al  Al3  1  0.15337650  0.50000000  0.00000000  1.0
  Al  Al4  1  0.50000000  0.50000000  0.00000000  1.0
  Al  Al5  1  0.00000000  0.00000000  0.00000000  1.0
  B  B6  1  0.80612725  0.80612725  0.00000000  1.0
  B  B7  1  0.80612725  0.19387275  0.00000000  1.0
  B  B8  1  0.19387275  0.80612725  0.00000000  1.0
  B  B9  1  0.19387275  0.19387275  0.00000000  1.0
  Ru  Ru10  1  0.74474109  0.00000000  0.50000000  1.0
  Ru  Ru11  1  0.00000000  0.74474109  0.50000000  1.0
  Ru  Ru12  1  0.00000000  0.25525891  0.50000000  1.0
  Ru  Ru13  1  0.25525891  0.00000000  0.50000000  1.0
  Ru  Ru14  1  0.67651496  0.67651496  0.50000000  1.0
  Ru  Ru15  1  0.67651496  0.32348504  0.50000000  1.0
  Ru  Ru16  1  0.32348504  0.67651496  0.50000000  1.0
  Ru  Ru17  1  0.32348504  0.32348504  0.50000000  1.0
