# generated using pymatgen
data_LaCuSn
_symmetry_space_group_name_H-M   'P 1'
_cell_length_a   4.62567969
_cell_length_b   4.62567969
_cell_length_c   8.12635090
_cell_angle_alpha   90.00000000
_cell_angle_beta   90.00000000
_cell_angle_gamma   120.00000000
_symmetry_Int_Tables_number   1
_chemical_formula_structural   LaCuSn
_chemical_formula_sum   'La2 Cu2 Sn2'
_cell_volume   150.58347545
_cell_formula_units_Z   2
loop_
 _symmetry_equiv_pos_site_id
 _symmetry_equiv_pos_as_xyz
  1  'x, y, z'
loop_
 _atom_site_type_symbol
 _atom_site_label
 _atom_site_symmetry_multiplicity
 _atom_site_fract_x
 _atom_site_fract_y
 _atom_site_fract_z
 _atom_site_occupancy
  La  La0  1  0.00000000  0.00000000  -0.00244110  1.0
  La  La1  1  0.00000000  0.00000000  0.49755890  1.0
  Cu  Cu2  1  0.33333333  0.66666667  0.71636948  1.0
  Cu  Cu3  1  0.66666667  0.33333333  0.21636948  1.0
  Sn  Sn4  1  0.33333333  0.66666667  0.26107163  1.0
  Sn  Sn5  1  0.66666667  0.33333333  0.76107163  1.0
