# generated using pymatgen
data_Zn2AsHO5
_symmetry_space_group_name_H-M   'P 1'
_cell_length_a   8.48423862
_cell_length_b   8.63623674
_cell_length_c   6.17434747
_cell_angle_alpha   90.00000000
_cell_angle_beta   90.00000000
_cell_angle_gamma   90.00000000
_symmetry_Int_Tables_number   1
_chemical_formula_structural   Zn2AsHO5
_chemical_formula_sum   'Zn8 As4 H4 O20'
_cell_volume   452.40612922
_cell_formula_units_Z   4
loop_
 _symmetry_equiv_pos_site_id
 _symmetry_equiv_pos_as_xyz
  1  'x, y, z'
loop_
 _atom_site_type_symbol
 _atom_site_label
 _atom_site_symmetry_multiplicity
 _atom_site_fract_x
 _atom_site_fract_y
 _atom_site_fract_z
 _atom_site_occupancy
  Zn  Zn0  1  0.86567485  0.63647678  0.50000000  1.0
  Zn  Zn1  1  0.36567485  0.86352322  -0.00000000  1.0
  Zn  Zn2  1  0.13432515  0.36352322  0.50000000  1.0
  Zn  Zn3  1  0.63432515  0.13647678  0.00000000  1.0
  Zn  Zn4  1  0.50000000  0.50000000  0.24741002  1.0
  Zn  Zn5  1  0.50000000  0.50000000  0.75258998  1.0
  Zn  Zn6  1  0.00000000  0.00000000  0.74741002  1.0
  Zn  Zn7  1  0.00000000  0.00000000  0.25258998  1.0
  As  As8  1  0.25053520  0.74448825  0.50000000  1.0
  As  As9  1  0.75053520  0.75551175  0.00000000  1.0
  As  As10  1  0.74946480  0.25551175  0.50000000  1.0
  As  As11  1  0.24946480  0.24448825  0.00000000  1.0
  H  H12  1  0.21184394  0.08287583  0.50000000  1.0
  H  H13  1  0.71184394  0.41712417  0.00000000  1.0
  H  H14  1  0.78815606  0.91712417  0.50000000  1.0
  H  H15  1  0.28815606  0.58287583  -0.00000000  1.0
  O  O16  1  0.23032888  0.86509024  0.27498499  1.0
  O  O17  1  0.23032888  0.86509024  0.72501501  1.0
  O  O18  1  0.73032888  0.63490976  0.77498499  1.0
  O  O19  1  0.73032888  0.63490976  0.22501501  1.0
  O  O20  1  0.76967112  0.13490976  0.27498499  1.0
  O  O21  1  0.76967112  0.13490976  0.72501501  1.0
  O  O22  1  0.26967112  0.36509024  0.77498499  1.0
  O  O23  1  0.26967112  0.36509024  0.22501501  1.0
  O  O24  1  0.42933825  0.64462426  0.50000000  1.0
  O  O25  1  0.92933825  0.85537574  0.00000000  1.0
  O  O26  1  0.57066175  0.35537574  0.50000000  1.0
  O  O27  1  0.07066175  0.14462426  -0.00000000  1.0
  O  O28  1  0.10374329  0.60382776  0.50000000  1.0
  O  O29  1  0.60374329  0.89617224  0.00000000  1.0
  O  O30  1  0.89625671  0.39617224  0.50000000  1.0
  O  O31  1  0.39625671  0.10382776  0.00000000  1.0
  O  O32  1  0.89371999  0.87206042  0.50000000  1.0
  O  O33  1  0.39371999  0.62793958  -0.00000000  1.0
  O  O34  1  0.10628001  0.12793958  0.50000000  1.0
  O  O35  1  0.60628001  0.37206042  -0.00000000  1.0
