# generated using pymatgen
data_Tl6TeO6
_symmetry_space_group_name_H-M   'P 1'
_cell_length_a   6.52760455
_cell_length_b   6.52760455
_cell_length_c   6.52760455
_cell_angle_alpha   97.90724646
_cell_angle_beta   97.90724646
_cell_angle_gamma   97.90724646
_symmetry_Int_Tables_number   1
_chemical_formula_structural   Tl6TeO6
_chemical_formula_sum   'Tl6 Te1 O6'
_cell_volume   269.38086735
_cell_formula_units_Z   1
loop_
 _symmetry_equiv_pos_site_id
 _symmetry_equiv_pos_as_xyz
  1  'x, y, z'
loop_
 _atom_site_type_symbol
 _atom_site_label
 _atom_site_symmetry_multiplicity
 _atom_site_fract_x
 _atom_site_fract_y
 _atom_site_fract_z
 _atom_site_occupancy
  Tl  Tl0  1  1.27469367  -0.43336994  0.14654681  1.0
  Tl  Tl1  1  1.43336994  0.85345319  -0.27469367  1.0
  Tl  Tl2  1  0.85345319  0.72530633  0.43336994  1.0
  Tl  Tl3  1  0.72530633  1.43336994  -0.14654681  1.0
  Tl  Tl4  1  0.56663006  0.14654681  0.27469367  1.0
  Tl  Tl5  1  1.14654681  0.27469367  -0.43336994  1.0
  Te  Te6  1  0.00000000  0.00000000  0.00000000  1.0
  O  O7  1  0.71330002  0.87407118  0.05121360  1.0
  O  O8  1  1.12592882  -0.05121360  0.28669997  1.0
  O  O9  1  0.94878640  0.28669997  0.12592882  1.0
  O  O10  1  1.28669998  0.12592882  -0.05121360  1.0
  O  O11  1  0.87407118  1.05121360  -0.28669997  1.0
  O  O12  1  1.05121360  0.71330003  -0.12592882  1.0
