# generated using pymatgen
data_LuSeO3F
_symmetry_space_group_name_H-M   'P 1'
_cell_length_a   4.35829977
_cell_length_b   6.98301435
_cell_length_c   6.56703755
_cell_angle_alpha   90.00000000
_cell_angle_beta   95.83269400
_cell_angle_gamma   90.00000000
_symmetry_Int_Tables_number   1
_chemical_formula_structural   LuSeO3F
_chemical_formula_sum   'Lu2 Se2 O6 F2'
_cell_volume   198.82697211
_cell_formula_units_Z   2
loop_
 _symmetry_equiv_pos_site_id
 _symmetry_equiv_pos_as_xyz
  1  'x, y, z'
loop_
 _atom_site_type_symbol
 _atom_site_label
 _atom_site_symmetry_multiplicity
 _atom_site_fract_x
 _atom_site_fract_y
 _atom_site_fract_z
 _atom_site_occupancy
  Lu  Lu0  1  0.96212052  0.25000000  0.86964405  1.0
  Lu  Lu1  1  0.03787948  0.75000000  0.13035595  1.0
  Se  Se2  1  0.17514674  0.25000000  0.35425137  1.0
  Se  Se3  1  0.82485326  0.75000000  0.64574863  1.0
  O  O4  1  0.95223985  0.92732062  0.82185472  1.0
  O  O5  1  0.95223985  0.57267938  0.82185472  1.0
  O  O6  1  0.04776015  0.42732062  0.17814528  1.0
  O  O7  1  0.04776015  0.07267938  0.17814528  1.0
  O  O8  1  0.90916215  0.25000000  0.52458344  1.0
  O  O9  1  0.09083785  0.75000000  0.47541656  1.0
  F  F10  1  0.46260667  0.25000000  0.86034912  1.0
  F  F11  1  0.53739333  0.75000000  0.13965088  1.0
