# generated using pymatgen
data_IrC4
_symmetry_space_group_name_H-M   'P 1'
_cell_length_a   4.88702588
_cell_length_b   7.43100209
_cell_length_c   9.21387188
_cell_angle_alpha   90.00000000
_cell_angle_beta   90.00000000
_cell_angle_gamma   90.00000000
_symmetry_Int_Tables_number   1
_chemical_formula_structural   IrC4
_chemical_formula_sum   'Ir8 C32'
_cell_volume   334.60636051
_cell_formula_units_Z   8
loop_
 _symmetry_equiv_pos_site_id
 _symmetry_equiv_pos_as_xyz
  1  'x, y, z'
loop_
 _atom_site_type_symbol
 _atom_site_label
 _atom_site_symmetry_multiplicity
 _atom_site_fract_x
 _atom_site_fract_y
 _atom_site_fract_z
 _atom_site_occupancy
  Ir  Ir0  1  0.62505259  0.63237670  0.93510144  1.0
  Ir  Ir1  1  0.12505259  0.86762330  0.06489856  1.0
  Ir  Ir2  1  0.37494741  0.13237670  0.56489856  1.0
  Ir  Ir3  1  0.87494741  0.36762330  0.43510144  1.0
  Ir  Ir4  1  0.37494741  0.36762330  0.06489856  1.0
  Ir  Ir5  1  0.87494741  0.13237670  0.93510144  1.0
  Ir  Ir6  1  0.62505259  0.86762330  0.43510144  1.0
  Ir  Ir7  1  0.12505259  0.63237670  0.56489856  1.0
  C  C8  1  0.55125127  0.80832311  0.75202873  1.0
  C  C9  1  0.05125127  0.69167689  0.24797127  1.0
  C  C10  1  0.44874873  0.30832311  0.74797127  1.0
  C  C11  1  0.94874873  0.19167689  0.25202873  1.0
  C  C12  1  0.44874873  0.19167689  0.24797127  1.0
  C  C13  1  0.94874873  0.30832311  0.75202873  1.0
  C  C14  1  0.55125127  0.69167689  0.25202873  1.0
  C  C15  1  0.05125127  0.80832311  0.74797127  1.0
  C  C16  1  0.69868871  0.42030875  0.73960740  1.0
  C  C17  1  0.19868871  0.07969125  0.26039260  1.0
  C  C18  1  0.30131129  0.92030875  0.76039260  1.0
  C  C19  1  0.80131129  0.57969125  0.23960740  1.0
  C  C20  1  0.30131129  0.57969125  0.26039260  1.0
  C  C21  1  0.80131129  0.92030875  0.73960740  1.0
  C  C22  1  0.69868871  0.07969125  0.23960740  1.0
  C  C23  1  0.19868871  0.42030875  0.76039260  1.0
  C  C24  1  0.22936642  0.54314051  0.88458912  1.0
  C  C25  1  0.72936642  0.95685949  0.11541088  1.0
  C  C26  1  0.77063358  0.04314051  0.61541088  1.0
  C  C27  1  0.27063358  0.45685949  0.38458912  1.0
  C  C28  1  0.77063358  0.45685949  0.11541088  1.0
  C  C29  1  0.27063358  0.04314051  0.88458912  1.0
  C  C30  1  0.22936642  0.95685949  0.38458912  1.0
  C  C31  1  0.72936642  0.54314051  0.61541088  1.0
  C  C32  1  1.02948054  0.69015375  0.88241549  1.0
  C  C33  1  0.52948054  0.80984625  0.11758451  1.0
  C  C34  1  -0.02948054  0.19015375  0.61758451  1.0
  C  C35  1  0.47051946  0.30984625  0.38241549  1.0
  C  C36  1  -0.02948054  0.30984625  0.11758451  1.0
  C  C37  1  0.47051946  0.19015375  0.88241549  1.0
  C  C38  1  1.02948054  0.80984625  0.38241549  1.0
  C  C39  1  0.52948054  0.69015375  0.61758451  1.0
