# generated using pymatgen
data_V6C5
_symmetry_space_group_name_H-M   'P 1'
_cell_length_a   5.09564145
_cell_length_b   5.09564145
_cell_length_c   14.34102455
_cell_angle_alpha   90.00000000
_cell_angle_beta   90.00000000
_cell_angle_gamma   120.00000000
_symmetry_Int_Tables_number   1
_chemical_formula_structural   V6C5
_chemical_formula_sum   'V18 C15'
_cell_volume   322.48426855
_cell_formula_units_Z   3
loop_
 _symmetry_equiv_pos_site_id
 _symmetry_equiv_pos_as_xyz
  1  'x, y, z'
loop_
 _atom_site_type_symbol
 _atom_site_label
 _atom_site_symmetry_multiplicity
 _atom_site_fract_x
 _atom_site_fract_y
 _atom_site_fract_z
 _atom_site_occupancy
  V  V0  1  0.11160100  0.86458771  0.07637290  1.0
  V  V1  1  0.11160100  0.24701328  0.92362710  1.0
  V  V2  1  0.75298672  0.86458771  0.25696043  1.0
  V  V3  1  0.75298672  0.88839900  0.74303957  1.0
  V  V4  1  0.13541229  0.88839900  0.59029377  1.0
  V  V5  1  0.13541229  0.24701328  0.40970623  1.0
  V  V6  1  0.47257576  0.88922059  0.91786238  1.0
  V  V7  1  0.47257576  0.58335517  0.08213762  1.0
  V  V8  1  0.41664483  0.88922059  0.41547096  1.0
  V  V9  1  0.41664483  0.52742424  0.58452904  1.0
  V  V10  1  0.11077941  0.52742424  0.74880429  1.0
  V  V11  1  0.11077941  0.58335517  0.25119571  1.0
  V  V12  1  0.75091078  0.52881292  0.91859081  1.0
  V  V13  1  0.75091078  0.22209787  0.08140919  1.0
  V  V14  1  0.77790213  0.52881292  0.41474252  1.0
  V  V15  1  0.77790213  0.24908922  0.58525748  1.0
  V  V16  1  0.47118708  0.24908922  0.74807585  1.0
  V  V17  1  0.47118708  0.22209787  0.25192415  1.0
  C  C18  1  0.10828261  0.55414130  0.50000000  1.0
  C  C19  1  0.44585870  0.55414130  0.83333333  1.0
  C  C20  1  0.44585870  0.89171739  0.16666667  1.0
  C  C21  1  0.44071270  0.22035635  0.50000000  1.0
  C  C22  1  0.77964365  0.22035635  0.83333333  1.0
  C  C23  1  0.77964365  0.55928730  0.16666667  1.0
  C  C24  1  0.78480797  0.89240398  0.00000000  1.0
  C  C25  1  0.10759602  0.89240398  0.33333333  1.0
  C  C26  1  0.10759602  0.21519203  0.66666667  1.0
  C  C27  1  0.11194514  0.55597257  0.00000000  1.0
  C  C28  1  0.44402743  0.55597257  0.33333333  1.0
  C  C29  1  0.44402743  0.88805486  0.66666667  1.0
  C  C30  1  0.43943461  0.21971730  0.00000000  1.0
  C  C31  1  0.78028270  0.21971730  0.33333333  1.0
  C  C32  1  0.78028270  0.56056539  0.66666667  1.0
