# generated using pymatgen
data_SrGa2B2O7
_symmetry_space_group_name_H-M   'P 1'
_cell_length_a   7.26560699
_cell_length_b   7.26560699
_cell_length_c   5.80115406
_cell_angle_alpha   90.00000000
_cell_angle_beta   90.00000000
_cell_angle_gamma   70.83483650
_symmetry_Int_Tables_number   1
_chemical_formula_structural   SrGa2B2O7
_chemical_formula_sum   'Sr2 Ga4 B4 O14'
_cell_volume   289.26452779
_cell_formula_units_Z   2
loop_
 _symmetry_equiv_pos_site_id
 _symmetry_equiv_pos_as_xyz
  1  'x, y, z'
loop_
 _atom_site_type_symbol
 _atom_site_label
 _atom_site_symmetry_multiplicity
 _atom_site_fract_x
 _atom_site_fract_y
 _atom_site_fract_z
 _atom_site_occupancy
  Sr  Sr0  1  -0.18320403  1.18320403  0.25000000  1.0
  Sr  Sr1  1  0.18320403  0.81679597  0.75000000  1.0
  Ga  Ga2  1  -0.12498052  1.70740823  0.25000000  1.0
  Ga  Ga3  1  0.70740823  0.87501948  0.75000000  1.0
  Ga  Ga4  1  -0.70740823  1.12498052  0.25000000  1.0
  Ga  Ga5  1  0.12498052  0.29259177  0.75000000  1.0
  B  B6  1  0.29601188  0.48627765  0.25000000  1.0
  B  B7  1  -0.51372235  1.29601188  0.75000000  1.0
  B  B8  1  0.51372235  0.70398812  0.25000000  1.0
  B  B9  1  -0.29601188  1.51372235  0.75000000  1.0
  O  O10  1  0.33944254  0.66055746  0.25000000  1.0
  O  O11  1  -0.33944254  1.33944254  0.75000000  1.0
  O  O12  1  -0.30406374  1.56455228  0.25000000  1.0
  O  O13  1  0.56455228  0.69593626  0.75000000  1.0
  O  O14  1  -0.56455228  1.30406374  0.25000000  1.0
  O  O15  1  0.30406374  0.43544772  0.75000000  1.0
  O  O16  1  0.87122326  0.87122326  0.50000000  1.0
  O  O17  1  0.87122326  0.87122326  0.00000000  1.0
  O  O18  1  0.12877674  0.12877674  0.50000000  1.0
  O  O19  1  0.12877674  0.12877674  0.00000000  1.0
  O  O20  1  0.10591666  0.49698349  0.25000000  1.0
  O  O21  1  -0.50301651  1.10591666  0.75000000  1.0
  O  O22  1  0.50301651  0.89408334  0.25000000  1.0
  O  O23  1  -0.10591666  1.50301651  0.75000000  1.0
