# generated using pymatgen
data_Na3Zn2BiO6
_symmetry_space_group_name_H-M   'P 1'
_cell_length_a   5.53866530
_cell_length_b   5.53866530
_cell_length_c   5.79207636
_cell_angle_alpha   80.89769662
_cell_angle_beta   99.10230338
_cell_angle_gamma   59.99109283
_symmetry_Int_Tables_number   1
_chemical_formula_structural   Na3Zn2BiO6
_chemical_formula_sum   'Na3 Zn2 Bi1 O6'
_cell_volume   145.95712746
_cell_formula_units_Z   1
loop_
 _symmetry_equiv_pos_site_id
 _symmetry_equiv_pos_as_xyz
  1  'x, y, z'
loop_
 _atom_site_type_symbol
 _atom_site_label
 _atom_site_symmetry_multiplicity
 _atom_site_fract_x
 _atom_site_fract_y
 _atom_site_fract_z
 _atom_site_occupancy
  Na  Na0  1  0.67347529  -0.32652471  0.50000000  1.0
  Na  Na1  1  0.32652471  0.32652471  0.50000000  1.0
  Na  Na2  1  0.00000000  -0.00000000  0.50000000  1.0
  Zn  Zn3  1  0.83380878  -0.16619122  0.00000000  1.0
  Zn  Zn4  1  0.16619122  0.16619122  -0.00000000  1.0
  Bi  Bi5  1  0.50000000  -0.50000000  0.00000000  1.0
  O  O6  1  0.42996903  -0.10274139  0.78918746  1.0
  O  O7  1  1.10274139  -0.42996903  0.78918746  1.0
  O  O8  1  0.89725861  -0.57003097  0.21081254  1.0
  O  O9  1  0.57003097  0.10274139  0.21081254  1.0
  O  O10  1  0.75658425  -0.75658425  0.78908060  1.0
  O  O11  1  0.24341575  -0.24341575  0.21091940  1.0
