# generated using pymatgen
data_SCl
_symmetry_space_group_name_H-M   'P 1'
_cell_length_a   12.39200151
_cell_length_b   9.82239588
_cell_length_c   15.37739858
_cell_angle_alpha   53.57201670
_cell_angle_beta   39.62507989
_cell_angle_gamma   86.80290340
_symmetry_Int_Tables_number   1
_chemical_formula_structural   SCl
_chemical_formula_sum   'S8 Cl8'
_cell_volume   597.87647755
_cell_formula_units_Z   8
loop_
 _symmetry_equiv_pos_site_id
 _symmetry_equiv_pos_as_xyz
  1  'x, y, z'
loop_
 _atom_site_type_symbol
 _atom_site_label
 _atom_site_symmetry_multiplicity
 _atom_site_fract_x
 _atom_site_fract_y
 _atom_site_fract_z
 _atom_site_occupancy
  S  S0  1  0.32947804  0.11604709  0.53830550  1.0
  S  S1  1  0.71169450  0.23383063  -0.07947804  1.0
  S  S2  1  0.11604709  0.32947804  0.01616937  1.0
  S  S3  1  0.23383063  0.71169450  0.13395291  1.0
  S  S4  1  0.18769832  -0.13439426  0.62850494  1.0
  S  S5  1  0.62149506  0.93180900  0.06230168  1.0
  S  S6  1  -0.13439426  0.18769832  0.31819100  1.0
  S  S7  1  0.93180900  0.62149506  -0.61560574  1.0
  Cl  Cl8  1  -0.35044780  0.40627187  0.53731951  1.0
  Cl  Cl9  1  0.71268049  0.84314358  -0.39955220  1.0
  Cl  Cl10  1  0.40627187  -0.35044780  0.40685642  1.0
  Cl  Cl11  1  0.84314358  0.71268049  -0.15627187  1.0
  Cl  Cl12  1  0.12720243  -0.09805569  0.86280516  1.0
  Cl  Cl13  1  0.38719484  0.14195189  0.12279757  1.0
  Cl  Cl14  1  -0.09805569  0.12720243  0.10804811  1.0
  Cl  Cl15  1  0.14195189  0.38719484  0.34805569  1.0
