# generated using pymatgen
data_Ca3(GaPt)2
_symmetry_space_group_name_H-M   'P 1'
_cell_length_a   5.79992274
_cell_length_b   7.89990591
_cell_length_c   13.91589869
_cell_angle_alpha   90.00000000
_cell_angle_beta   90.00000000
_cell_angle_gamma   90.00000000
_symmetry_Int_Tables_number   1
_chemical_formula_structural   Ca3(GaPt)2
_chemical_formula_sum   'Ca12 Ga8 Pt8'
_cell_volume   637.61039074
_cell_formula_units_Z   4
loop_
 _symmetry_equiv_pos_site_id
 _symmetry_equiv_pos_as_xyz
  1  'x, y, z'
loop_
 _atom_site_type_symbol
 _atom_site_label
 _atom_site_symmetry_multiplicity
 _atom_site_fract_x
 _atom_site_fract_y
 _atom_site_fract_z
 _atom_site_occupancy
  Ca  Ca0  1  0.85630420  0.60586453  0.90176753  1.0
  Ca  Ca1  1  0.85630420  0.60586453  0.59823247  1.0
  Ca  Ca2  1  0.85630420  0.89413547  0.40176753  1.0
  Ca  Ca3  1  0.85630420  0.89413547  0.09823247  1.0
  Ca  Ca4  1  0.14369580  0.10586453  0.90176753  1.0
  Ca  Ca5  1  0.14369580  0.10586453  0.59823247  1.0
  Ca  Ca6  1  0.14369580  0.39413547  0.40176753  1.0
  Ca  Ca7  1  0.14369580  0.39413547  0.09823247  1.0
  Ca  Ca8  1  0.37187345  0.75557037  0.75000000  1.0
  Ca  Ca9  1  0.37187345  0.74442963  0.25000000  1.0
  Ca  Ca10  1  0.62812655  0.25557037  0.75000000  1.0
  Ca  Ca11  1  0.62812655  0.24442963  0.25000000  1.0
  Ga  Ga12  1  0.85983494  0.90697392  0.75000000  1.0
  Ga  Ga13  1  0.85983494  0.59302608  0.25000000  1.0
  Ga  Ga14  1  0.14016506  0.40697392  0.75000000  1.0
  Ga  Ga15  1  0.14016506  0.09302608  0.25000000  1.0
  Ga  Ga16  1  0.37724989  0.75000000  0.00000000  1.0
  Ga  Ga17  1  0.37724989  0.75000000  0.50000000  1.0
  Ga  Ga18  1  0.62275011  0.25000000  0.00000000  1.0
  Ga  Ga19  1  0.62275011  0.25000000  0.50000000  1.0
  Pt  Pt20  1  0.63948458  0.96802403  0.90580896  1.0
  Pt  Pt21  1  0.63948458  0.96802403  0.59419104  1.0
  Pt  Pt22  1  0.63948458  0.53197597  0.40580896  1.0
  Pt  Pt23  1  0.63948458  0.53197597  0.09419104  1.0
  Pt  Pt24  1  0.36051542  0.46802403  0.90580896  1.0
  Pt  Pt25  1  0.36051542  0.46802403  0.59419104  1.0
  Pt  Pt26  1  0.36051542  0.03197597  0.40580896  1.0
  Pt  Pt27  1  0.36051542  0.03197597  0.09419104  1.0
