# generated using pymatgen
data_CdI2
_symmetry_space_group_name_H-M   'P 1'
_cell_length_a   4.32815227
_cell_length_b   4.32815227
_cell_length_c   83.43070832
_cell_angle_alpha   90.00000000
_cell_angle_beta   90.00000000
_cell_angle_gamma   120.00000000
_symmetry_Int_Tables_number   1
_chemical_formula_structural   CdI2
_chemical_formula_sum   'Cd11 I22'
_cell_volume   1353.51048789
_cell_formula_units_Z   11
loop_
 _symmetry_equiv_pos_site_id
 _symmetry_equiv_pos_as_xyz
  1  'x, y, z'
loop_
 _atom_site_type_symbol
 _atom_site_label
 _atom_site_symmetry_multiplicity
 _atom_site_fract_x
 _atom_site_fract_y
 _atom_site_fract_z
 _atom_site_occupancy
  Cd  Cd0  1  0.00000000  0.00000000  0.02274464  1.0
  Cd  Cd1  1  0.00000000  0.00000000  0.11363927  1.0
  Cd  Cd2  1  0.00000000  0.00000000  0.20455970  1.0
  Cd  Cd3  1  0.00000000  0.00000000  0.29546600  1.0
  Cd  Cd4  1  0.00000000  0.00000000  0.38636768  1.0
  Cd  Cd5  1  0.00000000  0.00000000  0.47726452  1.0
  Cd  Cd6  1  0.00000000  0.00000000  0.56816454  1.0
  Cd  Cd7  1  0.00000000  0.00000000  0.75001134  1.0
  Cd  Cd8  1  0.00000000  0.00000000  0.84089014  1.0
  Cd  Cd9  1  0.66666667  0.33333333  0.65909626  1.0
  Cd  Cd10  1  0.66666667  0.33333333  0.93182991  1.0
  I  I11  1  0.00000000  0.00000000  0.67969487  1.0
  I  I12  1  0.00000000  0.00000000  0.95243540  1.0
  I  I13  1  0.66666667  0.33333333  0.04334866  1.0
  I  I14  1  0.66666667  0.33333333  0.13424517  1.0
  I  I15  1  0.66666667  0.33333333  0.22516673  1.0
  I  I16  1  0.66666667  0.33333333  0.31607273  1.0
  I  I17  1  0.66666667  0.33333333  0.40697441  1.0
  I  I18  1  0.66666667  0.33333333  0.49787051  1.0
  I  I19  1  0.66666667  0.33333333  0.58877173  1.0
  I  I20  1  0.66666667  0.33333333  0.77060922  1.0
  I  I21  1  0.66666667  0.33333333  0.86148943  1.0
  I  I22  1  0.33333333  0.66666667  0.00213847  1.0
  I  I23  1  0.33333333  0.66666667  0.09303239  1.0
  I  I24  1  0.33333333  0.66666667  0.18395363  1.0
  I  I25  1  0.33333333  0.66666667  0.27485933  1.0
  I  I26  1  0.33333333  0.66666667  0.36576128  1.0
  I  I27  1  0.33333333  0.66666667  0.45665767  1.0
  I  I28  1  0.33333333  0.66666667  0.54755893  1.0
  I  I29  1  0.33333333  0.66666667  0.63849775  1.0
  I  I30  1  0.33333333  0.66666667  0.72941266  1.0
  I  I31  1  0.33333333  0.66666667  0.82028986  1.0
  I  I32  1  0.33333333  0.66666667  0.91122518  1.0
