# generated using pymatgen
data_Hf9W4S
_symmetry_space_group_name_H-M   'P 1'
_cell_length_a   8.70050427
_cell_length_b   8.70050427
_cell_length_c   8.57424276
_cell_angle_alpha   90.00000000
_cell_angle_beta   90.00000000
_cell_angle_gamma   120.00000000
_symmetry_Int_Tables_number   1
_chemical_formula_structural   Hf9W4S
_chemical_formula_sum   'Hf18 W8 S2'
_cell_volume   562.10216195
_cell_formula_units_Z   2
loop_
 _symmetry_equiv_pos_site_id
 _symmetry_equiv_pos_as_xyz
  1  'x, y, z'
loop_
 _atom_site_type_symbol
 _atom_site_label
 _atom_site_symmetry_multiplicity
 _atom_site_fract_x
 _atom_site_fract_y
 _atom_site_fract_z
 _atom_site_occupancy
  Hf  Hf0  1  0.19597892  0.80402108  0.44778100  1.0
  Hf  Hf1  1  0.19597892  0.39195785  0.44778100  1.0
  Hf  Hf2  1  0.60804215  0.80402108  0.44778100  1.0
  Hf  Hf3  1  0.80402108  0.19597892  0.55221900  1.0
  Hf  Hf4  1  0.80402108  0.60804215  0.55221900  1.0
  Hf  Hf5  1  0.39195785  0.19597892  0.55221900  1.0
  Hf  Hf6  1  0.80402108  0.19597892  0.94778100  1.0
  Hf  Hf7  1  0.80402108  0.60804215  0.94778100  1.0
  Hf  Hf8  1  0.39195785  0.19597892  0.94778100  1.0
  Hf  Hf9  1  0.19597892  0.80402108  0.05221900  1.0
  Hf  Hf10  1  0.19597892  0.39195785  0.05221900  1.0
  Hf  Hf11  1  0.60804215  0.80402108  0.05221900  1.0
  Hf  Hf12  1  0.54458827  0.45541173  0.25000000  1.0
  Hf  Hf13  1  0.54458827  0.08917653  0.25000000  1.0
  Hf  Hf14  1  0.91082347  0.45541173  0.25000000  1.0
  Hf  Hf15  1  0.45541173  0.54458827  0.75000000  1.0
  Hf  Hf16  1  0.45541173  0.91082347  0.75000000  1.0
  Hf  Hf17  1  0.08917653  0.54458827  0.75000000  1.0
  W  W18  1  0.88922378  0.11077622  0.25000000  1.0
  W  W19  1  0.88922378  0.77844756  0.25000000  1.0
  W  W20  1  0.22155244  0.11077622  0.25000000  1.0
  W  W21  1  0.11077622  0.88922378  0.75000000  1.0
  W  W22  1  0.11077622  0.22155244  0.75000000  1.0
  W  W23  1  0.77844756  0.88922378  0.75000000  1.0
  W  W24  1  -0.00000000  -0.00000000  0.50000000  1.0
  W  W25  1  0.00000000  0.00000000  -0.00000000  1.0
  S  S26  1  0.33333333  0.66666667  0.25000000  1.0
  S  S27  1  0.66666667  0.33333333  0.75000000  1.0
