# generated using pymatgen
data_Ag2Te3Mo3O16
_symmetry_space_group_name_H-M   'P 1'
_cell_length_a   7.81257931
_cell_length_b   7.81257931
_cell_length_c   7.59886609
_cell_angle_alpha   65.08567057
_cell_angle_beta   114.91432943
_cell_angle_gamma   84.46446642
_symmetry_Int_Tables_number   1
_chemical_formula_structural   Ag2Te3Mo3O16
_chemical_formula_sum   'Ag2 Te3 Mo3 O16'
_cell_volume   359.72243358
_cell_formula_units_Z   1
loop_
 _symmetry_equiv_pos_site_id
 _symmetry_equiv_pos_as_xyz
  1  'x, y, z'
loop_
 _atom_site_type_symbol
 _atom_site_label
 _atom_site_symmetry_multiplicity
 _atom_site_fract_x
 _atom_site_fract_y
 _atom_site_fract_z
 _atom_site_occupancy
  Ag  Ag0  1  0.56133491  -0.43866509  0.50000000  1.0
  Ag  Ag1  1  0.01091182  0.01091182  -0.00000000  1.0
  Mo  Mo2  1  1.48716946  0.03462077  0.97447021  1.0
  Mo  Mo3  1  1.03462077  0.48716946  0.02552979  1.0
  Mo  Mo4  1  1.10192618  0.10192618  0.50000000  1.0
  O  O5  1  1.22348785  0.28103914  0.66094560  1.0
  O  O6  1  1.28103914  0.22348785  0.33905440  1.0
  O  O7  1  0.95112340  -0.93559129  0.62102598  1.0
  O  O8  1  0.06440871  -0.04887660  0.37897402  1.0
  O  O9  1  1.38501601  0.59815394  0.65843407  1.0
  O  O10  1  1.59815394  0.38501601  0.34156593  1.0
  O  O11  1  1.22698626  0.56202368  0.93274005  1.0
  O  O12  1  1.56202368  0.22698626  0.06725995  1.0
  O  O13  1  0.96274583  -0.64489919  0.88633839  1.0
  O  O14  1  0.35510081  -0.03725417  0.11366161  1.0
  O  O15  1  1.15245905  0.63459811  0.23966118  1.0
  O  O16  1  1.63459811  0.15245905  0.76033882  1.0
  O  O17  1  0.36428062  -0.06608911  0.76471431  1.0
  O  O18  1  0.93391089  -0.63571938  0.23528569  1.0
  O  O19  1  0.83076843  -0.29396453  0.84391214  1.0
  O  O20  1  0.70603547  -0.16923157  0.15608786  1.0
  Te  Te21  1  1.11583761  0.57798794  0.49156838  1.0
  Te  Te22  1  1.57798794  0.11583761  0.50843162  1.0
  Te  Te23  1  0.50957311  -0.49042689  0.00000000  1.0
