# generated using pymatgen
data_Sr4In13Au9
_symmetry_space_group_name_H-M   'P 1'
_cell_length_a   12.97865482
_cell_length_b   12.97865482
_cell_length_c   4.46674959
_cell_angle_alpha   90.00000000
_cell_angle_beta   90.00000000
_cell_angle_gamma   120.00000000
_symmetry_Int_Tables_number   1
_chemical_formula_structural   Sr4In13Au9
_chemical_formula_sum   'Sr4 In13 Au9'
_cell_volume   651.60079006
_cell_formula_units_Z   1
loop_
 _symmetry_equiv_pos_site_id
 _symmetry_equiv_pos_as_xyz
  1  'x, y, z'
loop_
 _atom_site_type_symbol
 _atom_site_label
 _atom_site_symmetry_multiplicity
 _atom_site_fract_x
 _atom_site_fract_y
 _atom_site_fract_z
 _atom_site_occupancy
  Sr  Sr0  1  0.07975688  0.53987844  0.50000000  1.0
  Sr  Sr1  1  0.46012156  0.53987844  0.50000000  1.0
  Sr  Sr2  1  0.46012156  0.92024312  0.50000000  1.0
  Sr  Sr3  1  0.00000000  0.00000000  0.00000000  1.0
  In  In4  1  0.71546530  0.67561894  0.00000000  1.0
  In  In5  1  0.71546530  0.03984637  0.00000000  1.0
  In  In6  1  0.96015363  0.67561894  -0.00000000  1.0
  In  In7  1  0.96015363  0.28453470  0.00000000  1.0
  In  In8  1  0.32438106  0.28453470  -0.00000000  1.0
  In  In9  1  0.32438106  0.03984637  0.00000000  1.0
  In  In10  1  0.73380013  0.86690007  0.50000000  1.0
  In  In11  1  0.13309993  0.86690007  0.50000000  1.0
  In  In12  1  0.13309993  0.26619987  0.50000000  1.0
  In  In13  1  0.50067499  0.25033749  0.50000000  1.0
  In  In14  1  0.74966251  0.25033749  0.50000000  1.0
  In  In15  1  0.74966251  0.49932501  0.50000000  1.0
  In  In16  1  0.33333333  0.66666667  0.00000000  1.0
  Au  Au17  1  0.23647917  0.11823958  0.50000000  1.0
  Au  Au18  1  0.88176042  0.11823958  0.50000000  1.0
  Au  Au19  1  0.88176042  0.76352083  0.50000000  1.0
  Au  Au20  1  0.57393718  0.78696859  0.00000000  1.0
  Au  Au21  1  0.21303141  0.78696859  0.00000000  1.0
  Au  Au22  1  0.21303141  0.42606282  0.00000000  1.0
  Au  Au23  1  0.84802879  0.42401439  -0.00000000  1.0
  Au  Au24  1  0.57598561  0.42401439  0.00000000  1.0
  Au  Au25  1  0.57598561  0.15197121  -0.00000000  1.0
