# generated using pymatgen
data_Eu2H3Br
_symmetry_space_group_name_H-M   'P 1'
_cell_length_a   4.03348141
_cell_length_b   4.03348141
_cell_length_c   7.12284401
_cell_angle_alpha   90.00000000
_cell_angle_beta   90.00000000
_cell_angle_gamma   120.00000000
_symmetry_Int_Tables_number   1
_chemical_formula_structural   Eu2H3Br
_chemical_formula_sum   'Eu2 H3 Br1'
_cell_volume   100.35619446
_cell_formula_units_Z   1
loop_
 _symmetry_equiv_pos_site_id
 _symmetry_equiv_pos_as_xyz
  1  'x, y, z'
loop_
 _atom_site_type_symbol
 _atom_site_label
 _atom_site_symmetry_multiplicity
 _atom_site_fract_x
 _atom_site_fract_y
 _atom_site_fract_z
 _atom_site_occupancy
  H  H0  1  0.33333333  0.66666667  0.64477291  1.0
  H  H1  1  0.66666667  0.33333333  0.35522709  1.0
  H  H2  1  0.00000000  0.00000000  0.50000000  1.0
  Eu  Eu3  1  0.33333333  0.66666667  0.31196572  1.0
  Eu  Eu4  1  0.66666667  0.33333333  0.68803428  1.0
  Br  Br5  1  0.00000000  0.00000000  -0.00000000  1.0
