# generated using pymatgen
data_CsNaGeF6
_symmetry_space_group_name_H-M   'P 1'
_cell_length_a   6.57310556
_cell_length_b   11.19718102
_cell_length_c   8.43586671
_cell_angle_alpha   90.00000000
_cell_angle_beta   90.00000000
_cell_angle_gamma   90.00000000
_symmetry_Int_Tables_number   1
_chemical_formula_structural   CsNaGeF6
_chemical_formula_sum   'Cs4 Na4 Ge4 F24'
_cell_volume   620.88192289
_cell_formula_units_Z   4
loop_
 _symmetry_equiv_pos_site_id
 _symmetry_equiv_pos_as_xyz
  1  'x, y, z'
loop_
 _atom_site_type_symbol
 _atom_site_label
 _atom_site_symmetry_multiplicity
 _atom_site_fract_x
 _atom_site_fract_y
 _atom_site_fract_z
 _atom_site_occupancy
  Cs  Cs0  1  0.17555165  0.25000000  0.50000000  1.0
  Cs  Cs1  1  0.17555165  0.25000000  -0.00000000  1.0
  Cs  Cs2  1  0.82444835  0.75000000  0.50000000  1.0
  Cs  Cs3  1  0.82444835  0.75000000  0.00000000  1.0
  Na  Na4  1  0.70032863  0.07015276  0.25000000  1.0
  Na  Na5  1  0.70032863  0.42984724  0.75000000  1.0
  Na  Na6  1  0.29967137  0.57015276  0.25000000  1.0
  Na  Na7  1  0.29967137  0.92984724  0.75000000  1.0
  Ge  Ge8  1  0.73493782  0.41914125  0.25000000  1.0
  Ge  Ge9  1  0.73493782  0.08085875  0.75000000  1.0
  Ge  Ge10  1  0.26506218  0.91914125  0.25000000  1.0
  Ge  Ge11  1  0.26506218  0.58085875  0.75000000  1.0
  F  F12  1  0.73610165  0.41998754  0.46621419  1.0
  F  F13  1  0.73610165  0.41998754  0.03378581  1.0
  F  F14  1  0.73610165  0.08001246  0.96621419  1.0
  F  F15  1  0.73610165  0.08001246  0.53378581  1.0
  F  F16  1  0.26389835  0.91998754  0.46621419  1.0
  F  F17  1  0.26389835  0.91998754  0.03378581  1.0
  F  F18  1  0.26389835  0.58001246  0.96621419  1.0
  F  F19  1  0.26389835  0.58001246  0.53378581  1.0
  F  F20  1  1.00393312  0.46312445  0.25000000  1.0
  F  F21  1  1.00393312  0.03687555  0.75000000  1.0
  F  F22  1  -0.00393312  0.96312445  0.25000000  1.0
  F  F23  1  -0.00393312  0.53687555  0.75000000  1.0
  F  F24  1  0.81594102  0.26186751  0.25000000  1.0
  F  F25  1  0.81594102  0.23813249  0.75000000  1.0
  F  F26  1  0.18405898  0.76186751  0.25000000  1.0
  F  F27  1  0.18405898  0.73813249  0.75000000  1.0
  F  F28  1  0.46420690  0.37690931  0.25000000  1.0
  F  F29  1  0.46420690  0.12309069  0.75000000  1.0
  F  F30  1  0.53579310  0.87690931  0.25000000  1.0
  F  F31  1  0.53579310  0.62309069  0.75000000  1.0
  F  F32  1  0.34417223  0.07795805  0.25000000  1.0
  F  F33  1  0.34417223  0.42204195  0.75000000  1.0
  F  F34  1  0.65582777  0.57795805  0.25000000  1.0
  F  F35  1  0.65582777  0.92204195  0.75000000  1.0
