# generated using pymatgen
data_CaReH4ClO6
_symmetry_space_group_name_H-M   'P 1'
_cell_length_a   8.11946495
_cell_length_b   8.11946495
_cell_length_c   6.70581977
_cell_angle_alpha   90.00000000
_cell_angle_beta   90.00000000
_cell_angle_gamma   128.16850759
_symmetry_Int_Tables_number   1
_chemical_formula_structural   CaReH4ClO6
_chemical_formula_sum   'Ca2 Re2 H8 Cl2 O12'
_cell_volume   347.56649612
_cell_formula_units_Z   2
loop_
 _symmetry_equiv_pos_site_id
 _symmetry_equiv_pos_as_xyz
  1  'x, y, z'
loop_
 _atom_site_type_symbol
 _atom_site_label
 _atom_site_symmetry_multiplicity
 _atom_site_fract_x
 _atom_site_fract_y
 _atom_site_fract_z
 _atom_site_occupancy
  Ca  Ca0  1  0.09263975  0.90736025  0.75000000  1.0
  Ca  Ca1  1  -0.09263975  0.09263975  0.25000000  1.0
  Re  Re2  1  -0.25819505  0.25819505  0.75000000  1.0
  Re  Re3  1  0.25819505  0.74180495  0.25000000  1.0
  H  H4  1  0.24898499  0.33288891  0.92960847  1.0
  H  H5  1  0.24898499  0.33288891  0.57039153  1.0
  H  H6  1  0.33288891  1.24898499  0.42960847  1.0
  H  H7  1  0.33288891  1.24898499  0.07039153  1.0
  H  H8  1  0.66711109  0.75101501  0.92960847  1.0
  H  H9  1  0.66711109  0.75101501  0.57039153  1.0
  H  H10  1  -0.24898499  0.66711109  0.42960847  1.0
  H  H11  1  -0.24898499  0.66711109  0.07039153  1.0
  Cl  Cl12  1  0.39191262  0.60808738  0.75000000  1.0
  Cl  Cl13  1  -0.39191262  0.39191262  0.25000000  1.0
  O  O14  1  -0.12865579  0.52663884  0.75000000  1.0
  O  O15  1  0.52663884  0.87134421  0.25000000  1.0
  O  O16  1  0.47336116  1.12865579  0.75000000  1.0
  O  O17  1  0.12865579  0.47336116  0.25000000  1.0
  O  O18  1  0.18728735  0.81271265  0.45857390  1.0
  O  O19  1  0.18728735  0.81271265  0.04142610  1.0
  O  O20  1  -0.18728735  0.18728735  0.95857390  1.0
  O  O21  1  -0.18728735  0.18728735  0.54142610  1.0
  O  O22  1  0.79754839  0.79754839  0.00000000  1.0
  O  O23  1  0.79754839  0.79754839  0.50000000  1.0
  O  O24  1  0.20245161  0.20245161  0.00000000  1.0
  O  O25  1  0.20245161  0.20245161  0.50000000  1.0
