# generated using pymatgen
data_Rb3PS4
_symmetry_space_group_name_H-M   'P 1'
_cell_length_a   9.44713224
_cell_length_b   11.14639650
_cell_length_c   9.52342496
_cell_angle_alpha   90.00000000
_cell_angle_beta   90.00000000
_cell_angle_gamma   90.00000000
_symmetry_Int_Tables_number   1
_chemical_formula_structural   Rb3PS4
_chemical_formula_sum   'Rb12 P4 S16'
_cell_volume   1002.83075959
_cell_formula_units_Z   4
loop_
 _symmetry_equiv_pos_site_id
 _symmetry_equiv_pos_as_xyz
  1  'x, y, z'
loop_
 _atom_site_type_symbol
 _atom_site_label
 _atom_site_symmetry_multiplicity
 _atom_site_fract_x
 _atom_site_fract_y
 _atom_site_fract_z
 _atom_site_occupancy
  Rb  Rb0  1  0.45528323  0.95666860  0.79499747  1.0
  Rb  Rb1  1  0.45528323  0.54333140  0.79499747  1.0
  Rb  Rb2  1  0.95528323  0.95666860  0.70500253  1.0
  Rb  Rb3  1  0.95528323  0.54333140  0.70500253  1.0
  Rb  Rb4  1  0.54471677  0.45666860  0.20500253  1.0
  Rb  Rb5  1  0.54471677  0.04333140  0.20500253  1.0
  Rb  Rb6  1  0.04471677  0.45666860  0.29499747  1.0
  Rb  Rb7  1  0.04471677  0.04333140  0.29499747  1.0
  Rb  Rb8  1  0.14783381  0.75000000  0.08315842  1.0
  Rb  Rb9  1  0.64783381  0.75000000  0.41684158  1.0
  Rb  Rb10  1  0.85216619  0.25000000  0.91684158  1.0
  Rb  Rb11  1  0.35216619  0.25000000  0.58315842  1.0
  P  P12  1  0.22468273  0.75000000  0.51788949  1.0
  P  P13  1  0.72468273  0.75000000  0.98211051  1.0
  P  P14  1  0.77531727  0.25000000  0.48211051  1.0
  P  P15  1  0.27531727  0.25000000  0.01788949  1.0
  S  S16  1  0.16904188  0.40348615  0.95720357  1.0
  S  S17  1  0.16904188  0.09651385  0.95720357  1.0
  S  S18  1  0.66904188  0.40348615  0.54279643  1.0
  S  S19  1  0.66904188  0.09651385  0.54279643  1.0
  S  S20  1  0.83095812  0.90348615  0.04279643  1.0
  S  S21  1  0.83095812  0.59651385  0.04279643  1.0
  S  S22  1  0.33095812  0.90348615  0.45720357  1.0
  S  S23  1  0.33095812  0.59651385  0.45720357  1.0
  S  S24  1  0.52517993  0.75000000  0.07354239  1.0
  S  S25  1  0.02517993  0.75000000  0.42645761  1.0
  S  S26  1  0.47482007  0.25000000  0.92645761  1.0
  S  S27  1  0.97482007  0.25000000  0.57354239  1.0
  S  S28  1  0.20657779  0.75000000  0.73448953  1.0
  S  S29  1  0.70657779  0.75000000  0.76551047  1.0
  S  S30  1  0.79342221  0.25000000  0.26551047  1.0
  S  S31  1  0.29342221  0.25000000  0.23448953  1.0
