# generated using pymatgen
data_Mn3TeP2Pb3O14
_symmetry_space_group_name_H-M   'P 1'
_cell_length_a   8.64430340
_cell_length_b   8.64430340
_cell_length_c   5.38429774
_cell_angle_alpha   90.00000000
_cell_angle_beta   90.00000000
_cell_angle_gamma   120.00000000
_symmetry_Int_Tables_number   1
_chemical_formula_structural   Mn3TeP2Pb3O14
_chemical_formula_sum   'Mn3 Te1 P2 Pb3 O14'
_cell_volume   348.43333852
_cell_formula_units_Z   1
loop_
 _symmetry_equiv_pos_site_id
 _symmetry_equiv_pos_as_xyz
  1  'x, y, z'
loop_
 _atom_site_type_symbol
 _atom_site_label
 _atom_site_symmetry_multiplicity
 _atom_site_fract_x
 _atom_site_fract_y
 _atom_site_fract_z
 _atom_site_occupancy
  Mn  Mn0  1  0.74430050  0.74430050  0.50000000  1.0
  Mn  Mn1  1  0.00000000  0.25569950  0.50000000  1.0
  Mn  Mn2  1  0.25569950  0.00000000  0.50000000  1.0
  Te  Te3  1  0.00000000  0.00000000  0.00000000  1.0
  P  P4  1  0.33333333  0.66666667  0.55973596  1.0
  P  P5  1  0.66666667  0.33333333  0.44026404  1.0
  Pb  Pb6  1  0.39991069  0.39991069  0.00000000  1.0
  Pb  Pb7  1  -0.00000000  0.60008931  0.00000000  1.0
  Pb  Pb8  1  0.60008931  0.00000000  0.00000000  1.0
  O  O9  1  0.09218251  0.87282563  0.21382495  1.0
  O  O10  1  0.87282563  0.09218251  0.78617505  1.0
  O  O11  1  0.78064312  0.90781749  0.21382495  1.0
  O  O12  1  0.12717437  0.21935688  0.21382495  1.0
  O  O13  1  0.90781749  0.78064312  0.78617505  1.0
  O  O14  1  0.21935688  0.12717437  0.78617505  1.0
  O  O15  1  0.72928872  0.52419078  0.32837908  1.0
  O  O16  1  0.52419078  0.72928872  0.67162092  1.0
  O  O17  1  0.79490206  0.27071128  0.32837908  1.0
  O  O18  1  0.47580922  0.20509794  0.32837908  1.0
  O  O19  1  0.27071128  0.79490206  0.67162092  1.0
  O  O20  1  0.20509794  0.47580922  0.67162092  1.0
  O  O21  1  0.33333333  0.66666667  0.27379507  1.0
  O  O22  1  0.66666667  0.33333333  0.72620493  1.0
