# generated using pymatgen
data_Mn2AsO5
_symmetry_space_group_name_H-M   'P 1'
_cell_length_a   8.81423872
_cell_length_b   8.55334206
_cell_length_c   6.07596993
_cell_angle_alpha   90.00000000
_cell_angle_beta   90.00000000
_cell_angle_gamma   90.00000000
_symmetry_Int_Tables_number   1
_chemical_formula_structural   Mn2AsO5
_chemical_formula_sum   'Mn8 As4 O20'
_cell_volume   458.07465632
_cell_formula_units_Z   4
loop_
 _symmetry_equiv_pos_site_id
 _symmetry_equiv_pos_as_xyz
  1  'x, y, z'
loop_
 _atom_site_type_symbol
 _atom_site_label
 _atom_site_symmetry_multiplicity
 _atom_site_fract_x
 _atom_site_fract_y
 _atom_site_fract_z
 _atom_site_occupancy
  Mn  Mn0  1  0.87654623  0.64836555  0.50000000  1.0
  Mn  Mn1  1  0.37654623  0.85163445  -0.00000000  1.0
  Mn  Mn2  1  0.12345377  0.35163445  0.50000000  1.0
  Mn  Mn3  1  0.62345377  0.14836555  -0.00000000  1.0
  Mn  Mn4  1  0.50000000  0.50000000  0.23776189  1.0
  Mn  Mn5  1  0.50000000  0.50000000  0.76223811  1.0
  Mn  Mn6  1  0.00000000  0.00000000  0.73776189  1.0
  Mn  Mn7  1  0.00000000  0.00000000  0.26223811  1.0
  As  As8  1  0.24655698  0.73682373  0.50000000  1.0
  As  As9  1  0.74655698  0.76317627  -0.00000000  1.0
  As  As10  1  0.75344302  0.26317627  0.50000000  1.0
  As  As11  1  0.25344302  0.23682373  -0.00000000  1.0
  O  O12  1  0.23265856  0.85158064  0.26520713  1.0
  O  O13  1  0.23265856  0.85158064  0.73479287  1.0
  O  O14  1  0.73265856  0.64841936  0.76520713  1.0
  O  O15  1  0.73265856  0.64841936  0.23479287  1.0
  O  O16  1  0.76734144  0.14841936  0.26520713  1.0
  O  O17  1  0.76734144  0.14841936  0.73479287  1.0
  O  O18  1  0.26734144  0.35158064  0.76520713  1.0
  O  O19  1  0.26734144  0.35158064  0.23479287  1.0
  O  O20  1  0.41932512  0.62928557  0.50000000  1.0
  O  O21  1  0.91932512  0.87071443  -0.00000000  1.0
  O  O22  1  0.58067488  0.37071443  0.50000000  1.0
  O  O23  1  0.08067488  0.12928557  -0.00000000  1.0
  O  O24  1  0.10572843  0.59232172  0.50000000  1.0
  O  O25  1  0.60572843  0.90767828  0.00000000  1.0
  O  O26  1  0.89427157  0.40767828  0.50000000  1.0
  O  O27  1  0.39427157  0.09232172  0.00000000  1.0
  O  O28  1  0.93183752  0.86701394  0.50000000  1.0
  O  O29  1  0.43183752  0.63298606  0.00000000  1.0
  O  O30  1  0.06816248  0.13298606  0.50000000  1.0
  O  O31  1  0.56816248  0.36701394  0.00000000  1.0
