# generated using pymatgen
data_BeH2
_symmetry_space_group_name_H-M   'P 1'
_cell_length_a   6.25186160
_cell_length_b   6.25186160
_cell_length_c   6.25186160
_cell_angle_alpha   141.24851709
_cell_angle_beta   88.26051639
_cell_angle_gamma   104.50631857
_symmetry_Int_Tables_number   1
_chemical_formula_structural   BeH2
_chemical_formula_sum   'Be6 H12'
_cell_volume   142.48445295
_cell_formula_units_Z   6
loop_
 _symmetry_equiv_pos_site_id
 _symmetry_equiv_pos_as_xyz
  1  'x, y, z'
loop_
 _atom_site_type_symbol
 _atom_site_label
 _atom_site_symmetry_multiplicity
 _atom_site_fract_x
 _atom_site_fract_y
 _atom_site_fract_z
 _atom_site_occupancy
  Be  Be0  1  0.33227153  0.38060535  0.71287688  1.0
  Be  Be1  1  0.16772847  0.88060535  1.04833382  1.0
  Be  Be2  1  0.83227153  0.11939465  0.95166618  1.0
  Be  Be3  1  0.66772847  0.61939465  1.28712312  1.0
  Be  Be4  1  0.25000000  0.25000000  0.00000000  1.0
  Be  Be5  1  0.75000000  0.75000000  0.00000000  1.0
  H  H6  1  1.25950053  1.12308089  1.68694637  1.0
  H  H7  1  1.56386549  1.42744584  1.68694637  1.0
  H  H8  1  0.93613451  1.62308089  0.86358035  1.0
  H  H9  1  0.24049947  0.92744584  0.86358035  1.0
  H  H10  1  1.75950053  1.07255416  1.13641965  1.0
  H  H11  1  1.06386549  0.37691911  1.13641965  1.0
  H  H12  1  0.43613451  0.57255416  0.31305363  1.0
  H  H13  1  0.74049947  0.87691911  0.31305363  1.0
  H  H14  1  0.18938761  0.22396021  0.41334782  1.0
  H  H15  1  0.31061239  0.72396021  1.03457260  1.0
  H  H16  1  0.68938761  0.27603979  0.96542740  1.0
  H  H17  1  0.81061239  0.77603979  1.58665218  1.0
