# generated using pymatgen
data_CrBiO3
_symmetry_space_group_name_H-M   'P 1'
_cell_length_a   4.85462049
_cell_length_b   4.85462049
_cell_length_c   4.85462049
_cell_angle_alpha   88.49034274
_cell_angle_beta   88.49034274
_cell_angle_gamma   88.49034274
_symmetry_Int_Tables_number   1
_chemical_formula_structural   CrBiO3
_chemical_formula_sum   'Cr1 Bi1 O3'
_cell_volume   114.29340889
_cell_formula_units_Z   1
loop_
 _symmetry_equiv_pos_site_id
 _symmetry_equiv_pos_as_xyz
  1  'x, y, z'
loop_
 _atom_site_type_symbol
 _atom_site_label
 _atom_site_symmetry_multiplicity
 _atom_site_fract_x
 _atom_site_fract_y
 _atom_site_fract_z
 _atom_site_occupancy
  Cr  Cr0  1  1.27011849  1.27011849  0.27011849  1.0
  Bi  Bi1  1  -0.04909330  -0.04909330  -0.04909330  1.0
  O  O2  1  0.58630560  1.16289097  -0.83712177  1.0
  O  O3  1  1.16289097  0.16287823  -0.41369440  1.0
  O  O4  1  0.16287823  0.58630560  0.16289097  1.0
