# generated using pymatgen
data_CsCuSe4
_symmetry_space_group_name_H-M   'P 1'
_cell_length_a   5.58848979
_cell_length_b   9.25949891
_cell_length_c   14.55963892
_cell_angle_alpha   90.00000000
_cell_angle_beta   90.00000000
_cell_angle_gamma   90.00000000
_symmetry_Int_Tables_number   1
_chemical_formula_structural   CsCuSe4
_chemical_formula_sum   'Cs4 Cu4 Se16'
_cell_volume   753.41203199
_cell_formula_units_Z   4
loop_
 _symmetry_equiv_pos_site_id
 _symmetry_equiv_pos_as_xyz
  1  'x, y, z'
loop_
 _atom_site_type_symbol
 _atom_site_label
 _atom_site_symmetry_multiplicity
 _atom_site_fract_x
 _atom_site_fract_y
 _atom_site_fract_z
 _atom_site_occupancy
  Cs  Cs0  1  0.31331123  0.93706246  0.82812874  1.0
  Cs  Cs1  1  0.81331123  0.56293754  0.17187126  1.0
  Cs  Cs2  1  0.68668877  0.43706246  0.67187126  1.0
  Cs  Cs3  1  0.18668877  0.06293754  0.32812874  1.0
  Cu  Cu4  1  0.46404918  0.86473606  0.55842134  1.0
  Cu  Cu5  1  0.96404918  0.63526394  0.44157866  1.0
  Cu  Cu6  1  0.53595082  0.36473606  0.94157866  1.0
  Cu  Cu7  1  0.03595082  0.13526394  0.05842134  1.0
  Se  Se8  1  0.16021993  0.88771585  0.08832480  1.0
  Se  Se9  1  0.66021993  0.61228415  0.91167520  1.0
  Se  Se10  1  0.83978007  0.38771585  0.41167520  1.0
  Se  Se11  1  0.33978007  0.11228415  0.58832480  1.0
  Se  Se12  1  0.13294582  0.70462621  0.59121948  1.0
  Se  Se13  1  0.63294582  0.79537379  0.40878052  1.0
  Se  Se14  1  0.86705418  0.20462621  0.90878052  1.0
  Se  Se15  1  0.36705418  0.29537379  0.09121948  1.0
  Se  Se16  1  0.07947878  0.58737559  0.94010236  1.0
  Se  Se17  1  0.57947878  0.91262441  0.05989764  1.0
  Se  Se18  1  0.92052122  0.08737559  0.55989764  1.0
  Se  Se19  1  0.42052122  0.41262441  0.44010236  1.0
  Se  Se20  1  0.83553842  0.87097995  0.65008239  1.0
  Se  Se21  1  0.33553842  0.62902005  0.34991761  1.0
  Se  Se22  1  0.16446158  0.37097995  0.84991761  1.0
  Se  Se23  1  0.66446158  0.12902005  0.15008239  1.0
