# generated using pymatgen
data_CuCClO
_symmetry_space_group_name_H-M   'P 1'
_cell_length_a   3.67357987
_cell_length_b   8.75001322
_cell_length_c   5.17973325
_cell_angle_alpha   90.00000000
_cell_angle_beta   90.00000000
_cell_angle_gamma   90.00000000
_symmetry_Int_Tables_number   1
_chemical_formula_structural   CuCClO
_chemical_formula_sum   'Cu2 C2 Cl2 O2'
_cell_volume   166.49668479
_cell_formula_units_Z   2
loop_
 _symmetry_equiv_pos_site_id
 _symmetry_equiv_pos_as_xyz
  1  'x, y, z'
loop_
 _atom_site_type_symbol
 _atom_site_label
 _atom_site_symmetry_multiplicity
 _atom_site_fract_x
 _atom_site_fract_y
 _atom_site_fract_z
 _atom_site_occupancy
  Cu  Cu0  1  0.50000000  0.63527858  0.17286642  1.0
  Cu  Cu1  1  0.00000000  0.36472142  0.67286642  1.0
  C  C2  1  0.50000000  0.80908497  0.36015087  1.0
  C  C3  1  0.00000000  0.19091503  0.86015087  1.0
  Cl  Cl4  1  0.50000000  0.39595432  0.38430464  1.0
  Cl  Cl5  1  0.00000000  0.60404568  0.88430464  1.0
  O  O6  1  0.50000000  0.92156558  0.47407807  1.0
  O  O7  1  0.00000000  0.07843442  -0.02592193  1.0
