# generated using pymatgen
data_FeSO4
_symmetry_space_group_name_H-M   'P 1'
_cell_length_a   8.79641472
_cell_length_b   6.88530674
_cell_length_c   4.88838261
_cell_angle_alpha   90.00000000
_cell_angle_beta   90.00000000
_cell_angle_gamma   90.00000000
_symmetry_Int_Tables_number   1
_chemical_formula_structural   FeSO4
_chemical_formula_sum   'Fe4 S4 O16'
_cell_volume   296.06984758
_cell_formula_units_Z   4
loop_
 _symmetry_equiv_pos_site_id
 _symmetry_equiv_pos_as_xyz
  1  'x, y, z'
loop_
 _atom_site_type_symbol
 _atom_site_label
 _atom_site_symmetry_multiplicity
 _atom_site_fract_x
 _atom_site_fract_y
 _atom_site_fract_z
 _atom_site_occupancy
  S  S0  1  0.67617839  0.25000000  1.03034521  1.0
  S  S1  1  0.17617839  0.25000000  0.46965479  1.0
  S  S2  1  0.32382161  0.75000000  -0.03034521  1.0
  S  S3  1  0.82382161  0.75000000  0.53034521  1.0
  O  O4  1  0.62447605  0.42948902  0.17139682  1.0
  O  O5  1  0.62447605  0.07051098  0.17139682  1.0
  O  O6  1  0.12447605  0.42948902  0.32860318  1.0
  O  O7  1  0.12447605  0.07051098  0.32860318  1.0
  O  O8  1  0.37552395  0.92948902  0.82860318  1.0
  O  O9  1  0.37552395  0.57051098  0.82860318  1.0
  O  O10  1  0.87552395  0.92948902  0.67139682  1.0
  O  O11  1  0.87552395  0.57051098  0.67139682  1.0
  O  O12  1  0.61782900  0.25000000  0.74251630  1.0
  O  O13  1  0.11782900  0.25000000  0.75748370  1.0
  O  O14  1  0.38217100  0.75000000  0.25748370  1.0
  O  O15  1  0.88217100  0.75000000  0.24251630  1.0
  O  O16  1  0.84863284  0.25000000  0.03506768  1.0
  O  O17  1  0.34863284  0.25000000  0.46493232  1.0
  O  O18  1  0.15136716  0.75000000  0.96493232  1.0
  O  O19  1  0.65136716  0.75000000  0.53506768  1.0
  Fe  Fe20  1  0.00000000  0.50000000  0.00000000  1.0
  Fe  Fe21  1  0.00000000  0.00000000  0.00000000  1.0
  Fe  Fe22  1  0.50000000  0.50000000  0.50000000  1.0
  Fe  Fe23  1  0.50000000  0.00000000  0.50000000  1.0
