# generated using pymatgen
data_AsH9(NO2)2
_symmetry_space_group_name_H-M   'P 1'
_cell_length_a   11.09557910
_cell_length_b   6.91205431
_cell_length_c   8.41114392
_cell_angle_alpha   90.00000000
_cell_angle_beta   108.43277798
_cell_angle_gamma   90.00000000
_symmetry_Int_Tables_number   1
_chemical_formula_structural   AsH9(NO2)2
_chemical_formula_sum   'As4 H36 N8 O16'
_cell_volume   611.98238045
_cell_formula_units_Z   4
loop_
 _symmetry_equiv_pos_site_id
 _symmetry_equiv_pos_as_xyz
  1  'x, y, z'
loop_
 _atom_site_type_symbol
 _atom_site_label
 _atom_site_symmetry_multiplicity
 _atom_site_fract_x
 _atom_site_fract_y
 _atom_site_fract_z
 _atom_site_occupancy
  As  As0  1  0.74972545  0.88573804  0.82075197  1.0
  As  As1  1  0.74972545  0.61426196  0.32075197  1.0
  As  As2  1  0.25027455  0.38573804  0.67924803  1.0
  As  As3  1  0.25027455  0.11426196  0.17924803  1.0
  H  H4  1  1.00475379  0.34555288  0.72714730  1.0
  H  H5  1  1.00475379  0.15444712  0.22714730  1.0
  H  H6  1  -0.00475379  0.84555288  0.77285270  1.0
  H  H7  1  -0.00475379  0.65444712  0.27285270  1.0
  H  H8  1  0.98902749  0.81220785  0.57224556  1.0
  H  H9  1  0.98902749  0.68779215  0.07224556  1.0
  H  H10  1  0.01097251  0.31220785  0.92775444  1.0
  H  H11  1  0.01097251  0.18779215  0.42775444  1.0
  H  H12  1  0.91836285  0.49659157  0.81426682  1.0
  H  H13  1  0.91836285  0.00340843  0.31426682  1.0
  H  H14  1  0.08163715  0.99659157  0.68573318  1.0
  H  H15  1  0.08163715  0.50340843  0.18573318  1.0
  H  H16  1  0.87346074  0.25935588  0.77083712  1.0
  H  H17  1  0.87346074  0.24064412  0.27083712  1.0
  H  H18  1  0.12653926  0.75935588  0.72916288  1.0
  H  H19  1  0.12653926  0.74064412  0.22916288  1.0
  H  H20  1  0.68097372  0.62629772  0.56561035  1.0
  H  H21  1  0.68097372  0.87370228  0.06561035  1.0
  H  H22  1  0.31902628  0.12629772  0.93438965  1.0
  H  H23  1  0.31902628  0.37370228  0.43438965  1.0
  H  H24  1  0.66746034  0.38406126  0.99369039  1.0
  H  H25  1  0.66746034  0.11593874  0.49369039  1.0
  H  H26  1  0.33253966  0.88406126  0.50630961  1.0
  H  H27  1  0.33253966  0.61593874  0.00630961  1.0
  H  H28  1  0.62152419  0.50954501  0.80800365  1.0
  H  H29  1  0.62152419  -0.00954501  0.30800365  1.0
  H  H30  1  0.37847581  1.00954501  0.69199635  1.0
  H  H31  1  0.37847581  0.49045499  0.19199635  1.0
  H  H32  1  0.47348679  0.82777222  0.65787190  1.0
  H  H33  1  0.47348679  0.67222778  0.15787190  1.0
  H  H34  1  0.52651321  0.32777222  0.84212810  1.0
  H  H35  1  0.52651321  0.17222778  0.34212810  1.0
  H  H36  1  0.33295276  0.77317502  0.68804932  1.0
  H  H37  1  0.33295276  0.72682498  0.18804932  1.0
  H  H38  1  0.66704724  0.27317502  0.81195068  1.0
  H  H39  1  0.66704724  0.22682498  0.31195068  1.0
  N  N40  1  0.95078522  0.35650542  0.80965384  1.0
  N  N41  1  0.95078522  0.14349458  0.30965384  1.0
  N  N42  1  0.04921478  0.85650542  0.69034616  1.0
  N  N43  1  0.04921478  0.64349458  0.19034616  1.0
  N  N44  1  0.37932388  0.87441003  0.63567816  1.0
  N  N45  1  0.37932388  0.62558997  0.13567816  1.0
  N  N46  1  0.62067612  0.37441003  0.86432184  1.0
  N  N47  1  0.62067612  0.12558997  0.36432184  1.0
  O  O48  1  0.89297768  0.76375607  0.87755914  1.0
  O  O49  1  0.89297768  0.73624393  0.37755914  1.0
  O  O50  1  0.10702232  0.26375607  0.62244086  1.0
  O  O51  1  0.10702232  0.23624393  0.12244086  1.0
  O  O52  1  0.71581797  0.97244160  1.00217031  1.0
  O  O53  1  0.71581797  0.52755840  0.50217031  1.0
  O  O54  1  0.28418203  0.47244160  0.49782969  1.0
  O  O55  1  0.28418203  0.02755840  -0.00217031  1.0
  O  O56  1  0.62828248  0.73501670  0.70589736  1.0
  O  O57  1  0.62828248  0.76498330  0.20589736  1.0
  O  O58  1  0.37171752  0.23501670  0.79410264  1.0
  O  O59  1  0.37171752  0.26498330  0.29410264  1.0
  O  O60  1  0.24872237  0.59890251  0.78551819  1.0
  O  O61  1  0.24872237  0.90109749  0.28551819  1.0
  O  O62  1  0.75127763  0.09890251  0.71448181  1.0
  O  O63  1  0.75127763  0.40109749  0.21448181  1.0
