# generated using pymatgen
data_PdCl2
_symmetry_space_group_name_H-M   'P 1'
_cell_length_a   8.47352233
_cell_length_b   8.47352233
_cell_length_c   8.47352233
_cell_angle_alpha   107.97089010
_cell_angle_beta   107.97089010
_cell_angle_gamma   107.97089011
_symmetry_Int_Tables_number   1
_chemical_formula_structural   PdCl2
_chemical_formula_sum   'Pd6 Cl12'
_cell_volume   492.64941485
_cell_formula_units_Z   6
loop_
 _symmetry_equiv_pos_site_id
 _symmetry_equiv_pos_as_xyz
  1  'x, y, z'
loop_
 _atom_site_type_symbol
 _atom_site_label
 _atom_site_symmetry_multiplicity
 _atom_site_fract_x
 _atom_site_fract_y
 _atom_site_fract_z
 _atom_site_occupancy
  Pd  Pd0  1  1.69230410  0.96120029  -0.10338677  1.0
  Pd  Pd1  1  1.03879971  0.10338677  -0.69230410  1.0
  Pd  Pd2  1  1.10338677  -0.69230410  0.03879971  1.0
  Pd  Pd3  1  0.30769590  0.03879971  0.10338677  1.0
  Pd  Pd4  1  0.96120029  0.89661323  0.69230410  1.0
  Pd  Pd5  1  0.89661323  1.69230410  -0.03879971  1.0
  Cl  Cl6  1  0.93544804  0.79701433  0.26629323  1.0
  Cl  Cl7  1  1.20298567  -0.26629323  0.06455196  1.0
  Cl  Cl8  1  0.73370677  0.06455196  0.20298567  1.0
  Cl  Cl9  1  1.06455196  0.20298567  -0.26629323  1.0
  Cl  Cl10  1  0.79701433  1.26629323  -0.06455196  1.0
  Cl  Cl11  1  1.26629323  0.93544804  -0.20298567  1.0
  Cl  Cl12  1  1.59341639  0.65696373  -0.14035678  1.0
  Cl  Cl13  1  0.34303627  1.14035678  -0.59341639  1.0
  Cl  Cl14  1  1.14035678  0.40658361  -0.65696373  1.0
  Cl  Cl15  1  0.40658361  0.34303627  0.14035678  1.0
  Cl  Cl16  1  1.65696373  -0.14035678  0.59341639  1.0
  Cl  Cl17  1  0.85964322  0.59341639  0.65696373  1.0
