# generated using pymatgen
data_Na4Pt
_symmetry_space_group_name_H-M   'P 1'
_cell_length_a   8.00482642
_cell_length_b   8.00482642
_cell_length_c   8.00482642
_cell_angle_alpha   60.00000000
_cell_angle_beta   60.00000000
_cell_angle_gamma   60.00000000
_symmetry_Int_Tables_number   1
_chemical_formula_structural   Na4Pt
_chemical_formula_sum   'Na8 Pt2'
_cell_volume   362.69432324
_cell_formula_units_Z   2
loop_
 _symmetry_equiv_pos_site_id
 _symmetry_equiv_pos_as_xyz
  1  'x, y, z'
loop_
 _atom_site_type_symbol
 _atom_site_label
 _atom_site_symmetry_multiplicity
 _atom_site_fract_x
 _atom_site_fract_y
 _atom_site_fract_z
 _atom_site_occupancy
  Na  Na0  1  -0.11207848  0.88792152  0.33623543  1.0
  Na  Na1  1  0.88792152  -0.66376457  0.88792152  1.0
  Na  Na2  1  0.36207848  0.36207848  0.36207848  1.0
  Na  Na3  1  -0.08623543  0.36207848  0.36207848  1.0
  Na  Na4  1  -0.66376457  0.88792152  0.88792152  1.0
  Na  Na5  1  0.88792152  -0.11207848  0.88792152  1.0
  Na  Na6  1  0.36207848  -0.08623543  0.36207848  1.0
  Na  Na7  1  0.36207848  0.36207848  -0.08623543  1.0
  Pt  Pt8  1  0.50000000  0.50000000  -0.50000000  1.0
  Pt  Pt9  1  0.75000000  -0.25000000  0.75000000  1.0
