# generated using pymatgen
data_TlCN
_symmetry_space_group_name_H-M   'P 1'
_cell_length_a   9.43361871
_cell_length_b   9.43361871
_cell_length_c   9.43361871
_cell_angle_alpha   120.52958709
_cell_angle_beta   120.52958709
_cell_angle_gamma   89.08514992
_symmetry_Int_Tables_number   1
_chemical_formula_structural   TlCN
_chemical_formula_sum   'Tl8 C8 N8'
_cell_volume   588.80236154
_cell_formula_units_Z   8
loop_
 _symmetry_equiv_pos_site_id
 _symmetry_equiv_pos_as_xyz
  1  'x, y, z'
loop_
 _atom_site_type_symbol
 _atom_site_label
 _atom_site_symmetry_multiplicity
 _atom_site_fract_x
 _atom_site_fract_y
 _atom_site_fract_z
 _atom_site_occupancy
  Tl  Tl0  1  0.37500000  0.62500000  0.75000000  1.0
  Tl  Tl1  1  0.87500000  0.62500000  1.25000000  1.0
  Tl  Tl2  1  0.37500000  1.12500000  0.75000000  1.0
  Tl  Tl3  1  0.37500000  0.62500000  0.25000000  1.0
  Tl  Tl4  1  0.87500000  0.12500000  0.75000000  1.0
  Tl  Tl5  1  0.37500000  0.12500000  0.25000000  1.0
  Tl  Tl6  1  0.87500000  0.62500000  0.75000000  1.0
  Tl  Tl7  1  0.87500000  1.12500000  1.25000000  1.0
  C  C8  1  1.19505353  0.90062986  1.79098407  1.0
  C  C9  1  0.64035421  0.84593055  1.29098407  1.0
  C  C10  1  1.09937014  0.89035421  1.29442367  1.0
  C  C11  1  1.15406945  1.44505353  1.79442367  1.0
  C  C12  1  0.10964579  0.40406945  0.20901593  1.0
  C  C13  1  0.55494647  0.34937014  0.70901593  1.0
  C  C14  1  0.59593055  0.80494647  0.70557633  1.0
  C  C15  1  0.65062986  0.35964579  0.20557633  1.0
  N  N16  1  1.04269816  0.84206810  1.69988338  1.0
  N  N17  1  0.60781528  0.90718521  1.19988338  1.0
  N  N18  1  1.15793190  0.85781528  1.20063006  1.0
  N  N19  1  1.09281479  1.29269816  1.70063006  1.0
  N  N20  1  0.14218472  0.34281479  0.30011662  1.0
  N  N21  1  0.70730184  0.40793190  0.80011662  1.0
  N  N22  1  0.65718521  0.95730184  0.79936994  1.0
  N  N23  1  0.59206810  0.39218472  0.29936994  1.0
