# generated using pymatgen
data_LaFeSi2
_symmetry_space_group_name_H-M   'P 1'
_cell_length_a   8.46853143
_cell_length_b   8.46853143
_cell_length_c   4.17153242
_cell_angle_alpha   90.00000000
_cell_angle_beta   90.00000000
_cell_angle_gamma   150.32230257
_symmetry_Int_Tables_number   1
_chemical_formula_structural   LaFeSi2
_chemical_formula_sum   'La2 Fe2 Si4'
_cell_volume   148.12308557
_cell_formula_units_Z   2
loop_
 _symmetry_equiv_pos_site_id
 _symmetry_equiv_pos_as_xyz
  1  'x, y, z'
loop_
 _atom_site_type_symbol
 _atom_site_label
 _atom_site_symmetry_multiplicity
 _atom_site_fract_x
 _atom_site_fract_y
 _atom_site_fract_z
 _atom_site_occupancy
  La  La0  1  0.39433096  0.60566904  0.75000000  1.0
  La  La1  1  -0.39433096  0.39433096  0.25000000  1.0
  Fe  Fe2  1  0.18641070  0.81358930  0.75000000  1.0
  Fe  Fe3  1  -0.18641070  0.18641070  0.25000000  1.0
  Si  Si4  1  0.04482323  0.95517677  0.75000000  1.0
  Si  Si5  1  -0.04482323  0.04482323  0.25000000  1.0
  Si  Si6  1  -0.25093495  0.25093495  0.75000000  1.0
  Si  Si7  1  0.25093495  0.74906505  0.25000000  1.0
