# generated using pymatgen
data_CaGa4
_symmetry_space_group_name_H-M   'P 1'
_cell_length_a   4.37977804
_cell_length_b   4.37977804
_cell_length_c   21.54470234
_cell_angle_alpha   90.00000000
_cell_angle_beta   90.00000000
_cell_angle_gamma   90.00000000
_symmetry_Int_Tables_number   1
_chemical_formula_structural   CaGa4
_chemical_formula_sum   'Ca4 Ga16'
_cell_volume   413.28029802
_cell_formula_units_Z   4
loop_
 _symmetry_equiv_pos_site_id
 _symmetry_equiv_pos_as_xyz
  1  'x, y, z'
loop_
 _atom_site_type_symbol
 _atom_site_label
 _atom_site_symmetry_multiplicity
 _atom_site_fract_x
 _atom_site_fract_y
 _atom_site_fract_z
 _atom_site_occupancy
  Ca  Ca0  1  0.00000000  0.50000000  0.12502448  1.0
  Ca  Ca1  1  0.50000000  0.00000000  0.87497552  1.0
  Ca  Ca2  1  0.00000000  0.50000000  0.62504194  1.0
  Ca  Ca3  1  0.50000000  0.00000000  0.37495806  1.0
  Ga  Ga4  1  0.50000000  0.50000000  0.00000000  1.0
  Ga  Ga5  1  0.00000000  0.00000000  0.00000000  1.0
  Ga  Ga6  1  0.00000000  0.50000000  0.43244628  1.0
  Ga  Ga7  1  0.50000000  0.00000000  0.56755372  1.0
  Ga  Ga8  1  0.50000000  0.50000000  0.24997767  1.0
  Ga  Ga9  1  0.00000000  0.00000000  0.75002233  1.0
  Ga  Ga10  1  0.50000000  0.50000000  0.75002233  1.0
  Ga  Ga11  1  0.00000000  0.00000000  0.24997767  1.0
  Ga  Ga12  1  0.00000000  0.50000000  0.81756353  1.0
  Ga  Ga13  1  0.50000000  0.00000000  0.18243647  1.0
  Ga  Ga14  1  0.00000000  0.50000000  0.93246031  1.0
  Ga  Ga15  1  0.50000000  0.00000000  0.06753969  1.0
  Ga  Ga16  1  0.00000000  0.50000000  0.31753342  1.0
  Ga  Ga17  1  0.50000000  0.00000000  0.68246658  1.0
  Ga  Ga18  1  0.50000000  0.50000000  0.50000000  1.0
  Ga  Ga19  1  0.00000000  0.00000000  0.50000000  1.0
