# generated using pymatgen
data_Ge2C2(SF2)3
_symmetry_space_group_name_H-M   'P 1'
_cell_length_a   11.65320047
_cell_length_b   11.65320047
_cell_length_c   11.65320047
_cell_angle_alpha   60.00000000
_cell_angle_beta   60.00000000
_cell_angle_gamma   60.00000000
_symmetry_Int_Tables_number   1
_chemical_formula_structural   Ge2C2(SF2)3
_chemical_formula_sum   'Ge8 C8 S12 F24'
_cell_volume   1118.97569998
_cell_formula_units_Z   4
loop_
 _symmetry_equiv_pos_site_id
 _symmetry_equiv_pos_as_xyz
  1  'x, y, z'
loop_
 _atom_site_type_symbol
 _atom_site_label
 _atom_site_symmetry_multiplicity
 _atom_site_fract_x
 _atom_site_fract_y
 _atom_site_fract_z
 _atom_site_occupancy
  Ge  Ge0  1  -0.27919275  0.42639758  0.42639758  1.0
  Ge  Ge1  1  0.42639758  -0.27919275  0.42639758  1.0
  Ge  Ge2  1  0.42639758  1.42639758  -0.27919275  1.0
  Ge  Ge3  1  0.42639758  1.42639758  0.42639758  1.0
  Ge  Ge4  1  0.52919275  0.82360242  -0.17639758  1.0
  Ge  Ge5  1  0.82360242  0.52919275  0.82360242  1.0
  Ge  Ge6  1  0.82360242  0.82360242  -0.47080725  1.0
  Ge  Ge7  1  0.82360242  0.82360242  0.82360242  1.0
  C  C8  1  -0.06377153  1.35459051  0.35459051  1.0
  C  C9  1  0.35459051  0.93622847  0.35459051  1.0
  C  C10  1  0.35459051  1.35459051  -0.06377153  1.0
  C  C11  1  0.35459051  1.35459051  0.35459051  1.0
  C  C12  1  -0.68622847  0.89540949  0.89540949  1.0
  C  C13  1  0.89540949  -0.68622847  0.89540949  1.0
  C  C14  1  0.89540949  0.89540949  -0.68622847  1.0
  C  C15  1  0.89540949  0.89540949  0.89540949  1.0
  S  S16  1  0.66115863  0.66115863  -0.66115863  1.0
  S  S17  1  0.33884137  1.33884137  -0.33884137  1.0
  S  S18  1  0.66115863  -0.66115863  0.66115863  1.0
  S  S19  1  0.33884137  -0.33884137  0.33884137  1.0
  S  S20  1  -0.66115863  0.66115863  0.66115863  1.0
  S  S21  1  -0.33884137  0.33884137  0.33884137  1.0
  S  S22  1  -0.41115863  0.58884137  0.91115863  1.0
  S  S23  1  0.91115863  0.91115863  -0.41115863  1.0
  S  S24  1  0.58884137  0.91115863  0.58884137  1.0
  S  S25  1  0.91115863  0.58884137  0.91115863  1.0
  S  S26  1  0.91115863  0.58884137  -0.41115863  1.0
  S  S27  1  0.58884137  0.91115863  -0.08884137  1.0
  F  F28  1  -0.01247538  1.27461309  0.27461309  1.0
  F  F29  1  0.27461309  0.98752462  0.46324920  1.0
  F  F30  1  0.27461309  1.46324920  -0.01247538  1.0
  F  F31  1  0.46324920  1.27461309  0.27461309  1.0
  F  F32  1  0.27461309  1.27461309  -0.01247538  1.0
  F  F33  1  -0.01247538  1.46324920  0.27461309  1.0
  F  F34  1  0.46324920  0.98752462  0.27461309  1.0
  F  F35  1  0.27461309  1.27461309  0.46324920  1.0
  F  F36  1  0.27461309  0.98752462  0.27461309  1.0
  F  F37  1  0.46324920  1.27461309  -0.01247538  1.0
  F  F38  1  -0.01247538  1.27461309  0.46324920  1.0
  F  F39  1  0.27461309  1.46324920  0.27461309  1.0
  F  F40  1  -0.73752462  0.97538691  0.97538691  1.0
  F  F41  1  0.97538691  -0.73752462  0.78675080  1.0
  F  F42  1  0.97538691  0.78675080  -0.73752462  1.0
  F  F43  1  0.78675080  0.97538691  0.97538691  1.0
  F  F44  1  0.97538691  0.97538691  -0.73752462  1.0
  F  F45  1  -0.73752462  0.78675080  0.97538691  1.0
  F  F46  1  0.78675080  -0.73752462  0.97538691  1.0
  F  F47  1  0.97538691  0.97538691  0.78675080  1.0
  F  F48  1  0.97538691  -0.73752462  0.97538691  1.0
  F  F49  1  0.78675080  0.97538691  -0.73752462  1.0
  F  F50  1  -0.73752462  0.97538691  0.78675080  1.0
  F  F51  1  0.97538691  0.78675080  0.97538691  1.0
