# generated using pymatgen
data_CoBiPO5
_symmetry_space_group_name_H-M   'P 1'
_cell_length_a   5.30964408
_cell_length_b   11.47867790
_cell_length_c   7.63454463
_cell_angle_alpha   90.00000000
_cell_angle_beta   113.95269772
_cell_angle_gamma   90.00000000
_symmetry_Int_Tables_number   1
_chemical_formula_structural   CoBiPO5
_chemical_formula_sum   'Co4 Bi4 P4 O20'
_cell_volume   425.23601319
_cell_formula_units_Z   4
loop_
 _symmetry_equiv_pos_site_id
 _symmetry_equiv_pos_as_xyz
  1  'x, y, z'
loop_
 _atom_site_type_symbol
 _atom_site_label
 _atom_site_symmetry_multiplicity
 _atom_site_fract_x
 _atom_site_fract_y
 _atom_site_fract_z
 _atom_site_occupancy
  O  O0  1  0.80795662  0.27644313  0.00707101  1.0
  O  O1  1  0.80795662  0.22355687  0.50707101  1.0
  O  O2  1  0.19204338  0.77644313  0.49292899  1.0
  O  O3  1  0.19204338  0.72355687  0.99292899  1.0
  O  O4  1  0.78517708  0.41987549  0.33879751  1.0
  O  O5  1  0.78517708  0.08012451  0.83879751  1.0
  O  O6  1  0.21482292  0.91987549  0.16120249  1.0
  O  O7  1  0.21482292  0.58012451  0.66120249  1.0
  O  O8  1  0.75409451  0.08348937  0.16235061  1.0
  O  O9  1  0.75409451  0.41651063  0.66235061  1.0
  O  O10  1  0.24590549  0.58348937  0.33764939  1.0
  O  O11  1  0.24590549  0.91651063  0.83764939  1.0
  O  O12  1  0.36140296  0.32735638  0.37196982  1.0
  O  O13  1  0.36140296  0.17264362  0.87196982  1.0
  O  O14  1  0.63859704  0.82735638  0.12803018  1.0
  O  O15  1  0.63859704  0.67264362  0.62803018  1.0
  O  O16  1  0.74300894  0.97982555  0.48698185  1.0
  O  O17  1  0.74300894  0.52017445  0.98698185  1.0
  O  O18  1  0.25699106  0.47982555  0.01301815  1.0
  O  O19  1  0.25699106  0.02017445  0.51301815  1.0
  Bi  Bi20  1  0.42457528  0.10031567  0.30802834  1.0
  Bi  Bi21  1  0.42457528  0.39968433  0.80802834  1.0
  Bi  Bi22  1  0.57542472  0.60031567  0.19197166  1.0
  Bi  Bi23  1  0.57542472  0.89968433  0.69197166  1.0
  P  P24  1  0.68158291  0.34868345  0.47049456  1.0
  P  P25  1  0.68158291  0.15131655  0.97049456  1.0
  P  P26  1  0.31841709  0.84868345  0.02950544  1.0
  P  P27  1  0.31841709  0.65131655  0.52950544  1.0
  Co  Co28  1  0.94127314  0.92072364  0.32040033  1.0
  Co  Co29  1  0.94127314  0.57927636  0.82040033  1.0
  Co  Co30  1  0.05872686  0.42072364  0.17959967  1.0
  Co  Co31  1  0.05872686  0.07927636  0.67959967  1.0
