# generated using pymatgen
data_Tb3(Al3Os)4
_symmetry_space_group_name_H-M   'P 1'
_cell_length_a   8.82351469
_cell_length_b   8.82351469
_cell_length_c   9.59333027
_cell_angle_alpha   90.00000000
_cell_angle_beta   90.00000000
_cell_angle_gamma   120.00000000
_symmetry_Int_Tables_number   1
_chemical_formula_structural   Tb3(Al3Os)4
_chemical_formula_sum   'Tb6 Al24 Os8'
_cell_volume   646.81972305
_cell_formula_units_Z   2
loop_
 _symmetry_equiv_pos_site_id
 _symmetry_equiv_pos_as_xyz
  1  'x, y, z'
loop_
 _atom_site_type_symbol
 _atom_site_label
 _atom_site_symmetry_multiplicity
 _atom_site_fract_x
 _atom_site_fract_y
 _atom_site_fract_z
 _atom_site_occupancy
  Tb  Tb0  1  0.19393694  0.80606306  0.25000000  1.0
  Tb  Tb1  1  0.19393694  0.38787389  0.25000000  1.0
  Tb  Tb2  1  0.80606306  0.19393694  0.75000000  1.0
  Tb  Tb3  1  0.80606306  0.61212611  0.75000000  1.0
  Tb  Tb4  1  0.61212611  0.80606306  0.25000000  1.0
  Tb  Tb5  1  0.38787389  0.19393694  0.75000000  1.0
  Al  Al6  1  0.16316159  0.83683841  0.92467267  1.0
  Al  Al7  1  0.16316159  0.83683841  0.57532733  1.0
  Al  Al8  1  0.16316159  0.32632317  0.92467267  1.0
  Al  Al9  1  0.16316159  0.32632317  0.57532733  1.0
  Al  Al10  1  0.83683841  0.16316159  0.42467267  1.0
  Al  Al11  1  0.83683841  0.16316159  0.07532733  1.0
  Al  Al12  1  0.83683841  0.67367683  0.42467267  1.0
  Al  Al13  1  0.83683841  0.67367683  0.07532733  1.0
  Al  Al14  1  0.67367683  0.83683841  0.92467267  1.0
  Al  Al15  1  0.67367683  0.83683841  0.57532733  1.0
  Al  Al16  1  0.32632317  0.16316159  0.42467267  1.0
  Al  Al17  1  0.32632317  0.16316159  0.07532733  1.0
  Al  Al18  1  0.56145980  0.43854020  0.25000000  1.0
  Al  Al19  1  0.56145980  0.12291960  0.25000000  1.0
  Al  Al20  1  0.43854020  0.56145980  0.75000000  1.0
  Al  Al21  1  0.43854020  0.87708040  0.75000000  1.0
  Al  Al22  1  0.87708040  0.43854020  0.25000000  1.0
  Al  Al23  1  0.12291960  0.56145980  0.75000000  1.0
  Al  Al24  1  0.33333333  0.66666667  0.48268045  1.0
  Al  Al25  1  0.33333333  0.66666667  0.01731955  1.0
  Al  Al26  1  0.66666667  0.33333333  0.98268045  1.0
  Al  Al27  1  0.66666667  0.33333333  0.51731955  1.0
  Al  Al28  1  0.00000000  0.00000000  0.25000000  1.0
  Al  Al29  1  0.00000000  0.00000000  0.75000000  1.0
  Os  Os30  1  0.50000000  0.50000000  0.50000000  1.0
  Os  Os31  1  0.50000000  0.50000000  0.00000000  1.0
  Os  Os32  1  0.50000000  0.00000000  0.50000000  1.0
  Os  Os33  1  0.50000000  0.00000000  0.00000000  1.0
  Os  Os34  1  0.00000000  0.50000000  0.50000000  1.0
  Os  Os35  1  0.00000000  0.50000000  0.00000000  1.0
  Os  Os36  1  0.00000000  0.00000000  0.50000000  1.0
  Os  Os37  1  0.00000000  0.00000000  0.00000000  1.0
