# generated using pymatgen
data_Cs2Zn(H2N)4
_symmetry_space_group_name_H-M   'P 1'
_cell_length_a   7.05691171
_cell_length_b   9.53156449
_cell_length_c   13.77914593
_cell_angle_alpha   90.00000000
_cell_angle_beta   115.52601886
_cell_angle_gamma   90.00000000
_symmetry_Int_Tables_number   1
_chemical_formula_structural   Cs2Zn(H2N)4
_chemical_formula_sum   'Cs8 Zn4 H32 N16'
_cell_volume   836.36393862
_cell_formula_units_Z   4
loop_
 _symmetry_equiv_pos_site_id
 _symmetry_equiv_pos_as_xyz
  1  'x, y, z'
loop_
 _atom_site_type_symbol
 _atom_site_label
 _atom_site_symmetry_multiplicity
 _atom_site_fract_x
 _atom_site_fract_y
 _atom_site_fract_z
 _atom_site_occupancy
  Cs  Cs0  1  0.96243201  0.03034261  0.64527796  1.0
  Cs  Cs1  1  0.03756799  0.53034261  0.85472204  1.0
  Cs  Cs2  1  0.03756799  0.96965739  0.35472204  1.0
  Cs  Cs3  1  0.96243201  0.46965739  0.14527796  1.0
  Cs  Cs4  1  0.65626818  0.17467839  0.89398493  1.0
  Cs  Cs5  1  0.34373182  0.67467839  0.60601507  1.0
  Cs  Cs6  1  0.34373182  0.82532161  0.10601507  1.0
  Cs  Cs7  1  0.65626818  0.32532161  0.39398493  1.0
  Zn  Zn8  1  0.34734015  0.24479504  0.57637230  1.0
  Zn  Zn9  1  0.65265985  0.74479504  0.92362770  1.0
  Zn  Zn10  1  0.65265985  0.75520496  0.42362770  1.0
  Zn  Zn11  1  0.34734015  0.25520496  0.07637230  1.0
  H  H12  1  0.18404129  0.27646198  0.36568376  1.0
  H  H13  1  0.81595871  0.77646198  0.13431624  1.0
  H  H14  1  0.81595871  0.72353802  0.63431624  1.0
  H  H15  1  0.18404129  0.22353802  0.86568376  1.0
  H  H16  1  0.12537812  0.40774340  0.42141498  1.0
  H  H17  1  0.87462188  0.90774340  0.07858502  1.0
  H  H18  1  0.87462188  0.59225660  0.57858502  1.0
  H  H19  1  0.12537812  0.09225660  0.92141498  1.0
  H  H20  1  0.65715190  0.42231491  0.61566250  1.0
  H  H21  1  0.34284810  0.92231491  0.88433750  1.0
  H  H22  1  0.34284810  0.57768509  0.38433750  1.0
  H  H23  1  0.65715190  0.07768509  0.11566250  1.0
  H  H24  1  0.74602452  0.29136879  0.69678003  1.0
  H  H25  1  0.25397548  0.79136879  0.80321997  1.0
  H  H26  1  0.25397548  0.70863121  0.30321997  1.0
  H  H27  1  0.74602452  0.20863121  0.19678003  1.0
  H  H28  1  0.32727511  0.38950584  0.73227515  1.0
  H  H29  1  0.67272489  0.88950584  0.76772485  1.0
  H  H30  1  0.67272489  0.61049416  0.26772485  1.0
  H  H31  1  0.32727511  0.11049416  0.23227515  1.0
  H  H32  1  0.09065828  0.34212874  0.65349137  1.0
  H  H33  1  0.90934172  0.84212874  0.84650863  1.0
  H  H34  1  0.90934172  0.65787126  0.34650863  1.0
  H  H35  1  0.09065828  0.15787126  0.15349137  1.0
  H  H36  1  0.46520421  0.98637003  0.56714094  1.0
  H  H37  1  0.53479579  0.48637003  0.93285906  1.0
  H  H38  1  0.53479579  0.01362997  0.43285906  1.0
  H  H39  1  0.46520421  0.51362997  0.06714094  1.0
  H  H40  1  0.42479451  0.00870697  0.67210719  1.0
  H  H41  1  0.57520549  0.50870697  0.82789281  1.0
  H  H42  1  0.57520549  0.99129303  0.32789281  1.0
  H  H43  1  0.42479451  0.49129303  0.17210719  1.0
  N  N44  1  0.13621284  0.30017934  0.42462383  1.0
  N  N45  1  0.86378716  0.80017934  0.07537617  1.0
  N  N46  1  0.86378716  0.69982066  0.57537617  1.0
  N  N47  1  0.13621284  0.19982066  0.92462383  1.0
  N  N48  1  0.65033700  0.31469349  0.61787219  1.0
  N  N49  1  0.34966300  0.81469349  0.88212781  1.0
  N  N50  1  0.34966300  0.68530651  0.38212781  1.0
  N  N51  1  0.65033700  0.18530651  0.11787219  1.0
  N  N52  1  0.24246975  0.30538279  0.68866663  1.0
  N  N53  1  0.75753025  0.80538279  0.81133337  1.0
  N  N54  1  0.75753025  0.69461721  0.31133337  1.0
  N  N55  1  0.24246975  0.19461721  0.18866663  1.0
  N  N56  1  0.35703194  0.02733906  0.59074258  1.0
  N  N57  1  0.64296806  0.52733906  0.90925742  1.0
  N  N58  1  0.64296806  0.97266094  0.40925742  1.0
  N  N59  1  0.35703194  0.47266094  0.09074258  1.0
