# generated using pymatgen
data_Li2WO4
_symmetry_space_group_name_H-M   'P 1'
_cell_length_a   9.53469046
_cell_length_b   9.53469046
_cell_length_c   9.53469046
_cell_angle_alpha   101.47352041
_cell_angle_beta   101.47352041
_cell_angle_gamma   127.02546602
_symmetry_Int_Tables_number   1
_chemical_formula_structural   Li2WO4
_chemical_formula_sum   'Li16 W8 O32'
_cell_volume   619.38712939
_cell_formula_units_Z   8
loop_
 _symmetry_equiv_pos_site_id
 _symmetry_equiv_pos_as_xyz
  1  'x, y, z'
loop_
 _atom_site_type_symbol
 _atom_site_label
 _atom_site_symmetry_multiplicity
 _atom_site_fract_x
 _atom_site_fract_y
 _atom_site_fract_z
 _atom_site_occupancy
  Li  Li0  1  0.86864523  0.86864523  0.73729045  1.0
  Li  Li1  1  1.13135477  0.86864523  1.00000000  1.0
  Li  Li2  1  1.61864523  1.11864523  1.23729045  1.0
  Li  Li3  1  0.88135477  1.11864523  0.50000000  1.0
  Li  Li4  1  0.86864523  1.13135477  1.00000000  1.0
  Li  Li5  1  1.13135477  1.13135477  1.26270955  1.0
  Li  Li6  1  1.61864523  1.38135477  1.50000000  1.0
  Li  Li7  1  0.88135477  1.38135477  0.76270955  1.0
  Li  Li8  1  1.24388041  0.62500000  1.11888041  1.0
  Li  Li9  1  1.50611959  1.62500000  1.38111959  1.0
  Li  Li10  1  1.37500000  1.49388041  1.61888041  1.0
  Li  Li11  1  0.87500000  0.49388041  1.11888041  1.0
  Li  Li12  1  1.24388041  1.12500000  1.61888041  1.0
  Li  Li13  1  1.50611959  1.12500000  0.88111959  1.0
  Li  Li14  1  1.37500000  0.75611959  0.88111959  1.0
  Li  Li15  1  0.87500000  0.75611959  1.38111959  1.0
  W  W16  1  0.65411002  0.51888364  0.86477362  1.0
  W  W17  1  1.26888364  0.90411002  1.36477362  1.0
  W  W18  1  0.53933639  0.90411002  0.63522638  1.0
  W  W19  1  0.65411002  0.78933639  1.13522638  1.0
  W  W20  1  0.09588998  0.73111636  0.63522638  1.0
  W  W21  1  1.48111636  1.34588998  1.13522638  1.0
  W  W22  1  1.21066361  1.34588998  0.86477362  1.0
  W  W23  1  0.09588998  0.46066361  0.36477362  1.0
  O  O24  1  0.86306524  0.73940181  0.87633657  1.0
  O  O25  1  1.48940181  1.11306524  1.37633657  1.0
  O  O26  1  0.73672867  1.11306524  0.62366343  1.0
  O  O27  1  0.86306524  0.98672867  1.12366343  1.0
  O  O28  1  0.88693476  1.51059819  0.62366343  1.0
  O  O29  1  1.26059819  1.13693476  1.12366343  1.0
  O  O30  1  1.01327133  1.13693476  0.87633657  1.0
  O  O31  1  0.88693476  1.26327133  0.37633657  1.0
  O  O32  1  1.38823932  1.28167458  0.89343526  1.0
  O  O33  1  1.03167458  0.63823932  1.39343526  1.0
  O  O34  1  0.24480405  0.63823932  0.60656474  1.0
  O  O35  1  1.38823932  1.49480405  1.10656474  1.0
  O  O36  1  0.36176068  0.96832542  0.60656474  1.0
  O  O37  1  0.71832542  0.61176068  1.10656474  1.0
  O  O38  1  0.50519595  0.61176068  0.89343526  1.0
  O  O39  1  0.36176068  0.75519595  0.39343526  1.0
  O  O40  1  0.73559709  0.39134634  0.88700081  1.0
  O  O41  1  1.50434552  1.39134634  1.65574925  1.0
  O  O42  1  1.14134634  0.98559709  1.38700081  1.0
  O  O43  1  1.59859627  0.98559709  0.84425075  1.0
  O  O44  1  0.73559709  0.84859627  1.34425075  1.0
  O  O45  1  1.50434552  0.84859627  1.11299919  1.0
  O  O46  1  1.14134634  0.75434552  1.15574925  1.0
  O  O47  1  1.59859627  1.75434552  1.61299919  1.0
  O  O48  1  1.01440291  0.85865366  1.61299919  1.0
  O  O49  1  1.24565448  0.85865366  0.84425075  1.0
  O  O50  1  1.60865366  1.26440291  1.11299919  1.0
  O  O51  1  1.15140373  1.26440291  1.65574925  1.0
  O  O52  1  1.01440291  0.40140373  1.15574925  1.0
  O  O53  1  1.24565448  1.40140373  1.38700081  1.0
  O  O54  1  1.60865366  1.49565448  1.34425075  1.0
  O  O55  1  1.15140373  0.49565448  0.88700081  1.0
