# generated using pymatgen
data_K2LaP2S7
_symmetry_space_group_name_H-M   'P 1'
_cell_length_a   9.30656469
_cell_length_b   6.97432626
_cell_length_c   21.63548993
_cell_angle_alpha   90.00000000
_cell_angle_beta   109.64840525
_cell_angle_gamma   90.00000000
_symmetry_Int_Tables_number   1
_chemical_formula_structural   K2LaP2S7
_chemical_formula_sum   'K8 La4 P8 S28'
_cell_volume   1322.52825733
_cell_formula_units_Z   4
loop_
 _symmetry_equiv_pos_site_id
 _symmetry_equiv_pos_as_xyz
  1  'x, y, z'
loop_
 _atom_site_type_symbol
 _atom_site_label
 _atom_site_symmetry_multiplicity
 _atom_site_fract_x
 _atom_site_fract_y
 _atom_site_fract_z
 _atom_site_occupancy
  K  K0  1  0.84257544  0.44317241  0.18192395  1.0
  K  K1  1  0.84257544  0.05682759  0.68192395  1.0
  K  K2  1  0.15742456  0.94317241  0.31807605  1.0
  K  K3  1  0.15742456  0.55682759  0.81807605  1.0
  K  K4  1  0.75058022  0.97625977  0.01158723  1.0
  K  K5  1  0.75058022  0.52374023  0.51158723  1.0
  K  K6  1  0.24941978  0.47625977  0.48841277  1.0
  K  K7  1  0.24941978  0.02374023  0.98841277  1.0
  La  La8  1  0.65809962  0.02711944  0.34943204  1.0
  La  La9  1  0.65809962  0.47288056  0.84943204  1.0
  La  La10  1  0.34190038  0.52711944  0.15056796  1.0
  La  La11  1  0.34190038  0.97288056  0.65056796  1.0
  P  P12  1  0.96170873  0.48111150  0.04323423  1.0
  P  P13  1  0.96170873  0.01888850  0.54323423  1.0
  P  P14  1  0.03829127  0.98111150  0.45676577  1.0
  P  P15  1  0.03829127  0.51888850  0.95676577  1.0
  P  P16  1  0.42617714  0.48059133  0.32895519  1.0
  P  P17  1  0.42617714  0.01940867  0.82895519  1.0
  P  P18  1  0.57382286  0.98059133  0.17104481  1.0
  P  P19  1  0.57382286  0.51940867  0.67104481  1.0
  S  S20  1  0.96350870  0.21967331  0.39985865  1.0
  S  S21  1  0.96350870  0.28032669  0.89985865  1.0
  S  S22  1  0.03649130  0.71967331  0.10014135  1.0
  S  S23  1  0.03649130  0.78032669  0.60014135  1.0
  S  S24  1  0.92404313  0.74800257  0.40688944  1.0
  S  S25  1  0.92404313  0.75199743  0.90688944  1.0
  S  S26  1  0.07595687  0.24800257  0.09311056  1.0
  S  S27  1  0.07595687  0.25199743  0.59311056  1.0
  S  S28  1  0.78391550  0.02340457  0.24183186  1.0
  S  S29  1  0.78391550  0.47659543  0.74183186  1.0
  S  S30  1  0.21608450  0.52340457  0.25816814  1.0
  S  S31  1  0.21608450  0.97659543  0.75816814  1.0
  S  S32  1  0.73218939  0.45034868  0.00424875  1.0
  S  S33  1  0.73218939  0.04965132  0.50424875  1.0
  S  S34  1  0.26781061  0.95034868  0.49575125  1.0
  S  S35  1  0.26781061  0.54965132  0.99575125  1.0
  S  S36  1  0.58118135  0.41968590  0.28161022  1.0
  S  S37  1  0.58118135  0.08031410  0.78161022  1.0
  S  S38  1  0.41881865  0.91968590  0.21838978  1.0
  S  S39  1  0.41881865  0.58031410  0.71838978  1.0
  S  S40  1  0.51612262  0.21605864  0.11042379  1.0
  S  S41  1  0.51612262  0.28394136  0.61042379  1.0
  S  S42  1  0.48387738  0.71605864  0.38957621  1.0
  S  S43  1  0.48387738  0.78394136  0.88957621  1.0
  S  S44  1  0.42553220  0.24929407  0.38740886  1.0
  S  S45  1  0.42553220  0.25070593  0.88740886  1.0
  S  S46  1  0.57446780  0.74929407  0.11259114  1.0
  S  S47  1  0.57446780  0.75070593  0.61259114  1.0
