# generated using pymatgen
data_Li2P2PdO7
_symmetry_space_group_name_H-M   'P 1'
_cell_length_a   8.21798142
_cell_length_b   8.21798142
_cell_length_c   8.21798142
_cell_angle_alpha   133.35336569
_cell_angle_beta   73.29971423
_cell_angle_gamma   126.93218846
_symmetry_Int_Tables_number   1
_chemical_formula_structural   Li2P2PdO7
_chemical_formula_sum   'Li4 P4 Pd2 O14'
_cell_volume   315.02171210
_cell_formula_units_Z   2
loop_
 _symmetry_equiv_pos_site_id
 _symmetry_equiv_pos_as_xyz
  1  'x, y, z'
loop_
 _atom_site_type_symbol
 _atom_site_label
 _atom_site_symmetry_multiplicity
 _atom_site_fract_x
 _atom_site_fract_y
 _atom_site_fract_z
 _atom_site_occupancy
  Li  Li0  1  1.26927836  1.50000000  1.26927836  1.0
  Li  Li1  1  1.26927836  1.00000000  0.76927836  1.0
  Li  Li2  1  0.73072164  1.00000000  1.23072164  1.0
  Li  Li3  1  0.73072164  0.50000000  0.73072164  1.0
  P  P4  1  1.31093680  0.95098547  1.35995132  1.0
  P  P5  1  0.90896585  0.04901453  0.85995132  1.0
  P  P6  1  0.68906320  0.04901453  0.64004868  1.0
  P  P7  1  1.09103415  0.95098547  1.14004868  1.0
  Pd  Pd8  1  1.50000000  1.00000000  1.00000000  1.0
  Pd  Pd9  1  1.50000000  1.50000000  1.50000000  1.0
  O  O10  1  1.79654368  1.13126733  1.06499009  1.0
  O  O11  1  1.43372276  1.26844641  1.56499009  1.0
  O  O12  1  1.20345632  1.26844641  1.33472365  1.0
  O  O13  1  1.56627724  1.13126733  0.83472365  1.0
  O  O14  1  1.79654368  1.73155359  1.66527635  1.0
  O  O15  1  1.43372276  0.86873267  1.16527635  1.0
  O  O16  1  1.20345632  0.86873267  0.93500991  1.0
  O  O17  1  1.56627724  1.73155359  1.43500991  1.0
  O  O18  1  1.24520626  0.80442511  1.44078114  1.0
  O  O19  1  1.13635603  0.19557489  0.94078114  1.0
  O  O20  1  0.75479374  0.19557489  0.55921886  1.0
  O  O21  1  0.86364397  0.80442511  1.05921886  1.0
  O  O22  1  1.10083145  0.85083145  1.25000000  1.0
  O  O23  1  0.89916855  0.14916855  0.75000000  1.0
