# generated using pymatgen
data_La4B2N5
_symmetry_space_group_name_H-M   'P 1'
_cell_length_a   6.59230391
_cell_length_b   6.59230391
_cell_length_c   9.18758226
_cell_angle_alpha   52.34548441
_cell_angle_beta   127.65451559
_cell_angle_gamma   147.45411310
_symmetry_Int_Tables_number   1
_chemical_formula_structural   La4B2N5
_chemical_formula_sum   'La4 B2 N5'
_cell_volume   165.69030054
_cell_formula_units_Z   1
loop_
 _symmetry_equiv_pos_site_id
 _symmetry_equiv_pos_as_xyz
  1  'x, y, z'
loop_
 _atom_site_type_symbol
 _atom_site_label
 _atom_site_symmetry_multiplicity
 _atom_site_fract_x
 _atom_site_fract_y
 _atom_site_fract_z
 _atom_site_occupancy
  La  La0  1  0.81239382  -0.81239382  0.38632170  1.0
  La  La1  1  0.18760618  -0.18760618  0.61367830  1.0
  La  La2  1  0.57666948  0.42333052  0.84421986  1.0
  La  La3  1  1.42333052  -0.42333052  0.15578014  1.0
  B  B4  1  0.91133605  0.08866395  0.88995408  1.0
  B  B5  1  1.08866395  -0.08866395  0.11004592  1.0
  N  N6  1  0.88287241  -0.88287241  0.70622510  1.0
  N  N7  1  0.11712759  -0.11712759  0.29377490  1.0
  N  N8  1  0.79957853  0.20042147  0.90032190  1.0
  N  N9  1  1.20042147  -0.20042147  0.09967810  1.0
  N  N10  1  0.50000000  0.50000000  0.50000000  1.0
