# generated using pymatgen
data_Bi2Pd(SeO3)4
_symmetry_space_group_name_H-M   'P 1'
_cell_length_a   11.11869993
_cell_length_b   7.47378774
_cell_length_c   8.14016354
_cell_angle_alpha   90.00000000
_cell_angle_beta   109.52850407
_cell_angle_gamma   90.00000000
_symmetry_Int_Tables_number   1
_chemical_formula_structural   Bi2Pd(SeO3)4
_chemical_formula_sum   'Bi4 Pd2 Se8 O24'
_cell_volume   637.52597015
_cell_formula_units_Z   2
loop_
 _symmetry_equiv_pos_site_id
 _symmetry_equiv_pos_as_xyz
  1  'x, y, z'
loop_
 _atom_site_type_symbol
 _atom_site_label
 _atom_site_symmetry_multiplicity
 _atom_site_fract_x
 _atom_site_fract_y
 _atom_site_fract_z
 _atom_site_occupancy
  Bi  Bi0  1  0.59742972  0.88558626  0.74576700  1.0
  Bi  Bi1  1  0.59742972  0.61441374  0.24576700  1.0
  Bi  Bi2  1  0.40257028  0.38558626  0.75423300  1.0
  Bi  Bi3  1  0.40257028  0.11441374  0.25423300  1.0
  Pd  Pd4  1  0.00000000  -0.00000000  0.00000000  1.0
  Pd  Pd5  1  -0.00000000  0.50000000  0.50000000  1.0
  Se  Se6  1  0.86545360  0.82162081  0.61180703  1.0
  Se  Se7  1  0.86545360  0.67837919  0.11180703  1.0
  Se  Se8  1  0.13454640  0.32162081  0.88819297  1.0
  Se  Se9  1  0.13454640  0.17837919  0.38819297  1.0
  Se  Se10  1  0.32035337  0.82406196  0.86241143  1.0
  Se  Se11  1  0.32035337  0.67593804  0.36241143  1.0
  Se  Se12  1  0.67964663  0.32406196  0.63758857  1.0
  Se  Se13  1  0.67964663  0.17593804  0.13758857  1.0
  O  O14  1  0.93605306  0.61524197  0.68119989  1.0
  O  O15  1  0.93605306  0.88475803  0.18119989  1.0
  O  O16  1  0.06394694  0.11524197  0.81880011  1.0
  O  O17  1  0.06394694  0.38475803  0.31880011  1.0
  O  O18  1  0.84726371  0.89770517  0.80775239  1.0
  O  O19  1  0.84726371  0.60229483  0.30775239  1.0
  O  O20  1  0.15273629  0.39770517  0.69224761  1.0
  O  O21  1  0.15273629  0.10229483  0.19224761  1.0
  O  O22  1  0.70524736  0.77725345  0.52208041  1.0
  O  O23  1  0.70524736  0.72274655  0.02208041  1.0
  O  O24  1  0.29475264  0.27725345  0.97791959  1.0
  O  O25  1  0.29475264  0.22274655  0.47791959  1.0
  O  O26  1  0.67584075  0.38196341  0.43101167  1.0
  O  O27  1  0.67584075  0.11803659  0.93101167  1.0
  O  O28  1  0.32415925  0.88196341  0.06898833  1.0
  O  O29  1  0.32415925  0.61803659  0.56898833  1.0
  O  O30  1  0.42827925  0.64292064  0.92377050  1.0
  O  O31  1  0.42827925  0.85707936  0.42377050  1.0
  O  O32  1  0.57172075  0.14292064  0.57622950  1.0
  O  O33  1  0.57172075  0.35707936  0.07622950  1.0
  O  O34  1  0.41365814  0.97892568  0.80617081  1.0
  O  O35  1  0.41365814  0.52107432  0.30617081  1.0
  O  O36  1  0.58634186  0.47892568  0.69382919  1.0
  O  O37  1  0.58634186  0.02107432  0.19382919  1.0
