# generated using pymatgen
data_ZrMnH10O5F6
_symmetry_space_group_name_H-M   'P 1'
_cell_length_a   8.75432016
_cell_length_b   8.75432016
_cell_length_c   8.83183051
_cell_angle_alpha   61.52392124
_cell_angle_beta   118.47607876
_cell_angle_gamma   128.45733012
_symmetry_Int_Tables_number   1
_chemical_formula_structural   ZrMnH10O5F6
_chemical_formula_sum   'Zr2 Mn2 H20 O10 F12'
_cell_volume   449.64167191
_cell_formula_units_Z   2
loop_
 _symmetry_equiv_pos_site_id
 _symmetry_equiv_pos_as_xyz
  1  'x, y, z'
loop_
 _atom_site_type_symbol
 _atom_site_label
 _atom_site_symmetry_multiplicity
 _atom_site_fract_x
 _atom_site_fract_y
 _atom_site_fract_z
 _atom_site_occupancy
  Zr  Zr0  1  0.00457688  0.00457688  -0.00000000  1.0
  Zr  Zr1  1  0.50440810  0.50440810  -0.00000000  1.0
  Mn  Mn2  1  0.98441040  0.52189684  0.77563806  1.0
  Mn  Mn3  1  1.52189684  -0.01558960  0.22436194  1.0
  H  H4  1  1.16416525  -0.67824419  0.63085959  1.0
  H  H5  1  0.32175581  0.16416525  0.36914041  1.0
  H  H6  1  0.94197894  -0.81531510  0.38236050  1.0
  H  H7  1  0.18468490  -0.05802106  0.61763950  1.0
  H  H8  1  1.23246861  -0.52874410  0.45246217  1.0
  H  H9  1  0.47125590  0.23246861  0.54753783  1.0
  H  H10  1  1.25436857  -0.39579149  0.18555996  1.0
  H  H11  1  0.60420851  0.25436857  0.81444004  1.0
  H  H12  1  0.99970076  -0.51890670  0.49077013  1.0
  H  H13  1  0.48109330  -0.00029924  0.50922987  1.0
  H  H14  1  0.35860081  -0.06145666  0.87963135  1.0
  H  H15  1  0.93854334  -0.64139919  0.12036865  1.0
  H  H16  1  0.85621978  0.57463061  0.40545831  1.0
  H  H17  1  1.57463061  -0.14378022  0.59454169  1.0
  H  H18  1  1.04542975  0.89705859  0.72485978  1.0
  H  H19  1  1.89705859  0.04542975  0.27514022  1.0
  H  H20  1  0.61310178  0.46526576  0.72785669  1.0
  H  H21  1  1.46526576  -0.38689822  0.27214331  1.0
  H  H22  1  0.56500871  -0.05364710  0.94359455  1.0
  H  H23  1  0.94635290  -0.43499129  0.05640545  1.0
  O  O24  1  1.11262894  -0.63380742  0.49993546  1.0
  O  O25  1  0.36619258  0.11262894  0.50006454  1.0
  O  O26  1  0.50213854  0.00664821  0.94920126  1.0
  O  O27  1  1.00664821  -0.49786146  0.05079874  1.0
  O  O28  1  0.95099215  0.54275131  0.51393400  1.0
  O  O29  1  1.54275131  -0.04900785  0.48606600  1.0
  O  O30  1  1.12006618  0.84849545  0.71933563  1.0
  O  O31  1  1.84849545  0.12006618  0.28066437  1.0
  O  O32  1  0.65304793  0.38462774  0.72063375  1.0
  O  O33  1  1.38462774  -0.34695207  0.27936625  1.0
  F  F34  1  1.24599443  -0.73518958  0.85737658  1.0
  F  F35  1  0.26481042  0.24599443  0.14262342  1.0
  F  F36  1  0.92228092  0.21898149  0.88283339  1.0
  F  F37  1  1.21898149  -0.07771908  0.11716661  1.0
  F  F38  1  1.29004891  0.58584526  0.88497089  1.0
  F  F39  1  1.58584526  0.29004891  0.11502911  1.0
  F  F40  1  1.55209739  -0.40993256  0.75906138  1.0
  F  F41  1  0.59006744  0.55209739  0.24093862  1.0
  F  F42  1  1.92973439  -0.04907841  0.76726786  1.0
  F  F43  1  0.95092159  0.92973439  0.23273214  1.0
  F  F44  1  0.66462551  -0.15708156  0.93032265  1.0
  F  F45  1  0.84291844  -0.33537449  0.06967735  1.0
