# generated using pymatgen
data_Hg
_symmetry_space_group_name_H-M   'P 1'
_cell_length_a   3.55845375
_cell_length_b   3.55845375
_cell_length_c   8.64009859
_cell_angle_alpha   77.33435625
_cell_angle_beta   102.66564375
_cell_angle_gamma   119.21718087
_symmetry_Int_Tables_number   1
_chemical_formula_structural   Hg
_chemical_formula_sum   Hg3
_cell_volume   92.35062632
_cell_formula_units_Z   3
loop_
 _symmetry_equiv_pos_site_id
 _symmetry_equiv_pos_as_xyz
  1  'x, y, z'
loop_
 _atom_site_type_symbol
 _atom_site_label
 _atom_site_symmetry_multiplicity
 _atom_site_fract_x
 _atom_site_fract_y
 _atom_site_fract_z
 _atom_site_occupancy
  Hg  Hg0  1  0.77157254  -0.77157254  0.33629492  1.0
  Hg  Hg1  1  0.22842746  -0.22842746  0.66370508  1.0
  Hg  Hg2  1  0.00000000  0.00000000  0.00000000  1.0
