# generated using pymatgen
data_PH8IN4
_symmetry_space_group_name_H-M   'P 1'
_cell_length_a   8.48511607
_cell_length_b   8.48511607
_cell_length_c   5.16973643
_cell_angle_alpha   90.00000000
_cell_angle_beta   90.00000000
_cell_angle_gamma   90.00000000
_symmetry_Int_Tables_number   1
_chemical_formula_structural   PH8IN4
_chemical_formula_sum   'P2 H16 I2 N8'
_cell_volume   372.20652023
_cell_formula_units_Z   2
loop_
 _symmetry_equiv_pos_site_id
 _symmetry_equiv_pos_as_xyz
  1  'x, y, z'
loop_
 _atom_site_type_symbol
 _atom_site_label
 _atom_site_symmetry_multiplicity
 _atom_site_fract_x
 _atom_site_fract_y
 _atom_site_fract_z
 _atom_site_occupancy
  P  P0  1  0.50000000  0.00000000  0.50000000  1.0
  P  P1  1  0.00000000  0.50000000  0.50000000  1.0
  H  H2  1  0.22262082  0.57927116  0.27330352  1.0
  H  H3  1  0.72262082  0.92072884  0.27330352  1.0
  H  H4  1  0.27737918  0.07927116  0.27330352  1.0
  H  H5  1  0.77737918  0.42072884  0.27330352  1.0
  H  H6  1  0.27737918  0.92072884  0.72669648  1.0
  H  H7  1  0.77737918  0.57927116  0.72669648  1.0
  H  H8  1  0.22262082  0.42072884  0.72669648  1.0
  H  H9  1  0.72262082  0.07927116  0.72669648  1.0
  H  H10  1  0.57927116  0.22262082  0.72669648  1.0
  H  H11  1  0.92072884  0.72262082  0.72669648  1.0
  H  H12  1  0.07927116  0.27737918  0.72669648  1.0
  H  H13  1  0.42072884  0.77737918  0.72669648  1.0
  H  H14  1  0.92072884  0.27737918  0.27330352  1.0
  H  H15  1  0.57927116  0.77737918  0.27330352  1.0
  H  H16  1  0.42072884  0.22262082  0.27330352  1.0
  H  H17  1  0.07927116  0.72262082  0.27330352  1.0
  I  I18  1  0.50000000  0.50000000  0.00000000  1.0
  I  I19  1  0.00000000  0.00000000  0.00000000  1.0
  N  N20  1  0.87900643  0.37900643  0.35427702  1.0
  N  N21  1  0.37900643  0.12099357  0.35427702  1.0
  N  N22  1  0.62099357  0.87900643  0.35427702  1.0
  N  N23  1  0.12099357  0.62099357  0.35427702  1.0
  N  N24  1  0.62099357  0.12099357  0.64572298  1.0
  N  N25  1  0.12099357  0.37900643  0.64572298  1.0
  N  N26  1  0.87900643  0.62099357  0.64572298  1.0
  N  N27  1  0.37900643  0.87900643  0.64572298  1.0
