# generated using pymatgen
data_PH4N(OF)2
_symmetry_space_group_name_H-M   'P 1'
_cell_length_a   8.35467877
_cell_length_b   6.48153908
_cell_length_c   8.32716779
_cell_angle_alpha   90.00000000
_cell_angle_beta   90.00000000
_cell_angle_gamma   90.00000000
_symmetry_Int_Tables_number   1
_chemical_formula_structural   PH4N(OF)2
_chemical_formula_sum   'P4 H16 N4 O8 F8'
_cell_volume   450.92593645
_cell_formula_units_Z   4
loop_
 _symmetry_equiv_pos_site_id
 _symmetry_equiv_pos_as_xyz
  1  'x, y, z'
loop_
 _atom_site_type_symbol
 _atom_site_label
 _atom_site_symmetry_multiplicity
 _atom_site_fract_x
 _atom_site_fract_y
 _atom_site_fract_z
 _atom_site_occupancy
  P  P0  1  0.59547534  0.25000000  0.81245558  1.0
  P  P1  1  0.09547534  0.25000000  0.68754442  1.0
  P  P2  1  0.40452466  0.75000000  0.18754442  1.0
  P  P3  1  0.90452466  0.75000000  0.31245558  1.0
  H  H4  1  0.63964880  0.25000000  0.48288591  1.0
  H  H5  1  0.13964880  0.25000000  0.01711409  1.0
  H  H6  1  0.36035120  0.75000000  0.51711409  1.0
  H  H7  1  0.86035120  0.75000000  0.98288591  1.0
  H  H8  1  0.72960466  0.25000000  0.30272241  1.0
  H  H9  1  0.22960466  0.25000000  0.19727759  1.0
  H  H10  1  0.27039534  0.75000000  0.69727759  1.0
  H  H11  1  0.77039534  0.75000000  0.80272241  1.0
  H  H12  1  0.55377674  0.11994249  0.32859366  1.0
  H  H13  1  0.05377674  0.38005751  0.17140634  1.0
  H  H14  1  0.44622326  0.61994249  0.67140634  1.0
  H  H15  1  0.94622326  0.88005751  0.82859366  1.0
  H  H16  1  0.44622326  0.88005751  0.67140634  1.0
  H  H17  1  0.94622326  0.61994249  0.82859366  1.0
  H  H18  1  0.55377674  0.38005751  0.32859366  1.0
  H  H19  1  0.05377674  0.11994249  0.17140634  1.0
  N  N20  1  0.62125014  0.25000000  0.36078757  1.0
  N  N21  1  0.12125014  0.25000000  0.13921243  1.0
  N  N22  1  0.37874986  0.75000000  0.63921243  1.0
  N  N23  1  0.87874986  0.75000000  0.86078757  1.0
  O  O24  1  0.59806590  0.04903679  0.72384100  1.0
  O  O25  1  0.09806590  0.45096321  0.77615900  1.0
  O  O26  1  0.40193410  0.54903679  0.27615900  1.0
  O  O27  1  0.90193410  0.95096321  0.22384100  1.0
  O  O28  1  0.40193410  0.95096321  0.27615900  1.0
  O  O29  1  0.90193410  0.54903679  0.22384100  1.0
  O  O30  1  0.59806590  0.45096321  0.72384100  1.0
  O  O31  1  0.09806590  0.04903679  0.77615900  1.0
  F  F32  1  0.73771980  0.25000000  0.94012624  1.0
  F  F33  1  0.23771980  0.25000000  0.55987376  1.0
  F  F34  1  0.26228020  0.75000000  0.05987376  1.0
  F  F35  1  0.76228020  0.75000000  0.44012624  1.0
  F  F36  1  0.45043562  0.25000000  0.93706267  1.0
  F  F37  1  0.95043562  0.25000000  0.56293733  1.0
  F  F38  1  0.54956438  0.75000000  0.06293733  1.0
  F  F39  1  0.04956438  0.75000000  0.43706267  1.0
