# generated using pymatgen
data_K2TaCuSe2
_symmetry_space_group_name_H-M   'P 1'
_cell_length_a   18.95458141
_cell_length_b   18.14771512
_cell_length_c   6.86697355
_cell_angle_alpha   86.03856460
_cell_angle_beta   72.77400019
_cell_angle_gamma   21.18743522
_symmetry_Int_Tables_number   1
_chemical_formula_structural   K2TaCuSe2
_chemical_formula_sum   'K8 Ta4 Cu4 Se8'
_cell_volume   652.49164093
_cell_formula_units_Z   4
loop_
 _symmetry_equiv_pos_site_id
 _symmetry_equiv_pos_as_xyz
  1  'x, y, z'
loop_
 _atom_site_type_symbol
 _atom_site_label
 _atom_site_symmetry_multiplicity
 _atom_site_fract_x
 _atom_site_fract_y
 _atom_site_fract_z
 _atom_site_occupancy
  K  K0  1  1.12231247  0.45294536  0.62341934  1.0
  K  K1  1  0.80132284  0.62341934  0.45294536  1.0
  K  K2  1  0.79705464  1.12768753  0.44867716  1.0
  K  K3  1  0.62658066  0.44867716  1.12768753  1.0
  K  K4  1  1.62341934  -0.19867716  0.12231247  1.0
  K  K5  1  1.45294536  0.12231247  -0.19867716  1.0
  K  K6  1  0.44867716  0.62658066  0.79705464  1.0
  K  K7  1  1.12768753  0.79705464  0.62658066  1.0
  Ta  Ta8  1  1.12500000  0.12500000  0.62500000  1.0
  Ta  Ta9  1  1.12500000  0.62500000  0.12500000  1.0
  Ta  Ta10  1  1.12500000  0.12500000  0.12500000  1.0
  Ta  Ta11  1  1.62500000  0.12500000  0.12500000  1.0
  Cu  Cu12  1  0.62500000  0.62500000  1.12500000  1.0
  Cu  Cu13  1  0.62500000  1.12500000  0.62500000  1.0
  Cu  Cu14  1  0.62500000  0.62500000  0.62500000  1.0
  Cu  Cu15  1  1.12500000  0.62500000  0.62500000  1.0
  Se  Se16  1  1.15160300  -0.03530786  0.61763513  1.0
  Se  Se17  1  1.26606972  0.61763513  -0.03530786  1.0
  Se  Se18  1  0.28530786  1.09839700  0.98393028  1.0
  Se  Se19  1  0.63236487  0.98393028  1.09839700  1.0
  Se  Se20  1  1.61763513  0.26606972  0.15160300  1.0
  Se  Se21  1  0.96469214  0.15160300  0.26606972  1.0
  Se  Se22  1  0.98393028  0.63236487  0.28530786  1.0
  Se  Se23  1  1.09839700  0.28530786  0.63236487  1.0
