# generated using pymatgen
data_SrTi2O5
_symmetry_space_group_name_H-M   'P 1'
_cell_length_a   9.09726931
_cell_length_b   9.09726931
_cell_length_c   7.40105545
_cell_angle_alpha   90.00000000
_cell_angle_beta   90.00000000
_cell_angle_gamma   127.33483001
_symmetry_Int_Tables_number   1
_chemical_formula_structural   SrTi2O5
_chemical_formula_sum   'Sr4 Ti8 O20'
_cell_volume   487.01262619
_cell_formula_units_Z   4
loop_
 _symmetry_equiv_pos_site_id
 _symmetry_equiv_pos_as_xyz
  1  'x, y, z'
loop_
 _atom_site_type_symbol
 _atom_site_label
 _atom_site_symmetry_multiplicity
 _atom_site_fract_x
 _atom_site_fract_y
 _atom_site_fract_z
 _atom_site_occupancy
  Sr  Sr0  1  0.00000000  0.00000000  0.49589326  1.0
  Sr  Sr1  1  0.50000000  0.50000000  0.51022505  1.0
  Sr  Sr2  1  -0.26732961  0.26732961  0.48344426  1.0
  Sr  Sr3  1  0.26732961  0.73267039  0.48344426  1.0
  Ti  Ti4  1  -0.37830462  0.37830462  1.03466980  1.0
  Ti  Ti5  1  0.37830462  0.62169538  1.03466980  1.0
  Ti  Ti6  1  0.20508265  0.20508265  1.01247634  1.0
  Ti  Ti7  1  0.79491735  0.79491735  1.01247634  1.0
  Ti  Ti8  1  0.36861982  1.09902419  0.72842811  1.0
  Ti  Ti9  1  0.63138018  0.90097581  0.72842811  1.0
  Ti  Ti10  1  -0.09902419  0.63138018  0.72842811  1.0
  Ti  Ti11  1  0.09902419  0.36861982  0.72842811  1.0
  O  O12  1  0.00000000  0.00000000  1.13021823  1.0
  O  O13  1  0.50000000  0.50000000  1.11577711  1.0
  O  O14  1  -0.29580264  0.29580264  0.17419246  1.0
  O  O15  1  0.29580264  0.70419736  0.17419246  1.0
  O  O16  1  0.37036284  1.14811220  1.00340636  1.0
  O  O17  1  0.62963716  0.85188780  1.00340636  1.0
  O  O18  1  0.14811220  0.37036284  1.00340636  1.0
  O  O19  1  -0.14811220  0.62963716  1.00340636  1.0
  O  O20  1  0.50000000  1.00000000  0.69700550  1.0
  O  O21  1  0.00000000  0.50000000  0.69700550  1.0
  O  O22  1  -0.13649556  0.13649556  0.70525807  1.0
  O  O23  1  0.13649556  0.86350444  0.70525807  1.0
  O  O24  1  0.19756730  0.19756730  0.76947201  1.0
  O  O25  1  0.80243270  0.80243270  0.76947201  1.0
  O  O26  1  -0.36858353  0.36858353  0.77295639  1.0
  O  O27  1  0.36858353  0.63141647  0.77295639  1.0
  O  O28  1  0.38244408  1.16986728  0.49927470  1.0
  O  O29  1  0.61755592  0.83013272  0.49927470  1.0
  O  O30  1  0.16986728  0.38244408  0.49927470  1.0
  O  O31  1  -0.16986728  0.61755592  0.49927470  1.0
