# generated using pymatgen
data_NaIn(SeO3)2
_symmetry_space_group_name_H-M   'P 1'
_cell_length_a   13.08628019
_cell_length_b   5.57395901
_cell_length_c   8.45224108
_cell_angle_alpha   90.00000000
_cell_angle_beta   90.00000000
_cell_angle_gamma   90.00000000
_symmetry_Int_Tables_number   1
_chemical_formula_structural   NaIn(SeO3)2
_chemical_formula_sum   'Na4 In4 Se8 O24'
_cell_volume   616.52665957
_cell_formula_units_Z   4
loop_
 _symmetry_equiv_pos_site_id
 _symmetry_equiv_pos_as_xyz
  1  'x, y, z'
loop_
 _atom_site_type_symbol
 _atom_site_label
 _atom_site_symmetry_multiplicity
 _atom_site_fract_x
 _atom_site_fract_y
 _atom_site_fract_z
 _atom_site_occupancy
  Na  Na0  1  0.10498481  0.75000000  0.98167862  1.0
  Na  Na1  1  0.60498481  0.75000000  0.51832138  1.0
  Na  Na2  1  0.89501519  0.25000000  0.01832138  1.0
  Na  Na3  1  0.39501519  0.25000000  0.48167862  1.0
  In  In4  1  0.39777742  0.75000000  0.80975403  1.0
  In  In5  1  0.89777742  0.75000000  0.69024597  1.0
  In  In6  1  0.60222258  0.25000000  0.19024597  1.0
  In  In7  1  0.10222258  0.25000000  0.30975403  1.0
  Se  Se8  1  0.43406881  0.75000000  0.21422749  1.0
  Se  Se9  1  0.93406881  0.75000000  0.28577251  1.0
  Se  Se10  1  0.56593119  0.25000000  0.78577251  1.0
  Se  Se11  1  0.06593119  0.25000000  0.71422749  1.0
  Se  Se12  1  0.21284776  0.75000000  0.50810813  1.0
  Se  Se13  1  0.71284776  0.75000000  0.99189187  1.0
  Se  Se14  1  0.78715224  0.25000000  0.49189187  1.0
  Se  Se15  1  0.28715224  0.25000000  0.00810813  1.0
  O  O16  1  0.50214082  0.48714987  0.69779559  1.0
  O  O17  1  0.50214082  0.01285013  0.69779559  1.0
  O  O18  1  0.00214082  0.48714987  0.80220441  1.0
  O  O19  1  0.00214082  0.01285013  0.80220441  1.0
  O  O20  1  0.49785918  0.98714987  0.30220441  1.0
  O  O21  1  0.49785918  0.51285013  0.30220441  1.0
  O  O22  1  0.99785918  0.98714987  0.19779559  1.0
  O  O23  1  0.99785918  0.51285013  0.19779559  1.0
  O  O24  1  0.27939250  0.49356455  0.88171529  1.0
  O  O25  1  0.27939250  0.00643545  0.88171529  1.0
  O  O26  1  0.77939250  0.49356455  0.61828471  1.0
  O  O27  1  0.77939250  0.00643545  0.61828471  1.0
  O  O28  1  0.72060750  0.99356455  0.11828471  1.0
  O  O29  1  0.72060750  0.50643545  0.11828471  1.0
  O  O30  1  0.22060750  0.99356455  0.38171529  1.0
  O  O31  1  0.22060750  0.50643545  0.38171529  1.0
  O  O32  1  0.48547515  0.75000000  0.02729100  1.0
  O  O33  1  0.98547515  0.75000000  0.47270900  1.0
  O  O34  1  0.51452485  0.25000000  0.97270900  1.0
  O  O35  1  0.01452485  0.25000000  0.52729100  1.0
  O  O36  1  0.33866371  0.75000000  0.56791747  1.0
  O  O37  1  0.83866371  0.75000000  0.93208253  1.0
  O  O38  1  0.66133629  0.25000000  0.43208253  1.0
  O  O39  1  0.16133629  0.25000000  0.06791747  1.0
