# generated using pymatgen
data_K2CdPb
_symmetry_space_group_name_H-M   'P 1'
_cell_length_a   7.06524588
_cell_length_b   7.06524588
_cell_length_c   6.60847432
_cell_angle_alpha   90.00000000
_cell_angle_beta   90.00000000
_cell_angle_gamma   103.77286040
_symmetry_Int_Tables_number   1
_chemical_formula_structural   K2CdPb
_chemical_formula_sum   'K4 Cd2 Pb2'
_cell_volume   320.39485136
_cell_formula_units_Z   2
loop_
 _symmetry_equiv_pos_site_id
 _symmetry_equiv_pos_as_xyz
  1  'x, y, z'
loop_
 _atom_site_type_symbol
 _atom_site_label
 _atom_site_symmetry_multiplicity
 _atom_site_fract_x
 _atom_site_fract_y
 _atom_site_fract_z
 _atom_site_occupancy
  K  K0  1  0.18109505  0.52360946  0.25000000  1.0
  K  K1  1  0.47639054  0.81890495  0.75000000  1.0
  K  K2  1  -0.46774637  1.17282484  0.25000000  1.0
  K  K3  1  -0.17282484  1.46774637  0.75000000  1.0
  Cd  Cd4  1  0.00405423  -0.00405423  0.50000000  1.0
  Cd  Cd5  1  0.00405423  -0.00405423  0.00000000  1.0
  Pb  Pb6  1  -0.26982974  1.72179310  0.25000000  1.0
  Pb  Pb7  1  -0.72179310  1.26982974  0.75000000  1.0
