# generated using pymatgen
data_ZrSiO4
_symmetry_space_group_name_H-M   'P 1'
_cell_length_a   4.70057317
_cell_length_b   5.17653688
_cell_length_c   4.91941816
_cell_angle_alpha   90.00000000
_cell_angle_beta   98.54370761
_cell_angle_gamma   90.00000000
_symmetry_Int_Tables_number   1
_chemical_formula_structural   ZrSiO4
_chemical_formula_sum   'Zr2 Si2 O8'
_cell_volume   118.37431671
_cell_formula_units_Z   2
loop_
 _symmetry_equiv_pos_site_id
 _symmetry_equiv_pos_as_xyz
  1  'x, y, z'
loop_
 _atom_site_type_symbol
 _atom_site_label
 _atom_site_symmetry_multiplicity
 _atom_site_fract_x
 _atom_site_fract_y
 _atom_site_fract_z
 _atom_site_occupancy
  Zr  Zr0  1  0.50000000  0.27996106  0.25000000  1.0
  Zr  Zr1  1  0.50000000  0.72003894  0.75000000  1.0
  Si  Si2  1  -0.00000000  0.16482695  0.75000000  1.0
  Si  Si3  1  0.00000000  0.83517305  0.25000000  1.0
  O  O4  1  0.75078732  0.39195567  0.60885799  1.0
  O  O5  1  0.24921268  0.39195567  0.89114201  1.0
  O  O6  1  0.24921268  0.60804433  0.39114201  1.0
  O  O7  1  0.75078732  0.60804433  0.10885799  1.0
  O  O8  1  0.78239885  0.08106627  0.02073656  1.0
  O  O9  1  0.21760115  0.08106627  0.47926344  1.0
  O  O10  1  0.21760115  0.91893373  0.97926344  1.0
  O  O11  1  0.78239885  0.91893373  0.52073656  1.0
