# generated using pymatgen
data_Ca3Pt2
_symmetry_space_group_name_H-M   'P 1'
_cell_length_a   7.61262168
_cell_length_b   7.61262168
_cell_length_c   7.61262168
_cell_angle_alpha   70.89435105
_cell_angle_beta   70.89435105
_cell_angle_gamma   70.89435105
_symmetry_Int_Tables_number   1
_chemical_formula_structural   Ca3Pt2
_chemical_formula_sum   'Ca9 Pt6'
_cell_volume   381.73892100
_cell_formula_units_Z   3
loop_
 _symmetry_equiv_pos_site_id
 _symmetry_equiv_pos_as_xyz
  1  'x, y, z'
loop_
 _atom_site_type_symbol
 _atom_site_label
 _atom_site_symmetry_multiplicity
 _atom_site_fract_x
 _atom_site_fract_y
 _atom_site_fract_z
 _atom_site_occupancy
  Ca  Ca0  1  0.84764132  0.60170552  -0.66768816  1.0
  Ca  Ca1  1  0.39829448  0.66768816  -0.84764132  1.0
  Ca  Ca2  1  0.66768816  0.15235868  -0.60170552  1.0
  Ca  Ca3  1  0.15235868  0.39829448  -0.33231184  1.0
  Ca  Ca4  1  0.60170552  0.33231184  -0.15235868  1.0
  Ca  Ca5  1  0.33231184  0.84764132  -0.39829448  1.0
  Ca  Ca6  1  0.79990959  0.79990959  -0.20009041  1.0
  Ca  Ca7  1  1.20009041  1.20009041  0.20009041  1.0
  Ca  Ca8  1  0.00000000  0.00000000  0.00000000  1.0
  Pt  Pt9  1  0.58648726  -0.04585843  0.16039911  1.0
  Pt  Pt10  1  1.04585843  -0.16039911  -0.58648726  1.0
  Pt  Pt11  1  0.83960089  -0.58648726  0.04585843  1.0
  Pt  Pt12  1  0.41351274  0.04585843  -0.16039911  1.0
  Pt  Pt13  1  0.95414157  0.16039911  -0.41351274  1.0
  Pt  Pt14  1  1.16039911  -0.41351274  -0.04585843  1.0
