# generated using pymatgen
data_CrNF4
_symmetry_space_group_name_H-M   'P 1'
_cell_length_a   7.46931371
_cell_length_b   7.46931371
_cell_length_c   7.33841488
_cell_angle_alpha   90.00000000
_cell_angle_beta   90.00000000
_cell_angle_gamma   90.00000000
_symmetry_Int_Tables_number   1
_chemical_formula_structural   CrNF4
_chemical_formula_sum   'Cr4 N4 F16'
_cell_volume   409.41491586
_cell_formula_units_Z   4
loop_
 _symmetry_equiv_pos_site_id
 _symmetry_equiv_pos_as_xyz
  1  'x, y, z'
loop_
 _atom_site_type_symbol
 _atom_site_label
 _atom_site_symmetry_multiplicity
 _atom_site_fract_x
 _atom_site_fract_y
 _atom_site_fract_z
 _atom_site_occupancy
  Cr  Cr0  1  0.75000000  0.25000000  0.00000000  1.0
  Cr  Cr1  1  0.25000000  0.25000000  0.00000000  1.0
  Cr  Cr2  1  0.75000000  0.75000000  0.00000000  1.0
  Cr  Cr3  1  0.25000000  0.75000000  0.00000000  1.0
  N  N4  1  0.00000000  0.00000000  0.50000000  1.0
  N  N5  1  0.50000000  0.50000000  0.50000000  1.0
  N  N6  1  0.00000000  0.50000000  0.54665403  1.0
  N  N7  1  0.50000000  0.00000000  0.45334597  1.0
  F  F8  1  0.74383772  0.50000000  0.94103873  1.0
  F  F9  1  0.25616228  0.50000000  0.94103873  1.0
  F  F10  1  0.00000000  0.24383772  0.94103873  1.0
  F  F11  1  0.00000000  0.75616228  0.94103873  1.0
  F  F12  1  0.75616228  0.00000000  0.05896127  1.0
  F  F13  1  0.24383772  0.00000000  0.05896127  1.0
  F  F14  1  0.50000000  0.25616228  0.05896127  1.0
  F  F15  1  0.50000000  0.74383772  0.05896127  1.0
  F  F16  1  0.70183207  0.20183207  0.77199847  1.0
  F  F17  1  0.29816793  0.20183207  0.77199847  1.0
  F  F18  1  0.70183207  0.79816793  0.77199847  1.0
  F  F19  1  0.29816793  0.79816793  0.77199847  1.0
  F  F20  1  0.79816793  0.29816793  0.22800153  1.0
  F  F21  1  0.20183207  0.29816793  0.22800153  1.0
  F  F22  1  0.79816793  0.70183207  0.22800153  1.0
  F  F23  1  0.20183207  0.70183207  0.22800153  1.0
