# generated using pymatgen
data_Hg3Sb3H8C2Se8N
_symmetry_space_group_name_H-M   'P 1'
_cell_length_a   9.99256331
_cell_length_b   9.99256331
_cell_length_c   11.79739273
_cell_angle_alpha   90.00000000
_cell_angle_beta   90.00000000
_cell_angle_gamma   71.72781075
_symmetry_Int_Tables_number   1
_chemical_formula_structural   Hg3Sb3H8C2Se8N
_chemical_formula_sum   'Hg6 Sb6 H16 C4 Se16 N2'
_cell_volume   1118.58861627
_cell_formula_units_Z   2
loop_
 _symmetry_equiv_pos_site_id
 _symmetry_equiv_pos_as_xyz
  1  'x, y, z'
loop_
 _atom_site_type_symbol
 _atom_site_label
 _atom_site_symmetry_multiplicity
 _atom_site_fract_x
 _atom_site_fract_y
 _atom_site_fract_z
 _atom_site_occupancy
  Hg  Hg0  1  0.06867840  0.68285594  0.82389980  1.0
  Hg  Hg1  1  0.31714406  0.93132160  0.17610020  1.0
  Hg  Hg2  1  -0.43132160  1.18285594  0.17610020  1.0
  Hg  Hg3  1  -0.18285594  1.43132160  0.82389980  1.0
  Hg  Hg4  1  -0.05913115  1.05913115  0.00000000  1.0
  Hg  Hg5  1  0.44086885  0.55913115  0.00000000  1.0
  Sb  Sb6  1  0.69585357  0.80414643  0.01318866  1.0
  Sb  Sb7  1  0.19585357  0.30414643  0.98681134  1.0
  Sb  Sb8  1  -0.09900557  1.06446449  0.66565193  1.0
  Sb  Sb9  1  -0.06446449  1.09900557  0.33434807  1.0
  Sb  Sb10  1  0.40099443  0.56446449  0.33434807  1.0
  Sb  Sb11  1  0.43553551  0.59900557  0.66565193  1.0
  H  H12  1  -0.79026956  1.18909845  0.65080390  1.0
  H  H13  1  -0.18909845  1.79026956  0.34919610  1.0
  H  H14  1  -0.29026956  1.68909845  0.34919610  1.0
  H  H15  1  -0.68909845  1.29026956  0.65080390  1.0
  H  H16  1  -0.59579032  1.09579032  0.78221137  1.0
  H  H17  1  -0.09579032  1.59579032  0.21778863  1.0
  H  H18  1  -0.47498402  1.08598027  0.66813692  1.0
  H  H19  1  -0.08598027  1.47498402  0.33186308  1.0
  H  H20  1  0.02501598  0.58598027  0.33186308  1.0
  H  H21  1  0.41401973  0.97498402  0.66813692  1.0
  H  H22  1  0.23968832  0.26031168  0.46438041  1.0
  H  H23  1  0.73968832  0.76031168  0.53561959  1.0
  H  H24  1  -0.68420392  1.07277871  0.47760504  1.0
  H  H25  1  -0.07277871  1.68420392  0.52239496  1.0
  H  H26  1  -0.18420392  1.57277871  0.52239496  1.0
  H  H27  1  -0.57277871  1.18420392  0.47760504  1.0
  C  C28  1  -0.57866830  1.07866830  0.69103130  1.0
  C  C29  1  -0.07866830  1.57866830  0.30896870  1.0
  C  C30  1  -0.67517699  1.17517699  0.50272577  1.0
  C  C31  1  -0.17517699  1.67517699  0.49727423  1.0
  Se  Se32  1  0.09787797  0.94730321  0.81652682  1.0
  Se  Se33  1  0.05269679  0.90212203  0.18347318  1.0
  Se  Se34  1  -0.40212203  1.44730321  0.18347318  1.0
  Se  Se35  1  -0.44730321  1.40212203  0.81652682  1.0
  Se  Se36  1  0.20266241  0.54255464  0.64358351  1.0
  Se  Se37  1  0.45744536  0.79733759  0.35641649  1.0
  Se  Se38  1  -0.29733759  1.04255464  0.35641649  1.0
  Se  Se39  1  -0.04255464  1.29733759  0.64358351  1.0
  Se  Se40  1  0.16635582  0.56873461  0.03077338  1.0
  Se  Se41  1  0.43126539  0.83364418  0.96922662  1.0
  Se  Se42  1  -0.33364418  1.06873461  0.96922662  1.0
  Se  Se43  1  -0.06873461  1.33364418  0.03077338  1.0
  Se  Se44  1  -0.21428747  1.71428747  0.81006207  1.0
  Se  Se45  1  -0.71428747  1.21428747  0.18993793  1.0
  Se  Se46  1  0.06604554  0.93395446  0.50000000  1.0
  Se  Se47  1  -0.43395446  1.43395446  0.50000000  1.0
  N  N48  1  -0.68857441  1.18857441  0.62814304  1.0
  N  N49  1  -0.18857441  1.68857441  0.37185696  1.0
