# generated using pymatgen
data_KReO2
_symmetry_space_group_name_H-M   'P 1'
_cell_length_a   7.78010557
_cell_length_b   7.78010557
_cell_length_c   7.78010557
_cell_angle_alpha   132.56641310
_cell_angle_beta   132.56641310
_cell_angle_gamma   69.33589673
_symmetry_Int_Tables_number   1
_chemical_formula_structural   KReO2
_chemical_formula_sum   'K4 Re4 O8'
_cell_volume   250.64063889
_cell_formula_units_Z   4
loop_
 _symmetry_equiv_pos_site_id
 _symmetry_equiv_pos_as_xyz
  1  'x, y, z'
loop_
 _atom_site_type_symbol
 _atom_site_label
 _atom_site_symmetry_multiplicity
 _atom_site_fract_x
 _atom_site_fract_y
 _atom_site_fract_z
 _atom_site_occupancy
  K  K0  1  0.37500000  0.62500000  0.75000000  1.0
  K  K1  1  0.87500000  0.62500000  1.25000000  1.0
  K  K2  1  0.37500000  1.12500000  0.75000000  1.0
  K  K3  1  0.37500000  0.62500000  0.25000000  1.0
  Re  Re4  1  0.87500000  0.12500000  0.75000000  1.0
  Re  Re5  1  0.37500000  0.12500000  0.25000000  1.0
  Re  Re6  1  0.87500000  0.62500000  0.75000000  1.0
  Re  Re7  1  0.87500000  1.12500000  1.25000000  1.0
  O  O8  1  1.15714879  0.97031267  1.81316875  1.0
  O  O9  1  0.59285608  0.90601996  1.31316875  1.0
  O  O10  1  1.02968733  0.84285608  1.18683612  1.0
  O  O11  1  1.09398004  1.40714879  1.68683612  1.0
  O  O12  1  0.15714392  0.34398004  0.18683125  1.0
  O  O13  1  0.59285121  0.27968733  0.68683125  1.0
  O  O14  1  0.65601996  0.84285121  0.81316388  1.0
  O  O15  1  0.72031267  0.40714392  0.31316388  1.0
