# generated using pymatgen
data_KBaAsSe3
_symmetry_space_group_name_H-M   'P 1'
_cell_length_a   10.01646600
_cell_length_b   9.17845011
_cell_length_c   9.42406438
_cell_angle_alpha   90.00000000
_cell_angle_beta   109.82236946
_cell_angle_gamma   90.00000000
_symmetry_Int_Tables_number   1
_chemical_formula_structural   KBaAsSe3
_chemical_formula_sum   'K4 Ba4 As4 Se12'
_cell_volume   815.07134816
_cell_formula_units_Z   4
loop_
 _symmetry_equiv_pos_site_id
 _symmetry_equiv_pos_as_xyz
  1  'x, y, z'
loop_
 _atom_site_type_symbol
 _atom_site_label
 _atom_site_symmetry_multiplicity
 _atom_site_fract_x
 _atom_site_fract_y
 _atom_site_fract_z
 _atom_site_occupancy
  K  K0  1  0.56592932  0.89752199  0.71741367  1.0
  K  K1  1  0.56592932  0.60247801  0.21741367  1.0
  K  K2  1  0.43407068  0.39752199  0.78258633  1.0
  K  K3  1  0.43407068  0.10247801  0.28258633  1.0
  Ba  Ba4  1  0.92088214  0.28340729  0.96908198  1.0
  Ba  Ba5  1  0.92088214  0.21659271  0.46908198  1.0
  Ba  Ba6  1  0.07911786  0.78340729  0.53091802  1.0
  Ba  Ba7  1  0.07911786  0.71659271  0.03091802  1.0
  As  As8  1  0.74783113  0.53473885  0.64195219  1.0
  As  As9  1  0.74783113  0.96526115  0.14195219  1.0
  As  As10  1  0.25216887  0.03473885  0.85804781  1.0
  As  As11  1  0.25216887  0.46526115  0.35804781  1.0
  Se  Se12  1  0.99470234  0.99656442  0.78060038  1.0
  Se  Se13  1  0.99470234  0.50343558  0.28060038  1.0
  Se  Se14  1  0.00529766  0.49656442  0.71939962  1.0
  Se  Se15  1  0.00529766  0.00343558  0.21939962  1.0
  Se  Se16  1  0.73350379  0.60235238  0.88466695  1.0
  Se  Se17  1  0.73350379  0.89764762  0.38466695  1.0
  Se  Se18  1  0.26649621  0.10235238  0.61533305  1.0
  Se  Se19  1  0.26649621  0.39764762  0.11533305  1.0
  Se  Se20  1  0.33916939  0.78573529  0.89132284  1.0
  Se  Se21  1  0.33916939  0.71426471  0.39132284  1.0
  Se  Se22  1  0.66083061  0.28573529  0.60867716  1.0
  Se  Se23  1  0.66083061  0.21426471  0.10867716  1.0
