# generated using pymatgen
data_Lu2(GePt3)3
_symmetry_space_group_name_H-M   'P 1'
_cell_length_a   7.76782761
_cell_length_b   7.76782761
_cell_length_c   10.08092926
_cell_angle_alpha   67.19936714
_cell_angle_beta   112.80063286
_cell_angle_gamma   119.77568863
_symmetry_Int_Tables_number   1
_chemical_formula_structural   Lu2(GePt3)3
_chemical_formula_sum   'Lu4 Ge6 Pt18'
_cell_volume   472.02547284
_cell_formula_units_Z   2
loop_
 _symmetry_equiv_pos_site_id
 _symmetry_equiv_pos_as_xyz
  1  'x, y, z'
loop_
 _atom_site_type_symbol
 _atom_site_label
 _atom_site_symmetry_multiplicity
 _atom_site_fract_x
 _atom_site_fract_y
 _atom_site_fract_z
 _atom_site_occupancy
  Lu  Lu0  1  0.41686540  -0.24724573  0.74881463  1.0
  Lu  Lu1  1  1.24724573  0.58313460  0.24881463  1.0
  Lu  Lu2  1  0.75275427  0.41686540  0.75118537  1.0
  Lu  Lu3  1  0.58313460  0.24724573  0.25118537  1.0
  Ge  Ge4  1  1.64177759  -0.17992054  0.50275153  1.0
  Ge  Ge5  1  1.17992054  -0.64177759  0.00275153  1.0
  Ge  Ge6  1  0.82007946  -0.35822241  0.99724847  1.0
  Ge  Ge7  1  1.35822241  0.17992054  0.49724847  1.0
  Ge  Ge8  1  1.50000000  0.00000000  -0.00000000  1.0
  Ge  Ge9  1  1.00000000  0.50000000  0.50000000  1.0
  Pt  Pt10  1  1.30035866  0.08694947  0.74345563  1.0
  Pt  Pt11  1  0.91305053  0.69964134  0.24345563  1.0
  Pt  Pt12  1  1.08694947  0.30035866  0.75654437  1.0
  Pt  Pt13  1  1.69964134  -0.08694947  0.25654437  1.0
  Pt  Pt14  1  1.79302726  0.02718562  0.91721729  1.0
  Pt  Pt15  1  0.97281438  0.20697274  0.41721729  1.0
  Pt  Pt16  1  1.02718562  0.79302726  0.58278271  1.0
  Pt  Pt17  1  1.20697274  -0.02718562  0.08278271  1.0
  Pt  Pt18  1  0.69323735  0.14107516  0.57982527  1.0
  Pt  Pt19  1  0.85892484  0.30676265  0.07982527  1.0
  Pt  Pt20  1  1.14107516  0.69323735  0.92017473  1.0
  Pt  Pt21  1  0.30676265  -0.14107516  0.42017473  1.0
  Pt  Pt22  1  1.47739164  0.35969689  0.92357574  1.0
  Pt  Pt23  1  0.64030311  0.52260836  0.42357574  1.0
  Pt  Pt24  1  1.35969689  0.47739164  0.57642426  1.0
  Pt  Pt25  1  1.52260836  -0.35969689  0.07642426  1.0
  Pt  Pt26  1  0.86620470  0.86620470  0.75000000  1.0
  Pt  Pt27  1  1.13379530  0.13379530  0.25000000  1.0
