# generated using pymatgen
data_RuN3Cl3O
_symmetry_space_group_name_H-M   'P 1'
_cell_length_a   8.67934298
_cell_length_b   11.29058429
_cell_length_c   10.08214781
_cell_angle_alpha   90.00000000
_cell_angle_beta   90.00000000
_cell_angle_gamma   90.00000000
_symmetry_Int_Tables_number   1
_chemical_formula_structural   RuN3Cl3O
_chemical_formula_sum   'Ru4 N12 Cl12 O4'
_cell_volume   987.99859704
_cell_formula_units_Z   4
loop_
 _symmetry_equiv_pos_site_id
 _symmetry_equiv_pos_as_xyz
  1  'x, y, z'
loop_
 _atom_site_type_symbol
 _atom_site_label
 _atom_site_symmetry_multiplicity
 _atom_site_fract_x
 _atom_site_fract_y
 _atom_site_fract_z
 _atom_site_occupancy
  Cl  Cl0  1  0.22404098  0.01092445  0.24967142  1.0
  Cl  Cl1  1  0.22404098  0.98907555  0.74967142  1.0
  Cl  Cl2  1  0.72404098  0.51092445  0.25032858  1.0
  Cl  Cl3  1  0.72404098  0.48907555  0.75032858  1.0
  Cl  Cl4  1  0.77595902  0.01092445  0.25032858  1.0
  Cl  Cl5  1  0.77595902  0.98907555  0.75032858  1.0
  Cl  Cl6  1  0.27595902  0.51092445  0.24967142  1.0
  Cl  Cl7  1  0.27595902  0.48907555  0.74967142  1.0
  Cl  Cl8  1  0.50000000  0.81308411  0.25000000  1.0
  Cl  Cl9  1  0.50000000  0.18691589  0.75000000  1.0
  Cl  Cl10  1  0.00000000  0.31308411  0.25000000  1.0
  Cl  Cl11  1  -0.00000000  0.68691589  0.75000000  1.0
  Ru  Ru12  1  0.50000000  0.01729730  0.25000000  1.0
  Ru  Ru13  1  0.50000000  0.98270270  0.75000000  1.0
  Ru  Ru14  1  0.00000000  0.51729730  0.25000000  1.0
  Ru  Ru15  1  0.00000000  0.48270270  0.75000000  1.0
  N  N16  1  0.50000000  0.17655768  0.25000000  1.0
  N  N17  1  0.50000000  0.82344232  0.75000000  1.0
  N  N18  1  0.00000000  0.67655768  0.25000000  1.0
  N  N19  1  0.00000000  0.32344232  0.75000000  1.0
  N  N20  1  0.50006100  0.00563193  0.05489374  1.0
  N  N21  1  0.50006100  0.99436807  0.55489374  1.0
  N  N22  1  1.00006100  0.50563193  0.44510626  1.0
  N  N23  1  1.00006100  0.49436807  0.94510626  1.0
  N  N24  1  0.49993900  0.00563193  0.44510626  1.0
  N  N25  1  0.49993900  0.99436807  0.94510626  1.0
  N  N26  1  -0.00006100  0.50563193  0.05489374  1.0
  N  N27  1  -0.00006100  0.49436807  0.55489374  1.0
  O  O28  1  0.50000000  0.27759460  0.25000000  1.0
  O  O29  1  0.50000000  0.72240540  0.75000000  1.0
  O  O30  1  0.00000000  0.77759460  0.25000000  1.0
  O  O31  1  0.00000000  0.22240540  0.75000000  1.0
