# generated using pymatgen
data_Ta6Fe16Si7
_symmetry_space_group_name_H-M   'P 1'
_cell_length_a   7.91720816
_cell_length_b   7.91720816
_cell_length_c   7.91720816
_cell_angle_alpha   60.00000000
_cell_angle_beta   60.00000000
_cell_angle_gamma   60.00000000
_symmetry_Int_Tables_number   1
_chemical_formula_structural   Ta6Fe16Si7
_chemical_formula_sum   'Ta6 Fe16 Si7'
_cell_volume   350.91440288
_cell_formula_units_Z   1
loop_
 _symmetry_equiv_pos_site_id
 _symmetry_equiv_pos_as_xyz
  1  'x, y, z'
loop_
 _atom_site_type_symbol
 _atom_site_label
 _atom_site_symmetry_multiplicity
 _atom_site_fract_x
 _atom_site_fract_y
 _atom_site_fract_z
 _atom_site_occupancy
  Fe  Fe0  1  0.67320744  0.67320744  -0.32679256  1.0
  Fe  Fe1  1  1.32679256  0.32679256  0.01962233  1.0
  Fe  Fe2  1  1.32679256  0.01962233  0.32679256  1.0
  Fe  Fe3  1  0.98037767  0.67320744  -0.32679256  1.0
  Fe  Fe4  1  1.01962233  0.32679256  0.32679256  1.0
  Fe  Fe5  1  0.67320744  0.98037767  -0.32679256  1.0
  Fe  Fe6  1  0.67320744  0.67320744  -0.01962233  1.0
  Fe  Fe7  1  1.32679256  0.32679256  0.32679256  1.0
  Fe  Fe8  1  0.88022130  0.88022130  -0.11977870  1.0
  Fe  Fe9  1  1.11977870  0.11977870  0.64066390  1.0
  Fe  Fe10  1  1.11977870  0.64066390  0.11977870  1.0
  Fe  Fe11  1  0.35933610  0.88022130  -0.11977870  1.0
  Fe  Fe12  1  1.64066390  0.11977870  0.11977870  1.0
  Fe  Fe13  1  0.88022130  0.35933610  -0.11977870  1.0
  Fe  Fe14  1  0.88022130  0.88022130  -0.64066390  1.0
  Fe  Fe15  1  1.11977870  0.11977870  0.11977870  1.0
  Ta  Ta16  1  -0.70378056  0.70378056  0.70378056  1.0
  Ta  Ta17  1  -0.29621944  0.29621944  0.70378056  1.0
  Ta  Ta18  1  0.70378056  0.70378056  -0.70378056  1.0
  Ta  Ta19  1  0.29621944  1.29621944  -0.29621944  1.0
  Ta  Ta20  1  0.29621944  -0.29621944  1.29621944  1.0
  Ta  Ta21  1  -0.29621944  0.29621944  0.29621944  1.0
  Si  Si22  1  1.50000000  -0.00000000  0.00000000  1.0
  Si  Si23  1  1.00000000  0.50000000  -0.50000000  1.0
  Si  Si24  1  -0.00000000  1.50000000  0.00000000  1.0
  Si  Si25  1  0.50000000  1.00000000  -0.50000000  1.0
  Si  Si26  1  0.00000000  0.00000000  0.50000000  1.0
  Si  Si27  1  0.50000000  -0.50000000  1.00000000  1.0
  Si  Si28  1  0.00000000  0.00000000  0.00000000  1.0
