# generated using pymatgen
data_LiC3
_symmetry_space_group_name_H-M   'P 1'
_cell_length_a   4.39475108
_cell_length_b   4.39475108
_cell_length_c   7.20722657
_cell_angle_alpha   90.00000000
_cell_angle_beta   90.00000000
_cell_angle_gamma   120.00000000
_symmetry_Int_Tables_number   1
_chemical_formula_structural   LiC3
_chemical_formula_sum   'Li4 C12'
_cell_volume   120.55004280
_cell_formula_units_Z   4
loop_
 _symmetry_equiv_pos_site_id
 _symmetry_equiv_pos_as_xyz
  1  'x, y, z'
loop_
 _atom_site_type_symbol
 _atom_site_label
 _atom_site_symmetry_multiplicity
 _atom_site_fract_x
 _atom_site_fract_y
 _atom_site_fract_z
 _atom_site_occupancy
  Li  Li0  1  0.33333333  0.66666667  0.49999748  1.0
  Li  Li1  1  0.33333333  0.66666667  0.00000252  1.0
  Li  Li2  1  0.66666667  0.33333333  0.99999748  1.0
  Li  Li3  1  0.66666667  0.33333333  0.50000252  1.0
  C  C4  1  0.33239151  -0.00000138  0.25000025  1.0
  C  C5  1  0.33239151  0.33239289  0.25000025  1.0
  C  C6  1  -0.00000138  0.33239151  0.74999975  1.0
  C  C7  1  -0.00000138  0.66760711  0.74999975  1.0
  C  C8  1  0.66760711  -0.00000138  0.25000025  1.0
  C  C9  1  0.66760711  0.66760849  0.25000025  1.0
  C  C10  1  0.00000138  0.66760849  0.25000025  1.0
  C  C11  1  0.00000138  0.33239289  0.25000025  1.0
  C  C12  1  0.66760849  0.66760711  0.74999975  1.0
  C  C13  1  0.66760849  0.00000138  0.74999975  1.0
  C  C14  1  0.33239289  0.33239151  0.74999975  1.0
  C  C15  1  0.33239289  0.00000138  0.74999975  1.0
