# generated using pymatgen
data_V(CrC)2
_symmetry_space_group_name_H-M   'P 1'
_cell_length_a   4.79972635
_cell_length_b   4.79972635
_cell_length_c   7.08171320
_cell_angle_alpha   90.00000000
_cell_angle_beta   90.00000000
_cell_angle_gamma   145.56305167
_symmetry_Int_Tables_number   1
_chemical_formula_structural   V(CrC)2
_chemical_formula_sum   'V2 Cr4 C4'
_cell_volume   92.25780371
_cell_formula_units_Z   2
loop_
 _symmetry_equiv_pos_site_id
 _symmetry_equiv_pos_as_xyz
  1  'x, y, z'
loop_
 _atom_site_type_symbol
 _atom_site_label
 _atom_site_symmetry_multiplicity
 _atom_site_fract_x
 _atom_site_fract_y
 _atom_site_fract_z
 _atom_site_occupancy
  V  V0  1  0.09570329  0.90429671  0.75000000  1.0
  V  V1  1  -0.09570329  0.09570329  0.25000000  1.0
  Cr  Cr2  1  0.35936325  0.64063675  0.92777218  1.0
  Cr  Cr3  1  0.35936325  0.64063675  0.57222782  1.0
  Cr  Cr4  1  -0.35936325  0.35936325  0.42777218  1.0
  Cr  Cr5  1  -0.35936325  0.35936325  0.07222782  1.0
  C  C6  1  -0.25004010  0.25004010  0.75000000  1.0
  C  C7  1  0.25004010  0.74995990  0.25000000  1.0
  C  C8  1  0.00000000  0.00000000  0.00000000  1.0
  C  C9  1  0.00000000  0.00000000  0.50000000  1.0
