# generated using pymatgen
data_Li2BeSiO4
_symmetry_space_group_name_H-M   'P 1'
_cell_length_a   4.92291933
_cell_length_b   4.92291933
_cell_length_c   6.13555832
_cell_angle_alpha   90.00000000
_cell_angle_beta   90.00000000
_cell_angle_gamma   90.49619308
_symmetry_Int_Tables_number   1
_chemical_formula_structural   Li2BeSiO4
_chemical_formula_sum   'Li4 Be2 Si2 O8'
_cell_volume   148.69050619
_cell_formula_units_Z   2
loop_
 _symmetry_equiv_pos_site_id
 _symmetry_equiv_pos_as_xyz
  1  'x, y, z'
loop_
 _atom_site_type_symbol
 _atom_site_label
 _atom_site_symmetry_multiplicity
 _atom_site_fract_x
 _atom_site_fract_y
 _atom_site_fract_z
 _atom_site_occupancy
  Li  Li0  1  -0.19507352  1.19507352  0.25000000  1.0
  Li  Li1  1  0.19507352  0.80492648  0.75000000  1.0
  Li  Li2  1  0.68132598  0.68132598  0.00000000  1.0
  Li  Li3  1  0.31867402  0.31867402  0.50000000  1.0
  Be  Be4  1  0.31820721  0.31820721  0.00000000  1.0
  Be  Be5  1  0.68179279  0.68179279  0.50000000  1.0
  Si  Si6  1  0.18090874  0.81909126  0.25000000  1.0
  Si  Si7  1  -0.18090874  1.18090874  0.75000000  1.0
  O  O8  1  0.28324587  0.65345851  0.03286841  1.0
  O  O9  1  -0.34654149  1.28324587  0.96713159  1.0
  O  O10  1  0.34654149  0.71675413  0.46713159  1.0
  O  O11  1  -0.28324587  1.34654149  0.53286841  1.0
  O  O12  1  -0.15114430  1.77885156  0.28106925  1.0
  O  O13  1  0.77885156  0.84885570  0.71893075  1.0
  O  O14  1  -0.77885156  1.15114430  0.21893075  1.0
  O  O15  1  0.15114430  0.22114844  0.78106925  1.0
