# generated using pymatgen
data_MnTe2O5
_symmetry_space_group_name_H-M   'P 1'
_cell_length_a   7.61530246
_cell_length_b   11.03744394
_cell_length_c   6.06807805
_cell_angle_alpha   90.00000000
_cell_angle_beta   90.00000000
_cell_angle_gamma   90.00000000
_symmetry_Int_Tables_number   1
_chemical_formula_structural   MnTe2O5
_chemical_formula_sum   'Mn4 Te8 O20'
_cell_volume   510.04304054
_cell_formula_units_Z   4
loop_
 _symmetry_equiv_pos_site_id
 _symmetry_equiv_pos_as_xyz
  1  'x, y, z'
loop_
 _atom_site_type_symbol
 _atom_site_label
 _atom_site_symmetry_multiplicity
 _atom_site_fract_x
 _atom_site_fract_y
 _atom_site_fract_z
 _atom_site_occupancy
  Mn  Mn0  1  0.50000000  0.06189232  0.75000000  1.0
  Mn  Mn1  1  0.50000000  0.93810768  0.25000000  1.0
  Mn  Mn2  1  0.00000000  0.56189232  0.75000000  1.0
  Mn  Mn3  1  0.00000000  0.43810768  0.25000000  1.0
  Te  Te4  1  0.36397329  0.34915662  0.50999038  1.0
  Te  Te5  1  0.36397329  0.65084338  0.00999038  1.0
  Te  Te6  1  0.86397329  0.84915662  0.99000962  1.0
  Te  Te7  1  0.86397329  0.15084338  0.49000962  1.0
  Te  Te8  1  0.63602671  0.34915662  0.99000962  1.0
  Te  Te9  1  0.63602671  0.65084338  0.49000962  1.0
  Te  Te10  1  0.13602671  0.84915662  0.50999038  1.0
  Te  Te11  1  0.13602671  0.15084338  0.00999038  1.0
  O  O12  1  0.30906447  0.21057394  0.70139456  1.0
  O  O13  1  0.30906447  0.78942606  0.20139456  1.0
  O  O14  1  0.80906447  0.71057394  0.79860544  1.0
  O  O15  1  0.80906447  0.28942606  0.29860544  1.0
  O  O16  1  0.69093553  0.21057394  0.79860544  1.0
  O  O17  1  0.69093553  0.78942606  0.29860544  1.0
  O  O18  1  0.19093553  0.71057394  0.70139456  1.0
  O  O19  1  0.19093553  0.28942606  0.20139456  1.0
  O  O20  1  0.14873594  0.44224837  0.54529332  1.0
  O  O21  1  0.14873594  0.55775163  0.04529332  1.0
  O  O22  1  0.64873594  0.94224837  0.95470668  1.0
  O  O23  1  0.64873594  0.05775163  0.45470668  1.0
  O  O24  1  0.85126406  0.44224837  0.95470668  1.0
  O  O25  1  0.85126406  0.55775163  0.45470668  1.0
  O  O26  1  0.35126406  0.94224837  0.54529332  1.0
  O  O27  1  0.35126406  0.05775163  0.04529332  1.0
  O  O28  1  0.50000000  0.44843862  0.75000000  1.0
  O  O29  1  0.50000000  0.55156138  0.25000000  1.0
  O  O30  1  0.00000000  0.94843862  0.75000000  1.0
  O  O31  1  0.00000000  0.05156138  0.25000000  1.0
