# generated using pymatgen
data_KV3(SeO6)2
_symmetry_space_group_name_H-M   'P 1'
_cell_length_a   7.18223279
_cell_length_b   7.18223279
_cell_length_c   11.98671857
_cell_angle_alpha   90.00000000
_cell_angle_beta   90.00000000
_cell_angle_gamma   120.00000000
_symmetry_Int_Tables_number   1
_chemical_formula_structural   KV3(SeO6)2
_chemical_formula_sum   'K2 V6 Se4 O24'
_cell_volume   535.48818826
_cell_formula_units_Z   2
loop_
 _symmetry_equiv_pos_site_id
 _symmetry_equiv_pos_as_xyz
  1  'x, y, z'
loop_
 _atom_site_type_symbol
 _atom_site_label
 _atom_site_symmetry_multiplicity
 _atom_site_fract_x
 _atom_site_fract_y
 _atom_site_fract_z
 _atom_site_occupancy
  K  K0  1  0.33333333  0.66666667  0.14952049  1.0
  K  K1  1  0.66666667  0.33333333  0.64952049  1.0
  V  V2  1  0.78880785  0.66646530  0.27480788  1.0
  V  V3  1  0.66646530  0.87765745  0.77480788  1.0
  V  V4  1  0.87765745  0.21119215  0.27480788  1.0
  V  V5  1  0.33353470  0.12234255  0.27480788  1.0
  V  V6  1  0.21119215  0.33353470  0.77480788  1.0
  V  V7  1  0.12234255  0.78880785  0.77480788  1.0
  Se  Se8  1  0.33333333  0.66666667  0.55769744  1.0
  Se  Se9  1  0.66666667  0.33333333  0.05769744  1.0
  Se  Se10  1  0.00000000  0.00000000  -0.01186767  1.0
  Se  Se11  1  0.00000000  0.00000000  0.48813233  1.0
  O  O12  1  0.13060524  0.87856443  0.24387425  1.0
  O  O13  1  0.87856443  0.74795919  0.74387425  1.0
  O  O14  1  0.74795919  0.86939476  0.24387425  1.0
  O  O15  1  0.12143557  0.25204081  0.24387425  1.0
  O  O16  1  0.86939476  0.12143557  0.74387425  1.0
  O  O17  1  0.25204081  0.13060524  0.74387425  1.0
  O  O18  1  0.88166973  0.74728705  0.42669494  1.0
  O  O19  1  0.74728705  0.86561731  0.92669494  1.0
  O  O20  1  0.86561731  0.11833027  0.42669494  1.0
  O  O21  1  0.25271295  0.13438269  0.42669494  1.0
  O  O22  1  0.11833027  0.25271295  0.92669494  1.0
  O  O23  1  0.13438269  0.88166973  0.92669494  1.0
  O  O24  1  0.80346830  0.58592811  0.11755729  1.0
  O  O25  1  0.58592811  0.78245981  0.61755729  1.0
  O  O26  1  0.78245981  0.19653170  0.11755729  1.0
  O  O27  1  0.41407189  0.21754019  0.11755729  1.0
  O  O28  1  0.19653170  0.41407189  0.61755729  1.0
  O  O29  1  0.21754019  0.80346830  0.61755729  1.0
  O  O30  1  0.54302101  0.46264741  0.29841555  1.0
  O  O31  1  0.46264741  0.91962641  0.79841555  1.0
  O  O32  1  0.91962641  0.45697899  0.29841555  1.0
  O  O33  1  0.53735259  0.08037359  0.29841555  1.0
  O  O34  1  0.45697899  0.53735259  0.79841555  1.0
  O  O35  1  0.08037359  0.54302101  0.79841555  1.0
