# generated using pymatgen
data_K2PtO6
_symmetry_space_group_name_H-M   'P 1'
_cell_length_a   6.03217478
_cell_length_b   6.03217478
_cell_length_c   6.03217478
_cell_angle_alpha   64.65370130
_cell_angle_beta   64.65370130
_cell_angle_gamma   64.65370130
_symmetry_Int_Tables_number   1
_chemical_formula_structural   K2PtO6
_chemical_formula_sum   'K2 Pt1 O6'
_cell_volume   171.02531037
_cell_formula_units_Z   1
loop_
 _symmetry_equiv_pos_site_id
 _symmetry_equiv_pos_as_xyz
  1  'x, y, z'
loop_
 _atom_site_type_symbol
 _atom_site_label
 _atom_site_symmetry_multiplicity
 _atom_site_fract_x
 _atom_site_fract_y
 _atom_site_fract_z
 _atom_site_occupancy
  K  K0  1  0.74102741  0.74102741  -0.25897259  1.0
  K  K1  1  1.25897259  1.25897259  0.25897259  1.0
  Pt  Pt2  1  0.00000000  0.00000000  -0.00000000  1.0
  O  O3  1  0.85182504  -0.27604107  0.19686848  1.0
  O  O4  1  0.27604107  0.80313152  -0.85182504  1.0
  O  O5  1  0.80313152  0.14817496  -0.72395893  1.0
  O  O6  1  0.14817496  0.27604107  -0.19686848  1.0
  O  O7  1  0.72395893  0.19686848  -0.14817496  1.0
  O  O8  1  1.19686848  -0.14817496  -0.27604107  1.0
