# generated using pymatgen
data_Rh3W
_symmetry_space_group_name_H-M   'P 1'
_cell_length_a   5.49870634
_cell_length_b   5.49870634
_cell_length_c   4.36712164
_cell_angle_alpha   90.00000000
_cell_angle_beta   90.00000000
_cell_angle_gamma   120.00000000
_symmetry_Int_Tables_number   1
_chemical_formula_structural   Rh3W
_chemical_formula_sum   'Rh6 W2'
_cell_volume   114.35284478
_cell_formula_units_Z   2
loop_
 _symmetry_equiv_pos_site_id
 _symmetry_equiv_pos_as_xyz
  1  'x, y, z'
loop_
 _atom_site_type_symbol
 _atom_site_label
 _atom_site_symmetry_multiplicity
 _atom_site_fract_x
 _atom_site_fract_y
 _atom_site_fract_z
 _atom_site_occupancy
  Rh  Rh0  1  0.16702279  0.83297721  0.25000000  1.0
  Rh  Rh1  1  0.16702279  0.33404558  0.25000000  1.0
  Rh  Rh2  1  0.83297721  0.16702279  0.75000000  1.0
  Rh  Rh3  1  0.83297721  0.66595442  0.75000000  1.0
  Rh  Rh4  1  0.66595442  0.83297721  0.25000000  1.0
  Rh  Rh5  1  0.33404558  0.16702279  0.75000000  1.0
  W  W6  1  0.33333333  0.66666667  0.75000000  1.0
  W  W7  1  0.66666667  0.33333333  0.25000000  1.0
