# generated using pymatgen
data_Ba2Eu2Ti2Cu2O11
_symmetry_space_group_name_H-M   'P 1'
_cell_length_a   3.92096373
_cell_length_b   3.92096373
_cell_length_c   15.95818264
_cell_angle_alpha   90.00000000
_cell_angle_beta   90.00000000
_cell_angle_gamma   90.00000000
_symmetry_Int_Tables_number   1
_chemical_formula_structural   Ba2Eu2Ti2Cu2O11
_chemical_formula_sum   'Ba2 Eu2 Ti2 Cu2 O11'
_cell_volume   245.34040700
_cell_formula_units_Z   1
loop_
 _symmetry_equiv_pos_site_id
 _symmetry_equiv_pos_as_xyz
  1  'x, y, z'
loop_
 _atom_site_type_symbol
 _atom_site_label
 _atom_site_symmetry_multiplicity
 _atom_site_fract_x
 _atom_site_fract_y
 _atom_site_fract_z
 _atom_site_occupancy
  Ti  Ti0  1  0.00000000  0.00000000  0.87446813  1.0
  Ti  Ti1  1  0.00000000  0.00000000  0.12553187  1.0
  Ba  Ba2  1  0.50000000  0.50000000  0.73662007  1.0
  Ba  Ba3  1  0.50000000  0.50000000  0.26337993  1.0
  O  O4  1  0.00000000  0.50000000  0.88518657  1.0
  O  O5  1  0.00000000  0.50000000  0.11481343  1.0
  O  O6  1  0.50000000  0.00000000  0.88518657  1.0
  O  O7  1  0.50000000  0.00000000  0.11481343  1.0
  O  O8  1  0.00000000  0.00000000  0.75687739  1.0
  O  O9  1  0.00000000  0.00000000  0.24312261  1.0
  O  O10  1  0.00000000  0.50000000  0.59420255  1.0
  O  O11  1  0.00000000  0.50000000  0.40579745  1.0
  O  O12  1  0.50000000  0.00000000  0.59420255  1.0
  O  O13  1  0.50000000  0.00000000  0.40579745  1.0
  O  O14  1  0.00000000  0.00000000  0.00000000  1.0
  Eu  Eu15  1  0.50000000  0.50000000  0.00000000  1.0
  Eu  Eu16  1  0.50000000  0.50000000  0.50000000  1.0
  Cu  Cu17  1  0.00000000  0.00000000  0.60715289  1.0
  Cu  Cu18  1  0.00000000  0.00000000  0.39284711  1.0
