# generated using pymatgen
data_RhF3
_symmetry_space_group_name_H-M   'P 1'
_cell_length_a   5.42698464
_cell_length_b   5.42698464
_cell_length_c   5.42698464
_cell_angle_alpha   54.97545686
_cell_angle_beta   54.97545686
_cell_angle_gamma   54.97545686
_symmetry_Int_Tables_number   1
_chemical_formula_structural   RhF3
_chemical_formula_sum   'Rh2 F6'
_cell_volume   99.80721698
_cell_formula_units_Z   2
loop_
 _symmetry_equiv_pos_site_id
 _symmetry_equiv_pos_as_xyz
  1  'x, y, z'
loop_
 _atom_site_type_symbol
 _atom_site_label
 _atom_site_symmetry_multiplicity
 _atom_site_fract_x
 _atom_site_fract_y
 _atom_site_fract_z
 _atom_site_occupancy
  Rh  Rh0  1  1.00000000  0.00000000  -0.00000000  1.0
  Rh  Rh1  1  0.50000000  0.50000000  0.50000000  1.0
  F  F2  1  1.40605616  -0.25000000  0.09394384  1.0
  F  F3  1  0.90605616  -0.40605616  0.25000000  1.0
  F  F4  1  0.25000000  0.90605616  -0.40605616  1.0
  F  F5  1  0.75000000  0.09394384  0.40605616  1.0
  F  F6  1  0.59394384  0.25000000  -0.09394384  1.0
  F  F7  1  1.09394384  0.40605616  -0.25000000  1.0
