# generated using pymatgen
data_Sr(SnHg)2
_symmetry_space_group_name_H-M   'P 1'
_cell_length_a   6.93740344
_cell_length_b   6.93740344
_cell_length_c   10.22002959
_cell_angle_alpha   63.82306976
_cell_angle_beta   116.17693024
_cell_angle_gamma   137.62565857
_symmetry_Int_Tables_number   1
_chemical_formula_structural   Sr(SnHg)2
_chemical_formula_sum   'Sr2 Sn4 Hg4'
_cell_volume   292.05261989
_cell_formula_units_Z   2
loop_
 _symmetry_equiv_pos_site_id
 _symmetry_equiv_pos_as_xyz
  1  'x, y, z'
loop_
 _atom_site_type_symbol
 _atom_site_label
 _atom_site_symmetry_multiplicity
 _atom_site_fract_x
 _atom_site_fract_y
 _atom_site_fract_z
 _atom_site_occupancy
  Sr  Sr0  1  0.82624328  -0.82624328  0.28596778  1.0
  Sr  Sr1  1  0.17375672  -0.17375672  0.71403222  1.0
  Sn  Sn2  1  0.87371303  0.12628697  0.94278187  1.0
  Sn  Sn3  1  1.12628697  -0.12628697  0.05721813  1.0
  Sn  Sn4  1  1.43800100  -0.43800100  0.59018289  1.0
  Sn  Sn5  1  0.56199900  0.43800100  0.40981711  1.0
  Hg  Hg6  1  0.84165832  -0.84165832  0.64137309  1.0
  Hg  Hg7  1  0.15834168  -0.15834168  0.35862691  1.0
  Hg  Hg8  1  0.61090695  0.38909305  0.90839434  1.0
  Hg  Hg9  1  1.38909305  -0.38909305  0.09160566  1.0
