# generated using pymatgen
data_IrBr3
_symmetry_space_group_name_H-M   'P 1'
_cell_length_a   6.47001322
_cell_length_b   6.47001322
_cell_length_c   6.97924262
_cell_angle_alpha   81.72803677
_cell_angle_beta   98.27196323
_cell_angle_gamma   59.98062771
_symmetry_Int_Tables_number   1
_chemical_formula_structural   IrBr3
_chemical_formula_sum   'Ir2 Br6'
_cell_volume   242.26228005
_cell_formula_units_Z   2
loop_
 _symmetry_equiv_pos_site_id
 _symmetry_equiv_pos_as_xyz
  1  'x, y, z'
loop_
 _atom_site_type_symbol
 _atom_site_label
 _atom_site_symmetry_multiplicity
 _atom_site_fract_x
 _atom_site_fract_y
 _atom_site_fract_z
 _atom_site_occupancy
  Ir  Ir0  1  0.83332817  -0.16667183  -0.00000000  1.0
  Ir  Ir1  1  0.16667183  0.16667183  -0.00000000  1.0
  Br  Br2  1  0.43550164  -0.08146450  0.79201987  1.0
  Br  Br3  1  1.08146450  -0.43550164  0.79201987  1.0
  Br  Br4  1  0.91853550  -0.56449836  0.20798013  1.0
  Br  Br5  1  0.56449836  0.08146450  0.20798013  1.0
  Br  Br6  1  0.78914634  -0.78914634  0.79205354  1.0
  Br  Br7  1  0.21085366  -0.21085366  0.20794646  1.0
