# generated using pymatgen
data_RbAl(SO4)2
_symmetry_space_group_name_H-M   'P 1'
_cell_length_a   5.04104645
_cell_length_b   5.04104645
_cell_length_c   8.31390364
_cell_angle_alpha   90.00000000
_cell_angle_beta   90.00000000
_cell_angle_gamma   120.00000000
_symmetry_Int_Tables_number   1
_chemical_formula_structural   RbAl(SO4)2
_chemical_formula_sum   'Rb1 Al1 S2 O8'
_cell_volume   182.96879024
_cell_formula_units_Z   1
loop_
 _symmetry_equiv_pos_site_id
 _symmetry_equiv_pos_as_xyz
  1  'x, y, z'
loop_
 _atom_site_type_symbol
 _atom_site_label
 _atom_site_symmetry_multiplicity
 _atom_site_fract_x
 _atom_site_fract_y
 _atom_site_fract_z
 _atom_site_occupancy
  Rb  Rb0  1  -0.00000000  0.00000000  0.50000000  1.0
  Al  Al1  1  0.00000000  0.00000000  0.00000000  1.0
  S  S2  1  0.33333333  0.66666667  0.19735371  1.0
  S  S3  1  0.66666667  0.33333333  0.80264629  1.0
  O  O4  1  0.17239307  0.82760646  0.13762875  1.0
  O  O5  1  0.82760646  0.17239307  0.86237125  1.0
  O  O6  1  0.65521339  0.82760693  0.13762875  1.0
  O  O7  1  0.17239354  0.34478661  0.13762875  1.0
  O  O8  1  0.82760693  0.65521339  0.86237125  1.0
  O  O9  1  0.34478661  0.17239354  0.86237125  1.0
  O  O10  1  0.33333333  0.66666667  0.37350773  1.0
  O  O11  1  0.66666667  0.33333333  0.62649227  1.0
