# generated using pymatgen
data_Na2Li3GaO4
_symmetry_space_group_name_H-M   'P 1'
_cell_length_a   8.02334560
_cell_length_b   8.32873450
_cell_length_c   6.55711609
_cell_angle_alpha   90.00000000
_cell_angle_beta   90.00000000
_cell_angle_gamma   90.00000000
_symmetry_Int_Tables_number   1
_chemical_formula_structural   Na2Li3GaO4
_chemical_formula_sum   'Na8 Li12 Ga4 O16'
_cell_volume   438.17479351
_cell_formula_units_Z   4
loop_
 _symmetry_equiv_pos_site_id
 _symmetry_equiv_pos_as_xyz
  1  'x, y, z'
loop_
 _atom_site_type_symbol
 _atom_site_label
 _atom_site_symmetry_multiplicity
 _atom_site_fract_x
 _atom_site_fract_y
 _atom_site_fract_z
 _atom_site_occupancy
  Na  Na0  1  0.25894353  0.25189710  0.50000000  1.0
  Na  Na1  1  0.75894353  0.24810290  -0.00000000  1.0
  Na  Na2  1  0.74105647  0.74810290  0.50000000  1.0
  Na  Na3  1  0.24105647  0.75189710  -0.00000000  1.0
  Na  Na4  1  0.50000000  0.50000000  0.24095515  1.0
  Na  Na5  1  0.50000000  0.50000000  0.75904485  1.0
  Na  Na6  1  0.00000000  0.00000000  0.74095515  1.0
  Na  Na7  1  0.00000000  0.00000000  0.25904485  1.0
  Li  Li8  1  0.48440758  0.85231049  0.25543603  1.0
  Li  Li9  1  0.48440758  0.85231049  0.74456397  1.0
  Li  Li10  1  0.98440758  0.64768951  0.75543603  1.0
  Li  Li11  1  0.98440758  0.64768951  0.24456397  1.0
  Li  Li12  1  0.51559242  0.14768951  0.25543603  1.0
  Li  Li13  1  0.51559242  0.14768951  0.74456397  1.0
  Li  Li14  1  0.01559242  0.35231049  0.75543603  1.0
  Li  Li15  1  0.01559242  0.35231049  0.24456397  1.0
  Li  Li16  1  0.26542068  0.91637151  0.50000000  1.0
  Li  Li17  1  0.76542068  0.58362849  -0.00000000  1.0
  Li  Li18  1  0.73457932  0.08362849  0.50000000  1.0
  Li  Li19  1  0.23457932  0.41637151  -0.00000000  1.0
  Ga  Ga20  1  0.22476101  0.62443164  0.50000000  1.0
  Ga  Ga21  1  0.72476101  0.87556836  0.00000000  1.0
  Ga  Ga22  1  0.77523899  0.37556836  0.50000000  1.0
  Ga  Ga23  1  0.27523899  0.12443164  0.00000000  1.0
  O  O24  1  0.19595470  0.51086608  0.25686568  1.0
  O  O25  1  0.19595470  0.51086608  0.74313432  1.0
  O  O26  1  0.69595470  0.98913392  0.75686568  1.0
  O  O27  1  0.69595470  0.98913392  0.24313432  1.0
  O  O28  1  0.80404530  0.48913392  0.25686568  1.0
  O  O29  1  0.80404530  0.48913392  0.74313432  1.0
  O  O30  1  0.30404530  0.01086608  0.75686568  1.0
  O  O31  1  0.30404530  0.01086608  0.24313432  1.0
  O  O32  1  0.43533156  0.72609401  0.50000000  1.0
  O  O33  1  0.93533156  0.77390599  -0.00000000  1.0
  O  O34  1  0.56466844  0.27390599  0.50000000  1.0
  O  O35  1  0.06466844  0.22609401  -0.00000000  1.0
  O  O36  1  0.04838647  0.77741103  0.50000000  1.0
  O  O37  1  0.54838647  0.72258897  0.00000000  1.0
  O  O38  1  0.95161353  0.22258897  0.50000000  1.0
  O  O39  1  0.45161353  0.27741103  0.00000000  1.0
