# generated using pymatgen
data_V2Cd(PO5)2
_symmetry_space_group_name_H-M   'P 1'
_cell_length_a   8.83913481
_cell_length_b   6.85199143
_cell_length_c   9.94923432
_cell_angle_alpha   60.17711080
_cell_angle_beta   42.26243392
_cell_angle_gamma   77.56045529
_symmetry_Int_Tables_number   1
_chemical_formula_structural   V2Cd(PO5)2
_chemical_formula_sum   'V4 Cd2 P4 O20'
_cell_volume   339.33899785
_cell_formula_units_Z   2
loop_
 _symmetry_equiv_pos_site_id
 _symmetry_equiv_pos_as_xyz
  1  'x, y, z'
loop_
 _atom_site_type_symbol
 _atom_site_label
 _atom_site_symmetry_multiplicity
 _atom_site_fract_x
 _atom_site_fract_y
 _atom_site_fract_z
 _atom_site_occupancy
  V  V0  1  0.62648353  1.08555837  0.63695192  1.0
  V  V1  1  0.61304808  -0.40100617  0.62351647  1.0
  V  V2  1  1.08555837  -0.37351647  0.65100617  1.0
  V  V3  1  0.59899383  0.61304808  1.16444163  1.0
  Cd  Cd4  1  0.99889185  -0.00110815  0.00110815  1.0
  Cd  Cd5  1  0.24889185  0.24889185  1.25110815  1.0
  P  P6  1  0.03539731  0.45308713  1.04680168  1.0
  P  P7  1  1.20319832  -0.21471388  0.21460269  1.0
  P  P8  1  0.45308713  0.03539731  1.46471388  1.0
  P  P9  1  0.78528612  1.20319832  0.79691287  1.0
  O  O10  1  0.40944626  0.57518887  1.42447372  1.0
  O  O11  1  0.82552628  -0.34089116  0.84055374  1.0
  O  O12  1  1.57518887  0.40944626  -0.40910884  1.0
  O  O13  1  0.65910884  -0.17447372  0.67481113  1.0
  O  O14  1  0.34593887  0.59727835  1.18939644  1.0
  O  O15  1  1.06060356  -0.61738634  0.90406113  1.0
  O  O16  1  1.59727835  0.34593887  -0.13261366  1.0
  O  O17  1  0.38261366  1.06060356  0.65272165  1.0
  O  O18  1  -0.14128372  0.17116209  1.61043572  1.0
  O  O19  1  0.63956428  -0.10968591  0.39128372  1.0
  O  O20  1  1.17116209  -0.14128372  0.35968591  1.0
  O  O21  1  0.89031409  0.63956428  1.07883791  1.0
  O  O22  1  -0.08550975  0.24049139  1.28625574  1.0
  O  O23  1  0.96374426  -0.30876261  0.33550975  1.0
  O  O24  1  1.24049139  -0.08550975  0.55876261  1.0
  O  O25  1  0.69123739  0.96374426  1.00950861  1.0
  O  O26  1  1.27984624  0.55622319  -0.08732263  1.0
  O  O27  1  0.33732263  0.99874681  0.97015376  1.0
  O  O28  1  0.55622319  0.27984624  1.25125319  1.0
  O  O29  1  0.99874681  -0.66267737  0.69377681  1.0
