# generated using pymatgen
data_In(PO3)3
_symmetry_space_group_name_H-M   'P 1'
_cell_length_a   7.67962766
_cell_length_b   7.67962766
_cell_length_c   9.86925991
_cell_angle_alpha   56.81833606
_cell_angle_beta   123.18166394
_cell_angle_gamma   128.24775912
_symmetry_Int_Tables_number   1
_chemical_formula_structural   In(PO3)3
_chemical_formula_sum   'In2 P6 O18'
_cell_volume   362.81995840
_cell_formula_units_Z   2
loop_
 _symmetry_equiv_pos_site_id
 _symmetry_equiv_pos_as_xyz
  1  'x, y, z'
loop_
 _atom_site_type_symbol
 _atom_site_label
 _atom_site_symmetry_multiplicity
 _atom_site_fract_x
 _atom_site_fract_y
 _atom_site_fract_z
 _atom_site_occupancy
  In  In0  1  0.99090715  0.48079793  0.76165617  1.0
  In  In1  1  1.51920207  0.00909285  0.26165617  1.0
  P  P2  1  0.42771702  0.42935146  0.49313394  1.0
  P  P3  1  0.57064854  0.57228298  -0.00686606  1.0
  P  P4  1  1.02492541  0.80512603  0.93200124  1.0
  P  P5  1  0.19487397  -0.02492541  0.43200124  1.0
  P  P6  1  1.00302890  -0.79698875  0.59201907  1.0
  P  P7  1  1.79698875  -0.00302890  0.09201907  1.0
  O  O8  1  0.75483607  0.72377894  0.89039356  1.0
  O  O9  1  0.27622106  0.24516393  0.39039356  1.0
  O  O10  1  0.61695186  0.37551254  0.65157525  1.0
  O  O11  1  1.62448746  0.38304814  0.15157525  1.0
  O  O12  1  1.13873345  0.83315783  0.59721627  1.0
  O  O13  1  1.16684217  -0.13873345  0.09721627  1.0
  O  O14  1  1.04284706  0.63007574  0.91978622  1.0
  O  O15  1  1.36992426  -0.04284706  0.41978622  1.0
  O  O16  1  0.91337326  0.32780530  0.59507128  1.0
  O  O17  1  1.67219470  0.08662674  0.09507128  1.0
  O  O18  1  0.93839432  0.15927149  0.97119492  1.0
  O  O19  1  1.84072851  0.06160568  0.47119492  1.0
  O  O20  1  1.33419852  0.50545739  0.86106829  1.0
  O  O21  1  1.49454261  -0.33419852  0.36106829  1.0
  O  O22  1  1.24497243  -0.60653664  0.55079470  1.0
  O  O23  1  1.60653664  -0.24497243  0.05079470  1.0
  O  O24  1  0.09507996  0.04555615  0.78058909  1.0
  O  O25  1  0.95444385  0.90492004  0.28058909  1.0
