# generated using pymatgen
data_SnH10Cl4O5
_symmetry_space_group_name_H-M   'P 1'
_cell_length_a   8.16628845
_cell_length_b   8.16628845
_cell_length_c   8.72038161
_cell_angle_alpha   77.82130525
_cell_angle_beta   102.17869475
_cell_angle_gamma   104.80253683
_symmetry_Int_Tables_number   1
_chemical_formula_structural   SnH10Cl4O5
_chemical_formula_sum   'Sn2 H20 Cl8 O10'
_cell_volume   541.94985840
_cell_formula_units_Z   2
loop_
 _symmetry_equiv_pos_site_id
 _symmetry_equiv_pos_as_xyz
  1  'x, y, z'
loop_
 _atom_site_type_symbol
 _atom_site_label
 _atom_site_symmetry_multiplicity
 _atom_site_fract_x
 _atom_site_fract_y
 _atom_site_fract_z
 _atom_site_occupancy
  Sn  Sn0  1  0.74656639  -0.25343361  0.25000000  1.0
  Sn  Sn1  1  1.25343361  0.25343361  0.75000000  1.0
  H  H2  1  0.69504354  -0.52564819  0.51007860  1.0
  H  H3  1  0.47435181  -0.30495646  -0.01007860  1.0
  H  H4  1  1.30495646  0.52564819  0.48992140  1.0
  H  H5  1  1.52564819  0.30495646  1.01007860  1.0
  H  H6  1  0.62481580  -0.60312820  0.33774529  1.0
  H  H7  1  0.39687180  -0.37518420  0.16225471  1.0
  H  H8  1  1.37518420  0.60312820  0.66225471  1.0
  H  H9  1  1.60312820  0.37518420  0.83774529  1.0
  H  H10  1  0.78381809  -0.40998214  0.72612175  1.0
  H  H11  1  0.59001786  -0.21618191  0.77387825  1.0
  H  H12  1  1.21618191  0.40998214  0.27387825  1.0
  H  H13  1  1.40998214  0.21618191  0.22612175  1.0
  H  H14  1  0.86133835  -0.57272481  0.75068302  1.0
  H  H15  1  0.42727519  -0.13866165  0.74931698  1.0
  H  H16  1  1.13866165  0.57272481  0.24931698  1.0
  H  H17  1  1.57272481  0.13866165  0.25068302  1.0
  H  H18  1  0.83387460  -0.11302959  0.65868158  1.0
  H  H19  1  0.88697041  -0.16612540  0.84131842  1.0
  H  H20  1  1.16612540  0.11302959  0.34131842  1.0
  H  H21  1  1.11302959  0.16612540  0.15868158  1.0
  Cl  Cl22  1  0.86992582  -0.40746693  0.10862167  1.0
  Cl  Cl23  1  0.59253307  -0.13007418  0.39137833  1.0
  Cl  Cl24  1  1.13007418  0.40746693  0.89137833  1.0
  Cl  Cl25  1  1.40746693  0.13007418  0.60862167  1.0
  Cl  Cl26  1  1.01147066  0.79951241  0.43814920  1.0
  Cl  Cl27  1  1.79951241  0.01147066  0.06185080  1.0
  Cl  Cl28  1  0.98852934  -0.79951241  0.56185080  1.0
  Cl  Cl29  1  0.20048759  -0.01147066  0.93814920  1.0
  O  O30  1  0.65368189  -0.49997157  0.39211410  1.0
  O  O31  1  0.50002843  -0.34631811  0.10788590  1.0
  O  O32  1  1.34631811  0.49997157  0.60788590  1.0
  O  O33  1  1.49997157  0.34631811  0.89211410  1.0
  O  O34  1  0.75354124  -0.53308938  0.71201660  1.0
  O  O35  1  0.46691062  -0.24645876  0.78798340  1.0
  O  O36  1  1.24645876  0.53308938  0.28798340  1.0
  O  O37  1  1.53308938  0.24645876  0.21201660  1.0
  O  O38  1  0.80082220  -0.19917780  0.75000000  1.0
  O  O39  1  1.19917780  0.19917780  0.25000000  1.0
