# generated using pymatgen
data_LiY(BH4)4
_symmetry_space_group_name_H-M   'P 1'
_cell_length_a   6.20770384
_cell_length_b   6.20770384
_cell_length_c   12.39975387
_cell_angle_alpha   90.00000000
_cell_angle_beta   90.00000000
_cell_angle_gamma   90.00000000
_symmetry_Int_Tables_number   1
_chemical_formula_structural   LiY(BH4)4
_chemical_formula_sum   'Li2 Y2 B8 H32'
_cell_volume   477.83179361
_cell_formula_units_Z   2
loop_
 _symmetry_equiv_pos_site_id
 _symmetry_equiv_pos_as_xyz
  1  'x, y, z'
loop_
 _atom_site_type_symbol
 _atom_site_label
 _atom_site_symmetry_multiplicity
 _atom_site_fract_x
 _atom_site_fract_y
 _atom_site_fract_z
 _atom_site_occupancy
  Li  Li0  1  0.50000000  0.50000000  0.25000000  1.0
  Li  Li1  1  0.50000000  0.50000000  0.75000000  1.0
  Y  Y2  1  0.00000000  0.00000000  0.25000000  1.0
  Y  Y3  1  0.00000000  0.00000000  0.75000000  1.0
  B  B4  1  0.24554856  0.75402957  0.15144744  1.0
  B  B5  1  0.75445144  0.75402957  0.34855256  1.0
  B  B6  1  0.24597043  0.75445144  0.65144744  1.0
  B  B7  1  0.75402957  0.75445144  0.84855256  1.0
  B  B8  1  0.24554856  0.24597043  0.34855256  1.0
  B  B9  1  0.75445144  0.24597043  0.15144744  1.0
  B  B10  1  0.24597043  0.24554856  0.84855256  1.0
  B  B11  1  0.75402957  0.24554856  0.65144744  1.0
  H  H12  1  0.28320062  0.94454714  0.12941605  1.0
  H  H13  1  0.71679938  0.94454714  0.37058395  1.0
  H  H14  1  0.05545286  0.71679938  0.62941605  1.0
  H  H15  1  0.94454714  0.71679938  0.87058395  1.0
  H  H16  1  0.28320062  0.05545286  0.37058395  1.0
  H  H17  1  0.71679938  0.05545286  0.12941605  1.0
  H  H18  1  0.05545286  0.28320062  0.87058395  1.0
  H  H19  1  0.94454714  0.28320062  0.62941605  1.0
  H  H20  1  0.26378640  0.73746978  0.25090833  1.0
  H  H21  1  0.73621360  0.73746978  0.24909167  1.0
  H  H22  1  0.26253022  0.73621360  0.75090833  1.0
  H  H23  1  0.73746978  0.73621360  0.74909167  1.0
  H  H24  1  0.26378640  0.26253022  0.24909167  1.0
  H  H25  1  0.73621360  0.26253022  0.25090833  1.0
  H  H26  1  0.26253022  0.26378640  0.74909167  1.0
  H  H27  1  0.73746978  0.26378640  0.75090833  1.0
  H  H28  1  0.05470214  0.71569924  0.13042432  1.0
  H  H29  1  0.94529786  0.71569924  0.36957568  1.0
  H  H30  1  0.28430076  0.94529786  0.63042432  1.0
  H  H31  1  0.71569924  0.94529786  0.86957568  1.0
  H  H32  1  0.05470214  0.28430076  0.36957568  1.0
  H  H33  1  0.94529786  0.28430076  0.13042432  1.0
  H  H34  1  0.28430076  0.05470214  0.86957568  1.0
  H  H35  1  0.71569924  0.05470214  0.63042432  1.0
  H  H36  1  0.36464577  0.63408971  0.10344598  1.0
  H  H37  1  0.63535423  0.63408971  0.39655402  1.0
  H  H38  1  0.36591029  0.63535423  0.60344598  1.0
  H  H39  1  0.63408971  0.63535423  0.89655402  1.0
  H  H40  1  0.36464577  0.36591029  0.39655402  1.0
  H  H41  1  0.63535423  0.36591029  0.10344598  1.0
  H  H42  1  0.36591029  0.36464577  0.89655402  1.0
  H  H43  1  0.63408971  0.36464577  0.60344598  1.0
