# generated using pymatgen
data_V2ZnO4
_symmetry_space_group_name_H-M   'P 1'
_cell_length_a   5.97028158
_cell_length_b   5.97028158
_cell_length_c   5.97028158
_cell_angle_alpha   120.02718883
_cell_angle_beta   120.02718883
_cell_angle_gamma   89.95291402
_symmetry_Int_Tables_number   1
_chemical_formula_structural   V2ZnO4
_chemical_formula_sum   'V4 Zn2 O8'
_cell_volume   150.41487010
_cell_formula_units_Z   2
loop_
 _symmetry_equiv_pos_site_id
 _symmetry_equiv_pos_as_xyz
  1  'x, y, z'
loop_
 _atom_site_type_symbol
 _atom_site_label
 _atom_site_symmetry_multiplicity
 _atom_site_fract_x
 _atom_site_fract_y
 _atom_site_fract_z
 _atom_site_occupancy
  V  V0  1  0.87500000  0.62500000  0.75000000  1.0
  V  V1  1  1.37500000  1.12500000  1.25000000  1.0
  V  V2  1  0.87500000  0.12500000  0.75000000  1.0
  V  V3  1  0.87500000  1.12500000  0.25000000  1.0
  Zn  Zn4  1  0.25000000  0.75000000  0.50000000  1.0
  Zn  Zn5  1  0.50000000  0.50000000  0.00000000  1.0
  O  O6  1  0.11469020  0.88494652  0.77025632  1.0
  O  O7  1  0.63494652  0.36469020  0.27025632  1.0
  O  O8  1  1.09443388  1.36469020  0.72974368  1.0
  O  O9  1  0.11469020  0.34443388  0.22974368  1.0
  O  O10  1  0.63530980  1.36505348  0.72974368  1.0
  O  O11  1  1.11505348  0.88530980  1.22974368  1.0
  O  O12  1  1.65556612  0.88530980  0.77025632  1.0
  O  O13  1  0.63530980  0.90556612  0.27025632  1.0
