# generated using pymatgen
data_Li2HgO2
_symmetry_space_group_name_H-M   'P 1'
_cell_length_a   6.68683153
_cell_length_b   6.68683153
_cell_length_c   6.68683153
_cell_angle_alpha   153.32094570
_cell_angle_beta   153.32094570
_cell_angle_gamma   38.08735565
_symmetry_Int_Tables_number   1
_chemical_formula_structural   Li2HgO2
_chemical_formula_sum   'Li2 Hg1 O2'
_cell_volume   60.17990963
_cell_formula_units_Z   1
loop_
 _symmetry_equiv_pos_site_id
 _symmetry_equiv_pos_as_xyz
  1  'x, y, z'
loop_
 _atom_site_type_symbol
 _atom_site_label
 _atom_site_symmetry_multiplicity
 _atom_site_fract_x
 _atom_site_fract_y
 _atom_site_fract_z
 _atom_site_occupancy
  Li  Li0  1  0.68815896  0.68815896  1.00000000  1.0
  Li  Li1  1  0.31184104  0.31184104  -0.00000000  1.0
  Hg  Hg2  1  0.00000000  0.00000000  0.00000000  1.0
  O  O3  1  0.84199439  0.84199439  1.00000000  1.0
  O  O4  1  0.15800561  0.15800561  -0.00000000  1.0
