# generated using pymatgen
data_Y3(Ge3Pt2)2
_symmetry_space_group_name_H-M   'P 1'
_cell_length_a   8.78411709
_cell_length_b   4.34075325
_cell_length_c   13.38700754
_cell_angle_alpha   90.00000000
_cell_angle_beta   99.44587901
_cell_angle_gamma   90.00000000
_symmetry_Int_Tables_number   1
_chemical_formula_structural   Y3(Ge3Pt2)2
_chemical_formula_sum   'Y6 Ge12 Pt8'
_cell_volume   503.52132232
_cell_formula_units_Z   2
loop_
 _symmetry_equiv_pos_site_id
 _symmetry_equiv_pos_as_xyz
  1  'x, y, z'
loop_
 _atom_site_type_symbol
 _atom_site_label
 _atom_site_symmetry_multiplicity
 _atom_site_fract_x
 _atom_site_fract_y
 _atom_site_fract_z
 _atom_site_occupancy
  Y  Y0  1  0.23441216  0.25000000  0.43838850  1.0
  Y  Y1  1  0.76558784  0.75000000  0.56161150  1.0
  Y  Y2  1  0.41049245  0.25000000  0.18888073  1.0
  Y  Y3  1  0.58950755  0.75000000  0.81111927  1.0
  Y  Y4  1  0.93461731  0.25000000  0.18631180  1.0
  Y  Y5  1  0.06538269  0.75000000  0.81368820  1.0
  Ge  Ge6  1  0.62215438  0.25000000  0.00195653  1.0
  Ge  Ge7  1  0.37784562  0.75000000  0.99804347  1.0
  Ge  Ge8  1  0.58636942  0.25000000  0.43393211  1.0
  Ge  Ge9  1  0.41363058  0.75000000  0.56606789  1.0
  Ge  Ge10  1  0.12628682  0.25000000  0.99359184  1.0
  Ge  Ge11  1  0.87371318  0.75000000  0.00640816  1.0
  Ge  Ge12  1  0.30395661  0.25000000  0.71571830  1.0
  Ge  Ge13  1  0.69604339  0.75000000  0.28428170  1.0
  Ge  Ge14  1  0.88143122  0.25000000  0.43415914  1.0
  Ge  Ge15  1  0.11856878  0.75000000  0.56584086  1.0
  Ge  Ge16  1  0.80541515  0.25000000  0.72237854  1.0
  Ge  Ge17  1  0.19458485  0.75000000  0.27762146  1.0
  Pt  Pt18  1  0.84794682  0.25000000  0.90870340  1.0
  Pt  Pt19  1  0.15205318  0.75000000  0.09129660  1.0
  Pt  Pt20  1  0.53298434  0.25000000  0.62453599  1.0
  Pt  Pt21  1  0.46701566  0.75000000  0.37546401  1.0
  Pt  Pt22  1  0.02965116  0.25000000  0.62540358  1.0
  Pt  Pt23  1  0.97034884  0.75000000  0.37459642  1.0
  Pt  Pt24  1  0.35341170  0.25000000  0.89871748  1.0
  Pt  Pt25  1  0.64658830  0.75000000  0.10128252  1.0
