# generated using pymatgen
data_H6PbC3S2IN
_symmetry_space_group_name_H-M   'P 1'
_cell_length_a   10.71997164
_cell_length_b   8.16196575
_cell_length_c   11.86881614
_cell_angle_alpha   90.00000000
_cell_angle_beta   115.01603901
_cell_angle_gamma   90.00000000
_symmetry_Int_Tables_number   1
_chemical_formula_structural   H6PbC3S2IN
_chemical_formula_sum   'H24 Pb4 C12 S8 I4 N4'
_cell_volume   941.05456645
_cell_formula_units_Z   4
loop_
 _symmetry_equiv_pos_site_id
 _symmetry_equiv_pos_as_xyz
  1  'x, y, z'
loop_
 _atom_site_type_symbol
 _atom_site_label
 _atom_site_symmetry_multiplicity
 _atom_site_fract_x
 _atom_site_fract_y
 _atom_site_fract_z
 _atom_site_occupancy
  H  H0  1  0.87850644  0.45641427  0.52468481  1.0
  H  H1  1  0.12149356  0.95641427  0.97531519  1.0
  H  H2  1  0.12149356  0.54358573  0.47531519  1.0
  H  H3  1  0.87850644  0.04358573  0.02468481  1.0
  H  H4  1  0.03947386  0.38620552  0.64343335  1.0
  H  H5  1  0.96052614  0.88620552  0.85656665  1.0
  H  H6  1  0.96052614  0.61379448  0.35656665  1.0
  H  H7  1  0.03947386  0.11379448  0.14343335  1.0
  H  H8  1  0.89302601  0.25363835  0.58573784  1.0
  H  H9  1  0.10697399  0.75363835  0.91426216  1.0
  H  H10  1  0.10697399  0.74636165  0.41426216  1.0
  H  H11  1  0.89302601  0.24636165  0.08573784  1.0
  H  H12  1  0.95077504  0.44648751  0.89838200  1.0
  H  H13  1  0.04922496  0.94648751  0.60161800  1.0
  H  H14  1  0.04922496  0.55351249  0.10161800  1.0
  H  H15  1  0.95077504  0.05351249  0.39838200  1.0
  H  H16  1  0.95595810  0.24938209  0.83545093  1.0
  H  H17  1  0.04404190  0.74938209  0.66454907  1.0
  H  H18  1  0.04404190  0.75061791  0.16454907  1.0
  H  H19  1  0.95595810  0.25061791  0.33545093  1.0
  H  H20  1  0.08362675  0.39922835  0.84903233  1.0
  H  H21  1  0.91637325  0.89922835  0.65096767  1.0
  H  H22  1  0.91637325  0.60077165  0.15096767  1.0
  H  H23  1  0.08362675  0.10077165  0.34903233  1.0
  Pb  Pb24  1  0.49157059  0.73649485  0.61241012  1.0
  Pb  Pb25  1  0.50842941  0.23649485  0.88758988  1.0
  Pb  Pb26  1  0.50842941  0.26350515  0.38758988  1.0
  Pb  Pb27  1  0.49157059  0.76350515  0.11241012  1.0
  C  C28  1  0.77310224  0.52875996  0.67997884  1.0
  C  C29  1  0.22689776  0.02875996  0.82002116  1.0
  C  C30  1  0.22689776  0.47124004  0.32002116  1.0
  C  C31  1  0.77310224  0.97124004  0.17997884  1.0
  C  C32  1  0.92695785  0.38165230  0.60866199  1.0
  C  C33  1  0.07304215  0.88165230  0.89133801  1.0
  C  C34  1  0.07304215  0.61834770  0.39133801  1.0
  C  C35  1  0.92695785  0.11834770  0.10866199  1.0
  C  C36  1  0.97499038  0.38097968  0.82981257  1.0
  C  C37  1  0.02500962  0.88097968  0.67018743  1.0
  C  C38  1  0.02500962  0.61902032  0.17018743  1.0
  C  C39  1  0.97499038  0.11902032  0.32981257  1.0
  S  S40  1  0.67346385  0.59314197  0.52795624  1.0
  S  S41  1  0.32653615  0.09314197  0.97204376  1.0
  S  S42  1  0.32653615  0.40685803  0.47204376  1.0
  S  S43  1  0.67346385  0.90685803  0.02795624  1.0
  S  S44  1  0.72338985  0.58214136  0.79547522  1.0
  S  S45  1  0.27661015  0.08214136  0.70452478  1.0
  S  S46  1  0.27661015  0.41785864  0.20452478  1.0
  S  S47  1  0.72338985  0.91785864  0.29547522  1.0
  I  I48  1  0.35311931  0.91729380  0.31815328  1.0
  I  I49  1  0.64688069  0.41729380  0.18184672  1.0
  I  I50  1  0.64688069  0.08270620  0.68184672  1.0
  I  I51  1  0.35311931  0.58270620  0.81815328  1.0
  N  N52  1  0.88833207  0.44172191  0.70537396  1.0
  N  N53  1  0.11166793  0.94172191  0.79462604  1.0
  N  N54  1  0.11166793  0.55827809  0.29462604  1.0
  N  N55  1  0.88833207  0.05827809  0.20537396  1.0
