# generated using pymatgen
data_Nb3B2
_symmetry_space_group_name_H-M   'P 1'
_cell_length_a   6.21095359
_cell_length_b   6.21095359
_cell_length_c   3.29873766
_cell_angle_alpha   90.00000000
_cell_angle_beta   90.00000000
_cell_angle_gamma   90.00000000
_symmetry_Int_Tables_number   1
_chemical_formula_structural   Nb3B2
_chemical_formula_sum   'Nb6 B4'
_cell_volume   127.25192076
_cell_formula_units_Z   2
loop_
 _symmetry_equiv_pos_site_id
 _symmetry_equiv_pos_as_xyz
  1  'x, y, z'
loop_
 _atom_site_type_symbol
 _atom_site_label
 _atom_site_symmetry_multiplicity
 _atom_site_fract_x
 _atom_site_fract_y
 _atom_site_fract_z
 _atom_site_occupancy
  Nb  Nb0  1  0.32161441  0.17838559  0.50000000  1.0
  Nb  Nb1  1  0.82161441  0.32161441  0.50000000  1.0
  Nb  Nb2  1  0.67838559  0.82161441  0.50000000  1.0
  Nb  Nb3  1  0.17838559  0.67838559  0.50000000  1.0
  Nb  Nb4  1  0.50000000  0.50000000  0.00000000  1.0
  Nb  Nb5  1  0.00000000  0.00000000  0.00000000  1.0
  B  B6  1  0.89465068  0.60534932  0.00000000  1.0
  B  B7  1  0.39465068  0.89465068  0.00000000  1.0
  B  B8  1  0.10534932  0.39465068  0.00000000  1.0
  B  B9  1  0.60534932  0.10534932  0.00000000  1.0
