# generated using pymatgen
data_Sn3WO6
_symmetry_space_group_name_H-M   'P 1'
_cell_length_a   7.79077938
_cell_length_b   7.79077938
_cell_length_c   14.21499711
_cell_angle_alpha   71.24218877
_cell_angle_beta   108.75781123
_cell_angle_gamma   116.82574980
_symmetry_Int_Tables_number   1
_chemical_formula_structural   Sn3WO6
_chemical_formula_sum   'Sn12 W4 O24'
_cell_volume   712.97784109
_cell_formula_units_Z   4
loop_
 _symmetry_equiv_pos_site_id
 _symmetry_equiv_pos_as_xyz
  1  'x, y, z'
loop_
 _atom_site_type_symbol
 _atom_site_label
 _atom_site_symmetry_multiplicity
 _atom_site_fract_x
 _atom_site_fract_y
 _atom_site_fract_z
 _atom_site_occupancy
  Sn  Sn0  1  0.49014127  -0.17724221  0.11498705  1.0
  Sn  Sn1  1  1.17724221  -0.49014127  0.61498705  1.0
  Sn  Sn2  1  0.82275779  -0.50985873  0.38501295  1.0
  Sn  Sn3  1  0.50985873  0.17724221  0.88501295  1.0
  Sn  Sn4  1  0.22845692  -0.08903334  0.38015305  1.0
  Sn  Sn5  1  1.08903334  0.77154308  0.88015305  1.0
  Sn  Sn6  1  0.91096666  0.22845692  0.11984695  1.0
  Sn  Sn7  1  0.77154308  0.08903334  0.61984695  1.0
  Sn  Sn8  1  1.45640959  0.29746321  0.11244957  1.0
  Sn  Sn9  1  0.70253679  0.54359041  0.61244957  1.0
  Sn  Sn10  1  1.29746321  0.45640959  0.38755043  1.0
  Sn  Sn11  1  1.54359041  -0.29746321  0.88755043  1.0
  W  W12  1  0.79346429  -0.05538450  0.40855316  1.0
  W  W13  1  1.05538450  0.20653571  0.90855316  1.0
  W  W14  1  0.94461550  0.79346429  0.09144684  1.0
  W  W15  1  0.20653571  0.05538450  0.59144684  1.0
  O  O16  1  0.60939238  -0.31655383  0.45646882  1.0
  O  O17  1  1.31655383  0.39060762  0.95646882  1.0
  O  O18  1  0.68344617  0.60939238  0.04353118  1.0
  O  O19  1  0.39060762  0.31655383  0.54353118  1.0
  O  O20  1  1.85813279  -0.05302390  0.92058969  1.0
  O  O21  1  1.05302390  0.14186721  0.42058969  1.0
  O  O22  1  0.94697610  0.85813279  0.57941031  1.0
  O  O23  1  1.14186721  0.05302390  0.07941031  1.0
  O  O24  1  1.79367179  -0.07618709  0.11544170  1.0
  O  O25  1  1.07618709  0.20632820  0.61544170  1.0
  O  O26  1  0.92381291  0.79367179  0.38455830  1.0
  O  O27  1  1.20632820  0.07618709  0.88455830  1.0
  O  O28  1  1.67603995  0.00051695  0.28013087  1.0
  O  O29  1  0.99948305  0.32396005  0.78013087  1.0
  O  O30  1  1.00051695  0.67603995  0.21986913  1.0
  O  O31  1  1.32396005  -0.00051695  0.71986913  1.0
  O  O32  1  1.70315308  0.06679307  0.46472113  1.0
  O  O33  1  0.93320693  0.29684692  0.96472113  1.0
  O  O34  1  1.06679307  0.70315308  0.03527887  1.0
  O  O35  1  1.29684692  -0.06679307  0.53527887  1.0
  O  O36  1  0.57901795  0.15132111  0.05836687  1.0
  O  O37  1  0.84867889  0.42098205  0.55836687  1.0
  O  O38  1  1.15132111  0.57901795  0.44163313  1.0
  O  O39  1  0.42098205  -0.15132111  0.94163313  1.0
