# generated using pymatgen
data_Fe2Re5As12
_symmetry_space_group_name_H-M   'P 1'
_cell_length_a   12.86947096
_cell_length_b   15.83657625
_cell_length_c   3.12425978
_cell_angle_alpha   90.00000000
_cell_angle_beta   90.00000000
_cell_angle_gamma   90.00000000
_symmetry_Int_Tables_number   1
_chemical_formula_structural   Fe2Re5As12
_chemical_formula_sum   'Fe4 Re10 As24'
_cell_volume   636.75025697
_cell_formula_units_Z   2
loop_
 _symmetry_equiv_pos_site_id
 _symmetry_equiv_pos_as_xyz
  1  'x, y, z'
loop_
 _atom_site_type_symbol
 _atom_site_label
 _atom_site_symmetry_multiplicity
 _atom_site_fract_x
 _atom_site_fract_y
 _atom_site_fract_z
 _atom_site_occupancy
  Fe  Fe0  1  0.87525854  0.65485114  0.50000000  1.0
  Fe  Fe1  1  0.37525854  0.84514886  -0.00000000  1.0
  Fe  Fe2  1  0.12474146  0.34514886  0.50000000  1.0
  Fe  Fe3  1  0.62474146  0.15485114  -0.00000000  1.0
  Re  Re4  1  0.31557616  0.10433604  0.50000000  1.0
  Re  Re5  1  0.81557616  0.39566396  -0.00000000  1.0
  Re  Re6  1  0.68442384  0.89566396  0.50000000  1.0
  Re  Re7  1  0.18442384  0.60433604  -0.00000000  1.0
  Re  Re8  1  0.08672759  0.73835687  0.50000000  1.0
  Re  Re9  1  0.58672759  0.76164313  0.00000000  1.0
  Re  Re10  1  0.91327241  0.26164313  0.50000000  1.0
  Re  Re11  1  0.41327241  0.23835687  0.00000000  1.0
  Re  Re12  1  0.50000000  0.50000000  0.50000000  1.0
  Re  Re13  1  0.00000000  0.00000000  0.00000000  1.0
  As  As14  1  0.43281494  0.74055318  0.50000000  1.0
  As  As15  1  0.93281494  0.75944682  0.00000000  1.0
  As  As16  1  0.56718506  0.25944682  0.50000000  1.0
  As  As17  1  0.06718506  0.24055318  0.00000000  1.0
  As  As18  1  0.34597153  0.59447300  0.50000000  1.0
  As  As19  1  0.84597153  0.90552700  0.00000000  1.0
  As  As20  1  0.65402847  0.40552700  0.50000000  1.0
  As  As21  1  0.15402847  0.09447300  0.00000000  1.0
  As  As22  1  0.29355561  0.94028457  0.50000000  1.0
  As  As23  1  0.79355561  0.55971543  0.00000000  1.0
  As  As24  1  0.70644439  0.05971543  0.50000000  1.0
  As  As25  1  0.20644439  0.44028457  0.00000000  1.0
  As  As26  1  0.26806712  0.25889639  0.50000000  1.0
  As  As27  1  0.76806712  0.24110361  0.00000000  1.0
  As  As28  1  0.73193288  0.74110361  0.50000000  1.0
  As  As29  1  0.23193288  0.75889639  0.00000000  1.0
  As  As30  1  0.09673274  0.90293623  0.50000000  1.0
  As  As31  1  0.59673274  0.59706377  0.00000000  1.0
  As  As32  1  0.90326726  0.09706377  0.50000000  1.0
  As  As33  1  0.40326726  0.40293623  0.00000000  1.0
  As  As34  1  0.03248490  0.57944511  0.50000000  1.0
  As  As35  1  0.53248490  0.92055489  0.00000000  1.0
  As  As36  1  0.96751510  0.42055489  0.50000000  1.0
  As  As37  1  0.46751510  0.07944511  0.00000000  1.0
