# generated using pymatgen
data_Rb2MgH4
_symmetry_space_group_name_H-M   'P 1'
_cell_length_a   8.18771883
_cell_length_b   6.40672716
_cell_length_c   11.29784608
_cell_angle_alpha   90.00000000
_cell_angle_beta   90.00000000
_cell_angle_gamma   90.00000000
_symmetry_Int_Tables_number   1
_chemical_formula_structural   Rb2MgH4
_chemical_formula_sum   'Rb8 Mg4 H16'
_cell_volume   592.64524387
_cell_formula_units_Z   4
loop_
 _symmetry_equiv_pos_site_id
 _symmetry_equiv_pos_as_xyz
  1  'x, y, z'
loop_
 _atom_site_type_symbol
 _atom_site_label
 _atom_site_symmetry_multiplicity
 _atom_site_fract_x
 _atom_site_fract_y
 _atom_site_fract_z
 _atom_site_occupancy
  Rb  Rb0  1  0.84375503  0.75000000  0.42160294  1.0
  Rb  Rb1  1  0.34375503  0.75000000  0.07839706  1.0
  Rb  Rb2  1  0.15624497  0.25000000  0.57839706  1.0
  Rb  Rb3  1  0.65624497  0.25000000  0.92160294  1.0
  Rb  Rb4  1  0.50412427  0.75000000  0.69866531  1.0
  Rb  Rb5  1  0.00412427  0.75000000  0.80133469  1.0
  Rb  Rb6  1  0.49587573  0.25000000  0.30133469  1.0
  Rb  Rb7  1  0.99587573  0.25000000  0.19866531  1.0
  Mg  Mg8  1  0.77869565  0.75000000  0.08075184  1.0
  Mg  Mg9  1  0.27869565  0.75000000  0.41924816  1.0
  Mg  Mg10  1  0.22130435  0.25000000  0.91924816  1.0
  Mg  Mg11  1  0.72130435  0.25000000  0.58075184  1.0
  H  H12  1  0.69908178  0.98641303  0.15548569  1.0
  H  H13  1  0.69908178  0.51358697  0.15548569  1.0
  H  H14  1  0.19908178  0.98641303  0.34451431  1.0
  H  H15  1  0.19908178  0.51358697  0.34451431  1.0
  H  H16  1  0.30091822  0.48641303  0.84451431  1.0
  H  H17  1  0.30091822  0.01358697  0.84451431  1.0
  H  H18  1  0.80091822  0.48641303  0.65548569  1.0
  H  H19  1  0.80091822  0.01358697  0.65548569  1.0
  H  H20  1  1.00284470  0.75000000  0.07422019  1.0
  H  H21  1  0.50284470  0.75000000  0.42577981  1.0
  H  H22  1  -0.00284470  0.25000000  0.92577981  1.0
  H  H23  1  0.49715530  0.25000000  0.57422019  1.0
  H  H24  1  0.18421035  0.75000000  0.57020153  1.0
  H  H25  1  0.68421035  0.75000000  0.92979847  1.0
  H  H26  1  0.81578965  0.25000000  0.42979847  1.0
  H  H27  1  0.31578965  0.25000000  0.07020153  1.0
