# generated using pymatgen
data_K2Mo3O10
_symmetry_space_group_name_H-M   'P 1'
_cell_length_a   8.27799778
_cell_length_b   8.27799778
_cell_length_c   8.91109340
_cell_angle_alpha   82.30981701
_cell_angle_beta   97.69018299
_cell_angle_gamma   120.16597850
_symmetry_Int_Tables_number   1
_chemical_formula_structural   K2Mo3O10
_chemical_formula_sum   'K4 Mo6 O20'
_cell_volume   521.60873153
_cell_formula_units_Z   2
loop_
 _symmetry_equiv_pos_site_id
 _symmetry_equiv_pos_as_xyz
  1  'x, y, z'
loop_
 _atom_site_type_symbol
 _atom_site_label
 _atom_site_symmetry_multiplicity
 _atom_site_fract_x
 _atom_site_fract_y
 _atom_site_fract_z
 _atom_site_occupancy
  K  K0  1  0.58872212  0.22378702  0.65897709  1.0
  K  K1  1  0.77621298  0.41127788  0.15897709  1.0
  K  K2  1  1.22378702  0.58872212  0.84102291  1.0
  K  K3  1  0.41127788  -0.22378702  0.34102291  1.0
  Mo  Mo4  1  0.81584286  0.02729630  0.98572769  1.0
  Mo  Mo5  1  0.97270370  0.18415714  0.48572769  1.0
  Mo  Mo6  1  1.02729630  0.81584286  0.51427231  1.0
  Mo  Mo7  1  0.18415714  -0.02729630  0.01427231  1.0
  Mo  Mo8  1  0.70272813  0.70272813  0.75000000  1.0
  Mo  Mo9  1  0.29727187  0.29727187  0.25000000  1.0
  O  O10  1  0.88440302  -0.06353973  0.58747920  1.0
  O  O11  1  1.06353973  0.11559698  0.08747920  1.0
  O  O12  1  0.93646027  0.88440302  0.91252080  1.0
  O  O13  1  0.11559698  0.06353973  0.41252080  1.0
  O  O14  1  0.51766222  -0.37024055  0.61271269  1.0
  O  O15  1  1.37024055  0.48233778  0.11271269  1.0
  O  O16  1  0.62975945  0.51766222  0.88728731  1.0
  O  O17  1  0.48233778  0.37024055  0.38728731  1.0
  O  O18  1  0.64553046  -0.11979446  0.82572390  1.0
  O  O19  1  1.11979446  0.35446954  0.32572390  1.0
  O  O20  1  0.88020554  0.64553046  0.67427610  1.0
  O  O21  1  0.35446954  0.11979446  0.17427610  1.0
  O  O22  1  0.75509662  0.16525101  0.42569713  1.0
  O  O23  1  0.83474899  0.24490338  0.92569713  1.0
  O  O24  1  1.16525101  0.75509662  0.07430287  1.0
  O  O25  1  0.24490338  -0.16525101  0.57430287  1.0
  O  O26  1  0.31944907  0.06369021  0.86129179  1.0
  O  O27  1  0.93630979  0.68055093  0.36129179  1.0
  O  O28  1  1.06369021  0.31944907  0.63870821  1.0
  O  O29  1  0.68055093  -0.06369021  0.13870821  1.0
