# generated using pymatgen
data_Tc(CO)5
_symmetry_space_group_name_H-M   'P 1'
_cell_length_a   10.14078367
_cell_length_b   10.14078367
_cell_length_c   15.85961111
_cell_angle_alpha   55.80570881
_cell_angle_beta   124.19429119
_cell_angle_gamma   135.76822711
_symmetry_Int_Tables_number   1
_chemical_formula_structural   Tc(CO)5
_chemical_formula_sum   'Tc4 C20 O20'
_cell_volume   904.43089520
_cell_formula_units_Z   4
loop_
 _symmetry_equiv_pos_site_id
 _symmetry_equiv_pos_as_xyz
  1  'x, y, z'
loop_
 _atom_site_type_symbol
 _atom_site_label
 _atom_site_symmetry_multiplicity
 _atom_site_fract_x
 _atom_site_fract_y
 _atom_site_fract_z
 _atom_site_occupancy
  Tc  Tc0  1  1.07708367  -0.10988725  0.27368008  1.0
  Tc  Tc1  1  0.10988725  -0.07708367  0.77368008  1.0
  Tc  Tc2  1  0.89011275  0.07708367  0.22631992  1.0
  Tc  Tc3  1  0.92291633  -0.89011275  0.72631992  1.0
  C  C4  1  0.63242657  -0.13680630  0.16135246  1.0
  C  C5  1  1.13680630  -0.63242657  0.66135246  1.0
  C  C6  1  0.86319370  -0.36757343  0.33864754  1.0
  C  C7  1  0.36757343  0.13680630  0.83864754  1.0
  C  C8  1  1.19529722  -0.21900845  0.29791285  1.0
  C  C9  1  1.21900845  -0.19529722  0.79791285  1.0
  C  C10  1  1.78099155  0.19529722  0.20208715  1.0
  C  C11  1  0.80470278  -0.78099155  0.70208715  1.0
  C  C12  1  0.90374292  -0.15524844  0.13086426  1.0
  C  C13  1  0.15524844  0.09625708  0.63086426  1.0
  C  C14  1  0.84475156  -0.09625708  0.36913574  1.0
  C  C15  1  1.09625708  -0.84475156  0.86913574  1.0
  C  C16  1  1.28170141  0.16163803  0.20801068  1.0
  C  C17  1  0.83836197  0.71829859  0.70801068  1.0
  C  C18  1  1.16163803  0.28170141  0.29198932  1.0
  C  C19  1  1.71829859  -0.16163803  0.79198932  1.0
  C  C20  1  0.94836762  0.22934097  0.08648489  1.0
  C  C21  1  1.77065903  0.05163238  0.58648489  1.0
  C  C22  1  1.22934097  -0.05163238  0.41351511  1.0
  C  C23  1  1.05163238  0.77065903  0.91351511  1.0
  O  O24  1  0.74365434  -0.51854790  0.37882918  1.0
  O  O25  1  0.51854790  0.25634566  0.87882918  1.0
  O  O26  1  0.48145210  -0.25634566  0.12117082  1.0
  O  O27  1  1.25634566  -0.48145210  0.62117082  1.0
  O  O28  1  1.02109832  -0.31587181  -0.00469067  1.0
  O  O29  1  1.31587181  -0.02109832  0.49530933  1.0
  O  O30  1  1.68412819  0.02109832  0.50469067  1.0
  O  O31  1  0.97890168  -0.68412819  1.00469067  1.0
  O  O32  1  1.31733599  0.40203511  0.32883390  1.0
  O  O33  1  1.59796489  -0.31733599  0.82883390  1.0
  O  O34  1  1.40203511  0.31733599  0.17116610  1.0
  O  O35  1  0.68266401  0.59796489  0.67116610  1.0
  O  O36  1  1.26608175  -0.28385263  0.31131560  1.0
  O  O37  1  1.28385263  -0.26608175  0.81131560  1.0
  O  O38  1  0.71614737  -0.73391825  0.18868440  1.0
  O  O39  1  1.73391825  0.28385263  0.68868440  1.0
  O  O40  1  0.80399544  -0.18292740  0.04842503  1.0
  O  O41  1  1.18292740  -0.80399544  0.54842503  1.0
  O  O42  1  0.81707260  -0.19600456  0.45157497  1.0
  O  O43  1  0.19600456  0.18292740  0.95157497  1.0
