# generated using pymatgen
data_Li2Co(WO4)2
_symmetry_space_group_name_H-M   'P 1'
_cell_length_a   4.95829426
_cell_length_b   5.91425177
_cell_length_c   5.67829112
_cell_angle_alpha   110.25724247
_cell_angle_beta   116.14765908
_cell_angle_gamma   88.20929768
_symmetry_Int_Tables_number   1
_chemical_formula_structural   Li2Co(WO4)2
_chemical_formula_sum   'Li2 Co1 W2 O8'
_cell_volume   138.76451547
_cell_formula_units_Z   1
loop_
 _symmetry_equiv_pos_site_id
 _symmetry_equiv_pos_as_xyz
  1  'x, y, z'
loop_
 _atom_site_type_symbol
 _atom_site_label
 _atom_site_symmetry_multiplicity
 _atom_site_fract_x
 _atom_site_fract_y
 _atom_site_fract_z
 _atom_site_occupancy
  Li  Li0  1  0.03877219  0.74868461  0.57265201  1.0
  Li  Li1  1  -0.03877219  0.25131539  0.42734799  1.0
  Co  Co2  1  0.50000000  0.00000000  0.50000000  1.0
  W  W3  1  0.72763141  0.66466726  0.96653782  1.0
  W  W4  1  -0.72763141  0.33533274  0.03346218  1.0
  O  O5  1  -0.24462277  0.81075807  0.74813769  1.0
  O  O6  1  0.24462277  0.18924193  0.25186231  1.0
  O  O7  1  -0.17208564  0.33284451  0.77849084  1.0
  O  O8  1  0.17208564  0.66715549  0.22150916  1.0
  O  O9  1  -0.27587272  0.92010342  0.26311598  1.0
  O  O10  1  0.27587272  0.07989658  0.73688402  1.0
  O  O11  1  0.31796073  0.54396088  0.77599243  1.0
  O  O12  1  -0.31796073  0.45603912  0.22400757  1.0
