# generated using pymatgen
data_K2P3
_symmetry_space_group_name_H-M   'P 1'
_cell_length_a   8.62339973
_cell_length_b   8.42188763
_cell_length_c   6.41960489
_cell_angle_alpha   69.55178843
_cell_angle_beta   66.21890269
_cell_angle_gamma   44.22930888
_symmetry_Int_Tables_number   1
_chemical_formula_structural   K2P3
_chemical_formula_sum   'K4 P6'
_cell_volume   296.25882003
_cell_formula_units_Z   2
loop_
 _symmetry_equiv_pos_site_id
 _symmetry_equiv_pos_as_xyz
  1  'x, y, z'
loop_
 _atom_site_type_symbol
 _atom_site_label
 _atom_site_symmetry_multiplicity
 _atom_site_fract_x
 _atom_site_fract_y
 _atom_site_fract_z
 _atom_site_occupancy
  K  K0  1  -0.25000000  0.75000000  0.75000000  1.0
  K  K1  1  0.25000000  0.25000000  1.25000000  1.0
  K  K2  1  -0.27087346  0.27087346  0.72912654  1.0
  K  K3  1  0.27087346  -0.27087346  1.27087346  1.0
  P  P4  1  0.14100405  0.70829703  -0.14100405  1.0
  P  P5  1  -0.70829703  0.85899595  0.70829703  1.0
  P  P6  1  -0.29170297  1.14100405  0.29170297  1.0
  P  P7  1  -0.14100405  0.29170297  0.14100405  1.0
  P  P8  1  -0.15147425  0.84852575  0.15147425  1.0
  P  P9  1  0.15147425  0.15147425  -0.15147425  1.0
