# generated using pymatgen
data_K4Sr(SiO3)3
_symmetry_space_group_name_H-M   'P 1'
_cell_length_a   7.24456315
_cell_length_b   7.24456315
_cell_length_c   11.11488073
_cell_angle_alpha   90.00000000
_cell_angle_beta   90.00000000
_cell_angle_gamma   112.43566331
_symmetry_Int_Tables_number   1
_chemical_formula_structural   K4Sr(SiO3)3
_chemical_formula_sum   'K8 Sr2 Si6 O18'
_cell_volume   539.19546930
_cell_formula_units_Z   2
loop_
 _symmetry_equiv_pos_site_id
 _symmetry_equiv_pos_as_xyz
  1  'x, y, z'
loop_
 _atom_site_type_symbol
 _atom_site_label
 _atom_site_symmetry_multiplicity
 _atom_site_fract_x
 _atom_site_fract_y
 _atom_site_fract_z
 _atom_site_occupancy
  K  K0  1  0.48660892  0.96166727  0.25000000  1.0
  K  K1  1  0.03833273  0.51339108  0.75000000  1.0
  K  K2  1  0.02527219  0.08718110  0.25000000  1.0
  K  K3  1  0.91281890  0.97472781  0.75000000  1.0
  K  K4  1  0.31600144  0.68399856  0.50000000  1.0
  K  K5  1  0.31600144  0.68399856  0.00000000  1.0
  K  K6  1  -0.24596529  1.24596529  0.50000000  1.0
  K  K7  1  -0.24596529  1.24596529  0.00000000  1.0
  Sr  Sr8  1  -0.48867177  1.46683853  0.25000000  1.0
  Sr  Sr9  1  -0.46683853  1.48867177  0.75000000  1.0
  Si  Si10  1  -0.14915847  1.76273670  0.46864104  1.0
  Si  Si11  1  -0.76273670  1.14915847  0.96864104  1.0
  Si  Si12  1  -0.76273670  1.14915847  0.53135896  1.0
  Si  Si13  1  -0.14915847  1.76273670  0.03135896  1.0
  Si  Si14  1  -0.00070974  1.55693163  0.25000000  1.0
  Si  Si15  1  -0.55693163  1.00070974  0.75000000  1.0
  O  O16  1  -0.62965519  1.18827259  0.40985211  1.0
  O  O17  1  -0.18827259  1.62965519  0.90985211  1.0
  O  O18  1  -0.18827259  1.62965519  0.59014789  1.0
  O  O19  1  -0.62965519  1.18827259  0.09014789  1.0
  O  O20  1  -0.00703423  1.69282890  0.37178925  1.0
  O  O21  1  -0.69282890  1.00703423  0.87178925  1.0
  O  O22  1  -0.69282890  1.00703423  0.62821075  1.0
  O  O23  1  -0.00703423  1.69282890  0.12821075  1.0
  O  O24  1  0.23386207  0.34116296  0.89640182  1.0
  O  O25  1  0.65883704  0.76613793  0.39640182  1.0
  O  O26  1  0.65883704  0.76613793  0.10359818  1.0
  O  O27  1  0.23386207  0.34116296  0.60359818  1.0
  O  O28  1  0.21491912  0.54038491  0.25000000  1.0
  O  O29  1  0.45961509  0.78508088  0.75000000  1.0
  O  O30  1  -0.19399123  1.34742867  0.25000000  1.0
  O  O31  1  -0.34742867  1.19399123  0.75000000  1.0
  O  O32  1  -0.00384687  0.00384687  0.50000000  1.0
  O  O33  1  -0.00384687  0.00384687  0.00000000  1.0
