# generated using pymatgen
data_K2Ge3(BO5)2
_symmetry_space_group_name_H-M   'P 1'
_cell_length_a   8.66810487
_cell_length_b   8.66810487
_cell_length_c   12.08713010
_cell_angle_alpha   51.87198594
_cell_angle_beta   128.12801406
_cell_angle_gamma   137.73614071
_symmetry_Int_Tables_number   1
_chemical_formula_structural   K2Ge3(BO5)2
_chemical_formula_sum   'K4 Ge6 B4 O20'
_cell_volume   457.82673497
_cell_formula_units_Z   2
loop_
 _symmetry_equiv_pos_site_id
 _symmetry_equiv_pos_as_xyz
  1  'x, y, z'
loop_
 _atom_site_type_symbol
 _atom_site_label
 _atom_site_symmetry_multiplicity
 _atom_site_fract_x
 _atom_site_fract_y
 _atom_site_fract_z
 _atom_site_occupancy
  K  K0  1  0.94106140  0.24256533  0.61124523  1.0
  K  K1  1  1.24256533  -0.05893860  0.38875477  1.0
  K  K2  1  1.10590884  0.58344498  0.11162938  1.0
  K  K3  1  1.58344498  0.10590884  0.88837062  1.0
  Ge  Ge4  1  0.61815379  -0.46348576  0.17431061  1.0
  Ge  Ge5  1  0.53651424  -0.38184621  0.82568939  1.0
  Ge  Ge6  1  0.70462243  -0.04647095  0.31757539  1.0
  Ge  Ge7  1  0.95352905  -0.29537757  0.68242461  1.0
  Ge  Ge8  1  1.25637040  0.25637040  0.50000000  1.0
  Ge  Ge9  1  0.00217798  0.00217798  -0.00000000  1.0
  B  B10  1  0.67591139  -0.47642489  0.43881467  1.0
  B  B11  1  0.52357511  -0.32408861  0.56118533  1.0
  B  B12  1  0.49427360  0.21202759  0.07931439  1.0
  B  B13  1  1.21202759  -0.50572640  0.92068561  1.0
  O  O14  1  0.67742551  0.40449790  0.14949576  1.0
  O  O15  1  1.40449790  -0.32257449  0.85050424  1.0
  O  O16  1  1.29204191  0.49926978  0.47961054  1.0
  O  O17  1  1.49926978  0.29204191  0.52038946  1.0
  O  O18  1  1.15956541  0.02140788  0.65959261  1.0
  O  O19  1  1.02140788  0.15956541  0.34040739  1.0
  O  O20  1  0.83252690  -0.14241677  0.11230582  1.0
  O  O21  1  0.85758323  -0.16747310  0.88769418  1.0
  O  O22  1  1.31483097  0.44148329  0.08486085  1.0
  O  O23  1  1.44148329  0.31483097  0.91513915  1.0
  O  O24  1  0.70781605  -0.54020901  0.36831820  1.0
  O  O25  1  0.45979099  -0.29218395  0.63168180  1.0
  O  O26  1  0.59047914  0.08399940  0.12960047  1.0
  O  O27  1  1.08399940  -0.40952086  0.87039953  1.0
  O  O28  1  0.58350948  -0.32648393  0.32240171  1.0
  O  O29  1  0.67351607  -0.41649052  0.67759829  1.0
  O  O30  1  0.27133258  0.02680679  0.12417191  1.0
  O  O31  1  1.02680679  -0.72866742  0.87582809  1.0
  O  O32  1  0.65097942  -0.08339881  0.45505976  1.0
  O  O33  1  0.91660119  -0.34902058  0.54494024  1.0
