# generated using pymatgen
data_Ba6Na2Nb2P2O17
_symmetry_space_group_name_H-M   'P 1'
_cell_length_a   5.88892267
_cell_length_b   5.88892267
_cell_length_c   14.72095738
_cell_angle_alpha   90.00000000
_cell_angle_beta   90.00000000
_cell_angle_gamma   120.00000000
_symmetry_Int_Tables_number   1
_chemical_formula_structural   Ba6Na2Nb2P2O17
_chemical_formula_sum   'Ba6 Na2 Nb2 P2 O17'
_cell_volume   442.11819715
_cell_formula_units_Z   1
loop_
 _symmetry_equiv_pos_site_id
 _symmetry_equiv_pos_as_xyz
  1  'x, y, z'
loop_
 _atom_site_type_symbol
 _atom_site_label
 _atom_site_symmetry_multiplicity
 _atom_site_fract_x
 _atom_site_fract_y
 _atom_site_fract_z
 _atom_site_occupancy
  Ba  Ba0  1  0.33333333  0.66666667  0.31934023  1.0
  Ba  Ba1  1  0.66666667  0.33333333  0.68065977  1.0
  Ba  Ba2  1  0.33333333  0.66666667  0.84543618  1.0
  Ba  Ba3  1  0.66666667  0.33333333  0.15456382  1.0
  Ba  Ba4  1  0.00000000  0.00000000  0.50000000  1.0
  Ba  Ba5  1  0.00000000  0.00000000  0.00000000  1.0
  Na  Na6  1  0.00000000  0.00000000  0.25288034  1.0
  Na  Na7  1  0.00000000  0.00000000  0.74711966  1.0
  Nb  Nb8  1  0.33333333  0.66666667  0.08802741  1.0
  Nb  Nb9  1  0.66666667  0.33333333  0.91197259  1.0
  P  P10  1  0.33333333  0.66666667  0.60427582  1.0
  P  P11  1  0.66666667  0.33333333  0.39572418  1.0
  O  O12  1  0.64547528  0.82273764  0.15998360  1.0
  O  O13  1  0.82273764  0.64547528  0.84001640  1.0
  O  O14  1  0.82273764  0.17726236  0.84001640  1.0
  O  O15  1  0.17726236  0.82273764  0.15998360  1.0
  O  O16  1  0.17726236  0.35452472  0.15998360  1.0
  O  O17  1  0.35452472  0.17726236  0.84001640  1.0
  O  O18  1  0.37793154  0.18896577  0.35745948  1.0
  O  O19  1  0.18896577  0.37793154  0.64254052  1.0
  O  O20  1  0.18896577  0.81103423  0.64254052  1.0
  O  O21  1  0.81103423  0.18896577  0.35745948  1.0
  O  O22  1  0.81103423  0.62206846  0.35745948  1.0
  O  O23  1  0.62206846  0.81103423  0.64254052  1.0
  O  O24  1  0.50000000  0.50000000  0.00000000  1.0
  O  O25  1  0.50000000  0.00000000  0.00000000  1.0
  O  O26  1  -0.00000000  0.50000000  0.00000000  1.0
  O  O27  1  0.33333333  0.66666667  0.49933182  1.0
  O  O28  1  0.66666667  0.33333333  0.50066818  1.0
