# generated using pymatgen
data_BaHgSe2
_symmetry_space_group_name_H-M   'P 1'
_cell_length_a   4.45936782
_cell_length_b   15.09780134
_cell_length_c   7.71255817
_cell_angle_alpha   90.00000000
_cell_angle_beta   90.00000000
_cell_angle_gamma   90.00000000
_symmetry_Int_Tables_number   1
_chemical_formula_structural   BaHgSe2
_chemical_formula_sum   'Ba4 Hg4 Se8'
_cell_volume   519.26070027
_cell_formula_units_Z   4
loop_
 _symmetry_equiv_pos_site_id
 _symmetry_equiv_pos_as_xyz
  1  'x, y, z'
loop_
 _atom_site_type_symbol
 _atom_site_label
 _atom_site_symmetry_multiplicity
 _atom_site_fract_x
 _atom_site_fract_y
 _atom_site_fract_z
 _atom_site_occupancy
  Ba  Ba0  1  0.00000000  0.10084480  0.52954085  1.0
  Ba  Ba1  1  0.00000000  0.89915520  0.02954085  1.0
  Ba  Ba2  1  0.00000000  0.39042107  0.85261352  1.0
  Ba  Ba3  1  0.00000000  0.60957893  0.35261352  1.0
  Hg  Hg4  1  0.50000000  0.14328653  0.03812543  1.0
  Hg  Hg5  1  0.50000000  0.85671347  0.53812543  1.0
  Hg  Hg6  1  0.50000000  0.35254656  0.37045870  1.0
  Hg  Hg7  1  0.50000000  0.64745344  0.87045870  1.0
  Se  Se8  1  0.50000000  0.47041594  0.14250235  1.0
  Se  Se9  1  0.50000000  0.52958406  0.64250235  1.0
  Se  Se10  1  0.00000000  0.22492624  0.14946067  1.0
  Se  Se11  1  0.00000000  0.77507376  0.64946067  1.0
  Se  Se12  1  0.50000000  0.26069332  0.64012033  1.0
  Se  Se13  1  0.50000000  0.73930668  0.14012033  1.0
  Se  Se14  1  0.50000000  0.01674720  0.80593815  1.0
  Se  Se15  1  0.50000000  0.98325280  0.30593815  1.0
