# generated using pymatgen
data_CuReO4
_symmetry_space_group_name_H-M   'P 1'
_cell_length_a   10.71532840
_cell_length_b   10.71532840
_cell_length_c   10.71532840
_cell_angle_alpha   97.04924439
_cell_angle_beta   97.04924439
_cell_angle_gamma   138.98652476
_symmetry_Int_Tables_number   1
_chemical_formula_structural   CuReO4
_chemical_formula_sum   'Cu8 Re8 O32'
_cell_volume   756.21514801
_cell_formula_units_Z   8
loop_
 _symmetry_equiv_pos_site_id
 _symmetry_equiv_pos_as_xyz
  1  'x, y, z'
loop_
 _atom_site_type_symbol
 _atom_site_label
 _atom_site_symmetry_multiplicity
 _atom_site_fract_x
 _atom_site_fract_y
 _atom_site_fract_z
 _atom_site_occupancy
  Cu  Cu0  1  1.35519938  1.59382717  1.54859646  1.0
  Cu  Cu1  1  0.85519938  0.30660292  0.76137221  1.0
  Cu  Cu2  1  0.84382717  1.10519938  1.04859646  1.0
  Cu  Cu3  1  1.34382717  1.29523071  0.73862779  1.0
  Cu  Cu4  1  0.54523071  1.09382717  1.23862779  1.0
  Cu  Cu5  1  1.04523071  0.80660292  0.45140354  1.0
  Cu  Cu6  1  1.55660292  1.60519938  1.26137221  1.0
  Cu  Cu7  1  1.05660292  0.79523071  0.95140354  1.0
  Re  Re8  1  0.85429252  0.89721482  1.75868315  1.0
  Re  Re9  1  1.35429252  0.59560937  0.95707769  1.0
  Re  Re10  1  1.14721482  1.60429252  1.25868315  1.0
  Re  Re11  1  0.64721482  0.38853168  0.54292231  1.0
  Re  Re12  1  0.63853168  1.39721482  1.04292231  1.0
  Re  Re13  1  0.13853168  0.09560937  0.24131685  1.0
  Re  Re14  1  0.84560937  1.10429252  1.45707769  1.0
  Re  Re15  1  1.34560937  0.88853168  0.74131685  1.0
  O  O16  1  0.87051072  0.76296103  0.81854011  1.0
  O  O17  1  1.37051072  1.55197061  1.10754969  1.0
  O  O18  1  1.01296103  1.62051072  1.31854011  1.0
  O  O19  1  0.51296103  0.19442092  0.39245031  1.0
  O  O20  1  1.44442092  1.26296103  0.89245031  1.0
  O  O21  1  0.94442092  1.05197061  1.18145989  1.0
  O  O22  1  0.80197061  1.12051072  1.60754969  1.0
  O  O23  1  1.30197061  0.69442092  0.68145989  1.0
  O  O24  1  1.39785303  1.50364153  1.84840681  1.0
  O  O25  1  0.89785303  0.04944622  0.89421150  1.0
  O  O26  1  0.75364153  1.14785303  1.34840681  1.0
  O  O27  1  1.25364153  0.90523472  0.60578850  1.0
  O  O28  1  0.15523472  1.00364153  1.10578850  1.0
  O  O29  1  0.65523472  0.54944622  0.15159319  1.0
  O  O30  1  1.29944622  1.64785303  1.39421150  1.0
  O  O31  1  0.79944622  0.40523472  0.65159319  1.0
  O  O32  1  0.80390729  0.61776612  0.51035351  1.0
  O  O33  1  1.30390729  1.79355377  1.18614116  1.0
  O  O34  1  0.86776612  1.55390729  1.01035351  1.0
  O  O35  1  0.36776612  0.35741261  0.31385884  1.0
  O  O36  1  1.60741261  1.11776612  0.81385884  1.0
  O  O37  1  1.10741261  1.29355377  1.48964649  1.0
  O  O38  1  1.04355378  1.05390729  1.68614116  1.0
  O  O39  1  1.54355377  0.85741261  0.98964649  1.0
  O  O40  1  1.61407883  1.72796467  1.64183708  1.0
  O  O41  1  1.11407883  0.47224176  0.88611416  1.0
  O  O42  1  0.97796467  1.36407883  1.14183708  1.0
  O  O43  1  0.47796467  0.33612760  0.61388584  1.0
  O  O44  1  0.58612760  1.22796467  1.11388584  1.0
  O  O45  1  1.08612760  0.97224176  0.35816292  1.0
  O  O46  1  0.72224176  0.86407883  1.38611416  1.0
  O  O47  1  1.22224176  0.83612760  0.85816292  1.0
