# generated using pymatgen
data_CaAl9Ni
_symmetry_space_group_name_H-M   'P 1'
_cell_length_a   7.56927358
_cell_length_b   7.56927358
_cell_length_c   7.95234054
_cell_angle_alpha   90.00000000
_cell_angle_beta   90.00000000
_cell_angle_gamma   120.00000000
_symmetry_Int_Tables_number   1
_chemical_formula_structural   CaAl9Ni
_chemical_formula_sum   'Ca2 Al18 Ni2'
_cell_volume   394.57903495
_cell_formula_units_Z   2
loop_
 _symmetry_equiv_pos_site_id
 _symmetry_equiv_pos_as_xyz
  1  'x, y, z'
loop_
 _atom_site_type_symbol
 _atom_site_label
 _atom_site_symmetry_multiplicity
 _atom_site_fract_x
 _atom_site_fract_y
 _atom_site_fract_z
 _atom_site_occupancy
  Ca  Ca0  1  -0.00000000  -0.00000000  0.25000000  1.0
  Ca  Ca1  1  0.00000000  0.00000000  0.75000000  1.0
  Al  Al2  1  0.20798227  0.79201773  0.48358937  1.0
  Al  Al3  1  0.20798227  0.79201773  0.01641063  1.0
  Al  Al4  1  0.20798227  0.41596454  0.48358937  1.0
  Al  Al5  1  0.20798227  0.41596454  0.01641063  1.0
  Al  Al6  1  0.79201773  0.20798227  0.98358937  1.0
  Al  Al7  1  0.79201773  0.20798227  0.51641063  1.0
  Al  Al8  1  0.79201773  0.58403546  0.98358937  1.0
  Al  Al9  1  0.79201773  0.58403546  0.51641063  1.0
  Al  Al10  1  0.58403546  0.79201773  0.48358937  1.0
  Al  Al11  1  0.58403546  0.79201773  0.01641063  1.0
  Al  Al12  1  0.41596454  0.20798227  0.98358937  1.0
  Al  Al13  1  0.41596454  0.20798227  0.51641063  1.0
  Al  Al14  1  0.52403816  0.47596184  0.25000000  1.0
  Al  Al15  1  0.52403816  0.04807632  0.25000000  1.0
  Al  Al16  1  0.47596184  0.52403816  0.75000000  1.0
  Al  Al17  1  0.47596184  0.95192368  0.75000000  1.0
  Al  Al18  1  0.95192368  0.47596184  0.25000000  1.0
  Al  Al19  1  0.04807632  0.52403816  0.75000000  1.0
  Ni  Ni20  1  0.33333333  0.66666667  0.25000000  1.0
  Ni  Ni21  1  0.66666667  0.33333333  0.75000000  1.0
