# generated using pymatgen
data_Sc2S3
_symmetry_space_group_name_H-M   'P 1'
_cell_length_a   6.75167466
_cell_length_b   6.19629611
_cell_length_c   9.56740523
_cell_angle_alpha   90.00000000
_cell_angle_beta   90.00000000
_cell_angle_gamma   90.00000000
_symmetry_Int_Tables_number   1
_chemical_formula_structural   Sc2S3
_chemical_formula_sum   'Sc8 S12'
_cell_volume   400.25598994
_cell_formula_units_Z   4
loop_
 _symmetry_equiv_pos_site_id
 _symmetry_equiv_pos_as_xyz
  1  'x, y, z'
loop_
 _atom_site_type_symbol
 _atom_site_label
 _atom_site_symmetry_multiplicity
 _atom_site_fract_x
 _atom_site_fract_y
 _atom_site_fract_z
 _atom_site_occupancy
  Sc  Sc0  1  0.60397255  0.45302073  0.50901774  1.0
  Sc  Sc1  1  0.39602745  0.54697927  0.00901774  1.0
  Sc  Sc2  1  0.89602745  0.95302073  0.00901774  1.0
  Sc  Sc3  1  0.10397255  0.04697927  0.50901774  1.0
  Sc  Sc4  1  0.50003782  -0.00000089  0.25902739  1.0
  Sc  Sc5  1  0.49996218  1.00000089  0.75902739  1.0
  Sc  Sc6  1  0.99996218  0.49999911  0.75902739  1.0
  Sc  Sc7  1  0.00003782  0.50000089  0.25902739  1.0
  S  S8  1  0.81822035  0.17432871  0.67460784  1.0
  S  S9  1  0.18177965  0.82567129  0.17460784  1.0
  S  S10  1  0.68177965  0.67432871  0.17460784  1.0
  S  S11  1  0.31822035  0.32567129  0.67460784  1.0
  S  S12  1  0.81834530  0.17428580  0.34334630  1.0
  S  S13  1  0.18165470  0.82571420  0.84334630  1.0
  S  S14  1  0.68165470  0.67428580  0.84334630  1.0
  S  S15  1  0.31834530  0.32571420  0.34334630  1.0
  S  S16  1  0.56126022  0.16174621  0.00900073  1.0
  S  S17  1  0.43873978  0.83825379  0.50900073  1.0
  S  S18  1  0.93873978  0.66174621  0.50900073  1.0
  S  S19  1  0.06126022  0.33825379  0.00900073  1.0
