# generated using pymatgen
data_La5Si5I3
_symmetry_space_group_name_H-M   'P 1'
_cell_length_a   12.31448340
_cell_length_b   12.31448340
_cell_length_c   15.85736426
_cell_angle_alpha   69.89809659
_cell_angle_beta   110.10190341
_cell_angle_gamma   160.02630503
_symmetry_Int_Tables_number   1
_chemical_formula_structural   La5Si5I3
_chemical_formula_sum   'La10 Si10 I6'
_cell_volume   769.78068504
_cell_formula_units_Z   2
loop_
 _symmetry_equiv_pos_site_id
 _symmetry_equiv_pos_as_xyz
  1  'x, y, z'
loop_
 _atom_site_type_symbol
 _atom_site_label
 _atom_site_symmetry_multiplicity
 _atom_site_fract_x
 _atom_site_fract_y
 _atom_site_fract_z
 _atom_site_occupancy
  La  La0  1  0.91439471  0.08560529  0.43736774  1.0
  La  La1  1  0.08560529  -0.08560529  0.56263226  1.0
  La  La2  1  0.66210477  0.33789523  0.05849763  1.0
  La  La3  1  0.33789523  -0.33789523  0.94150237  1.0
  La  La4  1  0.73850698  0.26149302  0.32993729  1.0
  La  La5  1  0.26149302  -0.26149302  0.67006271  1.0
  La  La6  1  0.83584616  0.16415384  0.16620714  1.0
  La  La7  1  0.16415384  -0.16415384  0.83379286  1.0
  La  La8  1  0.01643176  -0.01643176  0.29074189  1.0
  La  La9  1  0.98356824  0.01643176  0.70925811  1.0
  Si  Si10  1  0.42396811  -0.42396811  0.29357420  1.0
  Si  Si11  1  0.57603189  0.42396811  0.70642580  1.0
  Si  Si12  1  0.25042928  -0.25042928  0.03994880  1.0
  Si  Si13  1  0.74957072  0.25042928  0.96005120  1.0
  Si  Si14  1  0.50828240  0.49171760  0.42717522  1.0
  Si  Si15  1  0.49171760  -0.49171760  0.57282478  1.0
  Si  Si16  1  0.24096145  -0.24096145  0.18986449  1.0
  Si  Si17  1  0.75903855  0.24096145  0.81013551  1.0
  Si  Si18  1  0.32830441  -0.32830441  0.31862248  1.0
  Si  Si19  1  0.67169559  0.32830441  0.68137752  1.0
  I  I20  1  0.17314801  -0.17314801  0.43736069  1.0
  I  I21  1  0.82685199  0.17314801  0.56263931  1.0
  I  I22  1  0.59133738  0.40866262  0.20581638  1.0
  I  I23  1  0.40866262  -0.40866262  0.79418362  1.0
  I  I24  1  0.93859423  0.06140577  0.06752267  1.0
  I  I25  1  0.06140577  -0.06140577  0.93247733  1.0
