# generated using pymatgen
data_Re8Ni5Mo2
_symmetry_space_group_name_H-M   'P 1'
_cell_length_a   9.14200952
_cell_length_b   9.14200952
_cell_length_c   4.89515118
_cell_angle_alpha   90.00000000
_cell_angle_beta   90.00000000
_cell_angle_gamma   90.00000000
_symmetry_Int_Tables_number   1
_chemical_formula_structural   Re8Ni5Mo2
_chemical_formula_sum   'Re16 Ni10 Mo4'
_cell_volume   409.11880958
_cell_formula_units_Z   2
loop_
 _symmetry_equiv_pos_site_id
 _symmetry_equiv_pos_as_xyz
  1  'x, y, z'
loop_
 _atom_site_type_symbol
 _atom_site_label
 _atom_site_symmetry_multiplicity
 _atom_site_fract_x
 _atom_site_fract_y
 _atom_site_fract_z
 _atom_site_occupancy
  Re  Re0  1  0.36441376  0.96989320  0.50000000  1.0
  Re  Re1  1  0.63558624  0.03010680  0.50000000  1.0
  Re  Re2  1  0.13558624  0.46989320  0.00000000  1.0
  Re  Re3  1  0.86441376  0.53010680  0.00000000  1.0
  Re  Re4  1  0.96989320  0.36441376  0.50000000  1.0
  Re  Re5  1  0.03010680  0.63558624  0.50000000  1.0
  Re  Re6  1  0.46989320  0.13558624  0.00000000  1.0
  Re  Re7  1  0.53010680  0.86441376  0.00000000  1.0
  Re  Re8  1  0.31296694  0.68703306  0.24926604  1.0
  Re  Re9  1  0.68703306  0.31296694  0.24926604  1.0
  Re  Re10  1  0.18703306  0.18703306  0.74926604  1.0
  Re  Re11  1  0.81296694  0.81296694  0.74926604  1.0
  Re  Re12  1  0.68703306  0.31296694  0.75073396  1.0
  Re  Re13  1  0.31296694  0.68703306  0.75073396  1.0
  Re  Re14  1  0.81296694  0.81296694  0.25073396  1.0
  Re  Re15  1  0.18703306  0.18703306  0.25073396  1.0
  Ni  Ni16  1  0.50000000  0.50000000  0.50000000  1.0
  Ni  Ni17  1  0.00000000  0.00000000  0.00000000  1.0
  Ni  Ni18  1  0.43993836  0.24113071  0.50000000  1.0
  Ni  Ni19  1  0.56006164  0.75886929  0.50000000  1.0
  Ni  Ni20  1  0.06006164  0.74113071  0.00000000  1.0
  Ni  Ni21  1  0.93993836  0.25886929  0.00000000  1.0
  Ni  Ni22  1  0.24113071  0.43993836  0.50000000  1.0
  Ni  Ni23  1  0.75886929  0.56006164  0.50000000  1.0
  Ni  Ni24  1  0.74113071  0.06006164  0.00000000  1.0
  Ni  Ni25  1  0.25886929  0.93993836  0.00000000  1.0
  Mo  Mo26  1  0.10157707  0.89842293  0.50000000  1.0
  Mo  Mo27  1  0.89842293  0.10157707  0.50000000  1.0
  Mo  Mo28  1  0.39842293  0.39842293  0.00000000  1.0
  Mo  Mo29  1  0.60157707  0.60157707  0.00000000  1.0
