# generated using pymatgen
data_Mn2SiS4
_symmetry_space_group_name_H-M   'P 1'
_cell_length_a   12.73843318
_cell_length_b   7.45513339
_cell_length_c   5.94369671
_cell_angle_alpha   90.00000000
_cell_angle_beta   90.00000000
_cell_angle_gamma   90.00000000
_symmetry_Int_Tables_number   1
_chemical_formula_structural   Mn2SiS4
_chemical_formula_sum   'Mn8 Si4 S16'
_cell_volume   564.45337281
_cell_formula_units_Z   4
loop_
 _symmetry_equiv_pos_site_id
 _symmetry_equiv_pos_as_xyz
  1  'x, y, z'
loop_
 _atom_site_type_symbol
 _atom_site_label
 _atom_site_symmetry_multiplicity
 _atom_site_fract_x
 _atom_site_fract_y
 _atom_site_fract_z
 _atom_site_occupancy
  Mn  Mn0  1  0.76851735  0.25000000  0.50749390  1.0
  Mn  Mn1  1  0.26851735  0.25000000  -0.00749390  1.0
  Mn  Mn2  1  0.23148265  0.75000000  0.49250610  1.0
  Mn  Mn3  1  0.73148265  0.75000000  1.00749390  1.0
  Mn  Mn4  1  0.00000000  0.50000000  0.00000000  1.0
  Mn  Mn5  1  0.00000000  0.00000000  0.00000000  1.0
  Mn  Mn6  1  0.50000000  0.50000000  0.50000000  1.0
  Mn  Mn7  1  0.50000000  0.00000000  0.50000000  1.0
  Si  Si8  1  0.58981533  0.25000000  0.09150943  1.0
  Si  Si9  1  0.08981533  0.25000000  0.40849057  1.0
  Si  Si10  1  0.41018467  0.75000000  0.90849057  1.0
  Si  Si11  1  0.91018467  0.75000000  0.59150943  1.0
  S  S12  1  0.66680386  0.47635763  0.24613637  1.0
  S  S13  1  0.66680386  0.02364237  0.24613637  1.0
  S  S14  1  0.16680386  0.47635763  0.25386363  1.0
  S  S15  1  0.16680386  0.02364237  0.25386363  1.0
  S  S16  1  0.33319614  0.97635763  0.75386363  1.0
  S  S17  1  0.33319614  0.52364237  0.75386363  1.0
  S  S18  1  0.83319614  0.97635763  0.74613637  1.0
  S  S19  1  0.83319614  0.52364237  0.74613637  1.0
  S  S20  1  0.93443203  0.25000000  0.26259098  1.0
  S  S21  1  0.43443203  0.25000000  0.23740902  1.0
  S  S22  1  0.06556797  0.75000000  0.73740902  1.0
  S  S23  1  0.56556797  0.75000000  0.76259098  1.0
  S  S24  1  0.59258524  0.25000000  0.73364559  1.0
  S  S25  1  0.09258524  0.25000000  0.76635441  1.0
  S  S26  1  0.40741476  0.75000000  0.26635441  1.0
  S  S27  1  0.90741476  0.75000000  0.23364559  1.0
