# generated using pymatgen
data_Ti8Bi9
_symmetry_space_group_name_H-M   'P 1'
_cell_length_a   10.30729295
_cell_length_b   10.30729295
_cell_length_c   7.45170024
_cell_angle_alpha   90.00000000
_cell_angle_beta   90.00000000
_cell_angle_gamma   90.00000000
_symmetry_Int_Tables_number   1
_chemical_formula_structural   Ti8Bi9
_chemical_formula_sum   'Ti16 Bi18'
_cell_volume   791.67077974
_cell_formula_units_Z   2
loop_
 _symmetry_equiv_pos_site_id
 _symmetry_equiv_pos_as_xyz
  1  'x, y, z'
loop_
 _atom_site_type_symbol
 _atom_site_label
 _atom_site_symmetry_multiplicity
 _atom_site_fract_x
 _atom_site_fract_y
 _atom_site_fract_z
 _atom_site_occupancy
  Ti  Ti0  1  0.35823478  0.50000000  0.85231713  1.0
  Ti  Ti1  1  0.64176522  0.50000000  0.85231713  1.0
  Ti  Ti2  1  0.00000000  0.85823478  0.85231713  1.0
  Ti  Ti3  1  0.00000000  0.14176522  0.85231713  1.0
  Ti  Ti4  1  0.14176522  0.00000000  0.14768287  1.0
  Ti  Ti5  1  0.85823478  0.00000000  0.14768287  1.0
  Ti  Ti6  1  0.50000000  0.64176522  0.14768287  1.0
  Ti  Ti7  1  0.50000000  0.35823478  0.14768287  1.0
  Ti  Ti8  1  0.75000000  0.25000000  0.00000000  1.0
  Ti  Ti9  1  0.25000000  0.25000000  0.00000000  1.0
  Ti  Ti10  1  0.75000000  0.75000000  0.00000000  1.0
  Ti  Ti11  1  0.25000000  0.75000000  0.00000000  1.0
  Ti  Ti12  1  0.00000000  0.50000000  0.92062853  1.0
  Ti  Ti13  1  0.50000000  0.00000000  0.07937147  1.0
  Ti  Ti14  1  0.00000000  0.50000000  0.42531234  1.0
  Ti  Ti15  1  0.50000000  0.00000000  0.57468766  1.0
  Bi  Bi16  1  0.83491254  0.33491254  0.65392630  1.0
  Bi  Bi17  1  0.16508746  0.33491254  0.65392630  1.0
  Bi  Bi18  1  0.83491254  0.66508746  0.65392630  1.0
  Bi  Bi19  1  0.16508746  0.66508746  0.65392630  1.0
  Bi  Bi20  1  0.66508746  0.16508746  0.34607370  1.0
  Bi  Bi21  1  0.33491254  0.16508746  0.34607370  1.0
  Bi  Bi22  1  0.66508746  0.83491254  0.34607370  1.0
  Bi  Bi23  1  0.33491254  0.83491254  0.34607370  1.0
  Bi  Bi24  1  0.76320324  0.50000000  0.19295656  1.0
  Bi  Bi25  1  0.23679676  0.50000000  0.19295656  1.0
  Bi  Bi26  1  0.00000000  0.26320324  0.19295656  1.0
  Bi  Bi27  1  0.00000000  0.73679676  0.19295656  1.0
  Bi  Bi28  1  0.73679676  0.00000000  0.80704344  1.0
  Bi  Bi29  1  0.26320324  0.00000000  0.80704344  1.0
  Bi  Bi30  1  0.50000000  0.23679676  0.80704344  1.0
  Bi  Bi31  1  0.50000000  0.76320324  0.80704344  1.0
  Bi  Bi32  1  0.00000000  0.00000000  0.50000000  1.0
  Bi  Bi33  1  0.50000000  0.50000000  0.50000000  1.0
