# generated using pymatgen
data_K2SrV4O12
_symmetry_space_group_name_H-M   'P 1'
_cell_length_a   11.03555148
_cell_length_b   11.03555148
_cell_length_c   5.39907473
_cell_angle_alpha   90.00000000
_cell_angle_beta   90.00000000
_cell_angle_gamma   90.00000000
_symmetry_Int_Tables_number   1
_chemical_formula_structural   K2SrV4O12
_chemical_formula_sum   'K4 Sr2 V8 O24'
_cell_volume   657.51765823
_cell_formula_units_Z   2
loop_
 _symmetry_equiv_pos_site_id
 _symmetry_equiv_pos_as_xyz
  1  'x, y, z'
loop_
 _atom_site_type_symbol
 _atom_site_label
 _atom_site_symmetry_multiplicity
 _atom_site_fract_x
 _atom_site_fract_y
 _atom_site_fract_z
 _atom_site_occupancy
  K  K0  1  0.25000000  0.25000000  0.50000000  1.0
  K  K1  1  0.75000000  0.25000000  0.50000000  1.0
  K  K2  1  0.25000000  0.75000000  0.50000000  1.0
  K  K3  1  0.75000000  0.75000000  0.50000000  1.0
  Sr  Sr4  1  0.50000000  0.50000000  0.50000000  1.0
  Sr  Sr5  1  0.00000000  0.00000000  0.50000000  1.0
  V  V6  1  0.50000000  0.78085769  0.00000000  1.0
  V  V7  1  0.00000000  0.71914231  0.00000000  1.0
  V  V8  1  0.00000000  0.28085769  0.00000000  1.0
  V  V9  1  0.50000000  0.21914231  0.00000000  1.0
  V  V10  1  0.78085769  0.50000000  0.00000000  1.0
  V  V11  1  0.71914231  0.00000000  0.00000000  1.0
  V  V12  1  0.28085769  0.00000000  0.00000000  1.0
  V  V13  1  0.21914231  0.50000000  0.00000000  1.0
  O  O14  1  0.62417849  0.87582151  0.10008002  1.0
  O  O15  1  0.12417849  0.62417849  0.10008002  1.0
  O  O16  1  0.87582151  0.37582151  0.10008002  1.0
  O  O17  1  0.37582151  0.12417849  0.10008002  1.0
  O  O18  1  0.87582151  0.62417849  0.89991998  1.0
  O  O19  1  0.37582151  0.87582151  0.89991998  1.0
  O  O20  1  0.62417849  0.12417849  0.89991998  1.0
  O  O21  1  0.12417849  0.37582151  0.89991998  1.0
  O  O22  1  0.30423618  0.45666984  0.23637684  1.0
  O  O23  1  0.80423618  0.04333016  0.23637684  1.0
  O  O24  1  0.19576382  0.95666984  0.23637684  1.0
  O  O25  1  0.69576382  0.54333016  0.23637684  1.0
  O  O26  1  0.19576382  0.04333016  0.76362316  1.0
  O  O27  1  0.69576382  0.45666984  0.76362316  1.0
  O  O28  1  0.30423618  0.54333016  0.76362316  1.0
  O  O29  1  0.80423618  0.95666984  0.76362316  1.0
  O  O30  1  0.45666984  0.30423618  0.76362316  1.0
  O  O31  1  0.04333016  0.80423618  0.76362316  1.0
  O  O32  1  0.95666984  0.19576382  0.76362316  1.0
  O  O33  1  0.54333016  0.69576382  0.76362316  1.0
  O  O34  1  0.04333016  0.19576382  0.23637684  1.0
  O  O35  1  0.45666984  0.69576382  0.23637684  1.0
  O  O36  1  0.54333016  0.30423618  0.23637684  1.0
  O  O37  1  0.95666984  0.80423618  0.23637684  1.0
