# generated using pymatgen
data_Au2Se4O11
_symmetry_space_group_name_H-M   'P 1'
_cell_length_a   10.71497841
_cell_length_b   10.71497841
_cell_length_c   13.89085626
_cell_angle_alpha   68.89604912
_cell_angle_beta   111.10395088
_cell_angle_gamma   156.93363400
_symmetry_Int_Tables_number   1
_chemical_formula_structural   Au2Se4O11
_chemical_formula_sum   'Au4 Se8 O22'
_cell_volume   581.12596368
_cell_formula_units_Z   2
loop_
 _symmetry_equiv_pos_site_id
 _symmetry_equiv_pos_as_xyz
  1  'x, y, z'
loop_
 _atom_site_type_symbol
 _atom_site_label
 _atom_site_symmetry_multiplicity
 _atom_site_fract_x
 _atom_site_fract_y
 _atom_site_fract_z
 _atom_site_occupancy
  Au  Au0  1  1.50000000  0.00000000  0.50000000  1.0
  Au  Au1  1  1.00000000  0.50000000  -0.00000000  1.0
  Au  Au2  1  0.00000000  -0.00000000  0.50000000  1.0
  Au  Au3  1  -0.00000000  0.00000000  -0.00000000  1.0
  Se  Se4  1  1.70292055  -0.14896437  0.26015571  1.0
  Se  Se5  1  1.14896437  -0.70292055  0.76015571  1.0
  Se  Se6  1  0.85103563  0.70292055  0.23984429  1.0
  Se  Se7  1  0.29707945  0.14896437  0.73984429  1.0
  Se  Se8  1  0.40643171  0.08633570  0.07341217  1.0
  Se  Se9  1  0.91366430  -0.40643171  0.57341217  1.0
  Se  Se10  1  1.08633570  0.40643171  0.42658783  1.0
  Se  Se11  1  1.59356829  -0.08633570  0.92658783  1.0
  O  O12  1  1.62705445  -0.29858618  0.39146513  1.0
  O  O13  1  1.29858618  -0.62705445  0.89146513  1.0
  O  O14  1  0.70141382  0.62705445  0.10853487  1.0
  O  O15  1  0.37294555  0.29858618  0.60853487  1.0
  O  O16  1  1.86795165  0.05089069  1.01415548  1.0
  O  O17  1  0.94910931  0.13204835  0.51415548  1.0
  O  O18  1  1.05089069  -0.13204835  0.48584452  1.0
  O  O19  1  0.13204835  -0.05089069  -0.01415548  1.0
  O  O20  1  0.73023252  0.17417094  0.38991122  1.0
  O  O21  1  0.82582906  -0.73023252  0.88991122  1.0
  O  O22  1  1.17417094  0.73023252  0.11008878  1.0
  O  O23  1  1.26976748  -0.17417094  0.61008878  1.0
  O  O24  1  0.59796152  0.24370475  0.97069236  1.0
  O  O25  1  0.75629525  0.40203848  0.47069236  1.0
  O  O26  1  1.24370475  -0.40203848  0.52930764  1.0
  O  O27  1  1.40203848  -0.24370475  0.02930764  1.0
  O  O28  1  0.20284509  -0.04286259  0.24197010  1.0
  O  O29  1  1.04286259  -0.20284509  0.74197010  1.0
  O  O30  1  0.95713741  0.20284509  0.25802990  1.0
  O  O31  1  1.79715491  0.04286259  0.75802990  1.0
  O  O32  1  0.99584456  0.99584456  0.25000000  1.0
  O  O33  1  0.00415544  0.00415544  0.75000000  1.0
