# generated using pymatgen
data_KCO3
_symmetry_space_group_name_H-M   'P 1'
_cell_length_a   8.52093676
_cell_length_b   11.12443667
_cell_length_c   7.27988722
_cell_angle_alpha   90.00000000
_cell_angle_beta   111.40361952
_cell_angle_gamma   90.00000000
_symmetry_Int_Tables_number   1
_chemical_formula_structural   KCO3
_chemical_formula_sum   'K8 C8 O24'
_cell_volume   642.47315475
_cell_formula_units_Z   8
loop_
 _symmetry_equiv_pos_site_id
 _symmetry_equiv_pos_as_xyz
  1  'x, y, z'
loop_
 _atom_site_type_symbol
 _atom_site_label
 _atom_site_symmetry_multiplicity
 _atom_site_fract_x
 _atom_site_fract_y
 _atom_site_fract_z
 _atom_site_occupancy
  K  K0  1  0.80158583  0.59197214  0.80045158  1.0
  K  K1  1  0.80158583  0.90802786  0.30045158  1.0
  K  K2  1  0.19841417  0.09197214  0.69954842  1.0
  K  K3  1  0.19841417  0.40802786  0.19954842  1.0
  K  K4  1  0.29887835  0.65567734  0.78743097  1.0
  K  K5  1  0.29887835  0.84432266  0.28743097  1.0
  K  K6  1  0.70112165  0.15567734  0.71256903  1.0
  K  K7  1  0.70112165  0.34432266  0.21256903  1.0
  C  C8  1  0.96427950  0.87266353  0.82973910  1.0
  C  C9  1  0.96427950  0.62733647  0.32973910  1.0
  C  C10  1  0.03572050  0.37266353  0.67026090  1.0
  C  C11  1  0.03572050  0.12733647  0.17026090  1.0
  C  C12  1  0.55362573  0.87060621  0.72955249  1.0
  C  C13  1  0.55362573  0.62939379  0.22955249  1.0
  C  C14  1  0.44637427  0.37060621  0.77044751  1.0
  C  C15  1  0.44637427  0.12939379  0.27044751  1.0
  O  O16  1  0.92681828  0.95681204  0.70886864  1.0
  O  O17  1  0.92681828  0.54318796  0.20886864  1.0
  O  O18  1  0.07318172  0.45681204  0.79113136  1.0
  O  O19  1  0.07318172  0.04318796  0.29113136  1.0
  O  O20  1  0.91140160  0.30361625  0.60921171  1.0
  O  O21  1  0.91140160  0.19638375  0.10921171  1.0
  O  O22  1  0.08859840  0.80361625  0.89078829  1.0
  O  O23  1  0.08859840  0.69638375  0.39078829  1.0
  O  O24  1  0.85055236  0.84061324  0.92719719  1.0
  O  O25  1  0.85055236  0.65938676  0.42719719  1.0
  O  O26  1  0.14944764  0.34061324  0.57280281  1.0
  O  O27  1  0.14944764  0.15938676  0.07280281  1.0
  O  O28  1  0.70192191  0.92193049  0.87257650  1.0
  O  O29  1  0.70192191  0.57806951  0.37257650  1.0
  O  O30  1  0.29807809  0.42193049  0.62742350  1.0
  O  O31  1  0.29807809  0.07806951  0.12742350  1.0
  O  O32  1  0.55524362  0.76534672  0.67242572  1.0
  O  O33  1  0.55524362  0.73465328  0.17242572  1.0
  O  O34  1  0.44475638  0.26534672  0.82757428  1.0
  O  O35  1  0.44475638  0.23465328  0.32757428  1.0
  O  O36  1  0.43908639  0.94803461  0.68354000  1.0
  O  O37  1  0.43908639  0.55196539  0.18354000  1.0
  O  O38  1  0.56091361  0.44803461  0.81646000  1.0
  O  O39  1  0.56091361  0.05196539  0.31646000  1.0
