# generated using pymatgen
data_GdFe4B
_symmetry_space_group_name_H-M   'P 1'
_cell_length_a   5.08822433
_cell_length_b   5.08822433
_cell_length_c   7.03297781
_cell_angle_alpha   90.00000000
_cell_angle_beta   90.00000000
_cell_angle_gamma   120.00000000
_symmetry_Int_Tables_number   1
_chemical_formula_structural   GdFe4B
_chemical_formula_sum   'Gd2 Fe8 B2'
_cell_volume   157.68935605
_cell_formula_units_Z   2
loop_
 _symmetry_equiv_pos_site_id
 _symmetry_equiv_pos_as_xyz
  1  'x, y, z'
loop_
 _atom_site_type_symbol
 _atom_site_label
 _atom_site_symmetry_multiplicity
 _atom_site_fract_x
 _atom_site_fract_y
 _atom_site_fract_z
 _atom_site_occupancy
  Gd  Gd0  1  0.00000000  0.00000000  0.00000000  1.0
  Gd  Gd1  1  -0.00000000  -0.00000000  0.50000000  1.0
  Fe  Fe2  1  0.66666667  0.33333333  -0.00000000  1.0
  Fe  Fe3  1  0.33333333  0.66666667  0.00000000  1.0
  Fe  Fe4  1  0.50000000  0.50000000  0.71282847  1.0
  Fe  Fe5  1  0.50000000  0.00000000  0.71282847  1.0
  Fe  Fe6  1  0.00000000  0.50000000  0.71282847  1.0
  Fe  Fe7  1  0.50000000  0.50000000  0.28717153  1.0
  Fe  Fe8  1  0.50000000  -0.00000000  0.28717153  1.0
  Fe  Fe9  1  0.00000000  0.50000000  0.28717153  1.0
  B  B10  1  0.66666667  0.33333333  0.50000000  1.0
  B  B11  1  0.33333333  0.66666667  0.50000000  1.0
