# generated using pymatgen
data_Mo2As3
_symmetry_space_group_name_H-M   'P 1'
_cell_length_a   6.95298974
_cell_length_b   6.95298974
_cell_length_c   9.72566376
_cell_angle_alpha   56.42368901
_cell_angle_beta   123.57631099
_cell_angle_gamma   152.90476262
_symmetry_Int_Tables_number   1
_chemical_formula_structural   Mo2As3
_chemical_formula_sum   'Mo4 As6'
_cell_volume   176.12400925
_cell_formula_units_Z   2
loop_
 _symmetry_equiv_pos_site_id
 _symmetry_equiv_pos_as_xyz
  1  'x, y, z'
loop_
 _atom_site_type_symbol
 _atom_site_label
 _atom_site_symmetry_multiplicity
 _atom_site_fract_x
 _atom_site_fract_y
 _atom_site_fract_z
 _atom_site_occupancy
  Mo  Mo0  1  0.75251777  0.24748223  0.62800187  1.0
  Mo  Mo1  1  1.24748223  -0.24748223  0.37199813  1.0
  Mo  Mo2  1  0.64994992  0.35005008  0.86556359  1.0
  Mo  Mo3  1  1.35005008  -0.35005008  0.13443641  1.0
  As  As4  1  0.89468101  -0.89468101  0.37103629  1.0
  As  As5  1  0.10531899  -0.10531899  0.62896371  1.0
  As  As6  1  0.87185487  0.12814513  0.95243906  1.0
  As  As7  1  1.12814513  -0.12814513  0.04756094  1.0
  As  As8  1  1.41504698  -0.41504698  0.68572791  1.0
  As  As9  1  0.58495302  0.41504698  0.31427209  1.0
