# generated using pymatgen
data_ClO5
_symmetry_space_group_name_H-M   'P 1'
_cell_length_a   5.65077646
_cell_length_b   8.72561961
_cell_length_c   9.60033204
_cell_angle_alpha   90.00000000
_cell_angle_beta   113.25032686
_cell_angle_gamma   90.00000000
_symmetry_Int_Tables_number   1
_chemical_formula_structural   ClO5
_chemical_formula_sum   'Cl4 O20'
_cell_volume   434.91704145
_cell_formula_units_Z   4
loop_
 _symmetry_equiv_pos_site_id
 _symmetry_equiv_pos_as_xyz
  1  'x, y, z'
loop_
 _atom_site_type_symbol
 _atom_site_label
 _atom_site_symmetry_multiplicity
 _atom_site_fract_x
 _atom_site_fract_y
 _atom_site_fract_z
 _atom_site_occupancy
  O  O0  1  1.11907554  0.21352562  0.11943033  1.0
  O  O1  1  1.11907554  0.28647438  0.61943033  1.0
  O  O2  1  -0.11907554  0.71352562  0.38056967  1.0
  O  O3  1  -0.11907554  0.78647438  0.88056967  1.0
  O  O4  1  0.27101475  0.37068937  0.30816988  1.0
  O  O5  1  0.27101475  0.12931063  0.80816988  1.0
  O  O6  1  0.72898525  0.87068937  0.19183012  1.0
  O  O7  1  0.72898525  0.62931063  0.69183012  1.0
  O  O8  1  0.66472098  0.48770881  0.32216638  1.0
  O  O9  1  0.66472098  0.01229119  0.82216638  1.0
  O  O10  1  0.33527902  0.98770881  0.17783362  1.0
  O  O11  1  0.33527902  0.51229119  0.67783362  1.0
  O  O12  1  0.73891811  0.11791789  0.30880560  1.0
  O  O13  1  0.73891811  0.38208211  0.80880560  1.0
  O  O14  1  0.26108189  0.61791789  0.19119440  1.0
  O  O15  1  0.26108189  0.88208211  0.69119440  1.0
  O  O16  1  0.63966307  0.88724105  0.41519518  1.0
  O  O17  1  0.63966307  0.61275895  0.91519518  1.0
  O  O18  1  0.36033693  0.38724105  0.08480482  1.0
  O  O19  1  0.36033693  0.11275895  0.58480482  1.0
  Cl  Cl20  1  0.38780497  0.47157704  0.22617757  1.0
  Cl  Cl21  1  0.38780497  0.02842296  0.72617757  1.0
  Cl  Cl22  1  0.61219503  0.97157704  0.27382243  1.0
  Cl  Cl23  1  0.61219503  0.52842296  0.77382243  1.0
