# generated using pymatgen
data_K23(Sn3Au4)3
_symmetry_space_group_name_H-M   'P 1'
_cell_length_a   15.29715492
_cell_length_b   15.29715492
_cell_length_c   15.29715492
_cell_angle_alpha   93.00932112
_cell_angle_beta   93.00932112
_cell_angle_gamma   153.50883651
_symmetry_Int_Tables_number   1
_chemical_formula_structural   K23(Sn3Au4)3
_chemical_formula_sum   'K23 Sn9 Au12'
_cell_volume   1554.22910686
_cell_formula_units_Z   1
loop_
 _symmetry_equiv_pos_site_id
 _symmetry_equiv_pos_as_xyz
  1  'x, y, z'
loop_
 _atom_site_type_symbol
 _atom_site_label
 _atom_site_symmetry_multiplicity
 _atom_site_fract_x
 _atom_site_fract_y
 _atom_site_fract_z
 _atom_site_occupancy
  K  K0  1  0.79777325  0.55628378  0.43913733  1.0
  K  K1  1  0.88285354  1.44371622  1.24148946  1.0
  K  K2  1  1.55628378  1.79777325  1.43913733  1.0
  K  K3  1  0.64136408  0.20222675  0.75851054  1.0
  K  K4  1  1.20222675  0.64136408  0.75851054  1.0
  K  K5  1  1.11714646  1.35863592  1.56086267  1.0
  K  K6  1  0.44371622  0.88285354  1.24148946  1.0
  K  K7  1  1.35863592  1.11714646  0.56086267  1.0
  K  K8  1  0.41406321  0.28150587  0.21466241  1.0
  K  K9  1  0.93315655  1.71849413  1.13255735  1.0
  K  K10  1  1.28150587  1.41406321  1.21466241  1.0
  K  K11  1  0.80059920  0.58593679  0.86744265  1.0
  K  K12  1  1.58593679  0.80059920  0.86744265  1.0
  K  K13  1  1.06684345  1.19940080  1.78533759  1.0
  K  K14  1  0.71849413  0.93315655  1.13255735  1.0
  K  K15  1  1.19940080  1.06684345  0.78533759  1.0
  K  K16  1  0.35070944  0.35070944  0.43499318  1.0
  K  K17  1  1.08428374  1.64929056  1.00000000  1.0
  K  K18  1  0.64929056  1.08428374  1.00000000  1.0
  K  K19  1  0.91571626  0.91571626  0.56500682  1.0
  K  K20  1  0.75000000  0.25000000  0.50000000  1.0
  K  K21  1  1.25000000  0.75000000  0.50000000  1.0
  K  K22  1  0.50000000  0.50000000  0.00000000  1.0
  Sn  Sn23  1  0.48186221  0.48186221  0.67050104  1.0
  Sn  Sn24  1  1.18863884  1.51813779  1.00000000  1.0
  Sn  Sn25  1  0.51813779  1.18863884  1.00000000  1.0
  Sn  Sn26  1  0.81136116  0.81136116  0.32949896  1.0
  Sn  Sn27  1  0.66750661  -0.00000000  0.66750661  1.0
  Sn  Sn28  1  1.00000000  0.66750661  0.66750661  1.0
  Sn  Sn29  1  1.00000000  1.33249339  1.33249339  1.0
  Sn  Sn30  1  0.33249339  -0.00000000  0.33249339  1.0
  Sn  Sn31  1  0.00000000  0.00000000  0.00000000  1.0
  Au  Au32  1  0.75569016  0.59396306  0.65484376  1.0
  Au  Au33  1  1.06088069  1.40603694  1.16172709  1.0
  Au  Au34  1  1.59396306  1.75569016  1.65484376  1.0
  Au  Au35  1  0.89915360  0.24430984  0.83827291  1.0
  Au  Au36  1  1.24430984  0.89915360  0.83827291  1.0
  Au  Au37  1  0.93911931  1.10084640  1.34515624  1.0
  Au  Au38  1  0.40603694  1.06088069  1.16172709  1.0
  Au  Au39  1  1.10084640  0.93911931  0.34515624  1.0
  Au  Au40  1  0.73639791  0.73639791  0.83451172  1.0
  Au  Au41  1  1.09811381  1.26360209  1.00000000  1.0
  Au  Au42  1  0.26360209  1.09811381  1.00000000  1.0
  Au  Au43  1  0.90188619  0.90188619  0.16548828  1.0
