# generated using pymatgen
data_Sc5(In2Ir)2
_symmetry_space_group_name_H-M   'P 1'
_cell_length_a   7.77707427
_cell_length_b   17.75127888
_cell_length_c   3.31954105
_cell_angle_alpha   90.00000000
_cell_angle_beta   90.00000000
_cell_angle_gamma   90.00000000
_symmetry_Int_Tables_number   1
_chemical_formula_structural   Sc5(In2Ir)2
_chemical_formula_sum   'Sc10 In8 Ir4'
_cell_volume   458.27264815
_cell_formula_units_Z   2
loop_
 _symmetry_equiv_pos_site_id
 _symmetry_equiv_pos_as_xyz
  1  'x, y, z'
loop_
 _atom_site_type_symbol
 _atom_site_label
 _atom_site_symmetry_multiplicity
 _atom_site_fract_x
 _atom_site_fract_y
 _atom_site_fract_z
 _atom_site_occupancy
  Sc  Sc0  1  0.37620426  0.91466416  0.00000000  1.0
  Sc  Sc1  1  0.87620426  0.58533584  0.00000000  1.0
  Sc  Sc2  1  0.62379574  0.08533584  0.00000000  1.0
  Sc  Sc3  1  0.12379574  0.41466416  0.00000000  1.0
  Sc  Sc4  1  0.24751182  0.72179119  0.00000000  1.0
  Sc  Sc5  1  0.74751182  0.77820881  0.00000000  1.0
  Sc  Sc6  1  0.75248818  0.27820881  0.00000000  1.0
  Sc  Sc7  1  0.25248818  0.22179119  0.00000000  1.0
  Sc  Sc8  1  0.50000000  0.50000000  0.00000000  1.0
  Sc  Sc9  1  0.00000000  0.00000000  0.00000000  1.0
  In  In10  1  0.20444740  0.56686159  0.50000000  1.0
  In  In11  1  0.70444740  0.93313841  0.50000000  1.0
  In  In12  1  0.79555260  0.43313841  0.50000000  1.0
  In  In13  1  0.29555260  0.06686159  0.50000000  1.0
  In  In14  1  0.06962090  0.85165038  0.50000000  1.0
  In  In15  1  0.56962090  0.64834962  0.50000000  1.0
  In  In16  1  0.93037910  0.14834962  0.50000000  1.0
  In  In17  1  0.43037910  0.35165038  0.50000000  1.0
  Ir  Ir18  1  0.46590278  0.80520445  0.50000000  1.0
  Ir  Ir19  1  0.96590278  0.69479555  0.50000000  1.0
  Ir  Ir20  1  0.53409722  0.19479555  0.50000000  1.0
  Ir  Ir21  1  0.03409722  0.30520445  0.50000000  1.0
