# generated using pymatgen
data_ZnBi2B2O7
_symmetry_space_group_name_H-M   'P 1'
_cell_length_a   10.95137008
_cell_length_b   11.11708520
_cell_length_c   4.95403025
_cell_angle_alpha   90.00000000
_cell_angle_beta   90.00000000
_cell_angle_gamma   90.00000000
_symmetry_Int_Tables_number   1
_chemical_formula_structural   ZnBi2B2O7
_chemical_formula_sum   'Zn4 Bi8 B8 O28'
_cell_volume   603.13987702
_cell_formula_units_Z   4
loop_
 _symmetry_equiv_pos_site_id
 _symmetry_equiv_pos_as_xyz
  1  'x, y, z'
loop_
 _atom_site_type_symbol
 _atom_site_label
 _atom_site_symmetry_multiplicity
 _atom_site_fract_x
 _atom_site_fract_y
 _atom_site_fract_z
 _atom_site_occupancy
  Zn  Zn0  1  0.24218161  0.76004153  0.14292279  1.0
  Zn  Zn1  1  0.74218161  0.73995847  0.14292279  1.0
  Zn  Zn2  1  0.75781839  0.23995847  0.14292279  1.0
  Zn  Zn3  1  0.25781839  0.26004153  0.14292279  1.0
  Bi  Bi4  1  0.32006894  0.53294920  0.63068588  1.0
  Bi  Bi5  1  0.82006894  0.96705080  0.63068588  1.0
  Bi  Bi6  1  0.67993106  0.46705080  0.63068588  1.0
  Bi  Bi7  1  0.17993106  0.03294920  0.63068588  1.0
  Bi  Bi8  1  0.01621093  0.68788163  0.63343574  1.0
  Bi  Bi9  1  0.51621093  0.81211837  0.63343574  1.0
  Bi  Bi10  1  0.98378907  0.31211837  0.63343574  1.0
  Bi  Bi11  1  0.48378907  0.18788163  0.63343574  1.0
  B  B12  1  0.48611897  0.62685278  0.08721987  1.0
  B  B13  1  0.98611897  0.87314722  0.08721987  1.0
  B  B14  1  0.51388103  0.37314722  0.08721987  1.0
  B  B15  1  0.01388103  0.12685278  0.08721987  1.0
  B  B16  1  0.38459742  0.97921079  0.13015470  1.0
  B  B17  1  0.88459742  0.52078921  0.13015470  1.0
  B  B18  1  0.61540258  0.02078921  0.13015470  1.0
  B  B19  1  0.11540258  0.47921079  0.13015470  1.0
  O  O20  1  0.47981236  0.64041850  0.38164465  1.0
  O  O21  1  0.97981236  0.85958150  0.38164465  1.0
  O  O22  1  0.52018764  0.35958150  0.38164465  1.0
  O  O23  1  0.02018764  0.14041850  0.38164465  1.0
  O  O24  1  0.37163882  0.67332561  0.94538338  1.0
  O  O25  1  0.87163882  0.82667439  0.94538338  1.0
  O  O26  1  0.62836118  0.32667439  0.94538338  1.0
  O  O27  1  0.12836118  0.17332561  0.94538338  1.0
  O  O28  1  0.30385761  0.91544184  0.28218412  1.0
  O  O29  1  0.80385761  0.58455816  0.28218412  1.0
  O  O30  1  0.69614239  0.08455816  0.28218412  1.0
  O  O31  1  0.19614239  0.41544184  0.28218412  1.0
  O  O32  1  0.20053527  0.67502919  0.47555226  1.0
  O  O33  1  0.70053527  0.82497081  0.47555226  1.0
  O  O34  1  0.79946473  0.32497081  0.47555226  1.0
  O  O35  1  0.29946473  0.17502919  0.47555226  1.0
  O  O36  1  0.13485951  0.52028145  0.87483012  1.0
  O  O37  1  0.63485951  0.97971855  0.87483012  1.0
  O  O38  1  0.86514049  0.47971855  0.87483012  1.0
  O  O39  1  0.36514049  0.02028145  0.87483012  1.0
  O  O40  1  0.08760956  0.79989415  0.96342270  1.0
  O  O41  1  0.58760956  0.70010585  0.96342270  1.0
  O  O42  1  0.91239044  0.20010585  0.96342270  1.0
  O  O43  1  0.41239044  0.29989415  0.96342270  1.0
  O  O44  1  0.50000000  0.00000000  0.25297986  1.0
  O  O45  1  0.00000000  0.50000000  0.25297986  1.0
  O  O46  1  0.50000000  0.50000000  -0.00415227  1.0
  O  O47  1  0.00000000  0.00000000  -0.00415227  1.0
