# generated using pymatgen
data_NaLi2B(PO4)2
_symmetry_space_group_name_H-M   'P 1'
_cell_length_a   7.49487331
_cell_length_b   5.49868807
_cell_length_c   8.15689364
_cell_angle_alpha   109.49834410
_cell_angle_beta   103.78484362
_cell_angle_gamma   87.22539156
_symmetry_Int_Tables_number   1
_chemical_formula_structural   NaLi2B(PO4)2
_chemical_formula_sum   'Na2 Li4 B2 P4 O16'
_cell_volume   307.57818609
_cell_formula_units_Z   2
loop_
 _symmetry_equiv_pos_site_id
 _symmetry_equiv_pos_as_xyz
  1  'x, y, z'
loop_
 _atom_site_type_symbol
 _atom_site_label
 _atom_site_symmetry_multiplicity
 _atom_site_fract_x
 _atom_site_fract_y
 _atom_site_fract_z
 _atom_site_occupancy
  Na  Na0  1  0.61715104  0.25237992  -0.73632685  1.0
  Na  Na1  1  0.38284896  0.74762008  -0.26367315  1.0
  Li  Li2  1  0.97181226  0.35986829  -0.40194608  1.0
  Li  Li3  1  0.02818774  0.64013171  -0.59805392  1.0
  Li  Li4  1  0.99606374  0.18871398  -0.85973427  1.0
  Li  Li5  1  0.00393626  0.81128602  -0.14026573  1.0
  B  B6  1  0.45784005  0.75363088  -0.76522342  1.0
  B  B7  1  0.54215995  0.24636912  -0.23477658  1.0
  P  P8  1  0.72896540  0.88507708  -0.44995718  1.0
  P  P9  1  0.27103460  0.11492292  -0.55004282  1.0
  P  P10  1  0.74825648  0.64605658  -0.94580929  1.0
  P  P11  1  0.25174352  0.35394342  -0.05419071  1.0
  O  O12  1  0.63874232  0.99998178  -0.28250287  1.0
  O  O13  1  0.36125768  0.00001822  -0.71749713  1.0
  O  O14  1  0.21113954  0.90365939  -0.49187341  1.0
  O  O15  1  0.78886046  0.09634061  -0.50812659  1.0
  O  O16  1  0.87516267  0.85077714  -0.94902965  1.0
  O  O17  1  0.12483733  0.14922286  -0.05097035  1.0
  O  O18  1  0.57033022  0.78638553  -0.88515466  1.0
  O  O19  1  0.42966978  0.21361447  -0.11484534  1.0
  O  O20  1  0.88034702  0.70599363  -0.40123503  1.0
  O  O21  1  0.11965298  0.29400637  -0.59876497  1.0
  O  O22  1  0.57141166  0.70315355  -0.60525583  1.0
  O  O23  1  0.42858834  0.29684645  -0.39474417  1.0
  O  O24  1  0.32861009  0.52982796  -0.85235737  1.0
  O  O25  1  0.67138991  0.47017204  -0.14764263  1.0
  O  O26  1  0.83439579  0.48541740  -0.82704960  1.0
  O  O27  1  0.16560421  0.51458260  -0.17295040  1.0
