# generated using pymatgen
data_CaWO4
_symmetry_space_group_name_H-M   'P 1'
_cell_length_a   7.80096876
_cell_length_b   7.80096876
_cell_length_c   5.30946260
_cell_angle_alpha   90.00000000
_cell_angle_beta   90.00000000
_cell_angle_gamma   120.36710068
_symmetry_Int_Tables_number   1
_chemical_formula_structural   CaWO4
_chemical_formula_sum   'Ca4 W4 O16'
_cell_volume   278.77886093
_cell_formula_units_Z   4
loop_
 _symmetry_equiv_pos_site_id
 _symmetry_equiv_pos_as_xyz
  1  'x, y, z'
loop_
 _atom_site_type_symbol
 _atom_site_label
 _atom_site_symmetry_multiplicity
 _atom_site_fract_x
 _atom_site_fract_y
 _atom_site_fract_z
 _atom_site_occupancy
  Ca  Ca0  1  0.09014135  1.40985865  0.25000000  1.0
  Ca  Ca1  1  0.40985865  1.09014135  0.75000000  1.0
  Ca  Ca2  1  -0.09014135  0.59014135  0.75000000  1.0
  Ca  Ca3  1  -0.40985865  0.90985865  0.25000000  1.0
  W  W4  1  -0.09209221  1.09209221  0.70307523  1.0
  W  W5  1  0.09209221  0.90790779  0.29692477  1.0
  W  W6  1  -0.40790779  1.40790779  0.20307523  1.0
  W  W7  1  0.40790779  0.59209221  0.79692477  1.0
  O  O8  1  -0.10217844  0.60217844  0.25000000  1.0
  O  O9  1  -0.39782156  0.89782156  0.75000000  1.0
  O  O10  1  0.10217844  1.39782156  0.75000000  1.0
  O  O11  1  0.39782156  1.10217844  0.25000000  1.0
  O  O12  1  -0.30181071  1.30181071  -0.00524195  1.0
  O  O13  1  0.30181071  0.69818929  1.00524195  1.0
  O  O14  1  -0.19818929  1.19818929  0.49475805  1.0
  O  O15  1  0.19818929  0.80181071  0.50524195  1.0
  O  O16  1  -0.35200005  0.64799995  0.00000000  1.0
  O  O17  1  0.14799995  1.14799995  0.50000000  1.0
  O  O18  1  0.35200005  1.35200005  0.00000000  1.0
  O  O19  1  -0.14799995  0.85200005  0.50000000  1.0
  O  O20  1  -0.40694055  1.40694055  0.54648236  1.0
  O  O21  1  0.40694055  0.59305945  0.45351764  1.0
  O  O22  1  -0.09305945  1.09305945  0.04648235  1.0
  O  O23  1  0.09305945  0.90694055  0.95351765  1.0
