# generated using pymatgen
data_LuI3
_symmetry_space_group_name_H-M   'P 1'
_cell_length_a   8.77964878
_cell_length_b   8.77964878
_cell_length_c   8.77964878
_cell_angle_alpha   51.01823992
_cell_angle_beta   51.01823992
_cell_angle_gamma   51.01823992
_symmetry_Int_Tables_number   1
_chemical_formula_structural   LuI3
_chemical_formula_sum   'Lu2 I6'
_cell_volume   377.22105595
_cell_formula_units_Z   2
loop_
 _symmetry_equiv_pos_site_id
 _symmetry_equiv_pos_as_xyz
  1  'x, y, z'
loop_
 _atom_site_type_symbol
 _atom_site_label
 _atom_site_symmetry_multiplicity
 _atom_site_fract_x
 _atom_site_fract_y
 _atom_site_fract_z
 _atom_site_occupancy
  Lu  Lu0  1  0.16664026  0.16664026  0.16664026  1.0
  Lu  Lu1  1  0.83335974  -0.16664026  -0.16664026  1.0
  I  I2  1  0.42394445  0.06761205  -0.22006696  1.0
  I  I3  1  0.22006696  0.57605555  -0.06761205  1.0
  I  I4  1  0.93238795  0.22006696  -0.42394445  1.0
  I  I5  1  0.57605555  0.93238795  -0.77993304  1.0
  I  I6  1  0.77993304  -0.57605555  0.06761205  1.0
  I  I7  1  1.06761205  -0.22006696  -0.57605555  1.0
