# generated using pymatgen
data_SrO6
_symmetry_space_group_name_H-M   'P 1'
_cell_length_a   6.15086393
_cell_length_b   6.15086393
_cell_length_c   6.27793208
_cell_angle_alpha   91.64314986
_cell_angle_beta   88.35685014
_cell_angle_gamma   74.06404008
_symmetry_Int_Tables_number   1
_chemical_formula_structural   SrO6
_chemical_formula_sum   'Sr2 O12'
_cell_volume   228.12694805
_cell_formula_units_Z   2
loop_
 _symmetry_equiv_pos_site_id
 _symmetry_equiv_pos_as_xyz
  1  'x, y, z'
loop_
 _atom_site_type_symbol
 _atom_site_label
 _atom_site_symmetry_multiplicity
 _atom_site_fract_x
 _atom_site_fract_y
 _atom_site_fract_z
 _atom_site_occupancy
  Sr  Sr0  1  0.68959040  -0.31040960  0.25000000  1.0
  Sr  Sr1  1  1.31040960  0.31040960  0.75000000  1.0
  O  O2  1  1.73010963  0.08350196  0.07759091  1.0
  O  O3  1  0.91649804  -0.73010963  0.57759091  1.0
  O  O4  1  1.08350196  0.73010963  0.42240909  1.0
  O  O5  1  0.26989037  -0.08350196  0.92240909  1.0
  O  O6  1  1.41674080  0.03854364  0.43192589  1.0
  O  O7  1  0.96145636  -0.41674080  0.93192589  1.0
  O  O8  1  1.03854364  0.41674080  0.06807411  1.0
  O  O9  1  0.58325920  -0.03854364  0.56807411  1.0
  O  O10  1  1.60156684  0.28439318  0.06436968  1.0
  O  O11  1  0.71560682  -0.60156684  0.56436968  1.0
  O  O12  1  1.28439318  0.60156684  0.43563032  1.0
  O  O13  1  0.39843316  -0.28439318  0.93563032  1.0
