# generated using pymatgen
data_BaH4C(N3O2)2
_symmetry_space_group_name_H-M   'P 1'
_cell_length_a   7.26001575
_cell_length_b   8.12920669
_cell_length_c   7.43229330
_cell_angle_alpha   101.12968304
_cell_angle_beta   117.50940995
_cell_angle_gamma   97.51339237
_symmetry_Int_Tables_number   1
_chemical_formula_structural   BaH4C(N3O2)2
_chemical_formula_sum   'Ba2 H8 C2 N12 O8'
_cell_volume   369.33898977
_cell_formula_units_Z   2
loop_
 _symmetry_equiv_pos_site_id
 _symmetry_equiv_pos_as_xyz
  1  'x, y, z'
loop_
 _atom_site_type_symbol
 _atom_site_label
 _atom_site_symmetry_multiplicity
 _atom_site_fract_x
 _atom_site_fract_y
 _atom_site_fract_z
 _atom_site_occupancy
  Ba  Ba0  1  -0.36824178  -0.70286846  -0.85354996  1.0
  Ba  Ba1  1  -0.63175822  -0.29713154  -0.14645004  1.0
  H  H2  1  -0.86479996  -1.00053854  -0.11583505  1.0
  H  H3  1  -0.13520004  0.00053854  -0.88416495  1.0
  H  H4  1  -0.75159643  -1.00925567  -0.88113967  1.0
  H  H5  1  -0.24840357  0.00925567  -0.11886033  1.0
  H  H6  1  -0.72241320  -0.48216524  -0.80884094  1.0
  H  H7  1  -0.27758680  -0.51783476  -0.19115906  1.0
  H  H8  1  -0.13785042  -0.36865896  -0.97747295  1.0
  H  H9  1  -0.86214958  -0.63134104  -0.02252705  1.0
  C  C10  1  -0.75592238  -0.92902225  -0.47935014  1.0
  C  C11  1  -0.24407762  -0.07097775  -0.52064986  1.0
  N  N12  1  -0.91309443  -0.73349566  -0.58523515  1.0
  N  N13  1  -0.08690557  -0.26650434  -0.41476485  1.0
  N  N14  1  -0.90959878  -0.89796726  -0.65114821  1.0
  N  N15  1  -0.09040122  -0.10203274  -0.34885179  1.0
  N  N16  1  -0.76644466  -0.66676464  -0.38340807  1.0
  N  N17  1  -0.23355534  -0.33323536  -0.61659193  1.0
  N  N18  1  -0.76005443  -0.21116071  -0.61633285  1.0
  N  N19  1  -0.23994557  -0.78883929  -0.38366715  1.0
  N  N20  1  -0.66458356  -0.78582307  -0.31103593  1.0
  N  N21  1  -0.33541644  -0.21417693  -0.68896407  1.0
  N  N22  1  -0.30545363  -0.91988230  -0.54935616  1.0
  N  N23  1  -0.69454637  -0.08011770  -0.45064384  1.0
  O  O24  1  -0.86278943  -0.20734891  -0.80748817  1.0
  O  O25  1  -0.13721057  -0.79265109  -0.19251183  1.0
  O  O26  1  -0.71466254  -0.35252626  -0.57829935  1.0
  O  O27  1  -0.28533746  -0.64747374  -0.42170065  1.0
  O  O28  1  -0.71855172  -0.97813147  -0.98601416  1.0
  O  O29  1  -0.28144828  -0.02186853  -0.01398584  1.0
  O  O30  1  -0.72070438  -0.54749501  -0.93558060  1.0
  O  O31  1  -0.27929562  -0.45250499  -0.06441940  1.0
