# generated using pymatgen
data_CaInRh
_symmetry_space_group_name_H-M   'P 1'
_cell_length_a   7.31097836
_cell_length_b   4.38493218
_cell_length_c   8.34864994
_cell_angle_alpha   90.00000000
_cell_angle_beta   90.00000000
_cell_angle_gamma   90.00000000
_symmetry_Int_Tables_number   1
_chemical_formula_structural   CaInRh
_chemical_formula_sum   'Ca4 In4 Rh4'
_cell_volume   267.64222388
_cell_formula_units_Z   4
loop_
 _symmetry_equiv_pos_site_id
 _symmetry_equiv_pos_as_xyz
  1  'x, y, z'
loop_
 _atom_site_type_symbol
 _atom_site_label
 _atom_site_symmetry_multiplicity
 _atom_site_fract_x
 _atom_site_fract_y
 _atom_site_fract_z
 _atom_site_occupancy
  Ca  Ca0  1  0.97493031  0.75000000  0.67720952  1.0
  Ca  Ca1  1  0.47493031  0.75000000  0.82279048  1.0
  Ca  Ca2  1  0.02506969  0.25000000  0.32279048  1.0
  Ca  Ca3  1  0.52506969  0.25000000  0.17720952  1.0
  In  In4  1  0.84835600  0.75000000  0.06663394  1.0
  In  In5  1  0.34835600  0.75000000  0.43336606  1.0
  In  In6  1  0.15164400  0.25000000  0.93336606  1.0
  In  In7  1  0.65164400  0.25000000  0.56663394  1.0
  Rh  Rh8  1  0.72382395  0.75000000  0.37710707  1.0
  Rh  Rh9  1  0.22382395  0.75000000  0.12289293  1.0
  Rh  Rh10  1  0.27617605  0.25000000  0.62289293  1.0
  Rh  Rh11  1  0.77617605  0.25000000  0.87710707  1.0
