# generated using pymatgen
data_Bi2SO7
_symmetry_space_group_name_H-M   'P 1'
_cell_length_a   8.41650328
_cell_length_b   13.18325209
_cell_length_c   5.92211172
_cell_angle_alpha   90.00000000
_cell_angle_beta   112.91558288
_cell_angle_gamma   90.00000000
_symmetry_Int_Tables_number   1
_chemical_formula_structural   Bi2SO7
_chemical_formula_sum   'Bi8 S4 O28'
_cell_volume   605.24050502
_cell_formula_units_Z   4
loop_
 _symmetry_equiv_pos_site_id
 _symmetry_equiv_pos_as_xyz
  1  'x, y, z'
loop_
 _atom_site_type_symbol
 _atom_site_label
 _atom_site_symmetry_multiplicity
 _atom_site_fract_x
 _atom_site_fract_y
 _atom_site_fract_z
 _atom_site_occupancy
  S  S0  1  0.64103419  0.86689327  0.90063837  1.0
  S  S1  1  0.64103419  0.63310673  0.40063837  1.0
  S  S2  1  0.35896581  0.36689327  0.59936163  1.0
  S  S3  1  0.35896581  0.13310673  0.09936163  1.0
  O  O4  1  0.79172195  0.81199712  0.88601968  1.0
  O  O5  1  0.79172195  0.68800288  0.38601968  1.0
  O  O6  1  0.20827805  0.31199712  0.61398032  1.0
  O  O7  1  0.20827805  0.18800288  0.11398032  1.0
  O  O8  1  0.67883529  0.59824483  0.65532535  1.0
  O  O9  1  0.67883529  0.90175517  0.15532535  1.0
  O  O10  1  0.32116471  0.09824483  0.84467465  1.0
  O  O11  1  0.32116471  0.40175517  0.34467465  1.0
  O  O12  1  0.60158068  0.95647223  0.72730665  1.0
  O  O13  1  0.60158068  0.54352777  0.22730665  1.0
  O  O14  1  0.39841932  0.45647223  0.77269335  1.0
  O  O15  1  0.39841932  0.04352777  0.27269335  1.0
  O  O16  1  0.48097453  0.80243041  0.80631171  1.0
  O  O17  1  0.48097453  0.69756959  0.30631171  1.0
  O  O18  1  0.51902547  0.30243041  0.69368829  1.0
  O  O19  1  0.51902547  0.19756959  0.19368829  1.0
  O  O20  1  0.84255008  0.34681525  0.56128325  1.0
  O  O21  1  0.84255008  0.15318475  0.06128325  1.0
  O  O22  1  0.15744992  0.84681525  0.93871675  1.0
  O  O23  1  0.15744992  0.65318475  0.43871675  1.0
  O  O24  1  0.89117222  0.45701872  1.09106955  1.0
  O  O25  1  0.89117222  0.04298128  0.59106955  1.0
  O  O26  1  0.10882778  0.95701872  0.40893045  1.0
  O  O27  1  0.10882778  0.54298128  -0.09106955  1.0
  O  O28  1  0.88017315  0.23738610  0.59329601  1.0
  O  O29  1  0.88017315  0.26261390  0.09329601  1.0
  O  O30  1  0.11982685  0.73738610  0.90670399  1.0
  O  O31  1  0.11982685  0.76261390  0.40670399  1.0
  Bi  Bi32  1  0.93596903  0.87266099  0.54808480  1.0
  Bi  Bi33  1  0.93596903  0.62733901  0.04808480  1.0
  Bi  Bi34  1  0.06403097  0.37266099  0.95191520  1.0
  Bi  Bi35  1  0.06403097  0.12733901  0.45191520  1.0
  Bi  Bi36  1  0.31176916  0.62779795  0.85422674  1.0
  Bi  Bi37  1  0.31176916  0.87220205  0.35422674  1.0
  Bi  Bi38  1  0.68823084  0.12779795  0.64577326  1.0
  Bi  Bi39  1  0.68823084  0.37220205  0.14577326  1.0
