# generated using pymatgen
data_NaV3H6(SO7)2
_symmetry_space_group_name_H-M   'P 1'
_cell_length_a   7.09081493
_cell_length_b   7.09081493
_cell_length_c   7.09081493
_cell_angle_alpha   62.11818785
_cell_angle_beta   62.11818785
_cell_angle_gamma   62.11818785
_symmetry_Int_Tables_number   1
_chemical_formula_structural   NaV3H6(SO7)2
_chemical_formula_sum   'Na1 V3 H6 S2 O14'
_cell_volume   264.03427099
_cell_formula_units_Z   1
loop_
 _symmetry_equiv_pos_site_id
 _symmetry_equiv_pos_as_xyz
  1  'x, y, z'
loop_
 _atom_site_type_symbol
 _atom_site_label
 _atom_site_symmetry_multiplicity
 _atom_site_fract_x
 _atom_site_fract_y
 _atom_site_fract_z
 _atom_site_occupancy
  Na  Na0  1  0.50000000  0.50000000  -0.50000000  1.0
  V  V1  1  0.50000000  1.00000000  -0.50000000  1.0
  V  V2  1  0.50000000  -0.50000000  -0.00000000  1.0
  V  V3  1  0.00000000  0.50000000  -0.50000000  1.0
  H  H4  1  0.19551323  0.19551323  -0.21459114  1.0
  H  H5  1  0.19551323  0.78540886  -0.80448677  1.0
  H  H6  1  1.21459114  -0.19551323  -0.19551323  1.0
  H  H7  1  0.80448677  0.21459114  -0.19551323  1.0
  H  H8  1  0.80448677  -0.19551323  0.21459114  1.0
  H  H9  1  0.78540886  0.19551323  -0.80448677  1.0
  S  S10  1  0.80965924  0.80965924  -0.19034076  1.0
  S  S11  1  1.19034076  1.19034076  0.19034076  1.0
  O  O12  1  0.23699699  0.23699699  -0.37919248  1.0
  O  O13  1  0.23699699  0.62080752  -0.76300301  1.0
  O  O14  1  0.37919248  0.76300301  -0.23699699  1.0
  O  O15  1  0.76300301  0.37919248  -0.23699699  1.0
  O  O16  1  0.76300301  0.76300301  -0.62080752  1.0
  O  O17  1  0.62080752  0.23699699  -0.76300301  1.0
  O  O18  1  0.33097469  0.33097469  -0.00499210  1.0
  O  O19  1  0.33097469  0.99500790  -0.66902531  1.0
  O  O20  1  1.00499210  -0.33097469  -0.33097469  1.0
  O  O21  1  0.66902531  0.00499210  -0.33097469  1.0
  O  O22  1  0.66902531  -0.33097469  0.00499210  1.0
  O  O23  1  0.99500790  0.33097469  -0.66902531  1.0
  O  O24  1  0.89643995  0.89643995  -0.10356005  1.0
  O  O25  1  1.10356005  1.10356005  0.10356005  1.0
