# generated using pymatgen
data_CsKMo3O10
_symmetry_space_group_name_H-M   'P 1'
_cell_length_a   8.35954319
_cell_length_b   8.94848064
_cell_length_c   8.44011354
_cell_angle_alpha   116.51061891
_cell_angle_beta   105.97215826
_cell_angle_gamma   86.50978091
_symmetry_Int_Tables_number   1
_chemical_formula_structural   CsKMo3O10
_chemical_formula_sum   'Cs2 K2 Mo6 O20'
_cell_volume   541.75689266
_cell_formula_units_Z   2
loop_
 _symmetry_equiv_pos_site_id
 _symmetry_equiv_pos_as_xyz
  1  'x, y, z'
loop_
 _atom_site_type_symbol
 _atom_site_label
 _atom_site_symmetry_multiplicity
 _atom_site_fract_x
 _atom_site_fract_y
 _atom_site_fract_z
 _atom_site_occupancy
  Cs  Cs0  1  0.69517253  0.91390371  -0.25330541  1.0
  Cs  Cs1  1  0.30482747  0.08609629  -0.74669459  1.0
  K  K2  1  0.15774406  0.72202401  -0.46647851  1.0
  K  K3  1  0.84225594  0.27797599  -0.53352149  1.0
  Mo  Mo4  1  0.96391297  0.35683609  -0.94249462  1.0
  Mo  Mo5  1  0.03608703  0.64316391  -0.05750538  1.0
  Mo  Mo6  1  0.45398821  0.52867882  -0.80099371  1.0
  Mo  Mo7  1  0.54601179  0.47132118  -0.19900629  1.0
  Mo  Mo8  1  0.22800165  0.20151693  -0.17594680  1.0
  Mo  Mo9  1  0.77199835  0.79848307  -0.82405320  1.0
  O  O10  1  0.40372380  0.37556717  -0.10660900  1.0
  O  O11  1  0.59627620  0.62443283  -0.89339100  1.0
  O  O12  1  0.01959139  0.41197251  -0.15905701  1.0
  O  O13  1  0.98040861  0.58802749  -0.84094299  1.0
  O  O14  1  0.26337955  0.38640576  -0.88205489  1.0
  O  O15  1  0.73662045  0.61359424  -0.11794511  1.0
  O  O16  1  0.04586294  0.14964624  -0.11013747  1.0
  O  O17  1  0.95413706  0.85035376  -0.88986253  1.0
  O  O18  1  0.42556418  0.70613422  -0.61297833  1.0
  O  O19  1  0.57443582  0.29386578  -0.38702167  1.0
  O  O20  1  0.00483690  0.32093621  -0.74890361  1.0
  O  O21  1  0.99516310  0.67906379  -0.25109639  1.0
  O  O22  1  0.15417970  0.14546168  -0.40927701  1.0
  O  O23  1  0.84582030  0.85453832  -0.59072299  1.0
  O  O24  1  0.75087859  0.31056550  -0.04720547  1.0
  O  O25  1  0.24912141  0.68943450  -0.95279453  1.0
  O  O26  1  0.65048210  0.95920686  -0.83373443  1.0
  O  O27  1  0.34951790  0.04079314  -0.16626557  1.0
  O  O28  1  0.60249680  0.42839450  -0.70544587  1.0
  O  O29  1  0.39750320  0.57160550  -0.29455413  1.0
