# generated using pymatgen
data_Ba11Bi10
_symmetry_space_group_name_H-M   'P 1'
_cell_length_a   13.69821023
_cell_length_b   13.69821023
_cell_length_c   13.69821023
_cell_angle_alpha   121.25901025
_cell_angle_beta   121.25901025
_cell_angle_gamma   87.83282115
_symmetry_Int_Tables_number   1
_chemical_formula_structural   Ba11Bi10
_chemical_formula_sum   'Ba22 Bi20'
_cell_volume   1781.53739730
_cell_formula_units_Z   2
loop_
 _symmetry_equiv_pos_site_id
 _symmetry_equiv_pos_as_xyz
  1  'x, y, z'
loop_
 _atom_site_type_symbol
 _atom_site_label
 _atom_site_symmetry_multiplicity
 _atom_site_fract_x
 _atom_site_fract_y
 _atom_site_fract_z
 _atom_site_occupancy
  Ba  Ba0  1  0.44033475  0.69098800  0.74934675  1.0
  Ba  Ba1  1  1.05835875  0.30901200  0.74934675  1.0
  Ba  Ba2  1  0.94164125  0.69098800  1.25065325  1.0
  Ba  Ba3  1  0.55966525  0.30901200  0.25065325  1.0
  Ba  Ba4  1  0.69098800  0.44033475  0.74934675  1.0
  Ba  Ba5  1  0.30901200  1.05835875  0.74934675  1.0
  Ba  Ba6  1  0.69098800  0.94164125  1.25065325  1.0
  Ba  Ba7  1  0.30901200  0.55966525  0.25065325  1.0
  Ba  Ba8  1  0.56372717  0.89553012  0.66819705  1.0
  Ba  Ba9  1  0.77266692  0.10446988  0.66819705  1.0
  Ba  Ba10  1  1.22733308  0.89553012  1.33180295  1.0
  Ba  Ba11  1  0.43627283  0.10446988  0.33180295  1.0
  Ba  Ba12  1  0.89553012  0.56372717  0.66819705  1.0
  Ba  Ba13  1  0.10446988  0.77266692  0.66819705  1.0
  Ba  Ba14  1  0.89553012  1.22733308  1.33180295  1.0
  Ba  Ba15  1  0.10446988  0.43627283  0.33180295  1.0
  Ba  Ba16  1  0.66623667  0.66623667  1.33247333  1.0
  Ba  Ba17  1  0.33376333  0.66623667  1.00000000  1.0
  Ba  Ba18  1  0.66623667  0.33376333  1.00000000  1.0
  Ba  Ba19  1  0.33376333  0.33376333  0.66752667  1.0
  Ba  Ba20  1  0.84483311  0.84483311  1.00000000  1.0
  Ba  Ba21  1  0.15516689  0.15516689  -0.00000000  1.0
  Bi  Bi22  1  0.61065977  0.61065977  0.57997111  1.0
  Bi  Bi23  1  0.96931134  0.96931134  1.57997111  1.0
  Bi  Bi24  1  1.03068866  0.61065977  1.00000000  1.0
  Bi  Bi25  1  0.38934023  0.96931134  1.00000000  1.0
  Bi  Bi26  1  0.61065977  1.03068866  1.00000000  1.0
  Bi  Bi27  1  0.96931134  0.38934023  1.00000000  1.0
  Bi  Bi28  1  1.03068866  1.03068866  1.42002889  1.0
  Bi  Bi29  1  0.38934023  0.38934023  0.42002889  1.0
  Bi  Bi30  1  0.50000000  0.85728632  1.35728632  1.0
  Bi  Bi31  1  0.85728632  0.50000000  1.35728632  1.0
  Bi  Bi32  1  0.14271368  0.50000000  0.64271368  1.0
  Bi  Bi33  1  0.50000000  0.14271368  0.64271368  1.0
  Bi  Bi34  1  0.88036009  0.88036009  1.76072017  1.0
  Bi  Bi35  1  0.11963991  0.88036009  1.00000000  1.0
  Bi  Bi36  1  0.88036009  0.11963991  1.00000000  1.0
  Bi  Bi37  1  0.11963991  0.11963991  0.23927983  1.0
  Bi  Bi38  1  0.61854074  0.61854074  1.00000000  1.0
  Bi  Bi39  1  0.38145926  0.38145926  0.00000000  1.0
  Bi  Bi40  1  0.25000000  0.75000000  0.50000000  1.0
  Bi  Bi41  1  0.75000000  0.25000000  0.50000000  1.0
