# generated using pymatgen
data_Sn2PCO6
_symmetry_space_group_name_H-M   'P 1'
_cell_length_a   4.83344969
_cell_length_b   6.06511369
_cell_length_c   22.88859637
_cell_angle_alpha   90.00000000
_cell_angle_beta   94.43961983
_cell_angle_gamma   90.00000000
_symmetry_Int_Tables_number   1
_chemical_formula_structural   Sn2PCO6
_chemical_formula_sum   'Sn8 P4 C4 O24'
_cell_volume   668.97553187
_cell_formula_units_Z   4
loop_
 _symmetry_equiv_pos_site_id
 _symmetry_equiv_pos_as_xyz
  1  'x, y, z'
loop_
 _atom_site_type_symbol
 _atom_site_label
 _atom_site_symmetry_multiplicity
 _atom_site_fract_x
 _atom_site_fract_y
 _atom_site_fract_z
 _atom_site_occupancy
  Sn  Sn0  1  0.75817800  0.35483398  0.18536605  1.0
  Sn  Sn1  1  0.75817800  0.14516602  0.68536605  1.0
  Sn  Sn2  1  0.24182200  0.85483398  0.31463395  1.0
  Sn  Sn3  1  0.24182200  0.64516602  0.81463395  1.0
  Sn  Sn4  1  0.25137775  0.36787585  0.42844632  1.0
  Sn  Sn5  1  0.25137775  0.13212415  0.92844632  1.0
  Sn  Sn6  1  0.74862225  0.86787585  0.07155368  1.0
  Sn  Sn7  1  0.74862225  0.63212415  0.57155368  1.0
  P  P8  1  0.71790828  0.23946933  0.32655367  1.0
  P  P9  1  0.71790828  0.26053067  0.82655367  1.0
  P  P10  1  0.28209172  0.73946933  0.17344633  1.0
  P  P11  1  0.28209172  0.76053067  0.67344633  1.0
  C  C12  1  0.93871499  0.41591223  0.02106260  1.0
  C  C13  1  0.93871499  0.08408777  0.52106260  1.0
  C  C14  1  0.06128501  0.91591223  0.47893740  1.0
  C  C15  1  0.06128501  0.58408777  0.97893740  1.0
  O  O16  1  0.99520781  0.71666579  0.48467030  1.0
  O  O17  1  0.99520781  0.78333421  0.98467030  1.0
  O  O18  1  0.00479219  0.21666579  0.01532970  1.0
  O  O19  1  0.00479219  0.28333421  0.51532970  1.0
  O  O20  1  0.84675646  0.33312079  0.38596092  1.0
  O  O21  1  0.84675646  0.16687921  0.88596092  1.0
  O  O22  1  0.15324354  0.83312079  0.11403908  1.0
  O  O23  1  0.15324354  0.66687921  0.61403908  1.0
  O  O24  1  0.83957046  0.01207294  0.31036219  1.0
  O  O25  1  0.83957046  0.48792706  0.81036219  1.0
  O  O26  1  0.16042954  0.51207294  0.18963781  1.0
  O  O27  1  0.16042954  0.98792706  0.68963781  1.0
  O  O28  1  0.74571413  0.41496927  0.27801460  1.0
  O  O29  1  0.74571413  0.08503073  0.77801460  1.0
  O  O30  1  0.25428587  0.91496927  0.22198540  1.0
  O  O31  1  0.25428587  0.58503073  0.72198540  1.0
  O  O32  1  0.77977412  0.48904042  0.05815319  1.0
  O  O33  1  0.77977412  0.01095958  0.55815319  1.0
  O  O34  1  0.22022588  0.98904042  0.44184681  1.0
  O  O35  1  0.22022588  0.51095958  0.94184681  1.0
  O  O36  1  0.40154775  0.19438169  0.33598779  1.0
  O  O37  1  0.40154775  0.30561831  0.83598779  1.0
  O  O38  1  0.59845225  0.69438169  0.16401221  1.0
  O  O39  1  0.59845225  0.80561831  0.66401221  1.0
