# generated using pymatgen
data_KNa4SnSb3
_symmetry_space_group_name_H-M   'P 1'
_cell_length_a   9.26593936
_cell_length_b   8.37054586
_cell_length_c   17.41619980
_cell_angle_alpha   90.00000000
_cell_angle_beta   121.61408517
_cell_angle_gamma   90.00000000
_symmetry_Int_Tables_number   1
_chemical_formula_structural   KNa4SnSb3
_chemical_formula_sum   'K4 Na16 Sn4 Sb12'
_cell_volume   1150.35348724
_cell_formula_units_Z   4
loop_
 _symmetry_equiv_pos_site_id
 _symmetry_equiv_pos_as_xyz
  1  'x, y, z'
loop_
 _atom_site_type_symbol
 _atom_site_label
 _atom_site_symmetry_multiplicity
 _atom_site_fract_x
 _atom_site_fract_y
 _atom_site_fract_z
 _atom_site_occupancy
  K  K0  1  0.08871389  0.52508625  0.91302801  1.0
  K  K1  1  0.08871389  0.97491375  0.41302801  1.0
  K  K2  1  0.91128611  0.02508625  0.58697199  1.0
  K  K3  1  0.91128611  0.47491375  0.08697199  1.0
  Na  Na4  1  0.83743631  0.16214813  0.91697211  1.0
  Na  Na5  1  0.83743631  0.33785187  0.41697211  1.0
  Na  Na6  1  0.16256369  0.66214813  0.58302789  1.0
  Na  Na7  1  0.16256369  0.83785187  0.08302789  1.0
  Na  Na8  1  0.57259567  0.50400717  0.74199363  1.0
  Na  Na9  1  0.57259567  0.99599283  0.24199363  1.0
  Na  Na10  1  0.42740433  0.00400717  0.75800637  1.0
  Na  Na11  1  0.42740433  0.49599283  0.25800637  1.0
  Na  Na12  1  0.22506598  0.05366394  0.90431199  1.0
  Na  Na13  1  0.22506598  0.44633606  0.40431199  1.0
  Na  Na14  1  0.77493402  0.55366394  0.59568801  1.0
  Na  Na15  1  0.77493402  0.94633606  0.09568801  1.0
  Na  Na16  1  0.17146231  0.37479947  0.74099481  1.0
  Na  Na17  1  0.17146231  0.12520053  0.24099481  1.0
  Na  Na18  1  0.82853769  0.87479947  0.75900519  1.0
  Na  Na19  1  0.82853769  0.62520053  0.25900519  1.0
  Sn  Sn20  1  0.52168668  0.15370424  0.58998274  1.0
  Sn  Sn21  1  0.52168668  0.34629576  0.08998274  1.0
  Sn  Sn22  1  0.47831332  0.65370424  0.91001726  1.0
  Sn  Sn23  1  0.47831332  0.84629576  0.41001726  1.0
  Sb  Sb24  1  0.23294327  0.28961067  0.58439301  1.0
  Sb  Sb25  1  0.23294327  0.21038933  0.08439301  1.0
  Sb  Sb26  1  0.76705673  0.78961067  0.91560699  1.0
  Sb  Sb27  1  0.76705673  0.71038933  0.41560699  1.0
  Sb  Sb28  1  0.83626670  0.26129582  0.73901689  1.0
  Sb  Sb29  1  0.83626670  0.23870418  0.23901689  1.0
  Sb  Sb30  1  0.16373330  0.76129582  0.76098311  1.0
  Sb  Sb31  1  0.16373330  0.73870418  0.26098311  1.0
  Sb  Sb32  1  0.51492106  0.30140427  0.92193672  1.0
  Sb  Sb33  1  0.51492106  0.19859573  0.42193672  1.0
  Sb  Sb34  1  0.48507894  0.80140427  0.57806328  1.0
  Sb  Sb35  1  0.48507894  0.69859573  0.07806328  1.0
