# generated using pymatgen
data_KAsO3
_symmetry_space_group_name_H-M   'P 1'
_cell_length_a   11.51425655
_cell_length_b   11.90017440
_cell_length_c   5.04274438
_cell_angle_alpha   90.00000000
_cell_angle_beta   90.00000000
_cell_angle_gamma   90.00000000
_symmetry_Int_Tables_number   1
_chemical_formula_structural   KAsO3
_chemical_formula_sum   'K8 As8 O24'
_cell_volume   690.96521051
_cell_formula_units_Z   8
loop_
 _symmetry_equiv_pos_site_id
 _symmetry_equiv_pos_as_xyz
  1  'x, y, z'
loop_
 _atom_site_type_symbol
 _atom_site_label
 _atom_site_symmetry_multiplicity
 _atom_site_fract_x
 _atom_site_fract_y
 _atom_site_fract_z
 _atom_site_occupancy
  K  K0  1  0.50000000  0.31123613  0.75000000  1.0
  K  K1  1  0.50000000  0.68876387  0.25000000  1.0
  K  K2  1  -0.00000000  0.81123613  0.75000000  1.0
  K  K3  1  0.00000000  0.18876387  0.25000000  1.0
  K  K4  1  0.50000000  0.89039491  0.75000000  1.0
  K  K5  1  0.50000000  0.10960509  0.25000000  1.0
  K  K6  1  -0.00000000  0.39039491  0.75000000  1.0
  K  K7  1  0.00000000  0.60960509  0.25000000  1.0
  As  As8  1  0.22892131  0.08723100  0.77446225  1.0
  As  As9  1  0.22892131  0.91276900  0.27446225  1.0
  As  As10  1  0.72892131  0.58723100  0.72553775  1.0
  As  As11  1  0.72892131  0.41276900  0.22553775  1.0
  As  As12  1  0.77107869  0.08723100  0.72553775  1.0
  As  As13  1  0.77107869  0.91276900  0.22553775  1.0
  As  As14  1  0.27107869  0.58723100  0.77446225  1.0
  As  As15  1  0.27107869  0.41276900  0.27446225  1.0
  O  O16  1  0.37488120  0.09789277  0.75017772  1.0
  O  O17  1  0.37488120  0.90210723  0.25017772  1.0
  O  O18  1  0.87488120  0.59789277  0.74982228  1.0
  O  O19  1  0.87488120  0.40210723  0.24982228  1.0
  O  O20  1  0.62511880  0.09789277  0.74982228  1.0
  O  O21  1  0.62511880  0.90210723  0.24982228  1.0
  O  O22  1  0.12511880  0.59789277  0.75017772  1.0
  O  O23  1  0.12511880  0.40210723  0.25017772  1.0
  O  O24  1  0.31793448  0.45816759  0.60424720  1.0
  O  O25  1  0.31793448  0.54183241  0.10424720  1.0
  O  O26  1  0.81793448  0.95816759  0.89575280  1.0
  O  O27  1  0.81793448  0.04183241  0.39575280  1.0
  O  O28  1  0.68206552  0.45816759  0.89575280  1.0
  O  O29  1  0.68206552  0.54183241  0.39575280  1.0
  O  O30  1  0.18206552  0.95816759  0.60424720  1.0
  O  O31  1  0.18206552  0.04183241  0.10424720  1.0
  O  O32  1  0.13769141  0.19344607  0.70552913  1.0
  O  O33  1  0.13769141  0.80655393  0.20552913  1.0
  O  O34  1  0.63769141  0.69344607  0.79447087  1.0
  O  O35  1  0.63769141  0.30655393  0.29447087  1.0
  O  O36  1  0.86230859  0.19344607  0.79447087  1.0
  O  O37  1  0.86230859  0.80655393  0.29447087  1.0
  O  O38  1  0.36230859  0.69344607  0.70552913  1.0
  O  O39  1  0.36230859  0.30655393  0.20552913  1.0
