# generated using pymatgen
data_Ga10GePb3O20
_symmetry_space_group_name_H-M   'P 1'
_cell_length_a   9.90510669
_cell_length_b   9.90510669
_cell_length_c   5.18217299
_cell_angle_alpha   74.65411429
_cell_angle_beta   105.34588571
_cell_angle_gamma   106.42250858
_symmetry_Int_Tables_number   1
_chemical_formula_structural   Ga10GePb3O20
_chemical_formula_sum   'Ga10 Ge1 Pb3 O20'
_cell_volume   460.28894826
_cell_formula_units_Z   1
loop_
 _symmetry_equiv_pos_site_id
 _symmetry_equiv_pos_as_xyz
  1  'x, y, z'
loop_
 _atom_site_type_symbol
 _atom_site_label
 _atom_site_symmetry_multiplicity
 _atom_site_fract_x
 _atom_site_fract_y
 _atom_site_fract_z
 _atom_site_occupancy
  Ga  Ga0  1  0.34909707  0.07869902  0.16411208  1.0
  Ga  Ga1  1  0.92130098  0.65090293  0.16411208  1.0
  Ga  Ga2  1  1.07869902  -0.65090293  0.83588792  1.0
  Ga  Ga3  1  1.65090293  -0.07869902  0.83588792  1.0
  Ga  Ga4  1  1.49334475  -0.22030413  0.33868765  1.0
  Ga  Ga5  1  1.22030413  -0.49334475  0.33868765  1.0
  Ga  Ga6  1  0.77969587  0.49334475  0.66131235  1.0
  Ga  Ga7  1  0.50665525  0.22030413  0.66131235  1.0
  Ga  Ga8  1  0.13316475  0.13316475  0.50000000  1.0
  Ga  Ga9  1  0.86683525  0.86683525  0.50000000  1.0
  Ge  Ge10  1  0.00000000  0.00000000  0.00000000  1.0
  Pb  Pb11  1  1.22377172  -0.22377172  0.65975246  1.0
  Pb  Pb12  1  0.77622828  0.22377172  0.34024754  1.0
  Pb  Pb13  1  0.50000000  0.50000000  -0.00000000  1.0
  O  O14  1  0.18328075  0.04530884  0.89634050  1.0
  O  O15  1  0.95469116  0.81671925  0.89634050  1.0
  O  O16  1  1.04530884  -0.81671925  0.10365950  1.0
  O  O17  1  1.81671925  -0.04530884  0.10365950  1.0
  O  O18  1  0.49081855  0.21998529  0.00933018  1.0
  O  O19  1  0.78001471  0.50918145  0.00933018  1.0
  O  O20  1  1.21998529  -0.50918145  0.99066982  1.0
  O  O21  1  1.50918145  -0.21998529  0.99066982  1.0
  O  O22  1  1.37653174  -0.10356356  0.34406425  1.0
  O  O23  1  1.10356356  -0.37653174  0.34406425  1.0
  O  O24  1  0.89643644  0.37653174  0.65593575  1.0
  O  O25  1  0.62346826  0.10356356  0.65593575  1.0
  O  O26  1  1.67248760  -0.16041145  0.56310007  1.0
  O  O27  1  1.16041145  -0.67248760  0.56310007  1.0
  O  O28  1  0.83958855  0.67248760  0.43689993  1.0
  O  O29  1  0.32751240  0.16041145  0.43689993  1.0
  O  O30  1  1.06661379  -0.06661379  0.38443126  1.0
  O  O31  1  0.93338621  0.06661379  0.61556874  1.0
  O  O32  1  1.40247651  -0.40247651  0.50059005  1.0
  O  O33  1  0.59752349  0.40247651  0.49940995  1.0
