# generated using pymatgen
data_KLu(MoO4)2
_symmetry_space_group_name_H-M   'P 1'
_cell_length_a   5.06561826
_cell_length_b   18.83537690
_cell_length_c   8.03944126
_cell_angle_alpha   90.00000000
_cell_angle_beta   90.00000000
_cell_angle_gamma   90.00000000
_symmetry_Int_Tables_number   1
_chemical_formula_structural   KLu(MoO4)2
_chemical_formula_sum   'K4 Lu4 Mo8 O32'
_cell_volume   767.06583481
_cell_formula_units_Z   4
loop_
 _symmetry_equiv_pos_site_id
 _symmetry_equiv_pos_as_xyz
  1  'x, y, z'
loop_
 _atom_site_type_symbol
 _atom_site_label
 _atom_site_symmetry_multiplicity
 _atom_site_fract_x
 _atom_site_fract_y
 _atom_site_fract_z
 _atom_site_occupancy
  K  K0  1  0.50000000  0.72360739  0.25000000  1.0
  K  K1  1  0.50000000  0.27639261  0.75000000  1.0
  K  K2  1  0.00000000  0.22360739  0.25000000  1.0
  K  K3  1  0.00000000  0.77639261  0.75000000  1.0
  Lu  Lu4  1  0.50000000  0.49711391  0.25000000  1.0
  Lu  Lu5  1  0.50000000  0.50288609  0.75000000  1.0
  Lu  Lu6  1  0.00000000  0.99711391  0.25000000  1.0
  Lu  Lu7  1  0.00000000  0.00288609  0.75000000  1.0
  Mo  Mo8  1  0.47460120  0.09885629  0.00595011  1.0
  Mo  Mo9  1  0.47460120  0.90114371  0.50595011  1.0
  Mo  Mo10  1  0.97460120  0.59885629  0.49404989  1.0
  Mo  Mo11  1  0.97460120  0.40114371  0.99404989  1.0
  Mo  Mo12  1  0.52539880  0.09885629  0.49404989  1.0
  Mo  Mo13  1  0.52539880  0.90114371  0.99404989  1.0
  Mo  Mo14  1  0.02539880  0.59885629  0.00595011  1.0
  Mo  Mo15  1  0.02539880  0.40114371  0.50595011  1.0
  O  O16  1  0.40461779  0.18517166  0.48866311  1.0
  O  O17  1  0.40461779  0.81482834  0.98866311  1.0
  O  O18  1  0.90461779  0.68517166  0.01133689  1.0
  O  O19  1  0.90461779  0.31482834  0.51133689  1.0
  O  O20  1  0.59538221  0.18517166  0.01133689  1.0
  O  O21  1  0.59538221  0.81482834  0.51133689  1.0
  O  O22  1  0.09538221  0.68517166  0.48866311  1.0
  O  O23  1  0.09538221  0.31482834  0.98866311  1.0
  O  O24  1  0.25648579  0.09048608  0.18090488  1.0
  O  O25  1  0.25648579  0.90951392  0.68090488  1.0
  O  O26  1  0.75648579  0.59048608  0.31909512  1.0
  O  O27  1  0.75648579  0.40951392  0.81909512  1.0
  O  O28  1  0.74351421  0.09048608  0.31909512  1.0
  O  O29  1  0.74351421  0.90951392  0.81909512  1.0
  O  O30  1  0.24351421  0.59048608  0.18090488  1.0
  O  O31  1  0.24351421  0.40951392  0.68090488  1.0
  O  O32  1  0.25309344  0.46455117  0.00215051  1.0
  O  O33  1  0.25309344  0.53544883  0.50215051  1.0
  O  O34  1  0.75309344  0.96455117  0.49784949  1.0
  O  O35  1  0.75309344  0.03544883  0.99784949  1.0
  O  O36  1  0.74690656  0.46455117  0.49784949  1.0
  O  O37  1  0.74690656  0.53544883  0.99784949  1.0
  O  O38  1  0.24690656  0.96455117  0.00215051  1.0
  O  O39  1  0.24690656  0.03544883  0.50215051  1.0
  O  O40  1  0.23674034  0.40690310  0.32971650  1.0
  O  O41  1  0.23674034  0.59309690  0.82971650  1.0
  O  O42  1  0.73674034  0.90690310  0.17028350  1.0
  O  O43  1  0.73674034  0.09309690  0.67028350  1.0
  O  O44  1  0.76325966  0.40690310  0.17028350  1.0
  O  O45  1  0.76325966  0.59309690  0.67028350  1.0
  O  O46  1  0.26325966  0.90690310  0.32971650  1.0
  O  O47  1  0.26325966  0.09309690  0.82971650  1.0
