# generated using pymatgen
data_LuMn2O5
_symmetry_space_group_name_H-M   'P 1'
_cell_length_a   7.23872379
_cell_length_b   8.45853559
_cell_length_c   5.69676930
_cell_angle_alpha   90.00000000
_cell_angle_beta   90.00000000
_cell_angle_gamma   90.00000000
_symmetry_Int_Tables_number   1
_chemical_formula_structural   LuMn2O5
_chemical_formula_sum   'Lu4 Mn8 O20'
_cell_volume   348.80750323
_cell_formula_units_Z   4
loop_
 _symmetry_equiv_pos_site_id
 _symmetry_equiv_pos_as_xyz
  1  'x, y, z'
loop_
 _atom_site_type_symbol
 _atom_site_label
 _atom_site_symmetry_multiplicity
 _atom_site_fract_x
 _atom_site_fract_y
 _atom_site_fract_z
 _atom_site_occupancy
  Mn  Mn0  1  0.41093206  0.65106116  -0.00000000  1.0
  Mn  Mn1  1  0.91093206  0.84893884  0.00000000  1.0
  Mn  Mn2  1  0.58906794  0.34893884  -0.00000000  1.0
  Mn  Mn3  1  0.08906794  0.15106116  0.00000000  1.0
  Mn  Mn4  1  0.50000000  0.00000000  0.75326002  1.0
  Mn  Mn5  1  0.50000000  0.00000000  0.24673998  1.0
  Mn  Mn6  1  0.00000000  0.50000000  0.75326002  1.0
  Mn  Mn7  1  0.00000000  0.50000000  0.24673998  1.0
  Lu  Lu8  1  0.13782337  0.82976837  0.50000000  1.0
  Lu  Lu9  1  0.63782337  0.67023163  0.50000000  1.0
  Lu  Lu10  1  0.86217663  0.17023163  0.50000000  1.0
  Lu  Lu11  1  0.36217663  0.32976837  0.50000000  1.0
  O  O12  1  0.39132425  0.79279373  0.74174332  1.0
  O  O13  1  0.39132425  0.79279373  0.25825668  1.0
  O  O14  1  0.89132425  0.70720627  0.74174332  1.0
  O  O15  1  0.89132425  0.70720627  0.25825668  1.0
  O  O16  1  0.60867575  0.20720627  0.74174332  1.0
  O  O17  1  0.60867575  0.20720627  0.25825668  1.0
  O  O18  1  0.10867575  0.29279373  0.74174332  1.0
  O  O19  1  0.10867575  0.29279373  0.25825668  1.0
  O  O20  1  0.16460645  0.55819886  0.50000000  1.0
  O  O21  1  0.66460645  0.94180114  0.50000000  1.0
  O  O22  1  0.83539355  0.44180114  0.50000000  1.0
  O  O23  1  0.33539355  0.05819886  0.50000000  1.0
  O  O24  1  0.50000000  0.50000000  0.76918891  1.0
  O  O25  1  0.50000000  0.50000000  0.23081109  1.0
  O  O26  1  0.00000000  0.00000000  0.76918891  1.0
  O  O27  1  0.00000000  0.00000000  0.23081109  1.0
  O  O28  1  0.15292001  0.56814155  0.00000000  1.0
  O  O29  1  0.65292001  0.93185845  -0.00000000  1.0
  O  O30  1  0.84707999  0.43185845  0.00000000  1.0
  O  O31  1  0.34707999  0.06814155  -0.00000000  1.0
