# generated using pymatgen
data_Ta2MnZn2O8
_symmetry_space_group_name_H-M   'P 1'
_cell_length_a   10.19683266
_cell_length_b   10.19683266
_cell_length_c   5.29831528
_cell_angle_alpha   89.77142940
_cell_angle_beta   90.22857060
_cell_angle_gamma   146.07502268
_symmetry_Int_Tables_number   1
_chemical_formula_structural   Ta2MnZn2O8
_chemical_formula_sum   'Ta4 Mn2 Zn4 O16'
_cell_volume   307.45530215
_cell_formula_units_Z   2
loop_
 _symmetry_equiv_pos_site_id
 _symmetry_equiv_pos_as_xyz
  1  'x, y, z'
loop_
 _atom_site_type_symbol
 _atom_site_label
 _atom_site_symmetry_multiplicity
 _atom_site_fract_x
 _atom_site_fract_y
 _atom_site_fract_z
 _atom_site_occupancy
  Ta  Ta0  1  0.27214264  0.04002351  0.73100165  1.0
  Ta  Ta1  1  0.95997649  0.72785736  0.23100165  1.0
  Ta  Ta2  1  1.04002351  0.27214264  0.76899835  1.0
  Ta  Ta3  1  0.72785736  -0.04002351  0.26899835  1.0
  Mn  Mn4  1  0.65109613  0.65109613  0.75000000  1.0
  Mn  Mn5  1  0.34890387  0.34890387  0.25000000  1.0
  Zn  Zn6  1  0.43499412  -0.12867672  0.77036206  1.0
  Zn  Zn7  1  1.12867672  0.56500588  0.27036206  1.0
  Zn  Zn8  1  0.87132328  0.43499412  0.72963794  1.0
  Zn  Zn9  1  0.56500588  0.12867672  0.22963794  1.0
  O  O10  1  0.81688812  -0.04187938  0.93578943  1.0
  O  O11  1  1.04187938  0.18311188  0.43578943  1.0
  O  O12  1  0.95812062  0.81688812  0.56421057  1.0
  O  O13  1  0.18311188  0.04187938  0.06421057  1.0
  O  O14  1  0.71828219  0.07393057  0.57023033  1.0
  O  O15  1  0.92606943  0.28171781  0.07023033  1.0
  O  O16  1  1.07393057  0.71828219  0.92976967  1.0
  O  O17  1  0.28171781  -0.07393057  0.42976967  1.0
  O  O18  1  0.54496883  0.15711223  0.85836554  1.0
  O  O19  1  0.84288777  0.45503117  0.35836554  1.0
  O  O20  1  1.15711223  0.54496883  0.64163446  1.0
  O  O21  1  0.45503117  -0.15711223  0.14163446  1.0
  O  O22  1  1.31393429  0.43289257  0.90966909  1.0
  O  O23  1  0.56710743  -0.31393429  0.40966909  1.0
  O  O24  1  0.43289257  0.31393429  0.59033091  1.0
  O  O25  1  0.68606571  0.56710743  0.09033091  1.0
