# generated using pymatgen
data_NaSr3Be3B3O9F4
_symmetry_space_group_name_H-M   'P 1'
_cell_length_a   6.75791487
_cell_length_b   6.75791487
_cell_length_c   6.75791487
_cell_angle_alpha   103.74711415
_cell_angle_beta   103.74711415
_cell_angle_gamma   103.74711415
_symmetry_Int_Tables_number   1
_chemical_formula_structural   NaSr3Be3B3O9F4
_chemical_formula_sum   'Na1 Sr3 Be3 B3 O9 F4'
_cell_volume   276.69272621
_cell_formula_units_Z   1
loop_
 _symmetry_equiv_pos_site_id
 _symmetry_equiv_pos_as_xyz
  1  'x, y, z'
loop_
 _atom_site_type_symbol
 _atom_site_label
 _atom_site_symmetry_multiplicity
 _atom_site_fract_x
 _atom_site_fract_y
 _atom_site_fract_z
 _atom_site_occupancy
  Na  Na0  1  0.72121012  -0.27878988  -0.27878988  1.0
  Sr  Sr1  1  1.12531667  0.51783234  0.51783234  1.0
  Sr  Sr2  1  1.51783234  0.51783234  0.12531667  1.0
  Sr  Sr3  1  1.51783234  0.12531667  0.51783234  1.0
  Be  Be4  1  0.20576951  -0.06879124  -0.06879124  1.0
  Be  Be5  1  0.93120876  -0.06879124  -0.79423049  1.0
  Be  Be6  1  0.93120876  -0.79423049  -0.06879124  1.0
  B  B7  1  0.60253083  1.06638160  0.06638160  1.0
  B  B8  1  1.06638160  1.06638160  -0.39746917  1.0
  B  B9  1  1.06638160  0.60253083  0.06638160  1.0
  O  O10  1  1.16304395  1.68924511  -0.06519577  1.0
  O  O11  1  1.16304395  0.93480423  0.68924511  1.0
  O  O12  1  0.93480423  1.68924511  0.16304395  1.0
  O  O13  1  0.93480423  1.16304395  0.68924511  1.0
  O  O14  1  1.68924511  1.16304395  -0.06519577  1.0
  O  O15  1  1.68924511  0.93480423  0.16304395  1.0
  O  O16  1  1.41842836  0.10365673  0.10365673  1.0
  O  O17  1  1.10365673  0.10365673  0.41842836  1.0
  O  O18  1  1.10365673  0.41842836  0.10365673  1.0
  F  F19  1  1.73918317  0.45643946  0.45643946  1.0
  F  F20  1  1.45643946  0.45643946  0.73918317  1.0
  F  F21  1  1.45643946  0.73918317  0.45643946  1.0
  F  F22  1  1.00373699  1.00373699  0.00373699  1.0
