# generated using pymatgen
data_CdI2
_symmetry_space_group_name_H-M   'P 1'
_cell_length_a   4.32825498
_cell_length_b   4.32825498
_cell_length_c   75.89163686
_cell_angle_alpha   90.00000000
_cell_angle_beta   90.00000000
_cell_angle_gamma   120.00000000
_symmetry_Int_Tables_number   1
_chemical_formula_structural   CdI2
_chemical_formula_sum   'Cd10 I20'
_cell_volume   1231.26129247
_cell_formula_units_Z   10
loop_
 _symmetry_equiv_pos_site_id
 _symmetry_equiv_pos_as_xyz
  1  'x, y, z'
loop_
 _atom_site_type_symbol
 _atom_site_label
 _atom_site_symmetry_multiplicity
 _atom_site_fract_x
 _atom_site_fract_y
 _atom_site_fract_z
 _atom_site_occupancy
  Cd  Cd0  1  -0.00000000  -0.00000000  0.02501160  1.0
  Cd  Cd1  1  -0.00000000  -0.00000000  0.12498148  1.0
  Cd  Cd2  1  -0.00000000  -0.00000000  0.32499691  1.0
  Cd  Cd3  1  -0.00000000  -0.00000000  0.52499661  1.0
  Cd  Cd4  1  -0.00000000  -0.00000000  0.72499779  1.0
  Cd  Cd5  1  0.66666667  0.33333333  0.22499784  1.0
  Cd  Cd6  1  0.66666667  0.33333333  0.42499626  1.0
  Cd  Cd7  1  0.66666667  0.33333333  0.62499608  1.0
  Cd  Cd8  1  0.66666667  0.33333333  0.82500988  1.0
  Cd  Cd9  1  0.66666667  0.33333333  0.92498280  1.0
  I  I10  1  -0.00000000  -0.00000000  0.24765559  1.0
  I  I11  1  -0.00000000  -0.00000000  0.44765314  1.0
  I  I12  1  -0.00000000  -0.00000000  0.64765349  1.0
  I  I13  1  -0.00000000  -0.00000000  0.84766660  1.0
  I  I14  1  -0.00000000  -0.00000000  0.94764161  1.0
  I  I15  1  0.66666667  0.33333333  0.04766879  1.0
  I  I16  1  0.66666667  0.33333333  0.14764015  1.0
  I  I17  1  0.66666667  0.33333333  0.34765433  1.0
  I  I18  1  0.66666667  0.33333333  0.54765433  1.0
  I  I19  1  0.66666667  0.33333333  0.74765511  1.0
  I  I20  1  0.33333333  0.66666667  0.00236484  1.0
  I  I21  1  0.33333333  0.66666667  0.10233066  1.0
  I  I22  1  0.33333333  0.66666667  0.20235005  1.0
  I  I23  1  0.33333333  0.66666667  0.30234997  1.0
  I  I24  1  0.33333333  0.66666667  0.40234878  1.0
  I  I25  1  0.33333333  0.66666667  0.50234987  1.0
  I  I26  1  0.33333333  0.66666667  0.60234906  1.0
  I  I27  1  0.33333333  0.66666667  0.70235069  1.0
  I  I28  1  0.33333333  0.66666667  0.80236361  1.0
  I  I29  1  0.33333333  0.66666667  0.90233207  1.0
