# generated using pymatgen
data_ScMnO3
_symmetry_space_group_name_H-M   'P 1'
_cell_length_a   5.89273415
_cell_length_b   5.89273415
_cell_length_c   11.22483687
_cell_angle_alpha   90.00000000
_cell_angle_beta   90.00000000
_cell_angle_gamma   120.00000000
_symmetry_Int_Tables_number   1
_chemical_formula_structural   ScMnO3
_chemical_formula_sum   'Sc6 Mn6 O18'
_cell_volume   337.55486085
_cell_formula_units_Z   6
loop_
 _symmetry_equiv_pos_site_id
 _symmetry_equiv_pos_as_xyz
  1  'x, y, z'
loop_
 _atom_site_type_symbol
 _atom_site_label
 _atom_site_symmetry_multiplicity
 _atom_site_fract_x
 _atom_site_fract_y
 _atom_site_fract_z
 _atom_site_occupancy
  Sc  Sc0  1  0.33333333  0.66666667  0.04435344  1.0
  Sc  Sc1  1  0.33333333  0.66666667  0.54435344  1.0
  Sc  Sc2  1  0.66666667  0.33333333  0.04435344  1.0
  Sc  Sc3  1  0.66666667  0.33333333  0.54435344  1.0
  Sc  Sc4  1  0.00000000  0.00000000  -0.00133725  1.0
  Sc  Sc5  1  0.00000000  0.00000000  0.49866275  1.0
  Mn  Mn6  1  0.66680071  0.66680071  0.27408722  1.0
  Mn  Mn7  1  0.66680071  0.00000000  0.77408722  1.0
  Mn  Mn8  1  -0.00000000  0.66680071  0.77408722  1.0
  Mn  Mn9  1  0.00000000  0.33319929  0.27408722  1.0
  Mn  Mn10  1  0.33319929  0.33319929  0.77408722  1.0
  Mn  Mn11  1  0.33319929  0.00000000  0.27408722  1.0
  O  O12  1  0.69701508  0.69701508  0.10580978  1.0
  O  O13  1  0.69701508  0.00000000  0.60580978  1.0
  O  O14  1  -0.00000000  0.69701508  0.60580978  1.0
  O  O15  1  -0.00000000  0.30298492  0.10580978  1.0
  O  O16  1  0.30298492  0.30298492  0.60580978  1.0
  O  O17  1  0.30298492  0.00000000  0.10580978  1.0
  O  O18  1  0.63529679  0.63529679  0.44118049  1.0
  O  O19  1  0.63529679  0.00000000  0.94118049  1.0
  O  O20  1  -0.00000000  0.63529679  0.94118049  1.0
  O  O21  1  -0.00000000  0.36470321  0.44118049  1.0
  O  O22  1  0.36470321  0.36470321  0.94118049  1.0
  O  O23  1  0.36470321  0.00000000  0.44118049  1.0
  O  O24  1  0.33333333  0.66666667  0.24869361  1.0
  O  O25  1  0.33333333  0.66666667  0.74869361  1.0
  O  O26  1  0.66666667  0.33333333  0.24869361  1.0
  O  O27  1  0.66666667  0.33333333  0.74869361  1.0
  O  O28  1  0.00000000  0.00000000  0.30471069  1.0
  O  O29  1  0.00000000  0.00000000  0.80471069  1.0
