# generated using pymatgen
data_Mg2C
_symmetry_space_group_name_H-M   'P 1'
_cell_length_a   5.07670946
_cell_length_b   5.07670946
_cell_length_c   3.53870081
_cell_angle_alpha   90.00000000
_cell_angle_beta   90.00000000
_cell_angle_gamma   90.00000000
_symmetry_Int_Tables_number   1
_chemical_formula_structural   Mg2C
_chemical_formula_sum   'Mg4 C2'
_cell_volume   91.20286152
_cell_formula_units_Z   2
loop_
 _symmetry_equiv_pos_site_id
 _symmetry_equiv_pos_as_xyz
  1  'x, y, z'
loop_
 _atom_site_type_symbol
 _atom_site_label
 _atom_site_symmetry_multiplicity
 _atom_site_fract_x
 _atom_site_fract_y
 _atom_site_fract_z
 _atom_site_occupancy
  Mg  Mg0  1  0.69288743  0.69288743  0.00000000  1.0
  Mg  Mg1  1  0.30711257  0.30711257  0.00000000  1.0
  Mg  Mg2  1  0.80711257  0.19288743  0.50000000  1.0
  Mg  Mg3  1  0.19288743  0.80711257  0.50000000  1.0
  C  C4  1  0.00000000  0.00000000  0.00000000  1.0
  C  C5  1  0.50000000  0.50000000  0.50000000  1.0
