# generated using pymatgen
data_GaPO4
_symmetry_space_group_name_H-M   'P 1'
_cell_length_a   4.99279005
_cell_length_b   4.99279005
_cell_length_c   11.24373029
_cell_angle_alpha   90.00000000
_cell_angle_beta   90.00000000
_cell_angle_gamma   120.00000000
_symmetry_Int_Tables_number   1
_chemical_formula_structural   GaPO4
_chemical_formula_sum   'Ga3 P3 O12'
_cell_volume   242.73234919
_cell_formula_units_Z   3
loop_
 _symmetry_equiv_pos_site_id
 _symmetry_equiv_pos_as_xyz
  1  'x, y, z'
loop_
 _atom_site_type_symbol
 _atom_site_label
 _atom_site_symmetry_multiplicity
 _atom_site_fract_x
 _atom_site_fract_y
 _atom_site_fract_z
 _atom_site_occupancy
  Ga  Ga0  1  0.54062337  0.54062337  0.50000000  1.0
  Ga  Ga1  1  0.00000000  0.45937663  0.16666667  1.0
  Ga  Ga2  1  0.45937663  0.00000000  0.83333333  1.0
  P  P3  1  0.53975366  0.53975366  -0.00000000  1.0
  P  P4  1  0.00000000  0.46024634  0.66666667  1.0
  P  P5  1  0.46024634  -0.00000000  0.33333333  1.0
  O  O6  1  0.09299882  0.68606492  0.77364064  1.0
  O  O7  1  0.68606492  0.09299882  0.22635936  1.0
  O  O8  1  0.59306610  0.90700118  0.44030731  1.0
  O  O9  1  0.31393508  0.40693390  0.10697397  1.0
  O  O10  1  0.90700118  0.59306610  0.55969269  1.0
  O  O11  1  0.40693390  0.31393508  0.89302603  1.0
  O  O12  1  0.85932266  0.58946073  0.03950206  1.0
  O  O13  1  0.58946073  0.85932266  0.96049794  1.0
  O  O14  1  0.73013807  0.14067734  0.70616873  1.0
  O  O15  1  0.41053927  0.26986193  0.37283539  1.0
  O  O16  1  0.14067734  0.73013807  0.29383127  1.0
  O  O17  1  0.26986193  0.41053927  0.62716461  1.0
