# generated using pymatgen
data_ZrH6(OF3)2
_symmetry_space_group_name_H-M   'P 1'
_cell_length_a   7.38744538
_cell_length_b   7.38744538
_cell_length_c   6.83705340
_cell_angle_alpha   78.35630170
_cell_angle_beta   101.64369830
_cell_angle_gamma   59.95220142
_symmetry_Int_Tables_number   1
_chemical_formula_structural   ZrH6(OF3)2
_chemical_formula_sum   'Zr2 H12 O4 F12'
_cell_volume   295.45930717
_cell_formula_units_Z   2
loop_
 _symmetry_equiv_pos_site_id
 _symmetry_equiv_pos_as_xyz
  1  'x, y, z'
loop_
 _atom_site_type_symbol
 _atom_site_label
 _atom_site_symmetry_multiplicity
 _atom_site_fract_x
 _atom_site_fract_y
 _atom_site_fract_z
 _atom_site_occupancy
  Zr  Zr0  1  0.54579640  -0.45420360  0.75000000  1.0
  Zr  Zr1  1  0.45420360  0.45420360  0.25000000  1.0
  H  H2  1  0.73101320  -0.08882279  0.43047531  1.0
  H  H3  1  1.08882279  -0.73101320  0.93047531  1.0
  H  H4  1  0.91117721  -0.26898680  0.06952469  1.0
  H  H5  1  0.26898680  0.08882279  0.56952469  1.0
  H  H6  1  0.65668797  -0.12309395  0.87458123  1.0
  H  H7  1  1.12309395  -0.65668797  0.37458123  1.0
  H  H8  1  0.87690605  -0.34331203  0.62541877  1.0
  H  H9  1  0.34331203  0.12309395  0.12541877  1.0
  H  H10  1  0.77383805  0.01347970  0.94857224  1.0
  H  H11  1  0.98652030  -0.77383805  0.44857224  1.0
  H  H12  1  1.01347970  -0.22616195  0.55142776  1.0
  H  H13  1  0.22616195  -0.01347970  0.05142776  1.0
  O  O14  1  0.75995938  -0.11940328  0.99477752  1.0
  O  O15  1  1.11940328  -0.75995938  0.49477752  1.0
  O  O16  1  0.88059672  -0.24004062  0.50522248  1.0
  O  O17  1  0.24004062  0.11940328  0.00522248  1.0
  F  F18  1  0.49813054  -0.13121838  0.69934732  1.0
  F  F19  1  1.13121838  -0.49813054  0.19934732  1.0
  F  F20  1  0.86878162  -0.50186946  0.80065268  1.0
  F  F21  1  0.50186946  0.13121838  0.30065268  1.0
  F  F22  1  0.78167767  0.20927564  0.89675330  1.0
  F  F23  1  0.79072436  -0.78167767  0.39675330  1.0
  F  F24  1  1.20927564  -0.21832233  0.60324670  1.0
  F  F25  1  0.21832233  -0.20927564  0.10324670  1.0
  F  F26  1  1.38773010  -0.56600217  0.94122968  1.0
  F  F27  1  0.56600217  -0.38773010  0.44122968  1.0
  F  F28  1  0.43399783  0.38773010  0.55877032  1.0
  F  F29  1  0.61226990  -0.43399783  0.05877032  1.0
