# generated using pymatgen
data_NiSe
_symmetry_space_group_name_H-M   'P 1'
_cell_length_a   5.88879322
_cell_length_b   5.88879322
_cell_length_c   5.88879322
_cell_angle_alpha   116.50788895
_cell_angle_beta   116.50788895
_cell_angle_gamma   116.50788895
_symmetry_Int_Tables_number   1
_chemical_formula_structural   NiSe
_chemical_formula_sum   'Ni3 Se3'
_cell_volume   96.77444703
_cell_formula_units_Z   3
loop_
 _symmetry_equiv_pos_site_id
 _symmetry_equiv_pos_as_xyz
  1  'x, y, z'
loop_
 _atom_site_type_symbol
 _atom_site_label
 _atom_site_symmetry_multiplicity
 _atom_site_fract_x
 _atom_site_fract_y
 _atom_site_fract_z
 _atom_site_occupancy
  Ni  Ni0  1  0.27152869  0.27152869  0.01516986  1.0
  Ni  Ni1  1  0.27152869  1.01516986  -0.72847131  1.0
  Ni  Ni2  1  1.01516986  0.27152869  0.27152869  1.0
  Se  Se3  1  0.55396882  0.55396882  -0.10686487  1.0
  Se  Se4  1  0.55396882  0.89313513  -0.44603118  1.0
  Se  Se5  1  0.89313513  0.55396882  0.55396882  1.0
