# generated using pymatgen
data_SiO2
_symmetry_space_group_name_H-M   'P 1'
_cell_length_a   12.55226702
_cell_length_b   12.55226702
_cell_length_c   12.55226702
_cell_angle_alpha   144.87527441
_cell_angle_beta   110.24678144
_cell_angle_gamma   80.56283579
_symmetry_Int_Tables_number   1
_chemical_formula_structural   SiO2
_chemical_formula_sum   'Si18 O36'
_cell_volume   1041.29147826
_cell_formula_units_Z   18
loop_
 _symmetry_equiv_pos_site_id
 _symmetry_equiv_pos_as_xyz
  1  'x, y, z'
loop_
 _atom_site_type_symbol
 _atom_site_label
 _atom_site_symmetry_multiplicity
 _atom_site_fract_x
 _atom_site_fract_y
 _atom_site_fract_z
 _atom_site_occupancy
  Si  Si0  1  0.47328100  0.46876704  0.59170383  1.0
  Si  Si1  1  1.12293679  1.11842283  0.59170383  1.0
  Si  Si2  1  0.87706321  0.46876704  0.99548604  1.0
  Si  Si3  1  1.52671900  1.11842283  0.99548604  1.0
  Si  Si4  1  0.47328100  0.88157717  1.00451396  1.0
  Si  Si5  1  1.12293679  1.53123296  1.00451396  1.0
  Si  Si6  1  0.87706321  0.88157717  1.40829617  1.0
  Si  Si7  1  1.52671900  1.53123296  1.40829617  1.0
  Si  Si8  1  0.72645926  0.43277324  0.70631397  1.0
  Si  Si9  1  1.27354074  0.97985471  0.70631397  1.0
  Si  Si10  1  0.72645926  1.02014529  1.29368603  1.0
  Si  Si11  1  1.27354074  1.56722676  1.29368603  1.0
  Si  Si12  1  1.71545592  0.91625229  0.79920363  1.0
  Si  Si13  1  0.88295134  0.08374771  0.79920363  1.0
  Si  Si14  1  1.11704866  0.91625229  0.20079637  1.0
  Si  Si15  1  0.28454408  0.08374771  0.20079637  1.0
  Si  Si16  1  0.84595983  0.84595983  1.00000000  1.0
  Si  Si17  1  1.15404017  1.15404017  1.00000000  1.0
  O  O18  1  1.63516275  1.70932028  1.57260081  1.0
  O  O19  1  0.86328053  0.93743805  1.57260081  1.0
  O  O20  1  1.13671947  1.70932028  1.07415752  1.0
  O  O21  1  0.36483725  0.93743805  1.07415752  1.0
  O  O22  1  1.63516275  1.06256195  0.92584248  1.0
  O  O23  1  0.86328053  0.29067972  0.92584248  1.0
  O  O24  1  1.13671947  1.06256195  0.42739919  1.0
  O  O25  1  0.36483725  0.29067972  0.42739919  1.0
  O  O26  1  0.58798151  0.42896104  0.65897085  1.0
  O  O27  1  1.23000981  1.07098934  0.65897085  1.0
  O  O28  1  0.76999019  0.42896104  0.84097953  1.0
  O  O29  1  1.41201849  1.07098934  0.84097953  1.0
  O  O30  1  0.58798151  0.92901066  1.15902047  1.0
  O  O31  1  1.23000981  1.57103896  1.15902047  1.0
  O  O32  1  0.76999019  0.92901066  1.34102915  1.0
  O  O33  1  1.41201849  1.57103896  1.34102915  1.0
  O  O34  1  0.79750706  0.62101419  0.82350713  1.0
  O  O35  1  1.20249294  1.02600008  0.82350713  1.0
  O  O36  1  0.79750706  0.97399992  1.17649287  1.0
  O  O37  1  1.20249294  1.37898581  1.17649287  1.0
  O  O38  1  0.80452414  0.89564592  0.90887822  1.0
  O  O39  1  1.01323231  1.10435408  0.90887822  1.0
  O  O40  1  0.98676769  0.89564592  1.09112178  1.0
  O  O41  1  1.19547586  1.10435408  1.09112178  1.0
  O  O42  1  0.43820665  0.65573688  0.78246977  1.0
  O  O43  1  1.12673289  1.34426312  0.78246977  1.0
  O  O44  1  0.87326711  0.65573688  1.21753023  1.0
  O  O45  1  1.56179335  1.34426312  1.21753023  1.0
  O  O46  1  0.50000000  0.50000000  0.50000000  1.0
  O  O47  1  1.00000000  1.00000000  0.50000000  1.0
  O  O48  1  1.00000000  1.50000000  1.00000000  1.0
  O  O49  1  0.50000000  1.00000000  1.00000000  1.0
  O  O50  1  0.75001234  0.25001234  0.50000000  1.0
  O  O51  1  1.24998766  0.74998766  0.50000000  1.0
  O  O52  1  0.78895564  -0.00000000  0.78895564  1.0
  O  O53  1  0.21104436  -0.00000000  0.21104436  1.0
