# generated using pymatgen
data_Cs3Bi2
_symmetry_space_group_name_H-M   'P 1'
_cell_length_a   7.36701669
_cell_length_b   7.36701669
_cell_length_c   10.27671303
_cell_angle_alpha   79.32146390
_cell_angle_beta   100.67853610
_cell_angle_gamma   88.02520053
_symmetry_Int_Tables_number   1
_chemical_formula_structural   Cs3Bi2
_chemical_formula_sum   'Cs6 Bi4'
_cell_volume   537.22829816
_cell_formula_units_Z   2
loop_
 _symmetry_equiv_pos_site_id
 _symmetry_equiv_pos_as_xyz
  1  'x, y, z'
loop_
 _atom_site_type_symbol
 _atom_site_label
 _atom_site_symmetry_multiplicity
 _atom_site_fract_x
 _atom_site_fract_y
 _atom_site_fract_z
 _atom_site_occupancy
  Cs  Cs0  1  1.65859952  0.24607611  0.47872614  1.0
  Cs  Cs1  1  0.75392389  -0.65859952  0.97872614  1.0
  Cs  Cs2  1  1.24607611  0.65859952  0.02127386  1.0
  Cs  Cs3  1  0.34140048  -0.24607611  0.52127386  1.0
  Cs  Cs4  1  0.84365412  -0.15634588  0.25000000  1.0
  Cs  Cs5  1  1.15634588  0.15634588  0.75000000  1.0
  Bi  Bi6  1  1.30537664  0.11694766  0.16137698  1.0
  Bi  Bi7  1  0.88305234  -0.30537664  0.66137698  1.0
  Bi  Bi8  1  1.11694766  0.30537664  0.33862302  1.0
  Bi  Bi9  1  0.69462336  -0.11694766  0.83862302  1.0
