# generated using pymatgen
data_Hf9BOs4
_symmetry_space_group_name_H-M   'P 1'
_cell_length_a   8.36122314
_cell_length_b   8.36122314
_cell_length_c   8.58350229
_cell_angle_alpha   90.00000000
_cell_angle_beta   90.00000000
_cell_angle_gamma   120.00000000
_symmetry_Int_Tables_number   1
_chemical_formula_structural   Hf9BOs4
_chemical_formula_sum   'Hf18 B2 Os8'
_cell_volume   519.67854350
_cell_formula_units_Z   2
loop_
 _symmetry_equiv_pos_site_id
 _symmetry_equiv_pos_as_xyz
  1  'x, y, z'
loop_
 _atom_site_type_symbol
 _atom_site_label
 _atom_site_symmetry_multiplicity
 _atom_site_fract_x
 _atom_site_fract_y
 _atom_site_fract_z
 _atom_site_occupancy
  Hf  Hf0  1  0.19910696  0.80089304  0.44000285  1.0
  Hf  Hf1  1  0.19910696  0.80089304  0.05999715  1.0
  Hf  Hf2  1  0.19910696  0.39821393  0.44000285  1.0
  Hf  Hf3  1  0.19910696  0.39821393  0.05999715  1.0
  Hf  Hf4  1  0.80089304  0.19910696  0.94000285  1.0
  Hf  Hf5  1  0.80089304  0.19910696  0.55999715  1.0
  Hf  Hf6  1  0.80089304  0.60178607  0.94000285  1.0
  Hf  Hf7  1  0.80089304  0.60178607  0.55999715  1.0
  Hf  Hf8  1  0.60178607  0.80089304  0.44000285  1.0
  Hf  Hf9  1  0.60178607  0.80089304  0.05999715  1.0
  Hf  Hf10  1  0.39821393  0.19910696  0.94000285  1.0
  Hf  Hf11  1  0.39821393  0.19910696  0.55999715  1.0
  Hf  Hf12  1  0.54203948  0.45796052  0.25000000  1.0
  Hf  Hf13  1  0.54203948  0.08407897  0.25000000  1.0
  Hf  Hf14  1  0.45796052  0.54203948  0.75000000  1.0
  Hf  Hf15  1  0.45796052  0.91592103  0.75000000  1.0
  Hf  Hf16  1  0.91592103  0.45796052  0.25000000  1.0
  Hf  Hf17  1  0.08407897  0.54203948  0.75000000  1.0
  B  B18  1  0.33333333  0.66666667  0.25000000  1.0
  B  B19  1  0.66666667  0.33333333  0.75000000  1.0
  Os  Os20  1  0.88678897  0.11321103  0.25000000  1.0
  Os  Os21  1  0.88678897  0.77357794  0.25000000  1.0
  Os  Os22  1  0.11321103  0.88678897  0.75000000  1.0
  Os  Os23  1  0.11321103  0.22642206  0.75000000  1.0
  Os  Os24  1  0.22642206  0.11321103  0.25000000  1.0
  Os  Os25  1  0.77357794  0.88678897  0.75000000  1.0
  Os  Os26  1  -0.00000000  -0.00000000  0.50000000  1.0
  Os  Os27  1  -0.00000000  -0.00000000  0.00000000  1.0
