# generated using pymatgen
data_SbAsO3
_symmetry_space_group_name_H-M   'P 1'
_cell_length_a   4.64859911
_cell_length_b   13.75242958
_cell_length_c   7.01195164
_cell_angle_alpha   90.00000000
_cell_angle_beta   125.79881865
_cell_angle_gamma   90.00000000
_symmetry_Int_Tables_number   1
_chemical_formula_structural   SbAsO3
_chemical_formula_sum   'Sb4 As4 O12'
_cell_volume   363.58162232
_cell_formula_units_Z   4
loop_
 _symmetry_equiv_pos_site_id
 _symmetry_equiv_pos_as_xyz
  1  'x, y, z'
loop_
 _atom_site_type_symbol
 _atom_site_label
 _atom_site_symmetry_multiplicity
 _atom_site_fract_x
 _atom_site_fract_y
 _atom_site_fract_z
 _atom_site_occupancy
  Sb  Sb0  1  0.85218803  0.15026358  0.35081853  1.0
  Sb  Sb1  1  0.85218803  0.34973642  0.85081853  1.0
  Sb  Sb2  1  0.14781197  0.65026358  0.14918147  1.0
  Sb  Sb3  1  0.14781197  0.84973642  0.64918147  1.0
  As  As4  1  0.73270781  0.40072898  0.26259756  1.0
  As  As5  1  0.73270781  0.09927102  0.76259756  1.0
  As  As6  1  0.26729219  0.90072898  0.23740244  1.0
  As  As7  1  0.26729219  0.59927102  0.73740244  1.0
  O  O8  1  0.96396155  0.90022872  0.32383037  1.0
  O  O9  1  0.96396155  0.59977128  0.82383037  1.0
  O  O10  1  0.03603845  0.40022872  0.17616963  1.0
  O  O11  1  0.03603845  0.09977128  0.67616963  1.0
  O  O12  1  0.87890418  0.29063779  0.44364692  1.0
  O  O13  1  0.87890418  0.20936221  0.94364692  1.0
  O  O14  1  0.12109582  0.79063779  0.05635308  1.0
  O  O15  1  0.12109582  0.70936221  0.55635308  1.0
  O  O16  1  0.36963090  0.14314294  0.46830415  1.0
  O  O17  1  0.36963090  0.35685706  0.96830415  1.0
  O  O18  1  0.63036910  0.64314294  0.03169585  1.0
  O  O19  1  0.63036910  0.85685706  0.53169585  1.0
