# generated using pymatgen
data_GeS2
_symmetry_space_group_name_H-M   'P 1'
_cell_length_a   6.88214666
_cell_length_b   16.59539330
_cell_length_c   13.31318005
_cell_angle_alpha   90.00000000
_cell_angle_beta   91.41467462
_cell_angle_gamma   90.00000000
_symmetry_Int_Tables_number   1
_chemical_formula_structural   GeS2
_chemical_formula_sum   'Ge16 S32'
_cell_volume   1520.06053807
_cell_formula_units_Z   16
loop_
 _symmetry_equiv_pos_site_id
 _symmetry_equiv_pos_as_xyz
  1  'x, y, z'
loop_
 _atom_site_type_symbol
 _atom_site_label
 _atom_site_symmetry_multiplicity
 _atom_site_fract_x
 _atom_site_fract_y
 _atom_site_fract_z
 _atom_site_occupancy
  Ge  Ge0  1  0.82740212  0.15648091  0.22214326  1.0
  Ge  Ge1  1  0.82740212  0.34351909  0.72214326  1.0
  Ge  Ge2  1  0.17259788  0.65648091  0.27785674  1.0
  Ge  Ge3  1  0.17259788  0.84351909  0.77785674  1.0
  Ge  Ge4  1  0.85182354  0.81044339  0.22205658  1.0
  Ge  Ge5  1  0.85182354  0.68955661  0.72205658  1.0
  Ge  Ge6  1  0.14817646  0.31044339  0.27794342  1.0
  Ge  Ge7  1  0.14817646  0.18955661  0.77794342  1.0
  Ge  Ge8  1  0.64751052  0.34590893  0.27775194  1.0
  Ge  Ge9  1  0.64751052  0.15409107  0.77775194  1.0
  Ge  Ge10  1  0.35248948  0.84590893  0.22224806  1.0
  Ge  Ge11  1  0.35248948  0.65409107  0.72224806  1.0
  Ge  Ge12  1  0.67362871  0.99830881  0.28219488  1.0
  Ge  Ge13  1  0.67362871  0.50169119  0.78219488  1.0
  Ge  Ge14  1  0.32637129  0.49830881  0.21780512  1.0
  Ge  Ge15  1  0.32637129  0.00169119  0.71780512  1.0
  S  S16  1  0.85228047  0.89724008  0.35117617  1.0
  S  S17  1  0.85228047  0.60275992  0.85117617  1.0
  S  S18  1  0.14771953  0.39724008  0.14882383  1.0
  S  S19  1  0.14771953  0.10275992  0.64882383  1.0
  S  S20  1  0.90162060  0.32829265  0.38466926  1.0
  S  S21  1  0.90162060  0.17170735  0.88466926  1.0
  S  S22  1  0.09837940  0.82829265  0.11533074  1.0
  S  S23  1  0.09837940  0.67170735  0.61533074  1.0
  S  S24  1  0.85426962  0.68515227  0.28562504  1.0
  S  S25  1  0.85426962  0.81484773  0.78562504  1.0
  S  S26  1  0.14573038  0.18515227  0.21437496  1.0
  S  S27  1  0.14573038  0.31484773  0.71437496  1.0
  S  S28  1  0.77608484  0.04327917  0.13241495  1.0
  S  S29  1  0.77608484  0.45672083  0.63241495  1.0
  S  S30  1  0.22391516  0.54327917  0.36758505  1.0
  S  S31  1  0.22391516  0.95672083  0.86758505  1.0
  S  S32  1  0.72609413  0.11134110  0.37207546  1.0
  S  S33  1  0.72609413  0.38865890  0.87207546  1.0
  S  S34  1  0.27390587  0.61134110  0.12792454  1.0
  S  S35  1  0.27390587  0.88865890  0.62792454  1.0
  S  S36  1  0.64743419  0.25641244  0.15154397  1.0
  S  S37  1  0.64743419  0.24358756  0.65154397  1.0
  S  S38  1  0.35256581  0.75641244  0.34845603  1.0
  S  S39  1  0.35256581  0.74358756  0.84845603  1.0
  S  S40  1  0.64486307  0.46985764  0.21008678  1.0
  S  S41  1  0.64486307  0.03014236  0.71008678  1.0
  S  S42  1  0.35513693  0.96985764  0.28991322  1.0
  S  S43  1  0.35513693  0.53014236  0.78991322  1.0
  S  S44  1  0.40126761  0.33004781  0.38494264  1.0
  S  S45  1  0.40126761  0.16995219  0.88494264  1.0
  S  S46  1  0.59873239  0.83004781  0.11505736  1.0
  S  S47  1  0.59873239  0.66995219  0.61505736  1.0
