# generated using pymatgen
data_NaLa6OsI12
_symmetry_space_group_name_H-M   'P 1'
_cell_length_a   10.21657640
_cell_length_b   10.21657640
_cell_length_c   10.21657640
_cell_angle_alpha   107.08885793
_cell_angle_beta   107.08885793
_cell_angle_gamma   107.08885793
_symmetry_Int_Tables_number   1
_chemical_formula_structural   NaLa6OsI12
_chemical_formula_sum   'Na1 La6 Os1 I12'
_cell_volume   885.93847884
_cell_formula_units_Z   1
loop_
 _symmetry_equiv_pos_site_id
 _symmetry_equiv_pos_as_xyz
  1  'x, y, z'
loop_
 _atom_site_type_symbol
 _atom_site_label
 _atom_site_symmetry_multiplicity
 _atom_site_fract_x
 _atom_site_fract_y
 _atom_site_fract_z
 _atom_site_occupancy
  Na  Na0  1  0.50000000  0.50000000  0.50000000  1.0
  La  La1  1  1.69249103  0.89498845  -0.02981273  1.0
  La  La2  1  1.10501155  0.02981273  -0.69249103  1.0
  La  La3  1  1.02981273  -0.69249103  0.10501155  1.0
  La  La4  1  0.30750897  0.10501155  0.02981273  1.0
  La  La5  1  0.89498845  0.97018727  0.69249103  1.0
  La  La6  1  0.97018727  1.69249103  -0.10501155  1.0
  Os  Os7  1  0.00000000  0.00000000  0.00000000  1.0
  I  I8  1  1.62378240  0.54237235  -0.15191228  1.0
  I  I9  1  0.45762765  1.15191228  -0.62378240  1.0
  I  I10  1  1.15191228  0.37621760  -0.54237235  1.0
  I  I11  1  0.37621760  0.45762765  0.15191228  1.0
  I  I12  1  1.54237235  -0.15191228  0.62378240  1.0
  I  I13  1  0.84808772  0.62378240  0.54237235  1.0
  I  I14  1  0.68236547  0.22390036  0.07495507  1.0
  I  I15  1  0.77609964  0.92504493  0.31763453  1.0
  I  I16  1  0.92504493  1.31763453  -0.22390036  1.0
  I  I17  1  1.31763453  0.77609964  -0.07495507  1.0
  I  I18  1  1.22390036  0.07495507  -0.31763453  1.0
  I  I19  1  1.07495507  -0.31763453  0.22390036  1.0
