# generated using pymatgen
data_Gd3(GaNi3)2
_symmetry_space_group_name_H-M   'P 1'
_cell_length_a   7.76160054
_cell_length_b   7.76160054
_cell_length_c   7.76160054
_cell_angle_alpha   109.47122063
_cell_angle_beta   109.47122063
_cell_angle_gamma   109.47122063
_symmetry_Int_Tables_number   1
_chemical_formula_structural   Gd3(GaNi3)2
_chemical_formula_sum   'Gd6 Ga4 Ni12'
_cell_volume   359.94154151
_cell_formula_units_Z   2
loop_
 _symmetry_equiv_pos_site_id
 _symmetry_equiv_pos_as_xyz
  1  'x, y, z'
loop_
 _atom_site_type_symbol
 _atom_site_label
 _atom_site_symmetry_multiplicity
 _atom_site_fract_x
 _atom_site_fract_y
 _atom_site_fract_z
 _atom_site_occupancy
  Gd  Gd0  1  0.00000000  0.70837239  0.70837239  1.0
  Gd  Gd1  1  0.70837239  0.00000000  0.70837239  1.0
  Gd  Gd2  1  0.70837239  0.70837239  -0.00000000  1.0
  Gd  Gd3  1  0.29162761  0.29162761  -0.00000000  1.0
  Gd  Gd4  1  0.29162761  -0.00000000  0.29162761  1.0
  Gd  Gd5  1  0.00000000  0.29162761  0.29162761  1.0
  Ga  Ga6  1  0.50000000  0.50000000  0.50000000  1.0
  Ga  Ga7  1  1.00000000  1.00000000  0.50000000  1.0
  Ga  Ga8  1  1.00000000  1.50000000  1.00000000  1.0
  Ga  Ga9  1  1.50000000  1.00000000  1.00000000  1.0
  Ni  Ni10  1  0.32756603  0.66378301  0.66378301  1.0
  Ni  Ni11  1  1.00000000  1.33621699  0.66378301  1.0
  Ni  Ni12  1  1.00000000  0.66378301  0.33621699  1.0
  Ni  Ni13  1  1.67243397  1.33621699  1.33621699  1.0
  Ni  Ni14  1  0.66378301  0.32756603  0.66378301  1.0
  Ni  Ni15  1  1.33621699  1.00000000  0.66378301  1.0
  Ni  Ni16  1  0.66378301  0.66378301  0.32756603  1.0
  Ni  Ni17  1  1.33621699  0.66378301  1.00000000  1.0
  Ni  Ni18  1  0.66378301  1.00000000  0.33621699  1.0
  Ni  Ni19  1  1.33621699  1.67243397  1.33621699  1.0
  Ni  Ni20  1  0.66378301  1.33621699  1.00000000  1.0
  Ni  Ni21  1  0.33621699  0.33621699  0.67243397  1.0
