# generated using pymatgen
data_BH10C3NF4
_symmetry_space_group_name_H-M   'P 1'
_cell_length_a   5.66521716
_cell_length_b   8.83536950
_cell_length_c   7.76109891
_cell_angle_alpha   90.00000000
_cell_angle_beta   106.24672225
_cell_angle_gamma   90.00000000
_symmetry_Int_Tables_number   1
_chemical_formula_structural   BH10C3NF4
_chemical_formula_sum   'B2 H20 C6 N2 F8'
_cell_volume   372.96280637
_cell_formula_units_Z   2
loop_
 _symmetry_equiv_pos_site_id
 _symmetry_equiv_pos_as_xyz
  1  'x, y, z'
loop_
 _atom_site_type_symbol
 _atom_site_label
 _atom_site_symmetry_multiplicity
 _atom_site_fract_x
 _atom_site_fract_y
 _atom_site_fract_z
 _atom_site_occupancy
  B  B0  1  0.50840765  0.75000000  0.28674552  1.0
  B  B1  1  0.49159235  0.25000000  0.71325448  1.0
  H  H2  1  0.75929115  0.75000000  0.62429633  1.0
  H  H3  1  0.24070885  0.25000000  0.37570367  1.0
  H  H4  1  0.20868695  0.89444144  0.85584263  1.0
  H  H5  1  0.79131305  0.39444144  0.14415737  1.0
  H  H6  1  0.79131305  0.10555856  0.14415737  1.0
  H  H7  1  0.20868695  0.60555856  0.85584263  1.0
  H  H8  1  0.12590421  0.88406048  0.61508864  1.0
  H  H9  1  0.87409579  0.38406048  0.38491136  1.0
  H  H10  1  0.87409579  0.11593952  0.38491136  1.0
  H  H11  1  0.12590421  0.61593952  0.61508864  1.0
  H  H12  1  0.93693689  0.98850166  0.72534736  1.0
  H  H13  1  0.06306311  0.48850166  0.27465264  1.0
  H  H14  1  0.06306311  0.01149834  0.27465264  1.0
  H  H15  1  0.93693689  0.51149834  0.72534736  1.0
  H  H16  1  0.69755285  0.64805273  0.89131924  1.0
  H  H17  1  0.30244715  0.14805273  0.10868076  1.0
  H  H18  1  0.30244715  0.35194727  0.10868076  1.0
  H  H19  1  0.69755285  0.85194727  0.89131924  1.0
  H  H20  1  0.96291552  0.75000000  0.01908924  1.0
  H  H21  1  0.03708448  0.25000000  0.98091076  1.0
  C  C22  1  0.05605152  0.88979550  0.73282059  1.0
  C  C23  1  0.94394848  0.38979550  0.26717941  1.0
  C  C24  1  0.94394848  0.11020450  0.26717941  1.0
  C  C25  1  0.05605152  0.61020450  0.73282059  1.0
  C  C26  1  0.80907405  0.75000000  0.89684932  1.0
  C  C27  1  0.19092595  0.25000000  0.10315068  1.0
  N  N28  1  0.90966424  0.75000000  0.73808107  1.0
  N  N29  1  0.09033576  0.25000000  0.26191893  1.0
  F  F30  1  0.76544262  0.75000000  0.31241919  1.0
  F  F31  1  0.23455738  0.25000000  0.68758081  1.0
  F  F32  1  0.46613726  0.75000000  0.46135286  1.0
  F  F33  1  0.53386274  0.25000000  0.53864714  1.0
  F  F34  1  0.40116074  0.88080027  0.19204392  1.0
  F  F35  1  0.59883926  0.38080027  0.80795608  1.0
  F  F36  1  0.59883926  0.11919973  0.80795608  1.0
  F  F37  1  0.40116074  0.61919973  0.19204392  1.0
