# generated using pymatgen
data_InO3
_symmetry_space_group_name_H-M   'P 1'
_cell_length_a   6.37926705
_cell_length_b   6.37926705
_cell_length_c   6.37926705
_cell_angle_alpha   109.47122063
_cell_angle_beta   109.47122063
_cell_angle_gamma   109.47122063
_symmetry_Int_Tables_number   1
_chemical_formula_structural   InO3
_chemical_formula_sum   'In4 O12'
_cell_volume   199.84369871
_cell_formula_units_Z   4
loop_
 _symmetry_equiv_pos_site_id
 _symmetry_equiv_pos_as_xyz
  1  'x, y, z'
loop_
 _atom_site_type_symbol
 _atom_site_label
 _atom_site_symmetry_multiplicity
 _atom_site_fract_x
 _atom_site_fract_y
 _atom_site_fract_z
 _atom_site_occupancy
  In  In0  1  0.50000000  1.00000000  1.00000000  1.0
  In  In1  1  0.50000000  0.50000000  0.50000000  1.0
  In  In2  1  1.00000000  1.00000000  0.50000000  1.0
  In  In3  1  1.00000000  0.50000000  1.00000000  1.0
  O  O4  1  0.90002521  1.32243611  1.22246131  1.0
  O  O5  1  0.90002521  0.67756389  0.57758910  1.0
  O  O6  1  0.09997479  0.32243611  0.42241090  1.0
  O  O7  1  0.09997479  0.67756389  0.77753869  1.0
  O  O8  1  0.57758910  0.90002521  0.67756389  1.0
  O  O9  1  1.22246131  0.90002521  1.32243611  1.0
  O  O10  1  0.67756389  0.77753869  0.09997479  1.0
  O  O11  1  0.67756389  0.57758910  0.90002521  1.0
  O  O12  1  0.77753869  0.09997479  0.67756389  1.0
  O  O13  1  0.42241090  0.09997479  0.32243611  1.0
  O  O14  1  0.32243611  0.42241090  0.09997479  1.0
  O  O15  1  1.32243611  1.22246131  0.90002521  1.0
