# generated using pymatgen
data_Cu3SO8
_symmetry_space_group_name_H-M   'P 1'
_cell_length_a   8.05795126
_cell_length_b   5.88850895
_cell_length_c   13.39909477
_cell_angle_alpha   90.00000000
_cell_angle_beta   90.00000000
_cell_angle_gamma   90.00000000
_symmetry_Int_Tables_number   1
_chemical_formula_structural   Cu3SO8
_chemical_formula_sum   'Cu12 S4 O32'
_cell_volume   635.77790978
_cell_formula_units_Z   4
loop_
 _symmetry_equiv_pos_site_id
 _symmetry_equiv_pos_as_xyz
  1  'x, y, z'
loop_
 _atom_site_type_symbol
 _atom_site_label
 _atom_site_symmetry_multiplicity
 _atom_site_fract_x
 _atom_site_fract_y
 _atom_site_fract_z
 _atom_site_occupancy
  S  S0  1  0.89118039  0.75000000  0.35628746  1.0
  S  S1  1  0.39118039  0.75000000  0.14371254  1.0
  S  S2  1  0.10881961  0.25000000  0.64371254  1.0
  S  S3  1  0.60881961  0.25000000  0.85628746  1.0
  O  O4  1  0.99726892  0.96380990  0.34156793  1.0
  O  O5  1  0.99726892  0.53619010  0.34156793  1.0
  O  O6  1  0.49726892  0.96380990  0.15843207  1.0
  O  O7  1  0.49726892  0.53619010  0.15843207  1.0
  O  O8  1  0.00273108  0.46380990  0.65843207  1.0
  O  O9  1  0.00273108  0.03619010  0.65843207  1.0
  O  O10  1  0.50273108  0.46380990  0.84156793  1.0
  O  O11  1  0.50273108  0.03619010  0.84156793  1.0
  O  O12  1  0.76888167  0.75000000  0.27561925  1.0
  O  O13  1  0.26888167  0.75000000  0.22438075  1.0
  O  O14  1  0.23111833  0.25000000  0.72438075  1.0
  O  O15  1  0.73111833  0.25000000  0.77561925  1.0
  O  O16  1  0.81392910  0.75000000  0.45647284  1.0
  O  O17  1  0.31392910  0.75000000  0.04352716  1.0
  O  O18  1  0.18607090  0.25000000  0.54352716  1.0
  O  O19  1  0.68607090  0.25000000  0.95647284  1.0
  O  O20  1  0.94313992  0.49349393  0.08198360  1.0
  O  O21  1  0.94313992  0.00650607  0.08198360  1.0
  O  O22  1  0.44313992  0.49349393  0.41801640  1.0
  O  O23  1  0.44313992  0.00650607  0.41801640  1.0
  O  O24  1  0.05686008  0.99349393  0.91801640  1.0
  O  O25  1  0.05686008  0.50650607  0.91801640  1.0
  O  O26  1  0.55686008  0.99349393  0.58198360  1.0
  O  O27  1  0.55686008  0.50650607  0.58198360  1.0
  O  O28  1  0.76102581  0.75000000  0.68611167  1.0
  O  O29  1  0.26102581  0.75000000  0.81388833  1.0
  O  O30  1  0.23897419  0.25000000  0.31388833  1.0
  O  O31  1  0.73897419  0.25000000  0.18611167  1.0
  O  O32  1  0.70511453  0.75000000  0.03489245  1.0
  O  O33  1  0.20511453  0.75000000  0.46510755  1.0
  O  O34  1  0.29488547  0.25000000  0.96510755  1.0
  O  O35  1  0.79488547  0.25000000  0.53489245  1.0
  Cu  Cu36  1  0.99927538  0.75000000  0.00154320  1.0
  Cu  Cu37  1  0.49927538  0.75000000  0.49845680  1.0
  Cu  Cu38  1  0.00072462  0.25000000  0.99845680  1.0
  Cu  Cu39  1  0.50072462  0.25000000  0.50154320  1.0
  Cu  Cu40  1  0.71674778  0.99651583  0.11282543  1.0
  Cu  Cu41  1  0.71674778  0.50348417  0.11282543  1.0
  Cu  Cu42  1  0.21674778  0.99651583  0.38717457  1.0
  Cu  Cu43  1  0.21674778  0.50348417  0.38717457  1.0
  Cu  Cu44  1  0.28325222  0.49651583  0.88717457  1.0
  Cu  Cu45  1  0.28325222  0.00348417  0.88717457  1.0
  Cu  Cu46  1  0.78325222  0.49651583  0.61282543  1.0
  Cu  Cu47  1  0.78325222  0.00348417  0.61282543  1.0
