# generated using pymatgen
data_Na2PtSe2
_symmetry_space_group_name_H-M   'P 1'
_cell_length_a   5.74075982
_cell_length_b   5.74075982
_cell_length_c   11.43502485
_cell_angle_alpha   90.00000000
_cell_angle_beta   90.00000000
_cell_angle_gamma   141.92739161
_symmetry_Int_Tables_number   1
_chemical_formula_structural   Na2PtSe2
_chemical_formula_sum   'Na4 Pt2 Se4'
_cell_volume   232.39209899
_cell_formula_units_Z   2
loop_
 _symmetry_equiv_pos_site_id
 _symmetry_equiv_pos_as_xyz
  1  'x, y, z'
loop_
 _atom_site_type_symbol
 _atom_site_label
 _atom_site_symmetry_multiplicity
 _atom_site_fract_x
 _atom_site_fract_y
 _atom_site_fract_z
 _atom_site_occupancy
  Na  Na0  1  0.06437784  0.93562216  0.76220189  1.0
  Na  Na1  1  -0.06437784  0.06437784  0.26220189  1.0
  Na  Na2  1  0.32731252  0.67268748  0.53149437  1.0
  Na  Na3  1  -0.32731252  0.32731252  0.03149437  1.0
  Pt  Pt4  1  0.36383039  0.63616961  0.87951454  1.0
  Pt  Pt5  1  -0.36383039  0.36383039  0.37951454  1.0
  Se  Se6  1  0.05384516  0.94615484  0.50084400  1.0
  Se  Se7  1  -0.05384516  0.05384516  0.00084400  1.0
  Se  Se8  1  0.21873605  0.78126395  0.25814520  1.0
  Se  Se9  1  -0.21873605  0.21873605  0.75814520  1.0
