# generated using pymatgen
data_Ba(CuS)2
_symmetry_space_group_name_H-M   'P 1'
_cell_length_a   9.29779425
_cell_length_b   4.04844755
_cell_length_c   10.41485880
_cell_angle_alpha   90.00000000
_cell_angle_beta   90.00000000
_cell_angle_gamma   90.00000000
_symmetry_Int_Tables_number   1
_chemical_formula_structural   Ba(CuS)2
_chemical_formula_sum   'Ba4 Cu8 S8'
_cell_volume   392.03228531
_cell_formula_units_Z   4
loop_
 _symmetry_equiv_pos_site_id
 _symmetry_equiv_pos_as_xyz
  1  'x, y, z'
loop_
 _atom_site_type_symbol
 _atom_site_label
 _atom_site_symmetry_multiplicity
 _atom_site_fract_x
 _atom_site_fract_y
 _atom_site_fract_z
 _atom_site_occupancy
  Ba  Ba0  1  0.75966071  0.75000000  0.32417400  1.0
  Ba  Ba1  1  0.25966071  0.75000000  0.17582600  1.0
  Ba  Ba2  1  0.24033929  0.25000000  0.67582600  1.0
  Ba  Ba3  1  0.74033929  0.25000000  0.82417400  1.0
  Cu  Cu4  1  0.94256746  0.75000000  0.61443172  1.0
  Cu  Cu5  1  0.44256746  0.75000000  0.88556828  1.0
  Cu  Cu6  1  0.05743254  0.25000000  0.38556828  1.0
  Cu  Cu7  1  0.55743254  0.25000000  0.11443172  1.0
  Cu  Cu8  1  0.91707702  0.75000000  0.04414696  1.0
  Cu  Cu9  1  0.41707702  0.75000000  0.45585304  1.0
  Cu  Cu10  1  0.08292298  0.25000000  0.95585304  1.0
  Cu  Cu11  1  0.58292298  0.25000000  0.54414696  1.0
  S  S12  1  0.65701415  0.75000000  0.04099876  1.0
  S  S13  1  0.15701415  0.75000000  0.45900124  1.0
  S  S14  1  0.34298585  0.25000000  0.95900124  1.0
  S  S15  1  0.84298585  0.25000000  0.54099876  1.0
  S  S16  1  0.51927285  0.75000000  0.66729813  1.0
  S  S17  1  0.01927285  0.75000000  0.83270187  1.0
  S  S18  1  0.48072715  0.25000000  0.33270187  1.0
  S  S19  1  0.98072715  0.25000000  0.16729813  1.0
