# generated using pymatgen
data_RbCuC2
_symmetry_space_group_name_H-M   'P 1'
_cell_length_a   4.92814966
_cell_length_b   4.92814966
_cell_length_c   8.53661278
_cell_angle_alpha   90.00000000
_cell_angle_beta   90.00000000
_cell_angle_gamma   90.00000000
_symmetry_Int_Tables_number   1
_chemical_formula_structural   RbCuC2
_chemical_formula_sum   'Rb2 Cu2 C4'
_cell_volume   207.32580391
_cell_formula_units_Z   2
loop_
 _symmetry_equiv_pos_site_id
 _symmetry_equiv_pos_as_xyz
  1  'x, y, z'
loop_
 _atom_site_type_symbol
 _atom_site_label
 _atom_site_symmetry_multiplicity
 _atom_site_fract_x
 _atom_site_fract_y
 _atom_site_fract_z
 _atom_site_occupancy
  Rb  Rb0  1  0.50000000  0.50000000  0.75000000  1.0
  Rb  Rb1  1  0.50000000  0.50000000  0.25000000  1.0
  Cu  Cu2  1  0.00000000  0.00000000  0.00000000  1.0
  Cu  Cu3  1  0.00000000  0.00000000  0.50000000  1.0
  C  C4  1  0.62725478  0.00000000  0.00000000  1.0
  C  C5  1  0.00000000  0.62725478  0.50000000  1.0
  C  C6  1  0.00000000  0.37274522  0.50000000  1.0
  C  C7  1  0.37274522  0.00000000  0.00000000  1.0
