# generated using pymatgen
data_BaYSi4N7
_symmetry_space_group_name_H-M   'P 1'
_cell_length_a   6.09418419
_cell_length_b   6.09418419
_cell_length_c   9.93068166
_cell_angle_alpha   90.00000000
_cell_angle_beta   90.00000000
_cell_angle_gamma   120.00000000
_symmetry_Int_Tables_number   1
_chemical_formula_structural   BaYSi4N7
_chemical_formula_sum   'Ba2 Y2 Si8 N14'
_cell_volume   319.40436352
_cell_formula_units_Z   2
loop_
 _symmetry_equiv_pos_site_id
 _symmetry_equiv_pos_as_xyz
  1  'x, y, z'
loop_
 _atom_site_type_symbol
 _atom_site_label
 _atom_site_symmetry_multiplicity
 _atom_site_fract_x
 _atom_site_fract_y
 _atom_site_fract_z
 _atom_site_occupancy
  Ba  Ba0  1  0.33333333  0.66666667  0.45018315  1.0
  Ba  Ba1  1  0.66666667  0.33333333  0.95018315  1.0
  Y  Y2  1  0.33333333  0.66666667  0.07696631  1.0
  Y  Y3  1  0.66666667  0.33333333  0.57696631  1.0
  Si  Si4  1  0.34850270  0.17425135  0.26703912  1.0
  Si  Si5  1  0.17425135  0.34850270  0.76703912  1.0
  Si  Si6  1  0.17425135  0.82574865  0.76703912  1.0
  Si  Si7  1  0.82574865  0.17425135  0.26703912  1.0
  Si  Si8  1  0.82574865  0.65149730  0.26703912  1.0
  Si  Si9  1  0.65149730  0.82574865  0.76703912  1.0
  Si  Si10  1  0.00000000  0.00000000  -0.00141626  1.0
  Si  Si11  1  0.00000000  0.00000000  0.49858374  1.0
  N  N12  1  0.97580038  0.48790019  0.21430801  1.0
  N  N13  1  0.48790019  0.97580038  0.71430801  1.0
  N  N14  1  0.48790019  0.51209981  0.71430801  1.0
  N  N15  1  0.51209981  0.48790019  0.21430801  1.0
  N  N16  1  0.51209981  0.02419962  0.21430801  1.0
  N  N17  1  0.02419962  0.51209981  0.71430801  1.0
  N  N18  1  0.30589107  0.15294553  0.43937372  1.0
  N  N19  1  0.15294553  0.30589107  0.93937372  1.0
  N  N20  1  0.15294553  0.84705447  0.93937372  1.0
  N  N21  1  0.84705447  0.15294553  0.43937372  1.0
  N  N22  1  0.84705447  0.69410893  0.43937372  1.0
  N  N23  1  0.69410893  0.84705447  0.93937372  1.0
  N  N24  1  0.00000000  0.00000000  0.18980427  1.0
  N  N25  1  0.00000000  0.00000000  0.68980427  1.0
