# generated using pymatgen
data_KLa(PO3)4
_symmetry_space_group_name_H-M   'P 1'
_cell_length_a   7.46526812
_cell_length_b   8.70757811
_cell_length_c   8.18916775
_cell_angle_alpha   90.00000000
_cell_angle_beta   91.84931693
_cell_angle_gamma   90.00000000
_symmetry_Int_Tables_number   1
_chemical_formula_structural   KLa(PO3)4
_chemical_formula_sum   'K2 La2 P8 O24'
_cell_volume   532.05471620
_cell_formula_units_Z   2
loop_
 _symmetry_equiv_pos_site_id
 _symmetry_equiv_pos_as_xyz
  1  'x, y, z'
loop_
 _atom_site_type_symbol
 _atom_site_label
 _atom_site_symmetry_multiplicity
 _atom_site_fract_x
 _atom_site_fract_y
 _atom_site_fract_z
 _atom_site_occupancy
  K  K0  1  0.73187040  0.63701145  0.78343891  1.0
  K  K1  1  0.26812960  0.13701145  0.21656109  1.0
  La  La2  1  0.23593926  0.45646334  0.74116692  1.0
  La  La3  1  0.76406074  0.95646334  0.25883308  1.0
  P  P4  1  -0.00227428  0.10528039  0.88153485  1.0
  P  P5  1  1.00227428  0.60528039  0.11846515  1.0
  P  P6  1  0.89963923  0.38154822  0.39194464  1.0
  P  P7  1  0.10036077  0.88154822  0.60805536  1.0
  P  P8  1  0.61948160  0.20553058  0.89381774  1.0
  P  P9  1  0.38051840  0.70553058  0.10618226  1.0
  P  P10  1  0.43003874  0.08003887  0.59801026  1.0
  P  P11  1  0.56996126  0.58003887  0.40198974  1.0
  O  O12  1  0.98789752  0.00050301  0.71906542  1.0
  O  O13  1  0.01210248  0.50050301  0.28093458  1.0
  O  O14  1  0.96868629  0.00743889  0.03045293  1.0
  O  O15  1  0.03131371  0.50743889  0.96954707  1.0
  O  O16  1  0.96350810  0.41299404  0.56556251  1.0
  O  O17  1  0.03649190  0.91299404  0.43443749  1.0
  O  O18  1  0.91538147  0.22264491  0.32213643  1.0
  O  O19  1  0.08461853  0.72264491  0.67786357  1.0
  O  O20  1  0.82734976  0.21588436  0.84402673  1.0
  O  O21  1  0.17265024  0.71588436  0.15597327  1.0
  O  O22  1  0.69144991  0.42964125  0.36783138  1.0
  O  O23  1  0.30855009  0.92964125  0.63216862  1.0
  O  O24  1  0.55310347  0.04494657  0.46024333  1.0
  O  O25  1  0.44689653  0.54494657  0.53975667  1.0
  O  O26  1  0.54446664  0.07362895  0.76897234  1.0
  O  O27  1  0.45553336  0.57362895  0.23102766  1.0
  O  O28  1  0.53640569  0.35803861  0.85040217  1.0
  O  O29  1  0.46359431  0.85803861  0.14959783  1.0
  O  O30  1  0.39410225  0.64468415  0.93504346  1.0
  O  O31  1  0.60589775  0.14468415  0.06495654  1.0
  O  O32  1  0.31608509  0.22134008  0.57473717  1.0
  O  O33  1  0.68391491  0.72134008  0.42526283  1.0
  O  O34  1  0.16258375  0.20528233  0.88650347  1.0
  O  O35  1  0.83741625  0.70528233  0.11349653  1.0
