# generated using pymatgen
data_KFe3H6(SeO7)2
_symmetry_space_group_name_H-M   'P 1'
_cell_length_a   7.42111293
_cell_length_b   7.42111293
_cell_length_c   7.42111293
_cell_angle_alpha   59.79779932
_cell_angle_beta   59.79779932
_cell_angle_gamma   59.79779932
_symmetry_Int_Tables_number   1
_chemical_formula_structural   KFe3H6(SeO7)2
_chemical_formula_sum   'K1 Fe3 H6 Se2 O14'
_cell_volume   287.66964583
_cell_formula_units_Z   1
loop_
 _symmetry_equiv_pos_site_id
 _symmetry_equiv_pos_as_xyz
  1  'x, y, z'
loop_
 _atom_site_type_symbol
 _atom_site_label
 _atom_site_symmetry_multiplicity
 _atom_site_fract_x
 _atom_site_fract_y
 _atom_site_fract_z
 _atom_site_occupancy
  Fe  Fe0  1  0.50000000  1.00000000  -0.50000000  1.0
  Fe  Fe1  1  0.50000000  -0.50000000  0.00000000  1.0
  Fe  Fe2  1  -0.00000000  0.50000000  -0.50000000  1.0
  K  K3  1  0.50000000  0.50000000  -0.50000000  1.0
  O  O4  1  0.34472886  0.34472886  -0.02438549  1.0
  O  O5  1  0.34472886  0.97561451  -0.65527114  1.0
  O  O6  1  1.02438549  -0.34472886  -0.34472886  1.0
  O  O7  1  0.65527114  0.02438549  -0.34472886  1.0
  O  O8  1  0.65527114  -0.34472886  0.02438549  1.0
  O  O9  1  0.97561451  0.34472886  -0.65527114  1.0
  O  O10  1  0.90134347  0.90134347  -0.09865653  1.0
  O  O11  1  1.09865653  1.09865653  0.09865653  1.0
  O  O12  1  0.23233659  0.23233659  -0.38635113  1.0
  O  O13  1  0.23233659  0.61364887  -0.76766341  1.0
  O  O14  1  0.38635113  0.76766341  -0.23233659  1.0
  O  O15  1  0.76766341  0.38635113  -0.23233659  1.0
  O  O16  1  0.76766341  0.76766341  -0.61364887  1.0
  O  O17  1  0.61364887  0.23233659  -0.76766341  1.0
  H  H18  1  0.18981021  0.18981021  -0.22472656  1.0
  H  H19  1  0.18981021  0.77527344  -0.81018979  1.0
  H  H20  1  1.22472656  -0.18981021  -0.18981021  1.0
  H  H21  1  0.81018979  0.22472656  -0.18981021  1.0
  H  H22  1  0.81018979  -0.18981021  0.22472656  1.0
  H  H23  1  0.77527344  0.18981021  -0.81018979  1.0
  Se  Se24  1  0.80996317  0.80996317  -0.19003683  1.0
  Se  Se25  1  1.19003683  1.19003683  0.19003683  1.0
