# generated using pymatgen
data_Na3FeF6
_symmetry_space_group_name_H-M   'P 1'
_cell_length_a   5.59560494
_cell_length_b   5.83839303
_cell_length_c   9.82744128
_cell_angle_alpha   90.00000000
_cell_angle_beta   124.33583306
_cell_angle_gamma   90.00000000
_symmetry_Int_Tables_number   1
_chemical_formula_structural   Na3FeF6
_chemical_formula_sum   'Na6 Fe2 F12'
_cell_volume   265.11063578
_cell_formula_units_Z   2
loop_
 _symmetry_equiv_pos_site_id
 _symmetry_equiv_pos_as_xyz
  1  'x, y, z'
loop_
 _atom_site_type_symbol
 _atom_site_label
 _atom_site_symmetry_multiplicity
 _atom_site_fract_x
 _atom_site_fract_y
 _atom_site_fract_z
 _atom_site_occupancy
  Na  Na0  1  0.72594698  0.05729064  0.24320598  1.0
  Na  Na1  1  0.72594698  0.44270936  0.74320598  1.0
  Na  Na2  1  0.27405302  0.55729064  0.25679402  1.0
  Na  Na3  1  0.27405302  0.94270936  0.75679402  1.0
  Na  Na4  1  0.50000000  0.50000000  0.00000000  1.0
  Na  Na5  1  0.50000000  0.00000000  0.50000000  1.0
  Fe  Fe6  1  -0.00000000  0.50000000  0.50000000  1.0
  Fe  Fe7  1  0.00000000  0.00000000  0.00000000  1.0
  F  F8  1  0.89426835  0.44031292  0.27450762  1.0
  F  F9  1  0.89426835  0.05968708  0.77450762  1.0
  F  F10  1  0.10573165  0.94031292  0.22549238  1.0
  F  F11  1  0.10573165  0.55968708  0.72549238  1.0
  F  F12  1  0.75671837  0.77831702  0.42518930  1.0
  F  F13  1  0.75671837  0.72168298  0.92518930  1.0
  F  F14  1  0.24328163  0.27831702  0.07481070  1.0
  F  F15  1  0.24328163  0.22168298  0.57481070  1.0
  F  F16  1  0.66132518  0.32183947  0.44751362  1.0
  F  F17  1  0.66132518  0.17816053  0.94751362  1.0
  F  F18  1  0.33867482  0.82183947  0.05248638  1.0
  F  F19  1  0.33867482  0.67816053  0.55248638  1.0
