# generated using pymatgen
data_CaSnF6
_symmetry_space_group_name_H-M   'P 1'
_cell_length_a   6.02955873
_cell_length_b   6.02955873
_cell_length_c   6.02955873
_cell_angle_alpha   59.89202851
_cell_angle_beta   59.89202851
_cell_angle_gamma   59.89202851
_symmetry_Int_Tables_number   1
_chemical_formula_structural   CaSnF6
_chemical_formula_sum   'Ca1 Sn1 F6'
_cell_volume   154.62382806
_cell_formula_units_Z   1
loop_
 _symmetry_equiv_pos_site_id
 _symmetry_equiv_pos_as_xyz
  1  'x, y, z'
loop_
 _atom_site_type_symbol
 _atom_site_label
 _atom_site_symmetry_multiplicity
 _atom_site_fract_x
 _atom_site_fract_y
 _atom_site_fract_z
 _atom_site_occupancy
  Ca  Ca0  1  0.50000000  0.50000000  -0.50000000  1.0
  Sn  Sn1  1  0.00000000  0.00000000  0.00000000  1.0
  F  F2  1  0.21637857  0.76578142  -0.74799409  1.0
  F  F3  1  0.74799409  -0.21637857  0.23421858  1.0
  F  F4  1  1.23421858  -0.25200591  -0.21637857  1.0
  F  F5  1  0.78362143  0.23421858  -0.25200591  1.0
  F  F6  1  0.25200591  0.21637857  -0.23421858  1.0
  F  F7  1  0.76578142  0.25200591  -0.78362143  1.0
