# generated using pymatgen
data_Na3TlO2
_symmetry_space_group_name_H-M   'P 1'
_cell_length_a   11.65889088
_cell_length_b   6.82237284
_cell_length_c   5.41776393
_cell_angle_alpha   90.00000000
_cell_angle_beta   90.00000000
_cell_angle_gamma   90.00000000
_symmetry_Int_Tables_number   1
_chemical_formula_structural   Na3TlO2
_chemical_formula_sum   'Na12 Tl4 O8'
_cell_volume   430.93598812
_cell_formula_units_Z   4
loop_
 _symmetry_equiv_pos_site_id
 _symmetry_equiv_pos_as_xyz
  1  'x, y, z'
loop_
 _atom_site_type_symbol
 _atom_site_label
 _atom_site_symmetry_multiplicity
 _atom_site_fract_x
 _atom_site_fract_y
 _atom_site_fract_z
 _atom_site_occupancy
  Na  Na0  1  0.83371469  0.50159541  0.24598334  1.0
  Na  Na1  1  0.83371469  -0.00159541  0.24598334  1.0
  Na  Na2  1  0.33371469  0.50159541  0.25401666  1.0
  Na  Na3  1  0.33371469  -0.00159541  0.25401666  1.0
  Na  Na4  1  0.16628531  1.00159541  0.75401666  1.0
  Na  Na5  1  0.16628531  0.49840459  0.75401666  1.0
  Na  Na6  1  0.66628531  1.00159541  0.74598334  1.0
  Na  Na7  1  0.66628531  0.49840459  0.74598334  1.0
  Na  Na8  1  0.92279927  0.25000000  0.74909781  1.0
  Na  Na9  1  0.42279927  0.25000000  0.75090219  1.0
  Na  Na10  1  0.07720073  0.75000000  0.25090219  1.0
  Na  Na11  1  0.57720073  0.75000000  0.24909781  1.0
  Tl  Tl12  1  0.59083952  0.25000000  0.26156201  1.0
  Tl  Tl13  1  0.09083952  0.25000000  0.23843799  1.0
  Tl  Tl14  1  0.40916048  0.75000000  0.73843799  1.0
  Tl  Tl15  1  0.90916048  0.75000000  0.76156201  1.0
  O  O16  1  0.75820516  0.25000000  0.50784281  1.0
  O  O17  1  0.25820516  0.25000000  0.99215719  1.0
  O  O18  1  0.24179484  0.75000000  0.49215719  1.0
  O  O19  1  0.74179484  0.75000000  0.00784281  1.0
  O  O20  1  0.00000000  0.50000000  0.00000000  1.0
  O  O21  1  0.00000000  0.00000000  0.00000000  1.0
  O  O22  1  0.50000000  0.50000000  0.50000000  1.0
  O  O23  1  0.50000000  0.00000000  0.50000000  1.0
