# generated using pymatgen
data_Sr2InPd2
_symmetry_space_group_name_H-M   'P 1'
_cell_length_a   6.10385091
_cell_length_b   6.10385091
_cell_length_c   8.41226800
_cell_angle_alpha   78.09800816
_cell_angle_beta   101.90199184
_cell_angle_gamma   120.16030871
_symmetry_Int_Tables_number   1
_chemical_formula_structural   Sr2InPd2
_chemical_formula_sum   'Sr4 In2 Pd4'
_cell_volume   263.20302716
_cell_formula_units_Z   2
loop_
 _symmetry_equiv_pos_site_id
 _symmetry_equiv_pos_as_xyz
  1  'x, y, z'
loop_
 _atom_site_type_symbol
 _atom_site_label
 _atom_site_symmetry_multiplicity
 _atom_site_fract_x
 _atom_site_fract_y
 _atom_site_fract_z
 _atom_site_occupancy
  Sr  Sr0  1  0.50766410  0.21097139  0.64757370  1.0
  Sr  Sr1  1  0.78902861  0.49233590  0.14757370  1.0
  Sr  Sr2  1  1.21097139  0.50766410  0.85242630  1.0
  Sr  Sr3  1  0.49233590  -0.21097139  0.35242630  1.0
  In  In4  1  0.86483042  0.86483042  0.75000000  1.0
  In  In5  1  0.13516958  0.13516958  0.25000000  1.0
  Pd  Pd6  1  0.72837628  -0.00235215  0.99691248  1.0
  Pd  Pd7  1  1.00235215  0.27162372  0.49691248  1.0
  Pd  Pd8  1  0.99764785  0.72837628  0.50308752  1.0
  Pd  Pd9  1  0.27162372  0.00235215  0.00308752  1.0
