# generated using pymatgen
data_HfMoP
_symmetry_space_group_name_H-M   'P 1'
_cell_length_a   6.92464258
_cell_length_b   6.92464258
_cell_length_c   3.41475660
_cell_angle_alpha   90.00000000
_cell_angle_beta   90.00000000
_cell_angle_gamma   120.00000000
_symmetry_Int_Tables_number   1
_chemical_formula_structural   HfMoP
_chemical_formula_sum   'Hf3 Mo3 P3'
_cell_volume   141.80289868
_cell_formula_units_Z   3
loop_
 _symmetry_equiv_pos_site_id
 _symmetry_equiv_pos_as_xyz
  1  'x, y, z'
loop_
 _atom_site_type_symbol
 _atom_site_label
 _atom_site_symmetry_multiplicity
 _atom_site_fract_x
 _atom_site_fract_y
 _atom_site_fract_z
 _atom_site_occupancy
  Hf  Hf0  1  0.40356409  0.40356409  0.00000000  1.0
  Hf  Hf1  1  -0.00000000  0.59643591  0.00000000  1.0
  Hf  Hf2  1  0.59643591  0.00000000  0.00000000  1.0
  Mo  Mo3  1  0.74736369  0.74736369  0.50000000  1.0
  Mo  Mo4  1  0.00000000  0.25263631  0.50000000  1.0
  Mo  Mo5  1  0.25263631  0.00000000  0.50000000  1.0
  P  P6  1  0.33333333  0.66666667  0.50000000  1.0
  P  P7  1  0.66666667  0.33333333  0.50000000  1.0
  P  P8  1  0.00000000  0.00000000  0.00000000  1.0
