# generated using pymatgen
data_Pb2IOF
_symmetry_space_group_name_H-M   'P 1'
_cell_length_a   7.54234445
_cell_length_b   7.54234445
_cell_length_c   6.02392804
_cell_angle_alpha   90.00000000
_cell_angle_beta   90.00000000
_cell_angle_gamma   133.13865661
_symmetry_Int_Tables_number   1
_chemical_formula_structural   Pb2IOF
_chemical_formula_sum   'Pb4 I2 O2 F2'
_cell_volume   250.05613245
_cell_formula_units_Z   2
loop_
 _symmetry_equiv_pos_site_id
 _symmetry_equiv_pos_as_xyz
  1  'x, y, z'
loop_
 _atom_site_type_symbol
 _atom_site_label
 _atom_site_symmetry_multiplicity
 _atom_site_fract_x
 _atom_site_fract_y
 _atom_site_fract_z
 _atom_site_occupancy
  Pb  Pb0  1  -0.40834388  0.40834388  0.78097074  1.0
  Pb  Pb1  1  0.09165612  0.90834388  0.21902926  1.0
  Pb  Pb2  1  0.40834388  0.59165612  0.21902926  1.0
  Pb  Pb3  1  -0.09165612  0.09165612  0.78097074  1.0
  I  I4  1  0.25000000  0.75000000  0.76151555  1.0
  I  I5  1  -0.25000000  0.25000000  0.23848445  1.0
  O  O6  1  0.75000000  0.75000000  0.00000000  1.0
  O  O7  1  0.25000000  0.25000000  0.00000000  1.0
  F  F8  1  0.75000000  0.75000000  0.50000000  1.0
  F  F9  1  0.25000000  0.25000000  0.50000000  1.0
