# generated using pymatgen
data_FeS2NO8
_symmetry_space_group_name_H-M   'P 1'
_cell_length_a   4.84069871
_cell_length_b   4.84069871
_cell_length_c   18.75685603
_cell_angle_alpha   90.00000000
_cell_angle_beta   90.00000000
_cell_angle_gamma   120.00000000
_symmetry_Int_Tables_number   1
_chemical_formula_structural   FeS2NO8
_chemical_formula_sum   'Fe2 S4 N2 O16'
_cell_volume   380.63330160
_cell_formula_units_Z   2
loop_
 _symmetry_equiv_pos_site_id
 _symmetry_equiv_pos_as_xyz
  1  'x, y, z'
loop_
 _atom_site_type_symbol
 _atom_site_label
 _atom_site_symmetry_multiplicity
 _atom_site_fract_x
 _atom_site_fract_y
 _atom_site_fract_z
 _atom_site_occupancy
  Fe  Fe0  1  0.33333333  0.66666667  0.68943227  1.0
  Fe  Fe1  1  0.66666667  0.33333333  0.18943227  1.0
  S  S2  1  0.33333333  0.66666667  0.28035319  1.0
  S  S3  1  0.66666667  0.33333333  0.78035319  1.0
  S  S4  1  0.00000000  0.00000000  0.09896164  1.0
  S  S5  1  0.00000000  0.00000000  0.59896164  1.0
  N  N6  1  0.33333333  0.66666667  0.93457238  1.0
  N  N7  1  0.66666667  0.33333333  0.43457238  1.0
  O  O8  1  0.37209090  0.97614260  0.25143338  1.0
  O  O9  1  0.97614260  0.60405170  0.75143338  1.0
  O  O10  1  0.60405170  0.62790910  0.25143338  1.0
  O  O11  1  0.02385740  0.39594830  0.25143338  1.0
  O  O12  1  0.62790910  0.02385740  0.75143338  1.0
  O  O13  1  0.39594830  0.37209090  0.75143338  1.0
  O  O14  1  0.96227018  0.69117107  0.12826229  1.0
  O  O15  1  0.69117107  0.72890089  0.62826229  1.0
  O  O16  1  0.72890089  0.03772982  0.12826229  1.0
  O  O17  1  0.30882893  0.27109911  0.12826229  1.0
  O  O18  1  0.03772982  0.30882893  0.62826229  1.0
  O  O19  1  0.27109911  0.96227018  0.62826229  1.0
  O  O20  1  0.33333333  0.66666667  0.35743255  1.0
  O  O21  1  0.66666667  0.33333333  0.85743255  1.0
  O  O22  1  0.00000000  0.00000000  0.02206096  1.0
  O  O23  1  0.00000000  0.00000000  0.52206096  1.0
