# generated using pymatgen
data_GdGeIr
_symmetry_space_group_name_H-M   'P 1'
_cell_length_a   6.99102111
_cell_length_b   4.37044480
_cell_length_c   7.58723237
_cell_angle_alpha   90.00000000
_cell_angle_beta   90.00000000
_cell_angle_gamma   90.00000000
_symmetry_Int_Tables_number   1
_chemical_formula_structural   GdGeIr
_chemical_formula_sum   'Gd4 Ge4 Ir4'
_cell_volume   231.81932588
_cell_formula_units_Z   4
loop_
 _symmetry_equiv_pos_site_id
 _symmetry_equiv_pos_as_xyz
  1  'x, y, z'
loop_
 _atom_site_type_symbol
 _atom_site_label
 _atom_site_symmetry_multiplicity
 _atom_site_fract_x
 _atom_site_fract_y
 _atom_site_fract_z
 _atom_site_occupancy
  Gd  Gd0  1  0.00088013  0.75000000  0.69174859  1.0
  Gd  Gd1  1  0.50088013  0.75000000  0.80825141  1.0
  Gd  Gd2  1  0.99911987  0.25000000  0.30825141  1.0
  Gd  Gd3  1  0.49911987  0.25000000  0.19174859  1.0
  Ge  Ge4  1  0.70419833  0.75000000  0.39372871  1.0
  Ge  Ge5  1  0.20419833  0.75000000  0.10627129  1.0
  Ge  Ge6  1  0.29580167  0.25000000  0.60627129  1.0
  Ge  Ge7  1  0.79580167  0.25000000  0.89372871  1.0
  Ir  Ir8  1  0.83887873  0.75000000  0.06919774  1.0
  Ir  Ir9  1  0.33887873  0.75000000  0.43080226  1.0
  Ir  Ir10  1  0.16112127  0.25000000  0.93080226  1.0
  Ir  Ir11  1  0.66112127  0.25000000  0.56919774  1.0
