# generated using pymatgen
data_Al6Tc
_symmetry_space_group_name_H-M   'P 1'
_cell_length_a   5.03877653
_cell_length_b   5.03877653
_cell_length_c   9.02411762
_cell_angle_alpha   90.00000000
_cell_angle_beta   90.00000000
_cell_angle_gamma   81.69653245
_symmetry_Int_Tables_number   1
_chemical_formula_structural   Al6Tc
_chemical_formula_sum   'Al12 Tc2'
_cell_volume   226.71394036
_cell_formula_units_Z   2
loop_
 _symmetry_equiv_pos_site_id
 _symmetry_equiv_pos_as_xyz
  1  'x, y, z'
loop_
 _atom_site_type_symbol
 _atom_site_label
 _atom_site_symmetry_multiplicity
 _atom_site_fract_x
 _atom_site_fract_y
 _atom_site_fract_z
 _atom_site_occupancy
  Al  Al0  1  -0.10968803  1.47157558  0.25000000  1.0
  Al  Al1  1  0.47157558  0.89031197  0.75000000  1.0
  Al  Al2  1  -0.47157558  1.10968803  0.25000000  1.0
  Al  Al3  1  0.10968803  0.52842442  0.75000000  1.0
  Al  Al4  1  0.36642859  0.63357141  0.39962339  1.0
  Al  Al5  1  0.36642859  0.63357141  0.10037661  1.0
  Al  Al6  1  -0.36642859  1.36642859  0.89962339  1.0
  Al  Al7  1  -0.36642859  1.36642859  0.60037661  1.0
  Al  Al8  1  0.82400686  0.82400686  0.50000000  1.0
  Al  Al9  1  0.82400686  0.82400686  0.00000000  1.0
  Al  Al10  1  0.17599314  0.17599314  0.50000000  1.0
  Al  Al11  1  0.17599314  0.17599314  0.00000000  1.0
  Tc  Tc12  1  0.04397516  0.95602484  0.25000000  1.0
  Tc  Tc13  1  -0.04397516  1.04397516  0.75000000  1.0
