# generated using pymatgen
data_Sr2P7Br
_symmetry_space_group_name_H-M   'P 1'
_cell_length_a   9.91990351
_cell_length_b   9.91990351
_cell_length_c   9.91990351
_cell_angle_alpha   90.00000000
_cell_angle_beta   90.00000000
_cell_angle_gamma   90.00000000
_symmetry_Int_Tables_number   1
_chemical_formula_structural   Sr2P7Br
_chemical_formula_sum   'Sr8 P28 Br4'
_cell_volume   976.16300396
_cell_formula_units_Z   4
loop_
 _symmetry_equiv_pos_site_id
 _symmetry_equiv_pos_as_xyz
  1  'x, y, z'
loop_
 _atom_site_type_symbol
 _atom_site_label
 _atom_site_symmetry_multiplicity
 _atom_site_fract_x
 _atom_site_fract_y
 _atom_site_fract_z
 _atom_site_occupancy
  Sr  Sr0  1  0.64914576  0.14914576  0.35085424  1.0
  Sr  Sr1  1  0.14914576  0.35085424  0.64914576  1.0
  Sr  Sr2  1  0.35085424  0.64914576  0.14914576  1.0
  Sr  Sr3  1  0.85085424  0.85085424  0.85085424  1.0
  Sr  Sr4  1  0.91269570  0.41269570  0.08730430  1.0
  Sr  Sr5  1  0.41269570  0.08730430  0.91269570  1.0
  Sr  Sr6  1  0.08730430  0.91269570  0.41269570  1.0
  Sr  Sr7  1  0.58730430  0.58730430  0.58730430  1.0
  P  P8  1  0.46498361  0.96498361  0.53501639  1.0
  P  P9  1  0.96498361  0.53501639  0.46498361  1.0
  P  P10  1  0.53501639  0.46498361  0.96498361  1.0
  P  P11  1  0.03501639  0.03501639  0.03501639  1.0
  P  P12  1  0.21774232  0.94234185  0.11782557  1.0
  P  P13  1  0.88217443  0.71774232  0.55765815  1.0
  P  P14  1  0.44234185  0.38217443  0.78225768  1.0
  P  P15  1  0.71774232  0.55765815  0.88217443  1.0
  P  P16  1  0.38217443  0.78225768  0.44234185  1.0
  P  P17  1  0.94234185  0.11782557  0.21774232  1.0
  P  P18  1  0.78225768  0.44234185  0.38217443  1.0
  P  P19  1  0.11782557  0.21774232  0.94234185  1.0
  P  P20  1  0.55765815  0.88217443  0.71774232  1.0
  P  P21  1  0.28225768  0.05765815  0.61782557  1.0
  P  P22  1  0.61782557  0.28225768  0.05765815  1.0
  P  P23  1  0.05765815  0.61782557  0.28225768  1.0
  P  P24  1  0.20144811  0.88823516  0.73048587  1.0
  P  P25  1  0.26951413  0.70144811  0.61176484  1.0
  P  P26  1  0.38823516  0.76951413  0.79855189  1.0
  P  P27  1  0.70144811  0.61176484  0.26951413  1.0
  P  P28  1  0.76951413  0.79855189  0.38823516  1.0
  P  P29  1  0.88823516  0.73048587  0.20144811  1.0
  P  P30  1  0.79855189  0.38823516  0.76951413  1.0
  P  P31  1  0.73048587  0.20144811  0.88823516  1.0
  P  P32  1  0.61176484  0.26951413  0.70144811  1.0
  P  P33  1  0.29855189  0.11176484  0.23048587  1.0
  P  P34  1  0.23048587  0.29855189  0.11176484  1.0
  P  P35  1  0.11176484  0.23048587  0.29855189  1.0
  Br  Br36  1  0.09610936  0.59610936  0.90389064  1.0
  Br  Br37  1  0.59610936  0.90389064  0.09610936  1.0
  Br  Br38  1  0.90389064  0.09610936  0.59610936  1.0
  Br  Br39  1  0.40389064  0.40389064  0.40389064  1.0
