# generated using pymatgen
data_KP(HO2)2
_symmetry_space_group_name_H-M   'P 1'
_cell_length_a   8.10248880
_cell_length_b   8.10248880
_cell_length_c   4.49484654
_cell_angle_alpha   90.00000000
_cell_angle_beta   90.00000000
_cell_angle_gamma   135.55287769
_symmetry_Int_Tables_number   1
_chemical_formula_structural   KP(HO2)2
_chemical_formula_sum   'K2 P2 H4 O8'
_cell_volume   206.63567747
_cell_formula_units_Z   2
loop_
 _symmetry_equiv_pos_site_id
 _symmetry_equiv_pos_as_xyz
  1  'x, y, z'
loop_
 _atom_site_type_symbol
 _atom_site_label
 _atom_site_symmetry_multiplicity
 _atom_site_fract_x
 _atom_site_fract_y
 _atom_site_fract_z
 _atom_site_occupancy
  K  K0  1  -0.14242499  0.14242499  0.25000000  1.0
  K  K1  1  0.14242499  0.85757501  0.75000000  1.0
  P  P2  1  -0.37559719  0.37559719  0.25000000  1.0
  P  P3  1  0.37559719  0.62440281  0.75000000  1.0
  H  H4  1  0.32214636  0.32214636  0.00000000  1.0
  H  H5  1  0.67785364  0.67785364  0.50000000  1.0
  H  H6  1  -0.31754305  0.31754305  0.75000000  1.0
  H  H7  1  0.31754305  0.68245695  0.25000000  1.0
  O  O8  1  0.36896573  1.23557117  0.14739132  1.0
  O  O9  1  0.23557117  0.36896573  0.85260868  1.0
  O  O10  1  0.63103427  0.76442883  0.64739132  1.0
  O  O11  1  -0.23557117  0.63103427  0.35260868  1.0
  O  O12  1  0.60235840  1.23119422  0.50741490  1.0
  O  O13  1  0.23119422  0.60235840  0.49258510  1.0
  O  O14  1  0.39764160  0.76880578  0.00741490  1.0
  O  O15  1  -0.23119422  0.39764160  0.99258510  1.0
