# generated using pymatgen
data_Sc7NiI12
_symmetry_space_group_name_H-M   'P 1'
_cell_length_a   9.38840985
_cell_length_b   9.38840985
_cell_length_c   9.38840985
_cell_angle_alpha   107.59594078
_cell_angle_beta   107.59594078
_cell_angle_gamma   107.59594078
_symmetry_Int_Tables_number   1
_chemical_formula_structural   Sc7NiI12
_chemical_formula_sum   'Sc7 Ni1 I12'
_cell_volume   677.64726452
_cell_formula_units_Z   1
loop_
 _symmetry_equiv_pos_site_id
 _symmetry_equiv_pos_as_xyz
  1  'x, y, z'
loop_
 _atom_site_type_symbol
 _atom_site_label
 _atom_site_symmetry_multiplicity
 _atom_site_fract_x
 _atom_site_fract_y
 _atom_site_fract_z
 _atom_site_occupancy
  Ni  Ni0  1  -0.00000000  -0.00000000  -0.00000000  1.0
  Sc  Sc1  1  1.71201547  0.90532497  -0.02942642  1.0
  Sc  Sc2  1  1.09467503  0.02942642  -0.71201547  1.0
  Sc  Sc3  1  1.02942642  -0.71201547  0.09467503  1.0
  Sc  Sc4  1  0.28798453  0.09467503  0.02942642  1.0
  Sc  Sc5  1  0.90532497  0.97057358  0.71201547  1.0
  Sc  Sc6  1  0.97057358  1.71201547  -0.09467503  1.0
  Sc  Sc7  1  0.50000000  0.50000000  0.50000000  1.0
  I  I8  1  1.61425192  0.54010661  -0.15699107  1.0
  I  I9  1  0.45989339  1.15699107  -0.61425192  1.0
  I  I10  1  1.15699107  0.38574808  -0.54010661  1.0
  I  I11  1  0.38574808  0.45989339  0.15699107  1.0
  I  I12  1  1.54010661  -0.15699107  0.61425192  1.0
  I  I13  1  0.84300893  0.61425192  0.54010661  1.0
  I  I14  1  0.68807863  0.22172901  0.07479990  1.0
  I  I15  1  0.77827099  0.92520010  0.31192137  1.0
  I  I16  1  0.92520010  1.31192137  -0.22172901  1.0
  I  I17  1  1.31192137  0.77827099  -0.07479990  1.0
  I  I18  1  1.22172901  0.07479990  -0.31192137  1.0
  I  I19  1  1.07479990  -0.31192137  0.22172901  1.0
