# generated using pymatgen
data_Al2PO8
_symmetry_space_group_name_H-M   'P 1'
_cell_length_a   10.17159465
_cell_length_b   7.93827874
_cell_length_c   7.79923794
_cell_angle_alpha   90.00000000
_cell_angle_beta   90.00000000
_cell_angle_gamma   90.00000000
_symmetry_Int_Tables_number   1
_chemical_formula_structural   Al2PO8
_chemical_formula_sum   'Al8 P4 O32'
_cell_volume   629.74910535
_cell_formula_units_Z   4
loop_
 _symmetry_equiv_pos_site_id
 _symmetry_equiv_pos_as_xyz
  1  'x, y, z'
loop_
 _atom_site_type_symbol
 _atom_site_label
 _atom_site_symmetry_multiplicity
 _atom_site_fract_x
 _atom_site_fract_y
 _atom_site_fract_z
 _atom_site_occupancy
  Al  Al0  1  0.21885428  0.55088239  0.56577487  1.0
  Al  Al1  1  0.71885428  0.94911761  0.56577487  1.0
  Al  Al2  1  0.78114572  0.44911761  0.06577487  1.0
  Al  Al3  1  0.28114572  0.05088239  0.06577487  1.0
  Al  Al4  1  0.35364996  0.68061203  0.95725535  1.0
  Al  Al5  1  0.85364996  0.81938797  0.95725535  1.0
  Al  Al6  1  0.64635004  0.31938797  0.45725535  1.0
  Al  Al7  1  0.14635004  0.18061203  0.45725535  1.0
  O  O8  1  0.09698455  0.70572144  0.52325162  1.0
  O  O9  1  0.59698455  0.79427856  0.52325162  1.0
  O  O10  1  0.90301545  0.29427856  0.02325162  1.0
  O  O11  1  0.40301545  0.20572144  0.02325162  1.0
  O  O12  1  0.30892591  0.22070601  0.57041768  1.0
  O  O13  1  0.80892591  0.27929399  0.57041768  1.0
  O  O14  1  0.69107409  0.77929399  0.07041768  1.0
  O  O15  1  0.19107409  0.72070601  0.07041768  1.0
  O  O16  1  0.38989845  0.86052015  0.11006249  1.0
  O  O17  1  0.88989845  0.63947985  0.11006249  1.0
  O  O18  1  0.61010155  0.13947985  0.61006249  1.0
  O  O19  1  0.11010155  0.36052015  0.61006249  1.0
  O  O20  1  0.27722646  0.89929080  0.88529534  1.0
  O  O21  1  0.77722646  0.60070920  0.88529534  1.0
  O  O22  1  0.72277354  0.10070920  0.38529534  1.0
  O  O23  1  0.22277354  0.39929080  0.38529534  1.0
  O  O24  1  0.27146696  0.55206127  0.78973804  1.0
  O  O25  1  0.77146696  0.94793873  0.78973804  1.0
  O  O26  1  0.72853304  0.44793873  0.28973804  1.0
  O  O27  1  0.22853304  0.05206127  0.28973804  1.0
  O  O28  1  0.48424337  0.70024525  0.79400143  1.0
  O  O29  1  0.98424337  0.79975475  0.79400143  1.0
  O  O30  1  0.51575663  0.29975475  0.29400143  1.0
  O  O31  1  0.01575663  0.20024525  0.29400143  1.0
  O  O32  1  0.07405071  1.01649488  0.58881207  1.0
  O  O33  1  0.57405071  0.48350512  0.58881207  1.0
  O  O34  1  0.92594929  -0.01649488  0.08881207  1.0
  O  O35  1  0.42594929  0.51649488  0.08881207  1.0
  O  O36  1  0.37430707  0.65452231  0.50581550  1.0
  O  O37  1  0.87430707  0.84547769  0.50581550  1.0
  O  O38  1  0.62569293  0.34547769  0.00581550  1.0
  O  O39  1  0.12569293  0.15452231  0.00581550  1.0
  P  P40  1  0.50860393  0.65718851  0.60087561  1.0
  P  P41  1  1.00860393  0.84281149  0.60087561  1.0
  P  P42  1  0.49139607  0.34281149  0.10087561  1.0
  P  P43  1  -0.00860393  0.15718851  0.10087561  1.0
