# generated using pymatgen
data_Ca5P8
_symmetry_space_group_name_H-M   'P 1'
_cell_length_a   6.88938691
_cell_length_b   6.88938691
_cell_length_c   7.51310328
_cell_angle_alpha   81.02998376
_cell_angle_beta   98.97001624
_cell_angle_gamma   60.27387164
_symmetry_Int_Tables_number   1
_chemical_formula_structural   Ca5P8
_chemical_formula_sum   'Ca5 P8'
_cell_volume   294.36161635
_cell_formula_units_Z   1
loop_
 _symmetry_equiv_pos_site_id
 _symmetry_equiv_pos_as_xyz
  1  'x, y, z'
loop_
 _atom_site_type_symbol
 _atom_site_label
 _atom_site_symmetry_multiplicity
 _atom_site_fract_x
 _atom_site_fract_y
 _atom_site_fract_z
 _atom_site_occupancy
  Ca  Ca0  1  0.83454686  -0.16545314  0.50000000  1.0
  Ca  Ca1  1  1.16545314  0.16545314  0.50000000  1.0
  Ca  Ca2  1  0.67417756  -0.32582244  0.00000000  1.0
  Ca  Ca3  1  1.32582244  0.32582244  0.00000000  1.0
  Ca  Ca4  1  0.00000000  0.00000000  0.00000000  1.0
  P  P5  1  1.57906418  0.11456909  0.74035130  1.0
  P  P6  1  0.88543091  -0.57906418  0.74035130  1.0
  P  P7  1  1.11456909  0.57906418  0.25964870  1.0
  P  P8  1  0.42093582  -0.11456909  0.25964870  1.0
  P  P9  1  0.55248163  -0.55248163  0.66377002  1.0
  P  P10  1  0.44751837  -0.44751837  0.33622998  1.0
  P  P11  1  0.27637120  -0.27637120  0.74238346  1.0
  P  P12  1  0.72362880  -0.72362880  0.25761654  1.0
