# generated using pymatgen
data_C6BrNF4
_symmetry_space_group_name_H-M   'P 1'
_cell_length_a   7.82365680
_cell_length_b   7.82365680
_cell_length_c   19.49590544
_cell_angle_alpha   80.23713454
_cell_angle_beta   99.76286546
_cell_angle_gamma   135.45328245
_symmetry_Int_Tables_number   1
_chemical_formula_structural   C6BrNF4
_chemical_formula_sum   'C24 Br4 N4 F16'
_cell_volume   822.94010064
_cell_formula_units_Z   4
loop_
 _symmetry_equiv_pos_site_id
 _symmetry_equiv_pos_as_xyz
  1  'x, y, z'
loop_
 _atom_site_type_symbol
 _atom_site_label
 _atom_site_symmetry_multiplicity
 _atom_site_fract_x
 _atom_site_fract_y
 _atom_site_fract_z
 _atom_site_occupancy
  C  C0  1  1.91498097  -0.07217691  0.38558166  1.0
  C  C1  1  1.07217691  -0.91498097  0.88558166  1.0
  C  C2  1  0.92782309  0.91498097  0.11441834  1.0
  C  C3  1  0.08501903  0.07217691  0.61441834  1.0
  C  C4  1  1.89820599  -0.06637752  0.65950733  1.0
  C  C5  1  1.06637752  -0.89820599  0.15950733  1.0
  C  C6  1  0.93362248  0.89820599  0.84049267  1.0
  C  C7  1  0.10179401  0.06637752  0.34049267  1.0
  C  C8  1  1.71026429  -0.19248909  0.80760951  1.0
  C  C9  1  1.19248909  -0.71026429  0.30760951  1.0
  C  C10  1  0.80751091  0.71026429  0.69239049  1.0
  C  C11  1  0.28973571  0.19248909  0.19239049  1.0
  C  C12  1  1.80938084  0.00536314  0.39843967  1.0
  C  C13  1  0.99463686  0.19061916  0.89843967  1.0
  C  C14  1  1.00536314  -0.19061916  0.10156033  1.0
  C  C15  1  0.19061916  -0.00536314  0.60156033  1.0
  C  C16  1  0.63327807  -0.08640185  0.82189980  1.0
  C  C17  1  1.08640185  -0.63327807  0.32189980  1.0
  C  C18  1  0.91359815  0.63327807  0.67810020  1.0
  C  C19  1  1.36672193  0.08640185  0.17810020  1.0
  C  C20  1  0.77372818  0.10377628  0.86564002  1.0
  C  C21  1  0.89622372  -0.77372818  0.36564002  1.0
  C  C22  1  1.10377628  0.77372818  0.63435998  1.0
  C  C23  1  1.22627182  -0.10377628  0.13435998  1.0
  Br  Br24  1  0.44091685  0.18063987  0.53998396  1.0
  Br  Br25  1  0.81936013  -0.44091685  0.03998396  1.0
  Br  Br26  1  1.18063987  0.44091685  0.96001604  1.0
  Br  Br27  1  1.55908315  -0.18063987  0.46001604  1.0
  N  N28  1  1.53748855  -0.41242894  0.77295368  1.0
  N  N29  1  1.41242894  -0.53748855  0.27295368  1.0
  N  N30  1  0.58757106  0.53748855  0.72704632  1.0
  N  N31  1  0.46251145  0.41242894  0.22704632  1.0
  F  F32  1  1.79523297  0.01132075  0.66791646  1.0
  F  F33  1  0.98867925  -0.79523297  0.16791646  1.0
  F  F34  1  1.01132075  0.79523297  0.83208354  1.0
  F  F35  1  0.20476703  -0.01132075  0.33208354  1.0
  F  F36  1  0.42017695  -0.16825411  0.79147755  1.0
  F  F37  1  1.16825411  -0.42017695  0.29147755  1.0
  F  F38  1  0.83174589  0.42017695  0.70852245  1.0
  F  F39  1  1.57982305  0.16825411  0.20852245  1.0
  F  F40  1  0.69344765  0.20149608  0.87667464  1.0
  F  F41  1  0.79850392  -0.69344765  0.37667464  1.0
  F  F42  1  1.20149608  0.69344765  0.62332536  1.0
  F  F43  1  1.30655235  -0.20149608  0.12332536  1.0
  F  F44  1  0.28169947  0.16084809  0.91731754  1.0
  F  F45  1  0.83915191  0.71830053  0.41731754  1.0
  F  F46  1  1.16084809  -0.71830053  0.58268246  1.0
  F  F47  1  1.71830053  -0.16084809  0.08268246  1.0
