# generated using pymatgen
data_Nb4SiC3
_symmetry_space_group_name_H-M   'P 1'
_cell_length_a   3.18527712
_cell_length_b   3.18527712
_cell_length_c   23.00464114
_cell_angle_alpha   90.00000000
_cell_angle_beta   90.00000000
_cell_angle_gamma   120.00000000
_symmetry_Int_Tables_number   1
_chemical_formula_structural   Nb4SiC3
_chemical_formula_sum   'Nb8 Si2 C6'
_cell_volume   202.13454439
_cell_formula_units_Z   2
loop_
 _symmetry_equiv_pos_site_id
 _symmetry_equiv_pos_as_xyz
  1  'x, y, z'
loop_
 _atom_site_type_symbol
 _atom_site_label
 _atom_site_symmetry_multiplicity
 _atom_site_fract_x
 _atom_site_fract_y
 _atom_site_fract_z
 _atom_site_occupancy
  Nb  Nb0  1  0.33333333  0.66666667  0.44244757  1.0
  Nb  Nb1  1  0.66666667  0.33333333  0.55755243  1.0
  Nb  Nb2  1  0.66666667  0.33333333  0.94244757  1.0
  Nb  Nb3  1  0.33333333  0.66666667  0.05755243  1.0
  Nb  Nb4  1  0.00000000  0.00000000  0.33575523  1.0
  Nb  Nb5  1  0.00000000  0.00000000  0.66424477  1.0
  Nb  Nb6  1  0.00000000  0.00000000  0.83575523  1.0
  Nb  Nb7  1  0.00000000  0.00000000  0.16424477  1.0
  Si  Si8  1  0.33333333  0.66666667  0.25000000  1.0
  Si  Si9  1  0.66666667  0.33333333  0.75000000  1.0
  C  C10  1  0.00000000  0.00000000  0.50000000  1.0
  C  C11  1  0.00000000  0.00000000  0.00000000  1.0
  C  C12  1  0.66666667  0.33333333  0.38693469  1.0
  C  C13  1  0.33333333  0.66666667  0.61306531  1.0
  C  C14  1  0.33333333  0.66666667  0.88693469  1.0
  C  C15  1  0.66666667  0.33333333  0.11306531  1.0
