# generated using pymatgen
data_MgPH13O9
_symmetry_space_group_name_H-M   'P 1'
_cell_length_a   5.97267064
_cell_length_b   5.97267064
_cell_length_c   5.97267064
_cell_angle_alpha   95.79571686
_cell_angle_beta   95.79571686
_cell_angle_gamma   95.79571686
_symmetry_Int_Tables_number   1
_chemical_formula_structural   MgPH13O9
_chemical_formula_sum   'Mg1 P1 H13 O9'
_cell_volume   209.55458667
_cell_formula_units_Z   1
loop_
 _symmetry_equiv_pos_site_id
 _symmetry_equiv_pos_as_xyz
  1  'x, y, z'
loop_
 _atom_site_type_symbol
 _atom_site_label
 _atom_site_symmetry_multiplicity
 _atom_site_fract_x
 _atom_site_fract_y
 _atom_site_fract_z
 _atom_site_occupancy
  Mg  Mg0  1  0.48253000  0.48253000  0.48253000  1.0
  P  P1  1  0.00502147  0.00502147  0.00502147  1.0
  H  H2  1  0.74889622  0.85282607  0.35017598  1.0
  H  H3  1  0.85282607  1.35017598  -0.25110378  1.0
  H  H4  1  1.35017598  0.74889622  -0.14717393  1.0
  H  H5  1  1.53333097  -0.06072185  0.45669370  1.0
  H  H6  1  0.93927815  0.45669370  0.53333097  1.0
  H  H7  1  1.45669370  0.53333097  -0.06072185  1.0
  H  H8  1  1.21130419  0.07385437  -0.57552969  1.0
  H  H9  1  1.07385437  -0.57552969  0.21130419  1.0
  H  H10  1  0.42447031  0.21130419  0.07385437  1.0
  H  H11  1  1.10938792  -0.31567431  0.30346681  1.0
  H  H12  1  0.68432569  0.30346681  0.10938792  1.0
  H  H13  1  1.30346681  0.10938792  -0.31567431  1.0
  H  H14  1  0.85215278  0.85215278  0.85215278  1.0
  O  O15  1  0.60530599  0.80240810  0.41067087  1.0
  O  O16  1  0.80240810  1.41067087  -0.39469401  1.0
  O  O17  1  1.41067087  0.60530599  -0.19759190  1.0
  O  O18  1  1.00427681  0.92146742  0.24287721  1.0
  O  O19  1  0.92146742  1.24287721  0.00427681  1.0
  O  O20  1  1.24287721  1.00427681  -0.07853258  1.0
  O  O21  1  1.34454284  0.14746723  -0.46763109  1.0
  O  O22  1  1.14746723  -0.46763109  0.34454284  1.0
  O  O23  1  0.53236891  0.34454284  0.14746723  1.0
