# generated using pymatgen
data_Ba3YRu2O9
_symmetry_space_group_name_H-M   'P 1'
_cell_length_a   5.93708107
_cell_length_b   5.93708107
_cell_length_c   14.53390192
_cell_angle_alpha   90.00000000
_cell_angle_beta   90.00000000
_cell_angle_gamma   120.00000000
_symmetry_Int_Tables_number   1
_chemical_formula_structural   Ba3YRu2O9
_chemical_formula_sum   'Ba6 Y2 Ru4 O18'
_cell_volume   443.66872448
_cell_formula_units_Z   2
loop_
 _symmetry_equiv_pos_site_id
 _symmetry_equiv_pos_as_xyz
  1  'x, y, z'
loop_
 _atom_site_type_symbol
 _atom_site_label
 _atom_site_symmetry_multiplicity
 _atom_site_fract_x
 _atom_site_fract_y
 _atom_site_fract_z
 _atom_site_occupancy
  Ba  Ba0  1  0.33333333  0.66666667  0.40508768  1.0
  Ba  Ba1  1  0.33333333  0.66666667  0.09491232  1.0
  Ba  Ba2  1  0.66666667  0.33333333  0.90508768  1.0
  Ba  Ba3  1  0.66666667  0.33333333  0.59491232  1.0
  Ba  Ba4  1  0.00000000  0.00000000  0.25000000  1.0
  Ba  Ba5  1  0.00000000  0.00000000  0.75000000  1.0
  Y  Y6  1  0.00000000  0.00000000  0.50000000  1.0
  Y  Y7  1  0.00000000  0.00000000  0.00000000  1.0
  Ru  Ru8  1  0.33333333  0.66666667  0.83546562  1.0
  Ru  Ru9  1  0.33333333  0.66666667  0.66453438  1.0
  Ru  Ru10  1  0.66666667  0.33333333  0.33546562  1.0
  Ru  Ru11  1  0.66666667  0.33333333  0.16453438  1.0
  O  O12  1  0.17629074  0.82370926  0.91156394  1.0
  O  O13  1  0.17629074  0.82370926  0.58843606  1.0
  O  O14  1  0.17629074  0.35258149  0.91156394  1.0
  O  O15  1  0.17629074  0.35258149  0.58843606  1.0
  O  O16  1  0.82370926  0.17629074  0.41156394  1.0
  O  O17  1  0.82370926  0.17629074  0.08843606  1.0
  O  O18  1  0.82370926  0.64741851  0.41156394  1.0
  O  O19  1  0.82370926  0.64741851  0.08843606  1.0
  O  O20  1  0.64741851  0.82370926  0.91156394  1.0
  O  O21  1  0.64741851  0.82370926  0.58843606  1.0
  O  O22  1  0.35258149  0.17629074  0.41156394  1.0
  O  O23  1  0.35258149  0.17629074  0.08843606  1.0
  O  O24  1  0.50981148  0.49018852  0.25000000  1.0
  O  O25  1  0.50981148  0.01962296  0.25000000  1.0
  O  O26  1  0.49018852  0.50981148  0.75000000  1.0
  O  O27  1  0.49018852  0.98037704  0.75000000  1.0
  O  O28  1  0.98037704  0.49018852  0.25000000  1.0
  O  O29  1  0.01962296  0.50981148  0.75000000  1.0
