# generated using pymatgen
data_HfSiRu
_symmetry_space_group_name_H-M   'P 1'
_cell_length_a   7.59793362
_cell_length_b   7.59793362
_cell_length_c   7.59793362
_cell_angle_alpha   121.92082681
_cell_angle_beta   81.74057834
_cell_angle_gamma   127.94526908
_symmetry_Int_Tables_number   1
_chemical_formula_structural   HfSiRu
_chemical_formula_sum   'Hf6 Si6 Ru6'
_cell_volume   282.59089695
_cell_formula_units_Z   6
loop_
 _symmetry_equiv_pos_site_id
 _symmetry_equiv_pos_as_xyz
  1  'x, y, z'
loop_
 _atom_site_type_symbol
 _atom_site_label
 _atom_site_symmetry_multiplicity
 _atom_site_fract_x
 _atom_site_fract_y
 _atom_site_fract_z
 _atom_site_occupancy
  Hf  Hf0  1  0.75762404  1.22677419  1.03084986  1.0
  Hf  Hf1  1  1.19592433  1.72677419  0.96915014  1.0
  Hf  Hf2  1  0.33712858  1.08440374  0.75272484  1.0
  Hf  Hf3  1  1.33167891  1.58440374  1.24727516  1.0
  Hf  Hf4  1  1.15246729  1.20459791  0.44786938  1.0
  Hf  Hf5  1  0.75672853  0.70459791  0.55213062  1.0
  Si  Si6  1  0.42251804  0.26047328  0.17285007  1.0
  Si  Si7  1  1.08762321  0.76047328  0.33795525  1.0
  Si  Si8  1  0.42251804  0.74966796  0.66204475  1.0
  Si  Si9  1  1.08762321  1.24966796  0.82714993  1.0
  Si  Si10  1  0.72222106  0.99548246  1.22673860  1.0
  Si  Si11  1  0.76874386  1.49548246  0.77326140  1.0
  Ru  Ru12  1  0.50605647  0.15512709  0.40181935  1.0
  Ru  Ru13  1  0.75330775  0.65512709  0.14907062  1.0
  Ru  Ru14  1  0.50605647  0.60423712  0.85092938  1.0
  Ru  Ru15  1  0.75330775  1.10423712  0.59818065  1.0
  Ru  Ru16  1  -0.00096377  -0.00096377  0.00000000  1.0
  Ru  Ru17  1  -0.00096377  0.49903623  0.50000000  1.0
