# generated using pymatgen
data_Y6MnBi2
_symmetry_space_group_name_H-M   'P 1'
_cell_length_a   8.30482444
_cell_length_b   8.30482444
_cell_length_c   4.24641871
_cell_angle_alpha   90.00000000
_cell_angle_beta   90.00000000
_cell_angle_gamma   120.00000000
_symmetry_Int_Tables_number   1
_chemical_formula_structural   Y6MnBi2
_chemical_formula_sum   'Y6 Mn1 Bi2'
_cell_volume   253.63802278
_cell_formula_units_Z   1
loop_
 _symmetry_equiv_pos_site_id
 _symmetry_equiv_pos_as_xyz
  1  'x, y, z'
loop_
 _atom_site_type_symbol
 _atom_site_label
 _atom_site_symmetry_multiplicity
 _atom_site_fract_x
 _atom_site_fract_y
 _atom_site_fract_z
 _atom_site_occupancy
  Y  Y0  1  0.76950627  0.76950627  0.50000000  1.0
  Y  Y1  1  0.00000000  0.23049373  0.50000000  1.0
  Y  Y2  1  0.23049373  0.00000000  0.50000000  1.0
  Y  Y3  1  0.39312438  0.39312438  0.00000000  1.0
  Y  Y4  1  0.00000000  0.60687562  0.00000000  1.0
  Y  Y5  1  0.60687562  0.00000000  0.00000000  1.0
  Mn  Mn6  1  0.00000000  0.00000000  0.00000000  1.0
  Bi  Bi7  1  0.33333333  0.66666667  0.50000000  1.0
  Bi  Bi8  1  0.66666667  0.33333333  0.50000000  1.0
