# generated using pymatgen
data_SrHBrO
_symmetry_space_group_name_H-M   'P 1'
_cell_length_a   6.03854573
_cell_length_b   6.03854573
_cell_length_c   7.40394810
_cell_angle_alpha   73.39746757
_cell_angle_beta   106.60253243
_cell_angle_gamma   138.08745521
_symmetry_Int_Tables_number   1
_chemical_formula_structural   SrHBrO
_chemical_formula_sum   'Sr2 H2 Br2 O2'
_cell_volume   171.69491086
_cell_formula_units_Z   2
loop_
 _symmetry_equiv_pos_site_id
 _symmetry_equiv_pos_as_xyz
  1  'x, y, z'
loop_
 _atom_site_type_symbol
 _atom_site_label
 _atom_site_symmetry_multiplicity
 _atom_site_fract_x
 _atom_site_fract_y
 _atom_site_fract_z
 _atom_site_occupancy
  Sr  Sr0  1  0.79563917  0.20436083  0.22666722  1.0
  Sr  Sr1  1  0.20436083  -0.20436083  0.77333278  1.0
  H  H2  1  0.56265549  0.43734451  0.87180738  1.0
  H  H3  1  0.43734451  -0.43734451  0.12819262  1.0
  Br  Br4  1  0.89417759  0.10582241  0.67841458  1.0
  Br  Br5  1  0.10582241  -0.10582241  0.32158542  1.0
  O  O6  1  0.65244814  0.34755186  0.89582425  1.0
  O  O7  1  0.34755186  -0.34755186  0.10417575  1.0
