# generated using pymatgen
data_AlO3
_symmetry_space_group_name_H-M   'P 1'
_cell_length_a   8.26648575
_cell_length_b   6.22405469
_cell_length_c   5.49077030
_cell_angle_alpha   73.90891192
_cell_angle_beta   77.91011111
_cell_angle_gamma   80.68092745
_symmetry_Int_Tables_number   1
_chemical_formula_structural   AlO3
_chemical_formula_sum   'Al4 O12'
_cell_volume   263.79014061
_cell_formula_units_Z   4
loop_
 _symmetry_equiv_pos_site_id
 _symmetry_equiv_pos_as_xyz
  1  'x, y, z'
loop_
 _atom_site_type_symbol
 _atom_site_label
 _atom_site_symmetry_multiplicity
 _atom_site_fract_x
 _atom_site_fract_y
 _atom_site_fract_z
 _atom_site_occupancy
  Al  Al0  1  -0.66680737  -0.83366781  -1.00009777  1.0
  Al  Al1  1  -0.33319263  -0.16633219  0.00009777  1.0
  Al  Al2  1  -0.83345909  -0.66690684  -0.50009214  1.0
  Al  Al3  1  -0.16654091  -0.33309316  -0.49990786  1.0
  O  O4  1  -0.56210566  -0.12246762  -0.86394221  1.0
  O  O5  1  -0.43789434  -0.87753238  -0.13605779  1.0
  O  O6  1  -0.85130965  -0.83380150  -0.73085839  1.0
  O  O7  1  -0.14869035  -0.16619850  -0.26914161  1.0
  O  O8  1  -0.64910044  -0.66677848  -0.76937374  1.0
  O  O9  1  -0.35089956  -0.33322152  -0.23062626  1.0
  O  O10  1  -0.93775826  -0.37768116  -0.63607766  1.0
  O  O11  1  -0.06224174  -0.62231884  -0.36392234  1.0
  O  O12  1  -0.77363008  -0.91148738  -0.23064616  1.0
  O  O13  1  -0.22636992  -0.08851262  -0.76935384  1.0
  O  O14  1  -0.72664123  -0.58926825  -0.26948799  1.0
  O  O15  1  -0.27335877  -0.41073175  -0.73051201  1.0
