# generated using pymatgen
data_FeSiO3
_symmetry_space_group_name_H-M   'P 1'
_cell_length_a   6.33383170
_cell_length_b   6.33383170
_cell_length_c   2.68180905
_cell_angle_alpha   90.00000000
_cell_angle_beta   90.00000000
_cell_angle_gamma   125.00832278
_symmetry_Int_Tables_number   1
_chemical_formula_structural   FeSiO3
_chemical_formula_sum   'Fe2 Si2 O6'
_cell_volume   88.12136796
_cell_formula_units_Z   2
loop_
 _symmetry_equiv_pos_site_id
 _symmetry_equiv_pos_as_xyz
  1  'x, y, z'
loop_
 _atom_site_type_symbol
 _atom_site_label
 _atom_site_symmetry_multiplicity
 _atom_site_fract_x
 _atom_site_fract_y
 _atom_site_fract_z
 _atom_site_occupancy
  Si  Si0  1  0.00000000  0.00000000  0.00000000  1.0
  Si  Si1  1  0.50000000  0.50000000  0.50000000  1.0
  O  O2  1  0.30267019  0.30267019  -0.00000000  1.0
  O  O3  1  0.69732981  0.69732981  -0.00000000  1.0
  O  O4  1  -0.33690910  0.33690910  0.50000000  1.0
  O  O5  1  0.33690910  0.66309090  0.50000000  1.0
  O  O6  1  -0.10701589  0.10701589  0.50000000  1.0
  O  O7  1  0.10701589  0.89298411  0.50000000  1.0
  Fe  Fe8  1  0.50000000  1.00000000  0.00000000  1.0
  Fe  Fe9  1  -0.00000000  0.50000000  0.00000000  1.0
