# generated using pymatgen
data_CuH12Br4(NO)2
_symmetry_space_group_name_H-M   'P 1'
_cell_length_a   8.12436669
_cell_length_b   8.12436669
_cell_length_c   8.33890416
_cell_angle_alpha   90.00000000
_cell_angle_beta   90.00000000
_cell_angle_gamma   90.00000000
_symmetry_Int_Tables_number   1
_chemical_formula_structural   CuH12Br4(NO)2
_chemical_formula_sum   'Cu2 H24 Br8 N4 O4'
_cell_volume   550.41215618
_cell_formula_units_Z   2
loop_
 _symmetry_equiv_pos_site_id
 _symmetry_equiv_pos_as_xyz
  1  'x, y, z'
loop_
 _atom_site_type_symbol
 _atom_site_label
 _atom_site_symmetry_multiplicity
 _atom_site_fract_x
 _atom_site_fract_y
 _atom_site_fract_z
 _atom_site_occupancy
  H  H0  1  0.43343411  0.91948553  0.17853709  1.0
  H  H1  1  0.43343411  0.91948553  0.82146291  1.0
  H  H2  1  0.93343411  0.58051447  0.67853709  1.0
  H  H3  1  0.93343411  0.58051447  0.32146291  1.0
  H  H4  1  0.08051447  0.56656589  0.17853709  1.0
  H  H5  1  0.08051447  0.56656589  0.82146291  1.0
  H  H6  1  0.58051447  0.93343411  0.67853709  1.0
  H  H7  1  0.58051447  0.93343411  0.32146291  1.0
  H  H8  1  0.56656589  0.08051447  0.17853709  1.0
  H  H9  1  0.56656589  0.08051447  0.82146291  1.0
  H  H10  1  0.06656589  0.41948553  0.67853709  1.0
  H  H11  1  0.06656589  0.41948553  0.32146291  1.0
  H  H12  1  0.91948553  0.43343411  0.17853709  1.0
  H  H13  1  0.91948553  0.43343411  0.82146291  1.0
  H  H14  1  0.41948553  0.06656589  0.67853709  1.0
  H  H15  1  0.41948553  0.06656589  0.32146291  1.0
  H  H16  1  0.43004244  0.56995756  0.19445685  1.0
  H  H17  1  0.43004244  0.56995756  0.80554315  1.0
  H  H18  1  0.93004244  0.93004244  0.69445685  1.0
  H  H19  1  0.93004244  0.93004244  0.30554315  1.0
  H  H20  1  0.56995756  0.43004244  0.19445685  1.0
  H  H21  1  0.56995756  0.43004244  0.80554315  1.0
  H  H22  1  0.06995756  0.06995756  0.69445685  1.0
  H  H23  1  0.06995756  0.06995756  0.30554315  1.0
  N  N24  1  0.50000000  0.00000000  0.25000000  1.0
  N  N25  1  0.50000000  0.00000000  0.75000000  1.0
  N  N26  1  0.00000000  0.50000000  0.75000000  1.0
  N  N27  1  0.00000000  0.50000000  0.25000000  1.0
  O  O28  1  0.50000000  0.50000000  0.26344035  1.0
  O  O29  1  0.50000000  0.50000000  0.73655965  1.0
  O  O30  1  0.00000000  0.00000000  0.76344035  1.0
  O  O31  1  0.00000000  0.00000000  0.23655965  1.0
  Cu  Cu32  1  0.50000000  0.50000000  0.50000000  1.0
  Cu  Cu33  1  0.00000000  0.00000000  0.00000000  1.0
  Br  Br34  1  0.21391621  0.21391621  0.50000000  1.0
  Br  Br35  1  0.71391621  0.28608379  0.00000000  1.0
  Br  Br36  1  0.78608379  0.78608379  0.50000000  1.0
  Br  Br37  1  0.28608379  0.71391621  0.00000000  1.0
  Br  Br38  1  0.28875363  0.71124637  0.50000000  1.0
  Br  Br39  1  0.78875363  0.78875363  0.00000000  1.0
  Br  Br40  1  0.71124637  0.28875363  0.50000000  1.0
  Br  Br41  1  0.21124637  0.21124637  0.00000000  1.0
