# generated using pymatgen
data_SnF2
_symmetry_space_group_name_H-M   'P 1'
_cell_length_a   5.31942073
_cell_length_b   5.31977524
_cell_length_c   10.12354301
_cell_angle_alpha   90.00000000
_cell_angle_beta   90.00000000
_cell_angle_gamma   90.00000000
_symmetry_Int_Tables_number   1
_chemical_formula_structural   SnF2
_chemical_formula_sum   'Sn4 F8'
_cell_volume   286.47726221
_cell_formula_units_Z   4
loop_
 _symmetry_equiv_pos_site_id
 _symmetry_equiv_pos_as_xyz
  1  'x, y, z'
loop_
 _atom_site_type_symbol
 _atom_site_label
 _atom_site_symmetry_multiplicity
 _atom_site_fract_x
 _atom_site_fract_y
 _atom_site_fract_z
 _atom_site_occupancy
  Sn  Sn0  1  0.74523369  0.49979036  0.40716067  1.0
  Sn  Sn1  1  0.75476631  0.50020964  0.90716067  1.0
  Sn  Sn2  1  0.24523369  1.00020964  0.59283933  1.0
  Sn  Sn3  1  0.25476631  -0.00020964  0.09283933  1.0
  F  F4  1  0.54918549  0.69360480  0.55688457  1.0
  F  F5  1  -0.04918549  0.30639520  0.05688457  1.0
  F  F6  1  1.04918549  0.80639520  0.44311543  1.0
  F  F7  1  0.45081451  0.19360480  0.94311543  1.0
  F  F8  1  0.56039529  0.69388316  0.05748197  1.0
  F  F9  1  0.93960471  0.30611684  0.55748197  1.0
  F  F10  1  0.06039529  0.80611684  0.94251803  1.0
  F  F11  1  0.43960471  0.19388316  0.44251803  1.0
