# generated using pymatgen
data_CICl2F3
_symmetry_space_group_name_H-M   'P 1'
_cell_length_a   5.63156436
_cell_length_b   5.63156436
_cell_length_c   22.91715404
_cell_angle_alpha   90.00000000
_cell_angle_beta   90.00000000
_cell_angle_gamma   90.72822052
_symmetry_Int_Tables_number   1
_chemical_formula_structural   CICl2F3
_chemical_formula_sum   'C4 I4 Cl8 F12'
_cell_volume   726.74777035
_cell_formula_units_Z   4
loop_
 _symmetry_equiv_pos_site_id
 _symmetry_equiv_pos_as_xyz
  1  'x, y, z'
loop_
 _atom_site_type_symbol
 _atom_site_label
 _atom_site_symmetry_multiplicity
 _atom_site_fract_x
 _atom_site_fract_y
 _atom_site_fract_z
 _atom_site_occupancy
  C  C0  1  -0.21987542  1.21987542  0.07437620  1.0
  C  C1  1  -0.28012458  1.28012458  0.57437620  1.0
  C  C2  1  0.28012458  0.71987542  0.42562380  1.0
  C  C3  1  0.21987542  0.78012458  0.92562380  1.0
  I  I4  1  -0.13351595  1.13351595  0.16940938  1.0
  I  I5  1  -0.36648405  1.36648405  0.66940938  1.0
  I  I6  1  0.36648405  0.63351595  0.33059062  1.0
  I  I7  1  0.13351595  0.86648405  0.83059062  1.0
  Cl  Cl8  1  -0.43527002  1.43527002  0.20145142  1.0
  Cl  Cl9  1  -0.06472998  1.06472998  0.70145142  1.0
  Cl  Cl10  1  0.06472998  0.93527002  0.29854858  1.0
  Cl  Cl11  1  0.43527002  0.56472998  0.79854858  1.0
  Cl  Cl12  1  0.15172847  0.84827153  0.12749816  1.0
  Cl  Cl13  1  0.34827153  0.65172847  0.62749816  1.0
  Cl  Cl14  1  -0.34827153  1.34827153  0.37250184  1.0
  Cl  Cl15  1  -0.15172847  1.15172847  0.87250184  1.0
  F  F16  1  -0.38572443  1.38572443  0.07194484  1.0
  F  F17  1  -0.11427557  1.11427557  0.57194484  1.0
  F  F18  1  0.11427557  0.88572443  0.42805516  1.0
  F  F19  1  0.38572443  0.61427557  0.92805516  1.0
  F  F20  1  -0.29732596  1.02057303  0.04863774  1.0
  F  F21  1  -0.20267404  0.47942697  0.54863774  1.0
  F  F22  1  -0.52057303  0.79732596  0.45136226  1.0
  F  F23  1  0.02057303  0.70267404  0.95136226  1.0
  F  F24  1  0.29732596  0.97942697  0.95136226  1.0
  F  F25  1  0.20267404  1.52057303  0.45136226  1.0
  F  F26  1  0.52057303  1.20267404  0.54863774  1.0
  F  F27  1  -0.02057303  1.29732596  0.04863774  1.0
