# generated using pymatgen
data_Zr5Ge4
_symmetry_space_group_name_H-M   'P 1'
_cell_length_a   7.27695748
_cell_length_b   7.27695748
_cell_length_c   13.22700954
_cell_angle_alpha   90.00000000
_cell_angle_beta   90.00000000
_cell_angle_gamma   90.00000000
_symmetry_Int_Tables_number   1
_chemical_formula_structural   Zr5Ge4
_chemical_formula_sum   'Zr20 Ge16'
_cell_volume   700.42452113
_cell_formula_units_Z   4
loop_
 _symmetry_equiv_pos_site_id
 _symmetry_equiv_pos_as_xyz
  1  'x, y, z'
loop_
 _atom_site_type_symbol
 _atom_site_label
 _atom_site_symmetry_multiplicity
 _atom_site_fract_x
 _atom_site_fract_y
 _atom_site_fract_z
 _atom_site_occupancy
  Zr  Zr0  1  0.49815479  0.65408967  0.12315560  1.0
  Zr  Zr1  1  0.99815479  0.84591033  0.62684440  1.0
  Zr  Zr2  1  0.34591033  0.50184521  0.37684440  1.0
  Zr  Zr3  1  0.84591033  0.99815479  0.37315560  1.0
  Zr  Zr4  1  0.50184521  0.34591033  0.62315560  1.0
  Zr  Zr5  1  0.00184521  0.15408967  0.12684440  1.0
  Zr  Zr6  1  0.65408967  0.49815479  0.87684440  1.0
  Zr  Zr7  1  0.15408967  0.00184521  0.87315560  1.0
  Zr  Zr8  1  1.00075206  0.65577921  0.03041500  1.0
  Zr  Zr9  1  0.50075206  0.84422079  0.71958500  1.0
  Zr  Zr10  1  0.34422079  -0.00075206  0.46958500  1.0
  Zr  Zr11  1  0.84422079  0.50075206  0.28041500  1.0
  Zr  Zr12  1  -0.00075206  0.34422079  0.53041500  1.0
  Zr  Zr13  1  0.49924794  0.15577921  0.21958500  1.0
  Zr  Zr14  1  0.65577921  1.00075206  0.96958500  1.0
  Zr  Zr15  1  0.15577921  0.49924794  0.78041500  1.0
  Zr  Zr16  1  0.17106269  0.82893731  0.25000000  1.0
  Zr  Zr17  1  0.67106269  0.67106269  0.50000000  1.0
  Zr  Zr18  1  0.82893731  0.17106269  0.75000000  1.0
  Zr  Zr19  1  0.32893731  0.32893731  0.00000000  1.0
  Ge  Ge20  1  0.35913610  0.70074666  0.92170409  1.0
  Ge  Ge21  1  0.85913610  0.79925334  0.82829591  1.0
  Ge  Ge22  1  0.29925334  0.64086390  0.57829591  1.0
  Ge  Ge23  1  0.79925334  0.85913610  0.17170409  1.0
  Ge  Ge24  1  0.64086390  0.29925334  0.42170409  1.0
  Ge  Ge25  1  0.14086390  0.20074666  0.32829591  1.0
  Ge  Ge26  1  0.70074666  0.35913610  0.07829591  1.0
  Ge  Ge27  1  0.20074666  0.14086390  0.67170409  1.0
  Ge  Ge28  1  0.30320663  0.96197852  0.06664540  1.0
  Ge  Ge29  1  0.80320663  0.53802148  0.68335460  1.0
  Ge  Ge30  1  0.03802148  0.69679337  0.43335460  1.0
  Ge  Ge31  1  0.53802148  0.80320663  0.31664540  1.0
  Ge  Ge32  1  0.69679337  0.03802148  0.56664540  1.0
  Ge  Ge33  1  0.19679337  0.46197852  0.18335460  1.0
  Ge  Ge34  1  0.96197852  0.30320663  0.93335460  1.0
  Ge  Ge35  1  0.46197852  0.19679337  0.81664540  1.0
