# generated using pymatgen
data_S2N2Cl
_symmetry_space_group_name_H-M   'P 1'
_cell_length_a   10.03322775
_cell_length_b   7.44023631
_cell_length_c   14.15179274
_cell_angle_alpha   90.00000000
_cell_angle_beta   114.46187981
_cell_angle_gamma   90.00000000
_symmetry_Int_Tables_number   1
_chemical_formula_structural   S2N2Cl
_chemical_formula_sum   'S16 N16 Cl8'
_cell_volume   961.59751610
_cell_formula_units_Z   8
loop_
 _symmetry_equiv_pos_site_id
 _symmetry_equiv_pos_as_xyz
  1  'x, y, z'
loop_
 _atom_site_type_symbol
 _atom_site_label
 _atom_site_symmetry_multiplicity
 _atom_site_fract_x
 _atom_site_fract_y
 _atom_site_fract_z
 _atom_site_occupancy
  S  S0  1  0.94418236  0.14548675  0.28584045  1.0
  S  S1  1  0.94418236  0.35451325  0.78584045  1.0
  S  S2  1  0.05581764  0.64548675  0.21415955  1.0
  S  S3  1  0.05581764  0.85451325  0.71415955  1.0
  S  S4  1  0.73340955  0.98264522  0.34211755  1.0
  S  S5  1  0.73340955  0.51735478  0.84211755  1.0
  S  S6  1  0.26659045  0.48264522  0.15788245  1.0
  S  S7  1  0.26659045  0.01735478  0.65788245  1.0
  S  S8  1  0.67381582  0.30521749  0.42269172  1.0
  S  S9  1  0.67381582  0.19478251  0.92269172  1.0
  S  S10  1  0.32618418  0.80521749  0.07730828  1.0
  S  S11  1  0.32618418  0.69478251  0.57730828  1.0
  S  S12  1  0.64749371  0.24749616  0.21813173  1.0
  S  S13  1  0.64749371  0.25250384  0.71813173  1.0
  S  S14  1  0.35250629  0.74749616  0.28186827  1.0
  S  S15  1  0.35250629  0.75250384  0.78186827  1.0
  N  N16  1  0.88769211  0.97789050  0.33137784  1.0
  N  N17  1  0.88769211  0.52210950  0.83137784  1.0
  N  N18  1  0.11230789  0.47789050  0.16862216  1.0
  N  N19  1  0.11230789  0.02210950  0.66862216  1.0
  N  N20  1  0.80045859  0.24857908  0.20543769  1.0
  N  N21  1  0.80045859  0.25142092  0.70543769  1.0
  N  N22  1  0.19954141  0.74857908  0.29456231  1.0
  N  N23  1  0.19954141  0.75142092  0.79456231  1.0
  N  N24  1  0.74215346  0.10825308  0.43874298  1.0
  N  N25  1  0.74215346  0.39174692  0.93874298  1.0
  N  N26  1  0.25784654  0.60825308  0.06125702  1.0
  N  N27  1  0.25784654  0.89174692  0.56125702  1.0
  N  N28  1  0.65178298  0.37991643  0.31111535  1.0
  N  N29  1  0.65178298  0.12008357  0.81111535  1.0
  N  N30  1  0.34821702  0.87991643  0.18888465  1.0
  N  N31  1  0.34821702  0.62008357  0.68888465  1.0
  Cl  Cl32  1  0.94912739  0.83177778  0.08403312  1.0
  Cl  Cl33  1  0.94912739  0.66822222  0.58403312  1.0
  Cl  Cl34  1  0.05087261  0.33177778  0.41596688  1.0
  Cl  Cl35  1  0.05087261  0.16822222  0.91596688  1.0
  Cl  Cl36  1  0.44209822  0.26105325  0.40674040  1.0
  Cl  Cl37  1  0.44209822  0.23894675  0.90674040  1.0
  Cl  Cl38  1  0.55790178  0.76105325  0.09325960  1.0
  Cl  Cl39  1  0.55790178  0.73894675  0.59325960  1.0
