# generated using pymatgen
data_V3S
_symmetry_space_group_name_H-M   'P 1'
_cell_length_a   7.03974910
_cell_length_b   7.03974910
_cell_length_c   7.03974910
_cell_angle_alpha   95.97390442
_cell_angle_beta   95.97390442
_cell_angle_gamma   142.35864189
_symmetry_Int_Tables_number   1
_chemical_formula_structural   V3S
_chemical_formula_sum   'V12 S4'
_cell_volume   201.67273796
_cell_formula_units_Z   4
loop_
 _symmetry_equiv_pos_site_id
 _symmetry_equiv_pos_as_xyz
  1  'x, y, z'
loop_
 _atom_site_type_symbol
 _atom_site_label
 _atom_site_symmetry_multiplicity
 _atom_site_fract_x
 _atom_site_fract_y
 _atom_site_fract_z
 _atom_site_occupancy
  V  V0  1  0.64682030  0.64682030  0.81724008  1.0
  V  V1  1  1.17041978  1.35317970  1.00000000  1.0
  V  V2  1  0.35317970  1.17041978  1.00000000  1.0
  V  V3  1  0.82958022  0.82958022  0.18275992  1.0
  V  V4  1  0.43734944  0.43734944  0.39940296  1.0
  V  V5  1  0.96205351  1.56265056  1.00000000  1.0
  V  V6  1  0.56265056  0.96205351  1.00000000  1.0
  V  V7  1  1.03794649  1.03794649  0.60059704  1.0
  V  V8  1  1.14242890  0.50000000  0.64242890  1.0
  V  V9  1  0.50000000  0.14242890  0.64242890  1.0
  V  V10  1  0.50000000  0.85757110  1.35757110  1.0
  V  V11  1  0.85757110  0.50000000  0.35757110  1.0
  S  S12  1  0.71118568  -0.00000000  0.71118568  1.0
  S  S13  1  1.00000000  0.71118568  0.71118568  1.0
  S  S14  1  1.00000000  1.28881432  1.28881432  1.0
  S  S15  1  0.28881432  0.00000000  0.28881432  1.0
