# generated using pymatgen
data_B2Pb6WO12
_symmetry_space_group_name_H-M   'P 1'
_cell_length_a   9.95805888
_cell_length_b   9.95805888
_cell_length_c   12.11426167
_cell_angle_alpha   90.00000000
_cell_angle_beta   90.00000000
_cell_angle_gamma   37.77141871
_symmetry_Int_Tables_number   1
_chemical_formula_structural   B2Pb6WO12
_chemical_formula_sum   'B4 Pb12 W2 O24'
_cell_volume   735.80292879
_cell_formula_units_Z   2
loop_
 _symmetry_equiv_pos_site_id
 _symmetry_equiv_pos_as_xyz
  1  'x, y, z'
loop_
 _atom_site_type_symbol
 _atom_site_label
 _atom_site_symmetry_multiplicity
 _atom_site_fract_x
 _atom_site_fract_y
 _atom_site_fract_z
 _atom_site_occupancy
  B  B0  1  -0.24616386  0.75383614  0.00000000  1.0
  B  B1  1  -0.24616386  0.75383614  0.50000000  1.0
  B  B2  1  0.24616386  0.24616386  0.00000000  1.0
  B  B3  1  0.24616386  0.24616386  0.50000000  1.0
  Pb  Pb4  1  -0.15055617  0.36760846  0.90549698  1.0
  Pb  Pb5  1  -0.15055617  0.36760846  0.59450302  1.0
  Pb  Pb6  1  -0.63239154  0.84944383  0.40549698  1.0
  Pb  Pb7  1  -0.63239154  0.84944383  0.09450302  1.0
  Pb  Pb8  1  -0.36760846  1.15055617  0.90549698  1.0
  Pb  Pb9  1  -0.36760846  1.15055617  0.59450302  1.0
  Pb  Pb10  1  0.15055617  0.63239154  0.40549698  1.0
  Pb  Pb11  1  0.15055617  0.63239154  0.09450302  1.0
  Pb  Pb12  1  -0.00794627  0.58924964  0.75000000  1.0
  Pb  Pb13  1  -0.41075036  0.99205373  0.25000000  1.0
  Pb  Pb14  1  -0.58924964  1.00794627  0.75000000  1.0
  Pb  Pb15  1  0.00794627  0.41075036  0.25000000  1.0
  W  W16  1  -0.77284377  0.77284377  0.75000000  1.0
  W  W17  1  -0.22715623  0.22715623  0.25000000  1.0
  O  O18  1  -0.22824090  0.66397426  0.90465432  1.0
  O  O19  1  -0.22824090  0.66397426  0.59534568  1.0
  O  O20  1  -0.33602574  0.77175910  0.40465432  1.0
  O  O21  1  -0.33602574  0.77175910  0.09534568  1.0
  O  O22  1  -0.66397426  1.22824090  0.90465432  1.0
  O  O23  1  -0.66397426  1.22824090  0.59534568  1.0
  O  O24  1  0.22824090  0.33602574  0.40465432  1.0
  O  O25  1  0.22824090  0.33602574  0.09534568  1.0
  O  O26  1  0.31645938  0.52876734  0.75000000  1.0
  O  O27  1  -0.47123266  1.31645938  0.25000000  1.0
  O  O28  1  -0.52876734  0.68354062  0.75000000  1.0
  O  O29  1  -0.31645938  0.47123266  0.25000000  1.0
  O  O30  1  0.02041115  0.28659559  0.75000000  1.0
  O  O31  1  -0.71340441  1.02041115  0.25000000  1.0
  O  O32  1  -0.28659559  0.97958885  0.75000000  1.0
  O  O33  1  -0.02041115  0.71340441  0.25000000  1.0
  O  O34  1  -0.93509677  0.93509677  0.87054529  1.0
  O  O35  1  -0.93509677  0.93509677  0.62945471  1.0
  O  O36  1  -0.06490323  0.06490323  0.37054529  1.0
  O  O37  1  -0.06490323  0.06490323  0.12945471  1.0
  O  O38  1  -0.17172838  0.82827162  0.00000000  1.0
  O  O39  1  -0.17172838  0.82827162  0.50000000  1.0
  O  O40  1  0.17172838  0.17172838  0.00000000  1.0
  O  O41  1  0.17172838  0.17172838  0.50000000  1.0
