# generated using pymatgen
data_Ni2Mo4C
_symmetry_space_group_name_H-M   'P 1'
_cell_length_a   7.98368953
_cell_length_b   7.98368953
_cell_length_c   7.98368953
_cell_angle_alpha   60.00000000
_cell_angle_beta   60.00000000
_cell_angle_gamma   60.00000000
_symmetry_Int_Tables_number   1
_chemical_formula_structural   Ni2Mo4C
_chemical_formula_sum   'Ni8 Mo16 C4'
_cell_volume   359.82880043
_cell_formula_units_Z   4
loop_
 _symmetry_equiv_pos_site_id
 _symmetry_equiv_pos_as_xyz
  1  'x, y, z'
loop_
 _atom_site_type_symbol
 _atom_site_label
 _atom_site_symmetry_multiplicity
 _atom_site_fract_x
 _atom_site_fract_y
 _atom_site_fract_z
 _atom_site_occupancy
  Ni  Ni0  1  0.91715755  -0.08284245  0.24852736  1.0
  Ni  Ni1  1  0.91715755  -0.75147264  0.91715755  1.0
  Ni  Ni2  1  0.24852736  0.91715755  0.91715755  1.0
  Ni  Ni3  1  0.91715755  0.91715755  0.91715755  1.0
  Ni  Ni4  1  1.33284245  0.33284245  0.00147264  1.0
  Ni  Ni5  1  1.33284245  0.00147264  0.33284245  1.0
  Ni  Ni6  1  1.00147264  0.33284245  0.33284245  1.0
  Ni  Ni7  1  1.33284245  0.33284245  0.33284245  1.0
  Mo  Mo8  1  0.12500000  0.12500000  1.62500000  1.0
  Mo  Mo9  1  0.12500000  0.62500000  1.12500000  1.0
  Mo  Mo10  1  1.62500000  0.12500000  0.12500000  1.0
  Mo  Mo11  1  1.12500000  0.12500000  0.12500000  1.0
  Mo  Mo12  1  0.56042694  0.56042694  0.93957306  1.0
  Mo  Mo13  1  0.93957306  0.56042694  0.93957306  1.0
  Mo  Mo14  1  0.56042694  0.93957306  0.93957306  1.0
  Mo  Mo15  1  0.93957306  0.93957306  0.56042694  1.0
  Mo  Mo16  1  0.56042694  0.93957306  0.56042694  1.0
  Mo  Mo17  1  0.93957306  0.56042694  0.56042694  1.0
  Mo  Mo18  1  0.68957306  0.68957306  -0.68957306  1.0
  Mo  Mo19  1  1.31042694  -0.31042694  0.31042694  1.0
  Mo  Mo20  1  -0.31042694  0.31042694  0.31042694  1.0
  Mo  Mo21  1  0.31042694  0.31042694  -0.31042694  1.0
  Mo  Mo22  1  0.68957306  -0.68957306  0.68957306  1.0
  Mo  Mo23  1  -0.68957306  0.68957306  0.68957306  1.0
  C  C24  1  0.62500000  0.62500000  1.12500000  1.0
  C  C25  1  0.62500000  1.12500000  0.62500000  1.0
  C  C26  1  1.12500000  0.62500000  0.62500000  1.0
  C  C27  1  0.62500000  0.62500000  0.62500000  1.0
