# generated using pymatgen
data_Y5(In2Ni)2
_symmetry_space_group_name_H-M   'P 1'
_cell_length_a   7.99024934
_cell_length_b   17.97042393
_cell_length_c   3.62265107
_cell_angle_alpha   90.00000000
_cell_angle_beta   90.00000000
_cell_angle_gamma   90.00000000
_symmetry_Int_Tables_number   1
_chemical_formula_structural   Y5(In2Ni)2
_chemical_formula_sum   'Y10 In8 Ni4'
_cell_volume   520.16982986
_cell_formula_units_Z   2
loop_
 _symmetry_equiv_pos_site_id
 _symmetry_equiv_pos_as_xyz
  1  'x, y, z'
loop_
 _atom_site_type_symbol
 _atom_site_label
 _atom_site_symmetry_multiplicity
 _atom_site_fract_x
 _atom_site_fract_y
 _atom_site_fract_z
 _atom_site_occupancy
  Y  Y0  1  0.38454618  0.91263094  0.00000000  1.0
  Y  Y1  1  0.88454618  0.58736906  0.00000000  1.0
  Y  Y2  1  0.61545382  0.08736906  0.00000000  1.0
  Y  Y3  1  0.11545382  0.41263094  0.00000000  1.0
  Y  Y4  1  0.25538906  0.72128147  0.00000000  1.0
  Y  Y5  1  0.75538906  0.77871853  0.00000000  1.0
  Y  Y6  1  0.74461094  0.27871853  0.00000000  1.0
  Y  Y7  1  0.24461094  0.22128147  0.00000000  1.0
  Y  Y8  1  0.50000000  0.50000000  0.00000000  1.0
  Y  Y9  1  0.00000000  0.00000000  0.00000000  1.0
  In  In10  1  0.20708678  0.56946978  0.50000000  1.0
  In  In11  1  0.70708678  0.93053022  0.50000000  1.0
  In  In12  1  0.79291322  0.43053022  0.50000000  1.0
  In  In13  1  0.29291322  0.06946978  0.50000000  1.0
  In  In14  1  0.07376276  0.84796957  0.50000000  1.0
  In  In15  1  0.57376276  0.65203043  0.50000000  1.0
  In  In16  1  0.92623724  0.15203043  0.50000000  1.0
  In  In17  1  0.42623724  0.34796957  0.50000000  1.0
  Ni  Ni18  1  0.47605631  0.80407744  0.50000000  1.0
  Ni  Ni19  1  0.97605631  0.69592256  0.50000000  1.0
  Ni  Ni20  1  0.52394369  0.19592256  0.50000000  1.0
  Ni  Ni21  1  0.02394369  0.30407744  0.50000000  1.0
