# generated using pymatgen
data_Gd3Cu11Si4
_symmetry_space_group_name_H-M   'P 1'
_cell_length_a   8.47507550
_cell_length_b   8.47507550
_cell_length_c   8.67427973
_cell_angle_alpha   90.00000000
_cell_angle_beta   90.00000000
_cell_angle_gamma   120.00000000
_symmetry_Int_Tables_number   1
_chemical_formula_structural   Gd3Cu11Si4
_chemical_formula_sum   'Gd6 Cu22 Si8'
_cell_volume   539.57423847
_cell_formula_units_Z   2
loop_
 _symmetry_equiv_pos_site_id
 _symmetry_equiv_pos_as_xyz
  1  'x, y, z'
loop_
 _atom_site_type_symbol
 _atom_site_label
 _atom_site_symmetry_multiplicity
 _atom_site_fract_x
 _atom_site_fract_y
 _atom_site_fract_z
 _atom_site_occupancy
  Gd  Gd0  1  0.19840324  0.80159676  0.25000000  1.0
  Gd  Gd1  1  0.19840324  0.39680649  0.25000000  1.0
  Gd  Gd2  1  0.80159676  0.19840324  0.75000000  1.0
  Gd  Gd3  1  0.80159676  0.60319351  0.75000000  1.0
  Gd  Gd4  1  0.60319351  0.80159676  0.25000000  1.0
  Gd  Gd5  1  0.39680649  0.19840324  0.75000000  1.0
  Cu  Cu6  1  0.15016967  0.84983033  0.90967190  1.0
  Cu  Cu7  1  0.15016967  0.84983033  0.59032810  1.0
  Cu  Cu8  1  0.15016967  0.30033934  0.90967190  1.0
  Cu  Cu9  1  0.15016967  0.30033934  0.59032810  1.0
  Cu  Cu10  1  0.84983033  0.15016967  0.40967190  1.0
  Cu  Cu11  1  0.84983033  0.15016967  0.09032810  1.0
  Cu  Cu12  1  0.84983033  0.69966066  0.40967190  1.0
  Cu  Cu13  1  0.84983033  0.69966066  0.09032810  1.0
  Cu  Cu14  1  0.69966066  0.84983033  0.90967190  1.0
  Cu  Cu15  1  0.69966066  0.84983033  0.59032810  1.0
  Cu  Cu16  1  0.30033934  0.15016967  0.40967190  1.0
  Cu  Cu17  1  0.30033934  0.15016967  0.09032810  1.0
  Cu  Cu18  1  0.56601664  0.43398336  0.25000000  1.0
  Cu  Cu19  1  0.56601664  0.13203328  0.25000000  1.0
  Cu  Cu20  1  0.43398336  0.56601664  0.75000000  1.0
  Cu  Cu21  1  0.43398336  0.86796672  0.75000000  1.0
  Cu  Cu22  1  0.86796672  0.43398336  0.25000000  1.0
  Cu  Cu23  1  0.13203328  0.56601664  0.75000000  1.0
  Cu  Cu24  1  0.33333333  0.66666667  0.51193110  1.0
  Cu  Cu25  1  0.33333333  0.66666667  -0.01193110  1.0
  Cu  Cu26  1  0.66666667  0.33333333  1.01193110  1.0
  Cu  Cu27  1  0.66666667  0.33333333  0.48806890  1.0
  Si  Si28  1  0.50000000  0.50000000  0.50000000  1.0
  Si  Si29  1  0.50000000  0.50000000  0.00000000  1.0
  Si  Si30  1  0.50000000  -0.00000000  0.50000000  1.0
  Si  Si31  1  0.50000000  0.00000000  -0.00000000  1.0
  Si  Si32  1  0.00000000  0.50000000  0.50000000  1.0
  Si  Si33  1  0.00000000  0.50000000  0.00000000  1.0
  Si  Si34  1  -0.00000000  -0.00000000  0.25000000  1.0
  Si  Si35  1  -0.00000000  -0.00000000  0.75000000  1.0
