# generated using pymatgen
data_GdGeRu
_symmetry_space_group_name_H-M   'P 1'
_cell_length_a   7.14161228
_cell_length_b   4.48563921
_cell_length_c   7.19777124
_cell_angle_alpha   90.00000000
_cell_angle_beta   90.00000000
_cell_angle_gamma   90.00000000
_symmetry_Int_Tables_number   1
_chemical_formula_structural   GdGeRu
_chemical_formula_sum   'Gd4 Ge4 Ru4'
_cell_volume   230.57841430
_cell_formula_units_Z   4
loop_
 _symmetry_equiv_pos_site_id
 _symmetry_equiv_pos_as_xyz
  1  'x, y, z'
loop_
 _atom_site_type_symbol
 _atom_site_label
 _atom_site_symmetry_multiplicity
 _atom_site_fract_x
 _atom_site_fract_y
 _atom_site_fract_z
 _atom_site_occupancy
  Gd  Gd0  1  0.01917946  0.75000000  0.68990808  1.0
  Gd  Gd1  1  0.51917946  0.75000000  0.81009192  1.0
  Gd  Gd2  1  0.98082054  0.25000000  0.31009192  1.0
  Gd  Gd3  1  0.48082054  0.25000000  0.18990808  1.0
  Ge  Ge4  1  0.69905316  0.75000000  0.39316987  1.0
  Ge  Ge5  1  0.19905316  0.75000000  0.10683013  1.0
  Ge  Ge6  1  0.30094684  0.25000000  0.60683013  1.0
  Ge  Ge7  1  0.80094684  0.25000000  0.89316987  1.0
  Ru  Ru8  1  0.84781128  0.75000000  0.06446362  1.0
  Ru  Ru9  1  0.34781128  0.75000000  0.43553638  1.0
  Ru  Ru10  1  0.15218872  0.25000000  0.93553638  1.0
  Ru  Ru11  1  0.65218872  0.25000000  0.56446362  1.0
