# generated using pymatgen
data_Cs2MnH12(SeO7)2
_symmetry_space_group_name_H-M   'P 1'
_cell_length_a   6.62519874
_cell_length_b   13.25747188
_cell_length_c   9.64132105
_cell_angle_alpha   90.00000000
_cell_angle_beta   105.15641091
_cell_angle_gamma   90.00000000
_symmetry_Int_Tables_number   1
_chemical_formula_structural   Cs2MnH12(SeO7)2
_chemical_formula_sum   'Cs4 Mn2 H24 Se4 O28'
_cell_volume   817.37347252
_cell_formula_units_Z   2
loop_
 _symmetry_equiv_pos_site_id
 _symmetry_equiv_pos_as_xyz
  1  'x, y, z'
loop_
 _atom_site_type_symbol
 _atom_site_label
 _atom_site_symmetry_multiplicity
 _atom_site_fract_x
 _atom_site_fract_y
 _atom_site_fract_z
 _atom_site_occupancy
  Cs  Cs0  1  0.34532780  0.85251961  0.63168713  1.0
  Cs  Cs1  1  0.65467220  0.35251961  0.86831287  1.0
  Cs  Cs2  1  0.65467220  0.14748039  0.36831287  1.0
  Cs  Cs3  1  0.34532780  0.64748039  0.13168713  1.0
  Mn  Mn4  1  0.00000000  0.50000000  0.50000000  1.0
  Mn  Mn5  1  0.00000000  0.00000000  0.00000000  1.0
  H  H6  1  0.31988756  0.59651752  0.71077676  1.0
  H  H7  1  0.68011244  0.09651752  0.78922324  1.0
  H  H8  1  0.68011244  0.40348248  0.28922324  1.0
  H  H9  1  0.31988756  0.90348248  0.21077676  1.0
  H  H10  1  0.09920739  0.62898250  0.73881277  1.0
  H  H11  1  0.90079261  0.12898250  0.76118723  1.0
  H  H12  1  0.90079261  0.37101750  0.26118723  1.0
  H  H13  1  0.09920739  0.87101750  0.23881277  1.0
  H  H14  1  0.92070989  0.59931578  0.22500921  1.0
  H  H15  1  0.07929011  0.09931578  0.27499079  1.0
  H  H16  1  0.07929011  0.40068422  0.77499079  1.0
  H  H17  1  0.92070989  0.90068422  0.72500921  1.0
  H  H18  1  0.98447301  0.68414461  0.34406896  1.0
  H  H19  1  0.01552699  0.18414461  0.15593104  1.0
  H  H20  1  0.01552699  0.31585539  0.65593104  1.0
  H  H21  1  0.98447301  0.81585539  0.84406896  1.0
  H  H22  1  0.32880499  0.43378992  0.39416309  1.0
  H  H23  1  0.67119501  0.93378992  0.10583691  1.0
  H  H24  1  0.67119501  0.56621008  0.60583691  1.0
  H  H25  1  0.32880499  0.06621008  0.89416309  1.0
  H  H26  1  0.31521406  0.36043861  0.52041571  1.0
  H  H27  1  0.68478594  0.86043861  0.97958429  1.0
  H  H28  1  0.68478594  0.63956139  0.47958429  1.0
  H  H29  1  0.31521406  0.13956139  0.02041571  1.0
  Se  Se30  1  0.73781357  0.64583975  0.89877162  1.0
  Se  Se31  1  0.26218643  0.14583975  0.60122838  1.0
  Se  Se32  1  0.26218643  0.35416025  0.10122838  1.0
  Se  Se33  1  0.73781357  0.85416025  0.39877162  1.0
  O  O34  1  0.59263819  0.74546177  0.91693847  1.0
  O  O35  1  0.40736181  0.24546177  0.58306153  1.0
  O  O36  1  0.40736181  0.25453823  0.08306153  1.0
  O  O37  1  0.59263819  0.75453823  0.41693847  1.0
  O  O38  1  0.78951497  0.57538012  0.04688661  1.0
  O  O39  1  0.21048503  0.07538012  0.45311339  1.0
  O  O40  1  0.21048503  0.42461988  0.95311339  1.0
  O  O41  1  0.78951497  0.92461988  0.54688661  1.0
  O  O42  1  0.59637664  0.57540392  0.76291729  1.0
  O  O43  1  0.40362336  0.07540392  0.73708271  1.0
  O  O44  1  0.40362336  0.42459608  0.23708271  1.0
  O  O45  1  0.59637664  0.92459608  0.26291729  1.0
  O  O46  1  0.95975096  0.68479617  0.86220339  1.0
  O  O47  1  0.04024904  0.18479617  0.63779661  1.0
  O  O48  1  0.04024904  0.31520383  0.13779661  1.0
  O  O49  1  0.95975096  0.81520383  0.36220339  1.0
  O  O50  1  0.17028552  0.61079974  0.66389637  1.0
  O  O51  1  0.82971448  0.11079974  0.83610363  1.0
  O  O52  1  0.82971448  0.38920026  0.33610363  1.0
  O  O53  1  0.17028552  0.88920026  0.16389637  1.0
  O  O54  1  0.00665313  0.61174317  0.32478996  1.0
  O  O55  1  0.99334687  0.11174317  0.17521004  1.0
  O  O56  1  0.99334687  0.38825683  0.67521004  1.0
  O  O57  1  0.00665313  0.88825683  0.82478996  1.0
  O  O58  1  0.28565443  0.43105058  0.48554540  1.0
  O  O59  1  0.71434557  0.93105058  0.01445460  1.0
  O  O60  1  0.71434557  0.56894942  0.51445460  1.0
  O  O61  1  0.28565443  0.06894942  0.98554540  1.0
