# generated using pymatgen
data_K2Ti(SiO3)3
_symmetry_space_group_name_H-M   'P 1'
_cell_length_a   6.86214248
_cell_length_b   6.86214248
_cell_length_c   10.06250363
_cell_angle_alpha   90.00000000
_cell_angle_beta   90.00000000
_cell_angle_gamma   120.00000000
_symmetry_Int_Tables_number   1
_chemical_formula_structural   K2Ti(SiO3)3
_chemical_formula_sum   'K4 Ti2 Si6 O18'
_cell_volume   410.35161202
_cell_formula_units_Z   2
loop_
 _symmetry_equiv_pos_site_id
 _symmetry_equiv_pos_as_xyz
  1  'x, y, z'
loop_
 _atom_site_type_symbol
 _atom_site_label
 _atom_site_symmetry_multiplicity
 _atom_site_fract_x
 _atom_site_fract_y
 _atom_site_fract_z
 _atom_site_occupancy
  K  K0  1  0.33333333  0.66666667  0.44259809  1.0
  K  K1  1  0.33333333  0.66666667  0.05740191  1.0
  K  K2  1  0.66666667  0.33333333  0.94259809  1.0
  K  K3  1  0.66666667  0.33333333  0.55740191  1.0
  Ti  Ti4  1  0.00000000  0.00000000  0.50000000  1.0
  Ti  Ti5  1  0.00000000  0.00000000  0.00000000  1.0
  Si  Si6  1  0.75224787  0.62305224  0.25000000  1.0
  Si  Si7  1  0.62305224  0.87080437  0.75000000  1.0
  Si  Si8  1  0.87080437  0.24775213  0.25000000  1.0
  Si  Si9  1  0.37694776  0.12919563  0.25000000  1.0
  Si  Si10  1  0.24775213  0.37694776  0.75000000  1.0
  Si  Si11  1  0.12919563  0.75224787  0.75000000  1.0
  O  O12  1  0.77688144  0.75532561  0.38755828  1.0
  O  O13  1  0.77688144  0.75532561  0.11244172  1.0
  O  O14  1  0.75532561  0.97844417  0.88755828  1.0
  O  O15  1  0.75532561  0.97844417  0.61244172  1.0
  O  O16  1  0.97844417  0.22311856  0.38755828  1.0
  O  O17  1  0.97844417  0.22311856  0.11244172  1.0
  O  O18  1  0.24467439  0.02155583  0.38755828  1.0
  O  O19  1  0.24467439  0.02155583  0.11244172  1.0
  O  O20  1  0.22311856  0.24467439  0.88755828  1.0
  O  O21  1  0.22311856  0.24467439  0.61244172  1.0
  O  O22  1  0.02155583  0.77688144  0.88755828  1.0
  O  O23  1  0.02155583  0.77688144  0.61244172  1.0
  O  O24  1  0.48778219  0.40684992  0.25000000  1.0
  O  O25  1  0.40684992  0.91906773  0.75000000  1.0
  O  O26  1  0.91906773  0.51221781  0.25000000  1.0
  O  O27  1  0.59315008  0.08093227  0.25000000  1.0
  O  O28  1  0.51221781  0.59315008  0.75000000  1.0
  O  O29  1  0.08093227  0.48778219  0.75000000  1.0
