# generated using pymatgen
data_K(Sn3Au2)2
_symmetry_space_group_name_H-M   'P 1'
_cell_length_a   13.30071070
_cell_length_b   13.05813254
_cell_length_c   6.80448900
_cell_angle_alpha   77.02269011
_cell_angle_beta   73.07504975
_cell_angle_gamma   29.90226014
_symmetry_Int_Tables_number   1
_chemical_formula_structural   K(Sn3Au2)2
_chemical_formula_sum   'K2 Sn12 Au8'
_cell_volume   562.68655179
_cell_formula_units_Z   2
loop_
 _symmetry_equiv_pos_site_id
 _symmetry_equiv_pos_as_xyz
  1  'x, y, z'
loop_
 _atom_site_type_symbol
 _atom_site_label
 _atom_site_symmetry_multiplicity
 _atom_site_fract_x
 _atom_site_fract_y
 _atom_site_fract_z
 _atom_site_occupancy
  K  K0  1  -0.00000000  1.00000000  0.00000000  1.0
  K  K1  1  0.25000000  0.25000000  0.25000000  1.0
  Sn  Sn2  1  0.64605340  0.35394660  0.64605340  1.0
  Sn  Sn3  1  0.35394660  0.64605340  0.35394660  1.0
  Sn  Sn4  1  0.60394660  -0.10394660  0.60394660  1.0
  Sn  Sn5  1  0.89605340  -0.39605340  0.89605340  1.0
  Sn  Sn6  1  1.36451876  -0.13272297  0.63310667  1.0
  Sn  Sn7  1  0.13509754  0.63310667  -0.13272297  1.0
  Sn  Sn8  1  0.63310667  0.13509754  1.36451876  1.0
  Sn  Sn9  1  -0.13272297  1.36451876  0.13509753  1.0
  Sn  Sn10  1  -0.11451876  0.38272297  0.61689333  1.0
  Sn  Sn11  1  0.11490246  0.61689333  0.38272297  1.0
  Sn  Sn12  1  0.61689333  0.11490246  -0.11451876  1.0
  Sn  Sn13  1  0.38272297  -0.11451876  0.11490246  1.0
  Au  Au14  1  0.31235913  0.31235913  -0.31235913  1.0
  Au  Au15  1  -0.31235913  0.68764087  0.31235913  1.0
  Au  Au16  1  -0.06235913  0.93764087  0.56235913  1.0
  Au  Au17  1  0.56235913  0.56235913  -0.06235913  1.0
  Au  Au18  1  0.19231758  0.19231758  -0.19231758  1.0
  Au  Au19  1  -0.19231758  0.80768242  0.19231758  1.0
  Au  Au20  1  0.05768242  1.05768242  0.44231758  1.0
  Au  Au21  1  0.44231758  0.44231758  0.05768242  1.0
