# generated using pymatgen
data_Cs2O2
_symmetry_space_group_name_H-M   'P 1'
_cell_length_a   6.35393694
_cell_length_b   6.35393694
_cell_length_c   4.32935096
_cell_angle_alpha   90.00000000
_cell_angle_beta   90.00000000
_cell_angle_gamma   142.83097938
_symmetry_Int_Tables_number   1
_chemical_formula_structural   Cs2O2
_chemical_formula_sum   'Cs2 O2'
_cell_volume   105.60064345
_cell_formula_units_Z   1
loop_
 _symmetry_equiv_pos_site_id
 _symmetry_equiv_pos_as_xyz
  1  'x, y, z'
loop_
 _atom_site_type_symbol
 _atom_site_label
 _atom_site_symmetry_multiplicity
 _atom_site_fract_x
 _atom_site_fract_y
 _atom_site_fract_z
 _atom_site_occupancy
  Cs  Cs0  1  -0.62458000  0.62458000  0.25000000  1.0
  Cs  Cs1  1  -0.37542000  1.37542000  0.75000000  1.0
  O  O2  1  -0.93356954  0.93356954  0.25000000  1.0
  O  O3  1  -0.06643046  1.06643046  0.75000000  1.0
