# generated using pymatgen
data_HgCS(OF)3
_symmetry_space_group_name_H-M   'P 1'
_cell_length_a   11.15365677
_cell_length_b   5.38411460
_cell_length_c   5.44772616
_cell_angle_alpha   94.91669066
_cell_angle_beta   97.22206399
_cell_angle_gamma   96.08499603
_symmetry_Int_Tables_number   1
_chemical_formula_structural   HgCS(OF)3
_chemical_formula_sum   'Hg2 C2 S2 O6 F6'
_cell_volume   321.09543001
_cell_formula_units_Z   2
loop_
 _symmetry_equiv_pos_site_id
 _symmetry_equiv_pos_as_xyz
  1  'x, y, z'
loop_
 _atom_site_type_symbol
 _atom_site_label
 _atom_site_symmetry_multiplicity
 _atom_site_fract_x
 _atom_site_fract_y
 _atom_site_fract_z
 _atom_site_occupancy
  Hg  Hg0  1  -0.42808144  -0.86142519  -0.82958317  1.0
  Hg  Hg1  1  -0.57191856  -0.13857481  -0.17041683  1.0
  C  C2  1  -0.84685209  -0.74752376  -0.66525057  1.0
  C  C3  1  -0.15314791  -0.25247624  -0.33474943  1.0
  S  S4  1  -0.68961508  -0.57185008  -0.62843220  1.0
  S  S5  1  -0.31038492  -0.42814992  -0.37156780  1.0
  O  O6  1  -0.66951580  -0.51730126  -0.87840232  1.0
  O  O7  1  -0.33048420  -0.48269874  -0.12159768  1.0
  O  O8  1  -0.70625629  -0.34362400  -0.46146843  1.0
  O  O9  1  -0.29374371  -0.65637600  -0.53853157  1.0
  O  O10  1  -0.60855433  -0.73613035  -0.50833904  1.0
  O  O11  1  -0.39144567  -0.26386965  -0.49166096  1.0
  F  F12  1  -0.85073701  0.04419930  -0.82454154  1.0
  F  F13  1  -0.14926299  -1.04419930  -0.17545846  1.0
  F  F14  1  -0.92992049  -0.60361542  -0.75714417  1.0
  F  F15  1  -0.07007951  -0.39638458  -0.24285583  1.0
  F  F16  1  -0.87320821  -0.81554277  -0.44378013  1.0
  F  F17  1  -0.12679179  -0.18445723  -0.55621987  1.0
