# generated using pymatgen
data_Mn6V3HO14
_symmetry_space_group_name_H-M   'P 1'
_cell_length_a   8.85311330
_cell_length_b   6.46574844
_cell_length_c   10.52127386
_cell_angle_alpha   90.00000000
_cell_angle_beta   100.52397772
_cell_angle_gamma   90.00000000
_symmetry_Int_Tables_number   1
_chemical_formula_structural   Mn6V3HO14
_chemical_formula_sum   'Mn12 V6 H2 O28'
_cell_volume   592.12793421
_cell_formula_units_Z   2
loop_
 _symmetry_equiv_pos_site_id
 _symmetry_equiv_pos_as_xyz
  1  'x, y, z'
loop_
 _atom_site_type_symbol
 _atom_site_label
 _atom_site_symmetry_multiplicity
 _atom_site_fract_x
 _atom_site_fract_y
 _atom_site_fract_z
 _atom_site_occupancy
  H  H0  1  0.93566047  0.25000000  0.78124605  1.0
  H  H1  1  0.06433953  0.75000000  0.21875395  1.0
  O  O2  1  0.83086246  0.47244941  0.29478720  1.0
  O  O3  1  0.83086246  0.02755059  0.29478720  1.0
  O  O4  1  0.16913754  0.97244941  0.70521280  1.0
  O  O5  1  0.16913754  0.52755059  0.70521280  1.0
  O  O6  1  0.74220780  0.96700051  0.98308131  1.0
  O  O7  1  0.74220780  0.53299949  0.98308131  1.0
  O  O8  1  0.25779220  0.46700051  0.01691869  1.0
  O  O9  1  0.25779220  0.03299949  0.01691869  1.0
  O  O10  1  0.64044264  0.46488749  0.68001061  1.0
  O  O11  1  0.64044264  0.03511251  0.68001061  1.0
  O  O12  1  0.35955736  0.96488749  0.31998939  1.0
  O  O13  1  0.35955736  0.53511251  0.31998939  1.0
  O  O14  1  0.99355022  0.25000000  0.12851537  1.0
  O  O15  1  0.00644978  0.75000000  0.87148463  1.0
  O  O16  1  0.88537428  0.25000000  0.60165540  1.0
  O  O17  1  0.11462572  0.75000000  0.39834460  1.0
  O  O18  1  0.59209087  0.25000000  0.43051375  1.0
  O  O19  1  0.40790913  0.75000000  0.56948625  1.0
  O  O20  1  0.51563293  0.25000000  0.15640026  1.0
  O  O21  1  0.48436707  0.75000000  0.84359974  1.0
  O  O22  1  0.45983796  0.25000000  0.87556997  1.0
  O  O23  1  0.54016204  0.75000000  0.12443003  1.0
  O  O24  1  0.10122898  0.25000000  0.40043162  1.0
  O  O25  1  0.89877102  0.75000000  0.59956838  1.0
  O  O26  1  0.34633719  0.25000000  0.59945233  1.0
  O  O27  1  0.65366281  0.75000000  0.40054767  1.0
  O  O28  1  0.92535778  0.25000000  0.87280931  1.0
  O  O29  1  0.07464222  0.75000000  0.12719069  1.0
  Mn  Mn30  1  0.00000000  0.50000000  0.00000000  1.0
  Mn  Mn31  1  0.00000000  0.00000000  0.00000000  1.0
  Mn  Mn32  1  0.69461180  0.25000000  0.89337477  1.0
  Mn  Mn33  1  0.30538820  0.75000000  0.10662523  1.0
  Mn  Mn34  1  0.40567637  0.50192911  0.71622990  1.0
  Mn  Mn35  1  0.40567637  -0.00192911  0.71622990  1.0
  Mn  Mn36  1  0.59432363  1.00192911  0.28377010  1.0
  Mn  Mn37  1  0.59432363  0.49807089  0.28377010  1.0
  Mn  Mn38  1  0.33594630  0.25000000  0.40397237  1.0
  Mn  Mn39  1  0.66405370  0.75000000  0.59602763  1.0
  Mn  Mn40  1  0.10992968  0.25000000  0.59960096  1.0
  Mn  Mn41  1  0.89007032  0.75000000  0.40039904  1.0
  V  V42  1  0.69101794  0.25000000  0.59284935  1.0
  V  V43  1  0.30898206  0.75000000  0.40715065  1.0
  V  V44  1  0.93863275  0.25000000  0.27880227  1.0
  V  V45  1  0.06136725  0.75000000  0.72119773  1.0
  V  V46  1  0.37152100  0.25000000  0.01697202  1.0
  V  V47  1  0.62847900  0.75000000  0.98302798  1.0
