# generated using pymatgen
data_CuH8N2(OF2)2
_symmetry_space_group_name_H-M   'P 1'
_cell_length_a   8.10149384
_cell_length_b   6.11665220
_cell_length_c   5.95545050
_cell_angle_alpha   90.00000000
_cell_angle_beta   93.83777842
_cell_angle_gamma   90.00000000
_symmetry_Int_Tables_number   1
_chemical_formula_structural   CuH8N2(OF2)2
_chemical_formula_sum   'Cu2 H16 N4 O4 F8'
_cell_volume   294.45473047
_cell_formula_units_Z   2
loop_
 _symmetry_equiv_pos_site_id
 _symmetry_equiv_pos_as_xyz
  1  'x, y, z'
loop_
 _atom_site_type_symbol
 _atom_site_label
 _atom_site_symmetry_multiplicity
 _atom_site_fract_x
 _atom_site_fract_y
 _atom_site_fract_z
 _atom_site_occupancy
  Cu  Cu0  1  0.00000000  0.50000000  0.00000000  1.0
  Cu  Cu1  1  0.00000000  0.00000000  0.50000000  1.0
  H  H2  1  0.83209392  0.40940416  0.45613878  1.0
  H  H3  1  0.83209392  0.09059584  0.95613878  1.0
  H  H4  1  0.16790608  0.90940416  0.04386122  1.0
  H  H5  1  0.16790608  0.59059584  0.54386122  1.0
  H  H6  1  0.74801469  0.83049765  0.98157414  1.0
  H  H7  1  0.74801469  0.66950235  0.48157414  1.0
  H  H8  1  0.25198531  0.33049765  0.51842586  1.0
  H  H9  1  0.25198531  0.16950235  0.01842586  1.0
  H  H10  1  0.67680726  0.03901335  0.13352224  1.0
  H  H11  1  0.67680726  0.46098665  0.63352224  1.0
  H  H12  1  0.32319274  0.53901335  0.36647776  1.0
  H  H13  1  0.32319274  0.96098665  0.86647776  1.0
  H  H14  1  0.65648007  0.48726905  0.16702048  1.0
  H  H15  1  0.65648007  0.01273095  0.66702048  1.0
  H  H16  1  0.34351993  0.98726905  0.33297952  1.0
  H  H17  1  0.34351993  0.51273095  0.83297952  1.0
  N  N18  1  0.72405233  0.50048051  0.48199547  1.0
  N  N19  1  0.72405233  -0.00048051  0.98199547  1.0
  N  N20  1  0.27594767  1.00048051  0.01800453  1.0
  N  N21  1  0.27594767  0.49951949  0.51800453  1.0
  O  O22  1  0.60152902  0.44739008  0.30924061  1.0
  O  O23  1  0.60152902  0.05260992  0.80924061  1.0
  O  O24  1  0.39847098  0.94739008  0.19075939  1.0
  O  O25  1  0.39847098  0.55260992  0.69075939  1.0
  F  F26  1  0.97047613  0.26546084  0.33230222  1.0
  F  F27  1  0.97047613  0.23453916  0.83230222  1.0
  F  F28  1  0.02952387  0.76546084  0.16769778  1.0
  F  F29  1  0.02952387  0.73453916  0.66769778  1.0
  F  F30  1  0.75980140  0.94392325  0.46756450  1.0
  F  F31  1  0.75980140  0.55607675  0.96756450  1.0
  F  F32  1  0.24019860  0.44392325  0.03243550  1.0
  F  F33  1  0.24019860  0.05607675  0.53243550  1.0
