# generated using pymatgen
data_NbI3
_symmetry_space_group_name_H-M   'P 1'
_cell_length_a   7.61082782
_cell_length_b   7.61082782
_cell_length_c   6.77234013
_cell_angle_alpha   90.00000000
_cell_angle_beta   90.00000000
_cell_angle_gamma   120.00000000
_symmetry_Int_Tables_number   1
_chemical_formula_structural   NbI3
_chemical_formula_sum   'Nb2 I6'
_cell_volume   339.72944308
_cell_formula_units_Z   2
loop_
 _symmetry_equiv_pos_site_id
 _symmetry_equiv_pos_as_xyz
  1  'x, y, z'
loop_
 _atom_site_type_symbol
 _atom_site_label
 _atom_site_symmetry_multiplicity
 _atom_site_fract_x
 _atom_site_fract_y
 _atom_site_fract_z
 _atom_site_occupancy
  Nb  Nb0  1  0.00000000  0.00000000  0.50000000  1.0
  Nb  Nb1  1  0.00000000  0.00000000  0.00000000  1.0
  I  I2  1  0.70099805  0.70099805  0.25000000  1.0
  I  I3  1  0.29900195  0.00000000  0.25000000  1.0
  I  I4  1  -0.00000000  0.29900195  0.25000000  1.0
  I  I5  1  0.29900195  0.29900195  0.75000000  1.0
  I  I6  1  0.70099805  0.00000000  0.75000000  1.0
  I  I7  1  -0.00000000  0.70099805  0.75000000  1.0
