# generated using pymatgen
data_GdI
_symmetry_space_group_name_H-M   'P 1'
_cell_length_a   11.54407446
_cell_length_b   11.54407446
_cell_length_c   11.54407446
_cell_angle_alpha   20.19531425
_cell_angle_beta   20.19531425
_cell_angle_gamma   20.19531425
_symmetry_Int_Tables_number   1
_chemical_formula_structural   GdI
_chemical_formula_sum   'Gd2 I2'
_cell_volume   160.42626244
_cell_formula_units_Z   2
loop_
 _symmetry_equiv_pos_site_id
 _symmetry_equiv_pos_as_xyz
  1  'x, y, z'
loop_
 _atom_site_type_symbol
 _atom_site_label
 _atom_site_symmetry_multiplicity
 _atom_site_fract_x
 _atom_site_fract_y
 _atom_site_fract_z
 _atom_site_occupancy
  Gd  Gd0  1  0.87422438  -0.12577562  -0.12577562  1.0
  Gd  Gd1  1  0.12577562  0.12577562  0.12577562  1.0
  I  I2  1  0.60317212  0.60317212  -0.39682788  1.0
  I  I3  1  0.39682788  0.39682788  -0.60317212  1.0
