# generated using pymatgen
data_K
_symmetry_space_group_name_H-M   'P 1'
_cell_length_a   8.20027666
_cell_length_b   8.20027666
_cell_length_c   9.33427813
_cell_angle_alpha   90.00000000
_cell_angle_beta   90.00000000
_cell_angle_gamma   69.54182790
_symmetry_Int_Tables_number   1
_chemical_formula_structural   K
_chemical_formula_sum   K8
_cell_volume   588.08998138
_cell_formula_units_Z   8
loop_
 _symmetry_equiv_pos_site_id
 _symmetry_equiv_pos_as_xyz
  1  'x, y, z'
loop_
 _atom_site_type_symbol
 _atom_site_label
 _atom_site_symmetry_multiplicity
 _atom_site_fract_x
 _atom_site_fract_y
 _atom_site_fract_z
 _atom_site_occupancy
  K  K0  1  0.24926476  0.75073524  0.25062671  1.0
  K  K1  1  -0.24926476  1.24926476  0.74937329  1.0
  K  K2  1  0.25073524  0.74926476  0.75062671  1.0
  K  K3  1  -0.25073524  1.25073524  0.24937329  1.0
  K  K4  1  -0.24988730  0.75011270  0.00000000  1.0
  K  K5  1  0.25011270  1.25011270  0.50000000  1.0
  K  K6  1  0.24988730  1.24988730  0.00000000  1.0
  K  K7  1  -0.25011270  0.74988730  0.50000000  1.0
