# generated using pymatgen
data_NiMoP8
_symmetry_space_group_name_H-M   'P 1'
_cell_length_a   6.25297348
_cell_length_b   6.25297348
_cell_length_c   8.78458798
_cell_angle_alpha   90.00000000
_cell_angle_beta   90.00000000
_cell_angle_gamma   120.00000000
_symmetry_Int_Tables_number   1
_chemical_formula_structural   NiMoP8
_chemical_formula_sum   'Ni2 Mo2 P16'
_cell_volume   297.45769069
_cell_formula_units_Z   2
loop_
 _symmetry_equiv_pos_site_id
 _symmetry_equiv_pos_as_xyz
  1  'x, y, z'
loop_
 _atom_site_type_symbol
 _atom_site_label
 _atom_site_symmetry_multiplicity
 _atom_site_fract_x
 _atom_site_fract_y
 _atom_site_fract_z
 _atom_site_occupancy
  Ni  Ni0  1  0.00000000  0.00000000  0.00000000  1.0
  Ni  Ni1  1  0.00000000  0.00000000  0.50000000  1.0
  Mo  Mo2  1  0.66666667  0.33333333  0.25000000  1.0
  Mo  Mo3  1  0.33333333  0.66666667  0.75000000  1.0
  P  P4  1  0.27595305  0.95584470  0.15329027  1.0
  P  P5  1  0.27595305  0.32010835  0.34670973  1.0
  P  P6  1  0.95584470  0.27595305  0.65329027  1.0
  P  P7  1  0.95584470  0.67989165  0.84670973  1.0
  P  P8  1  0.67989165  0.95584470  0.34670973  1.0
  P  P9  1  0.67989165  0.72404695  0.15329027  1.0
  P  P10  1  0.04415530  0.72404695  0.34670973  1.0
  P  P11  1  0.04415530  0.32010835  0.15329027  1.0
  P  P12  1  0.72404695  0.67989165  0.65329027  1.0
  P  P13  1  0.72404695  0.04415530  0.84670973  1.0
  P  P14  1  0.32010835  0.27595305  0.84670973  1.0
  P  P15  1  0.32010835  0.04415530  0.65329027  1.0
  P  P16  1  0.33333333  0.66666667  0.03626938  1.0
  P  P17  1  0.33333333  0.66666667  0.46373062  1.0
  P  P18  1  0.66666667  0.33333333  0.53626938  1.0
  P  P19  1  0.66666667  0.33333333  0.96373062  1.0
