# generated using pymatgen
data_Na4NiP2O7F2
_symmetry_space_group_name_H-M   'P 1'
_cell_length_a   9.29858843
_cell_length_b   9.29858843
_cell_length_c   9.29858843
_cell_angle_alpha   69.67364224
_cell_angle_beta   134.89044310
_cell_angle_gamma   129.91225167
_symmetry_Int_Tables_number   1
_chemical_formula_structural   Na4NiP2O7F2
_chemical_formula_sum   'Na8 Ni2 P4 O14 F4'
_cell_volume   428.58846838
_cell_formula_units_Z   2
loop_
 _symmetry_equiv_pos_site_id
 _symmetry_equiv_pos_as_xyz
  1  'x, y, z'
loop_
 _atom_site_type_symbol
 _atom_site_label
 _atom_site_symmetry_multiplicity
 _atom_site_fract_x
 _atom_site_fract_y
 _atom_site_fract_z
 _atom_site_occupancy
  Na  Na0  1  0.95123885  0.58989507  1.13865622  1.0
  Na  Na1  1  1.04876115  1.18741737  0.63865622  1.0
  Na  Na2  1  1.04876115  1.41010493  0.86134378  1.0
  Na  Na3  1  0.95123885  0.81258263  1.36134378  1.0
  Na  Na4  1  0.50000000  0.76637500  0.26637500  1.0
  Na  Na5  1  1.00000000  0.76637500  0.76637500  1.0
  Na  Na6  1  1.00000000  1.23362500  1.23362500  1.0
  Na  Na7  1  0.50000000  1.23362500  0.73362500  1.0
  Ni  Ni8  1  0.50000000  1.00000000  0.50000000  1.0
  Ni  Ni9  1  1.00000000  1.00000000  1.00000000  1.0
  P  P10  1  0.47128839  0.62469047  0.65340208  1.0
  P  P11  1  1.52871161  1.18211368  1.15340208  1.0
  P  P12  1  1.52871161  1.37530953  1.34659792  1.0
  P  P13  1  0.47128839  0.81788632  0.84659792  1.0
  O  O14  1  1.60090566  1.07020002  1.33048805  1.0
  O  O15  1  0.76028804  0.72958239  0.83048805  1.0
  O  O16  1  0.76028804  0.92979998  1.03070564  1.0
  O  O17  1  1.60090566  1.27041761  1.53070564  1.0
  O  O18  1  1.23971196  1.07020002  0.96929436  1.0
  O  O19  1  0.39909434  0.72958239  0.46929436  1.0
  O  O20  1  0.39909434  0.92979998  0.66951195  1.0
  O  O21  1  1.23971196  1.27041761  1.16951195  1.0
  O  O22  1  1.67223419  1.25852037  1.08628619  1.0
  O  O23  1  0.32776581  0.41405200  0.58628619  1.0
  O  O24  1  0.32776581  0.74147963  0.91371381  1.0
  O  O25  1  1.67223419  1.58594800  1.41371381  1.0
  O  O26  1  0.37333072  0.62333072  0.75000000  1.0
  O  O27  1  1.62666928  1.37666928  1.25000000  1.0
  F  F28  1  0.86743435  1.11743435  0.75000000  1.0
  F  F29  1  1.13256565  0.88256565  1.25000000  1.0
  F  F30  1  1.00000000  1.00000000  0.50000000  1.0
  F  F31  1  1.00000000  0.50000000  1.00000000  1.0
