# generated using pymatgen
data_Nd(Al5Ru)2
_symmetry_space_group_name_H-M   'P 1'
_cell_length_a   6.87886676
_cell_length_b   6.87886676
_cell_length_c   9.17630908
_cell_angle_alpha   90.00000000
_cell_angle_beta   90.00000000
_cell_angle_gamma   97.01838206
_symmetry_Int_Tables_number   1
_chemical_formula_structural   Nd(Al5Ru)2
_chemical_formula_sum   'Nd2 Al20 Ru4'
_cell_volume   430.95845742
_cell_formula_units_Z   2
loop_
 _symmetry_equiv_pos_site_id
 _symmetry_equiv_pos_as_xyz
  1  'x, y, z'
loop_
 _atom_site_type_symbol
 _atom_site_label
 _atom_site_symmetry_multiplicity
 _atom_site_fract_x
 _atom_site_fract_y
 _atom_site_fract_z
 _atom_site_occupancy
  Nd  Nd0  1  0.12199776  0.87800224  0.25000000  1.0
  Nd  Nd1  1  -0.12199776  1.12199776  0.75000000  1.0
  Al  Al2  1  0.13919569  0.41115834  0.25000000  1.0
  Al  Al3  1  -0.58884166  1.13919569  0.75000000  1.0
  Al  Al4  1  0.58884166  0.86080431  0.25000000  1.0
  Al  Al5  1  -0.13919569  1.58884166  0.75000000  1.0
  Al  Al6  1  -0.21987936  1.52052410  0.25000000  1.0
  Al  Al7  1  0.52052410  0.78012064  0.75000000  1.0
  Al  Al8  1  -0.52052410  1.21987936  0.25000000  1.0
  Al  Al9  1  0.21987936  0.47947590  0.75000000  1.0
  Al  Al10  1  0.15985320  0.84014680  0.89930652  1.0
  Al  Al11  1  0.15985320  0.84014680  0.60069348  1.0
  Al  Al12  1  -0.15985320  1.15985320  0.39930652  1.0
  Al  Al13  1  -0.15985320  1.15985320  0.10069348  1.0
  Al  Al14  1  0.37717949  0.62282051  0.44974002  1.0
  Al  Al15  1  0.37717949  0.62282051  0.05025998  1.0
  Al  Al16  1  -0.37717949  1.37717949  0.94974002  1.0
  Al  Al17  1  -0.37717949  1.37717949  0.55025998  1.0
  Al  Al18  1  0.77411727  0.77411727  0.50000000  1.0
  Al  Al19  1  0.77411727  0.77411727  0.00000000  1.0
  Al  Al20  1  0.22588273  0.22588273  0.50000000  1.0
  Al  Al21  1  0.22588273  0.22588273  0.00000000  1.0
  Ru  Ru22  1  -0.00000000  1.50000000  0.50000000  1.0
  Ru  Ru23  1  -0.00000000  1.50000000  0.00000000  1.0
  Ru  Ru24  1  0.50000000  1.00000000  0.00000000  1.0
  Ru  Ru25  1  0.50000000  1.00000000  0.50000000  1.0
