# generated using pymatgen
data_LuGaNi2
_symmetry_space_group_name_H-M   'P 1'
_cell_length_a   5.14702046
_cell_length_b   5.14702046
_cell_length_c   15.82078734
_cell_angle_alpha   90.00000000
_cell_angle_beta   90.00000000
_cell_angle_gamma   120.00000000
_symmetry_Int_Tables_number   1
_chemical_formula_structural   LuGaNi2
_chemical_formula_sum   'Lu6 Ga6 Ni12'
_cell_volume   362.96981851
_cell_formula_units_Z   6
loop_
 _symmetry_equiv_pos_site_id
 _symmetry_equiv_pos_as_xyz
  1  'x, y, z'
loop_
 _atom_site_type_symbol
 _atom_site_label
 _atom_site_symmetry_multiplicity
 _atom_site_fract_x
 _atom_site_fract_y
 _atom_site_fract_z
 _atom_site_occupancy
  Lu  Lu0  1  0.33333333  0.66666667  0.95747322  1.0
  Lu  Lu1  1  0.33333333  0.66666667  0.54252678  1.0
  Lu  Lu2  1  0.66666667  0.33333333  0.45747322  1.0
  Lu  Lu3  1  0.66666667  0.33333333  0.04252678  1.0
  Lu  Lu4  1  0.33333333  0.66666667  0.75000000  1.0
  Lu  Lu5  1  0.66666667  0.33333333  0.25000000  1.0
  Ga  Ga6  1  0.33333333  0.66666667  0.25000000  1.0
  Ga  Ga7  1  0.66666667  0.33333333  0.75000000  1.0
  Ga  Ga8  1  0.00000000  0.00000000  0.25000000  1.0
  Ga  Ga9  1  0.00000000  0.00000000  0.75000000  1.0
  Ga  Ga10  1  0.00000000  0.00000000  0.50000000  1.0
  Ga  Ga11  1  0.00000000  0.00000000  0.00000000  1.0
  Ni  Ni12  1  0.16901906  0.83098094  0.37460795  1.0
  Ni  Ni13  1  0.16901906  0.83098094  0.12539205  1.0
  Ni  Ni14  1  0.16901906  0.33803812  0.37460795  1.0
  Ni  Ni15  1  0.16901906  0.33803812  0.12539205  1.0
  Ni  Ni16  1  0.83098094  0.16901906  0.87460795  1.0
  Ni  Ni17  1  0.83098094  0.16901906  0.62539205  1.0
  Ni  Ni18  1  0.83098094  0.66196188  0.87460795  1.0
  Ni  Ni19  1  0.83098094  0.66196188  0.62539205  1.0
  Ni  Ni20  1  0.66196188  0.83098094  0.37460795  1.0
  Ni  Ni21  1  0.66196188  0.83098094  0.12539205  1.0
  Ni  Ni22  1  0.33803812  0.16901906  0.87460795  1.0
  Ni  Ni23  1  0.33803812  0.16901906  0.62539205  1.0
