# generated using pymatgen
data_Zr7Pt10
_symmetry_space_group_name_H-M   'P 1'
_cell_length_a   8.22065188
_cell_length_b   8.22065188
_cell_length_c   9.67626817
_cell_angle_alpha   90.00000000
_cell_angle_beta   90.00000000
_cell_angle_gamma   72.31594329
_symmetry_Int_Tables_number   1
_chemical_formula_structural   Zr7Pt10
_chemical_formula_sum   'Zr14 Pt20'
_cell_volume   623.01365578
_cell_formula_units_Z   2
loop_
 _symmetry_equiv_pos_site_id
 _symmetry_equiv_pos_as_xyz
  1  'x, y, z'
loop_
 _atom_site_type_symbol
 _atom_site_label
 _atom_site_symmetry_multiplicity
 _atom_site_fract_x
 _atom_site_fract_y
 _atom_site_fract_z
 _atom_site_occupancy
  Zr  Zr0  1  -0.49948296  0.99948296  0.25000000  1.0
  Zr  Zr1  1  0.00051704  1.49948296  0.25000000  1.0
  Zr  Zr2  1  -0.00051704  0.50051704  0.75000000  1.0
  Zr  Zr3  1  0.49948296  1.00051704  0.75000000  1.0
  Zr  Zr4  1  -0.18226995  1.18226995  0.31739864  1.0
  Zr  Zr5  1  0.31773005  0.68226995  0.18260136  1.0
  Zr  Zr6  1  0.18226995  0.81773005  0.68260136  1.0
  Zr  Zr7  1  -0.31773005  1.31773005  0.81739864  1.0
  Zr  Zr8  1  0.18961311  1.18961311  0.50000000  1.0
  Zr  Zr9  1  -0.31038689  0.68961311  0.00000000  1.0
  Zr  Zr10  1  -0.18961311  0.81038689  0.50000000  1.0
  Zr  Zr11  1  0.31038689  1.31038689  0.00000000  1.0
  Zr  Zr12  1  -0.50000000  0.50000000  0.50000000  1.0
  Zr  Zr13  1  0.00000000  1.00000000  0.00000000  1.0
  Pt  Pt14  1  -0.39267119  1.39267119  0.10777647  1.0
  Pt  Pt15  1  0.10732881  0.89267119  0.39222353  1.0
  Pt  Pt16  1  0.39267119  0.60732881  0.89222353  1.0
  Pt  Pt17  1  -0.10732881  1.10732881  0.60777647  1.0
  Pt  Pt18  1  0.35191911  1.35562799  0.29159668  1.0
  Pt  Pt19  1  -0.14808089  0.85562799  0.20840332  1.0
  Pt  Pt20  1  0.35562799  1.35191911  0.70840332  1.0
  Pt  Pt21  1  -0.14437201  0.85191911  0.79159668  1.0
  Pt  Pt22  1  -0.35562799  0.64808089  0.29159668  1.0
  Pt  Pt23  1  0.14437201  1.14808089  0.20840332  1.0
  Pt  Pt24  1  -0.35191911  0.64437201  0.70840332  1.0
  Pt  Pt25  1  0.14808089  1.14437201  0.79159668  1.0
  Pt  Pt26  1  0.43643789  0.85559041  0.50094221  1.0
  Pt  Pt27  1  -0.06356211  1.35559041  -0.00094221  1.0
  Pt  Pt28  1  -0.14440959  1.43643789  0.49905779  1.0
  Pt  Pt29  1  0.35559041  0.93643789  1.00094221  1.0
  Pt  Pt30  1  0.14440959  0.56356211  0.50094221  1.0
  Pt  Pt31  1  -0.35559041  1.06356211  -0.00094221  1.0
  Pt  Pt32  1  -0.43643789  1.14440959  0.49905779  1.0
  Pt  Pt33  1  0.06356211  0.64440959  1.00094221  1.0
