# generated using pymatgen
data_NbNOF4
_symmetry_space_group_name_H-M   'P 1'
_cell_length_a   8.05620657
_cell_length_b   8.05620657
_cell_length_c   3.98699451
_cell_angle_alpha   90.00000000
_cell_angle_beta   90.00000000
_cell_angle_gamma   90.00000000
_symmetry_Int_Tables_number   1
_chemical_formula_structural   NbNOF4
_chemical_formula_sum   'Nb2 N2 O2 F8'
_cell_volume   258.76576889
_cell_formula_units_Z   2
loop_
 _symmetry_equiv_pos_site_id
 _symmetry_equiv_pos_as_xyz
  1  'x, y, z'
loop_
 _atom_site_type_symbol
 _atom_site_label
 _atom_site_symmetry_multiplicity
 _atom_site_fract_x
 _atom_site_fract_y
 _atom_site_fract_z
 _atom_site_occupancy
  Nb  Nb0  1  0.50000000  0.00000000  -0.01457103  1.0
  Nb  Nb1  1  0.00000000  0.50000000  1.01457103  1.0
  N  N2  1  0.00000000  0.00000000  0.00000000  1.0
  N  N3  1  0.50000000  0.50000000  0.00000000  1.0
  O  O4  1  0.50000000  0.00000000  -0.46040451  1.0
  O  O5  1  0.00000000  0.50000000  1.46040451  1.0
  F  F6  1  0.50000000  0.24019615  0.04829593  1.0
  F  F7  1  0.50000000  0.75980385  0.04829593  1.0
  F  F8  1  0.00000000  0.74019615  0.95170407  1.0
  F  F9  1  0.00000000  0.25980385  0.95170407  1.0
  F  F10  1  0.74019615  0.00000000  0.04829593  1.0
  F  F11  1  0.24019615  0.50000000  0.95170407  1.0
  F  F12  1  0.75980385  0.50000000  0.95170407  1.0
  F  F13  1  0.25980385  0.00000000  0.04829593  1.0
