# generated using pymatgen
data_VN
_symmetry_space_group_name_H-M   'P 1'
_cell_length_a   4.11375187
_cell_length_b   4.11375187
_cell_length_c   4.11245448
_cell_angle_alpha   90.00000000
_cell_angle_beta   90.00000000
_cell_angle_gamma   90.00000000
_symmetry_Int_Tables_number   1
_chemical_formula_structural   VN
_chemical_formula_sum   'V4 N4'
_cell_volume   69.59487990
_cell_formula_units_Z   4
loop_
 _symmetry_equiv_pos_site_id
 _symmetry_equiv_pos_as_xyz
  1  'x, y, z'
loop_
 _atom_site_type_symbol
 _atom_site_label
 _atom_site_symmetry_multiplicity
 _atom_site_fract_x
 _atom_site_fract_y
 _atom_site_fract_z
 _atom_site_occupancy
  V  V0  1  0.23140230  0.76859770  0.23161987  1.0
  V  V1  1  0.76859770  0.76859770  0.76838013  1.0
  V  V2  1  0.23140230  0.23140230  0.76838013  1.0
  V  V3  1  0.76859770  0.23140230  0.23161987  1.0
  N  N4  1  0.25972965  0.74027035  0.74035683  1.0
  N  N5  1  0.74027035  0.74027035  0.25964317  1.0
  N  N6  1  0.25972965  0.25972965  0.25964317  1.0
  N  N7  1  0.74027035  0.25972965  0.74035683  1.0
