# generated using pymatgen
data_BiPS4
_symmetry_space_group_name_H-M   'P 1'
_cell_length_a   12.64221234
_cell_length_b   12.64221234
_cell_length_c   12.64221234
_cell_angle_alpha   126.70659320
_cell_angle_beta   129.40860901
_cell_angle_gamma   76.55192657
_symmetry_Int_Tables_number   1
_chemical_formula_structural   BiPS4
_chemical_formula_sum   'Bi8 P8 S32'
_cell_volume   1215.88435302
_cell_formula_units_Z   8
loop_
 _symmetry_equiv_pos_site_id
 _symmetry_equiv_pos_as_xyz
  1  'x, y, z'
loop_
 _atom_site_type_symbol
 _atom_site_label
 _atom_site_symmetry_multiplicity
 _atom_site_fract_x
 _atom_site_fract_y
 _atom_site_fract_z
 _atom_site_occupancy
  Bi  Bi0  1  1.10885703  0.85885703  1.25000000  1.0
  Bi  Bi1  1  0.89114297  0.14114297  0.75000000  1.0
  Bi  Bi2  1  0.39114297  0.64114297  0.75000000  1.0
  Bi  Bi3  1  0.60885703  0.35885703  0.25000000  1.0
  Bi  Bi4  1  0.85122658  0.60122658  1.25000000  1.0
  Bi  Bi5  1  1.14877342  0.39877342  0.75000000  1.0
  Bi  Bi6  1  0.64877342  0.89877342  0.75000000  1.0
  Bi  Bi7  1  0.35122658  0.10122658  0.25000000  1.0
  P  P8  1  0.25000000  0.71319739  0.46319739  1.0
  P  P9  1  0.25000000  1.21319739  0.96319739  1.0
  P  P10  1  0.75000000  0.28680261  0.53680261  1.0
  P  P11  1  0.75000000  0.78680261  1.03680261  1.0
  P  P12  1  0.27988803  0.75000000  1.02988803  1.0
  P  P13  1  0.77988803  0.75000000  1.52988803  1.0
  P  P14  1  0.22011197  0.25000000  0.47011197  1.0
  P  P15  1  0.72011197  0.25000000  0.97011197  1.0
  S  S16  1  1.38155911  0.89800309  1.28843309  1.0
  S  S17  1  0.89043000  0.90687398  1.78843309  1.0
  S  S18  1  0.11844089  0.40687398  0.51644398  1.0
  S  S19  1  0.60957000  1.39800309  1.01644398  1.0
  S  S20  1  0.88155911  0.59312602  0.48355602  1.0
  S  S21  1  0.39043000  0.60199691  0.98355602  1.0
  S  S22  1  0.61844089  0.10199691  0.71156691  1.0
  S  S23  1  1.10957000  1.09312602  1.21156691  1.0
  S  S24  1  1.10000904  0.61868212  1.20372907  1.0
  S  S25  1  1.08504696  1.10372003  1.70372907  1.0
  S  S26  1  0.39999096  0.60372003  0.51867308  1.0
  S  S27  1  0.41495304  1.11868212  1.01867308  1.0
  S  S28  1  0.60000904  0.39627997  0.48132692  1.0
  S  S29  1  0.58504696  0.88131788  0.98132692  1.0
  S  S30  1  0.89999096  0.38131788  0.79627093  1.0
  S  S31  1  0.91495304  0.89627997  1.29627093  1.0
  S  S32  1  1.08969983  0.65190285  0.91433870  1.0
  S  S33  1  0.76243585  0.82463887  1.41433870  1.0
  S  S34  1  0.41030017  0.32463887  0.56220302  1.0
  S  S35  1  0.73756415  1.15190285  1.06220302  1.0
  S  S36  1  0.58969983  0.67536113  0.43779698  1.0
  S  S37  1  0.26243585  0.84809715  0.93779698  1.0
  S  S38  1  0.91030017  0.34809715  1.08566130  1.0
  S  S39  1  1.23756415  1.17536113  1.58566130  1.0
  S  S40  1  1.33218962  0.40236314  1.06366027  1.0
  S  S41  1  1.16129713  0.73147065  1.56366027  1.0
  S  S42  1  0.16781038  0.23147065  0.07017352  1.0
  S  S43  1  0.33870287  0.90236314  0.57017352  1.0
  S  S44  1  0.83218962  0.76852935  0.92982648  1.0
  S  S45  1  0.66129713  1.09763686  1.42982648  1.0
  S  S46  1  0.66781038  0.59763686  0.93633973  1.0
  S  S47  1  0.83870287  1.26852935  1.43633973  1.0
