# generated using pymatgen
data_LiH2N
_symmetry_space_group_name_H-M   'P 1'
_cell_length_a   3.81467747
_cell_length_b   3.36883405
_cell_length_c   10.28336711
_cell_angle_alpha   90.00000000
_cell_angle_beta   89.98511774
_cell_angle_gamma   90.00000000
_symmetry_Int_Tables_number   1
_chemical_formula_structural   LiH2N
_chemical_formula_sum   'Li4 H8 N4'
_cell_volume   132.15170433
_cell_formula_units_Z   4
loop_
 _symmetry_equiv_pos_site_id
 _symmetry_equiv_pos_as_xyz
  1  'x, y, z'
loop_
 _atom_site_type_symbol
 _atom_site_label
 _atom_site_symmetry_multiplicity
 _atom_site_fract_x
 _atom_site_fract_y
 _atom_site_fract_z
 _atom_site_occupancy
  Li  Li0  1  0.24996750  0.24995676  0.52391107  1.0
  Li  Li1  1  0.75003250  0.74995676  0.97608893  1.0
  Li  Li2  1  0.75003250  0.75004324  0.47608893  1.0
  Li  Li3  1  0.24996750  0.25004324  0.02391107  1.0
  H  H4  1  0.16970443  0.53566787  0.83082496  1.0
  H  H5  1  0.83029557  0.03566787  0.66917504  1.0
  H  H6  1  0.83029557  0.46433213  0.16917504  1.0
  H  H7  1  0.16970443  0.96433213  0.33082496  1.0
  H  H8  1  0.66939033  0.46432835  0.66912974  1.0
  H  H9  1  0.33060967  -0.03567165  0.83087026  1.0
  H  H10  1  0.33060967  0.53567165  0.33087026  1.0
  H  H11  1  0.66939033  1.03567165  0.16912974  1.0
  N  N12  1  0.74992498  0.25004519  0.10449082  1.0
  N  N13  1  0.25007502  0.75004519  0.39550918  1.0
  N  N14  1  0.25007502  0.74995481  0.89550918  1.0
  N  N15  1  0.74992498  0.24995481  0.60449082  1.0
