# generated using pymatgen
data_BaLu2CoO5
_symmetry_space_group_name_H-M   'P 1'
_cell_length_a   12.04268869
_cell_length_b   5.59987010
_cell_length_c   7.04645372
_cell_angle_alpha   90.00000000
_cell_angle_beta   90.00000000
_cell_angle_gamma   90.00000000
_symmetry_Int_Tables_number   1
_chemical_formula_structural   BaLu2CoO5
_chemical_formula_sum   'Ba4 Lu8 Co4 O20'
_cell_volume   475.19516868
_cell_formula_units_Z   4
loop_
 _symmetry_equiv_pos_site_id
 _symmetry_equiv_pos_as_xyz
  1  'x, y, z'
loop_
 _atom_site_type_symbol
 _atom_site_label
 _atom_site_symmetry_multiplicity
 _atom_site_fract_x
 _atom_site_fract_y
 _atom_site_fract_z
 _atom_site_occupancy
  O  O0  1  0.43384433  0.99118819  0.66718978  1.0
  O  O1  1  0.43384433  0.50881181  0.66718978  1.0
  O  O2  1  0.93384433  0.99118819  0.83281022  1.0
  O  O3  1  0.93384433  0.50881181  0.83281022  1.0
  O  O4  1  0.56615567  0.49118819  0.33281022  1.0
  O  O5  1  0.56615567  0.00881181  0.33281022  1.0
  O  O6  1  0.06615567  0.49118819  0.16718978  1.0
  O  O7  1  0.06615567  0.00881181  0.16718978  1.0
  O  O8  1  0.22881295  -0.00447444  0.85918880  1.0
  O  O9  1  0.22881295  0.50447444  0.85918880  1.0
  O  O10  1  0.72881295  -0.00447444  0.64081120  1.0
  O  O11  1  0.72881295  0.50447444  0.64081120  1.0
  O  O12  1  0.77118705  0.49552556  0.14081120  1.0
  O  O13  1  0.77118705  1.00447444  0.14081120  1.0
  O  O14  1  0.27118705  0.49552556  0.35918880  1.0
  O  O15  1  0.27118705  1.00447444  0.35918880  1.0
  O  O16  1  0.39633655  0.75000000  0.07898671  1.0
  O  O17  1  0.89633655  0.75000000  0.42101329  1.0
  O  O18  1  0.60366345  0.25000000  0.92101329  1.0
  O  O19  1  0.10366345  0.25000000  0.57898671  1.0
  Co  Co20  1  0.33858011  0.75000000  0.78603010  1.0
  Co  Co21  1  0.83858011  0.75000000  0.71396990  1.0
  Co  Co22  1  0.66141989  0.25000000  0.21396990  1.0
  Co  Co23  1  0.16141989  0.25000000  0.28603010  1.0
  Ba  Ba24  1  0.09517618  0.75000000  0.57322800  1.0
  Ba  Ba25  1  0.59517618  0.75000000  0.92677200  1.0
  Ba  Ba26  1  0.90482382  0.25000000  0.42677200  1.0
  Ba  Ba27  1  0.40482382  0.25000000  0.07322800  1.0
  Lu  Lu28  1  0.21083926  0.75000000  0.11627616  1.0
  Lu  Lu29  1  0.71083926  0.75000000  0.38372384  1.0
  Lu  Lu30  1  0.78916074  0.25000000  0.88372384  1.0
  Lu  Lu31  1  0.28916074  0.25000000  0.61627616  1.0
  Lu  Lu32  1  0.92495506  0.75000000  0.10229398  1.0
  Lu  Lu33  1  0.42495506  0.75000000  0.39770602  1.0
  Lu  Lu34  1  0.07504494  0.25000000  0.89770602  1.0
  Lu  Lu35  1  0.57504494  0.25000000  0.60229398  1.0
