# generated using pymatgen
data_Sr6YMn(BO3)6
_symmetry_space_group_name_H-M   'P 1'
_cell_length_a   7.75470812
_cell_length_b   7.75470812
_cell_length_c   7.75470812
_cell_angle_alpha   105.29601636
_cell_angle_beta   105.29601636
_cell_angle_gamma   105.29601636
_symmetry_Int_Tables_number   1
_chemical_formula_structural   Sr6YMn(BO3)6
_chemical_formula_sum   'Sr6 Y1 Mn1 B6 O18'
_cell_volume   405.06639716
_cell_formula_units_Z   1
loop_
 _symmetry_equiv_pos_site_id
 _symmetry_equiv_pos_as_xyz
  1  'x, y, z'
loop_
 _atom_site_type_symbol
 _atom_site_label
 _atom_site_symmetry_multiplicity
 _atom_site_fract_x
 _atom_site_fract_y
 _atom_site_fract_z
 _atom_site_occupancy
  Sr  Sr0  1  0.76807326  0.66328806  0.14955899  1.0
  Sr  Sr1  1  1.33671194  -0.14955899  0.23192674  1.0
  Sr  Sr2  1  0.85044101  0.23192674  0.33671194  1.0
  Sr  Sr3  1  1.23192674  0.33671194  -0.14955899  1.0
  Sr  Sr4  1  0.66328806  1.14955899  -0.23192674  1.0
  Sr  Sr5  1  1.14955899  0.76807326  -0.33671194  1.0
  Y  Y6  1  0.50000000  0.50000000  0.50000000  1.0
  Mn  Mn7  1  0.00000000  0.00000000  0.00000000  1.0
  B  B8  1  1.54768880  0.79517035  -0.12019257  1.0
  B  B9  1  1.20482965  0.12019257  -0.54768880  1.0
  B  B10  1  1.12019257  -0.54768880  0.20482965  1.0
  B  B11  1  0.45231120  0.20482965  0.12019257  1.0
  B  B12  1  0.79517035  0.87980743  0.54768880  1.0
  B  B13  1  0.87980743  1.54768880  -0.20482965  1.0
  O  O14  1  0.72785044  0.93086756  0.00214025  1.0
  O  O15  1  1.06913244  -0.00214025  -0.72785044  1.0
  O  O16  1  0.99785975  -0.72785044  0.06913244  1.0
  O  O17  1  0.27214956  0.06913244  -0.00214025  1.0
  O  O18  1  0.93086756  1.00214025  -0.27214956  1.0
  O  O19  1  1.00214025  0.72785044  -0.06913244  1.0
  O  O20  1  1.48539476  0.77350103  -0.31281138  1.0
  O  O21  1  1.22649897  0.31281138  -0.48539476  1.0
  O  O22  1  1.31281138  -0.48539476  0.22649897  1.0
  O  O23  1  0.51460524  0.22649897  0.31281138  1.0
  O  O24  1  0.77350103  0.68718862  0.48539476  1.0
  O  O25  1  0.68718862  1.48539476  -0.22649897  1.0
  O  O26  1  0.56731088  0.30580271  0.04615237  1.0
  O  O27  1  0.69419729  0.95384763  0.43268912  1.0
  O  O28  1  0.95384763  1.43268912  -0.30580271  1.0
  O  O29  1  1.43268912  0.69419729  -0.04615237  1.0
  O  O30  1  1.30580271  0.04615237  -0.43268912  1.0
  O  O31  1  1.04615237  -0.43268912  0.30580271  1.0
