# generated using pymatgen
data_Y2Ni7
_symmetry_space_group_name_H-M   'P 1'
_cell_length_a   4.94059344
_cell_length_b   4.94059344
_cell_length_c   24.15514767
_cell_angle_alpha   90.00000000
_cell_angle_beta   90.00000000
_cell_angle_gamma   120.00000000
_symmetry_Int_Tables_number   1
_chemical_formula_structural   Y2Ni7
_chemical_formula_sum   'Y8 Ni28'
_cell_volume   510.62087162
_cell_formula_units_Z   4
loop_
 _symmetry_equiv_pos_site_id
 _symmetry_equiv_pos_as_xyz
  1  'x, y, z'
loop_
 _atom_site_type_symbol
 _atom_site_label
 _atom_site_symmetry_multiplicity
 _atom_site_fract_x
 _atom_site_fract_y
 _atom_site_fract_z
 _atom_site_occupancy
  Y  Y0  1  0.33333333  0.66666667  0.97043878  1.0
  Y  Y1  1  0.33333333  0.66666667  0.52956122  1.0
  Y  Y2  1  0.66666667  0.33333333  0.47043878  1.0
  Y  Y3  1  0.66666667  0.33333333  0.02956122  1.0
  Y  Y4  1  0.33333333  0.66666667  0.82552062  1.0
  Y  Y5  1  0.33333333  0.66666667  0.67447938  1.0
  Y  Y6  1  0.66666667  0.33333333  0.32552062  1.0
  Y  Y7  1  0.66666667  0.33333333  0.17447938  1.0
  Ni  Ni8  1  0.16709505  0.83290495  0.41427361  1.0
  Ni  Ni9  1  0.16709505  0.83290495  0.08572639  1.0
  Ni  Ni10  1  0.16709505  0.33419011  0.41427361  1.0
  Ni  Ni11  1  0.16709505  0.33419011  0.08572639  1.0
  Ni  Ni12  1  0.83290495  0.16709505  0.91427361  1.0
  Ni  Ni13  1  0.83290495  0.16709505  0.58572639  1.0
  Ni  Ni14  1  0.83290495  0.66580989  0.91427361  1.0
  Ni  Ni15  1  0.83290495  0.66580989  0.58572639  1.0
  Ni  Ni16  1  0.66580989  0.83290495  0.41427361  1.0
  Ni  Ni17  1  0.66580989  0.83290495  0.08572639  1.0
  Ni  Ni18  1  0.33419011  0.16709505  0.91427361  1.0
  Ni  Ni19  1  0.33419011  0.16709505  0.58572639  1.0
  Ni  Ni20  1  0.16677034  0.83322966  0.25000000  1.0
  Ni  Ni21  1  0.16677034  0.33354067  0.25000000  1.0
  Ni  Ni22  1  0.83322966  0.16677034  0.75000000  1.0
  Ni  Ni23  1  0.83322966  0.66645933  0.75000000  1.0
  Ni  Ni24  1  0.66645933  0.83322966  0.25000000  1.0
  Ni  Ni25  1  0.33354067  0.16677034  0.75000000  1.0
  Ni  Ni26  1  0.33333333  0.66666667  0.33256383  1.0
  Ni  Ni27  1  0.33333333  0.66666667  0.16743617  1.0
  Ni  Ni28  1  0.66666667  0.33333333  0.83256383  1.0
  Ni  Ni29  1  0.66666667  0.33333333  0.66743617  1.0
  Ni  Ni30  1  0.00000000  0.00000000  0.33233599  1.0
  Ni  Ni31  1  -0.00000000  -0.00000000  0.16766401  1.0
  Ni  Ni32  1  -0.00000000  -0.00000000  0.83233599  1.0
  Ni  Ni33  1  -0.00000000  0.00000000  0.66766401  1.0
  Ni  Ni34  1  -0.00000000  -0.00000000  0.50000000  1.0
  Ni  Ni35  1  0.00000000  0.00000000  0.00000000  1.0
