# generated using pymatgen
data_BaBr2
_symmetry_space_group_name_H-M   'P 1'
_cell_length_a   8.37922089
_cell_length_b   5.05962428
_cell_length_c   10.06289978
_cell_angle_alpha   90.00000000
_cell_angle_beta   90.00000000
_cell_angle_gamma   90.00000000
_symmetry_Int_Tables_number   1
_chemical_formula_structural   BaBr2
_chemical_formula_sum   'Ba4 Br8'
_cell_volume   426.62377583
_cell_formula_units_Z   4
loop_
 _symmetry_equiv_pos_site_id
 _symmetry_equiv_pos_as_xyz
  1  'x, y, z'
loop_
 _atom_site_type_symbol
 _atom_site_label
 _atom_site_symmetry_multiplicity
 _atom_site_fract_x
 _atom_site_fract_y
 _atom_site_fract_z
 _atom_site_occupancy
  Ba  Ba0  1  0.75438012  0.75000000  0.38879165  1.0
  Ba  Ba1  1  0.25438012  0.75000000  0.11120835  1.0
  Ba  Ba2  1  0.24561988  0.25000000  0.61120835  1.0
  Ba  Ba3  1  0.74561988  0.25000000  0.88879165  1.0
  Br  Br4  1  0.97873331  0.75000000  0.66510801  1.0
  Br  Br5  1  0.47873331  0.75000000  0.83489199  1.0
  Br  Br6  1  0.02126669  0.25000000  0.33489199  1.0
  Br  Br7  1  0.52126669  0.25000000  0.16510801  1.0
  Br  Br8  1  0.85823753  0.75000000  0.07478864  1.0
  Br  Br9  1  0.35823753  0.75000000  0.42521136  1.0
  Br  Br10  1  0.14176247  0.25000000  0.92521136  1.0
  Br  Br11  1  0.64176247  0.25000000  0.57478864  1.0
