# generated using pymatgen
data_K5V3F14
_symmetry_space_group_name_H-M   'P 1'
_cell_length_a   7.74942624
_cell_length_b   7.74942624
_cell_length_c   11.89551314
_cell_angle_alpha   90.00000000
_cell_angle_beta   90.00000000
_cell_angle_gamma   90.00000000
_symmetry_Int_Tables_number   1
_chemical_formula_structural   K5V3F14
_chemical_formula_sum   'K10 V6 F28'
_cell_volume   714.36847230
_cell_formula_units_Z   2
loop_
 _symmetry_equiv_pos_site_id
 _symmetry_equiv_pos_as_xyz
  1  'x, y, z'
loop_
 _atom_site_type_symbol
 _atom_site_label
 _atom_site_symmetry_multiplicity
 _atom_site_fract_x
 _atom_site_fract_y
 _atom_site_fract_z
 _atom_site_occupancy
  K  K0  1  0.00000000  0.00000000  0.00000000  1.0
  K  K1  1  0.50000000  0.50000000  0.50000000  1.0
  K  K2  1  0.77762355  0.72237645  0.25000000  1.0
  K  K3  1  0.22237645  0.27762355  0.25000000  1.0
  K  K4  1  0.72237645  0.22237645  0.75000000  1.0
  K  K5  1  0.27762355  0.77762355  0.75000000  1.0
  K  K6  1  0.72237645  0.22237645  0.25000000  1.0
  K  K7  1  0.27762355  0.77762355  0.25000000  1.0
  K  K8  1  0.22237645  0.27762355  0.75000000  1.0
  K  K9  1  0.77762355  0.72237645  0.75000000  1.0
  V  V10  1  0.50000000  0.00000000  0.00000000  1.0
  V  V11  1  0.00000000  0.50000000  0.50000000  1.0
  V  V12  1  0.00000000  0.50000000  0.00000000  1.0
  V  V13  1  0.50000000  0.00000000  0.50000000  1.0
  V  V14  1  0.50000000  0.50000000  0.00000000  1.0
  V  V15  1  0.00000000  0.00000000  0.50000000  1.0
  F  F16  1  0.67400540  0.96422643  0.11338915  1.0
  F  F17  1  0.32599460  0.03577357  0.11338915  1.0
  F  F18  1  0.82599460  0.46422643  0.61338915  1.0
  F  F19  1  0.17400540  0.53577357  0.61338915  1.0
  F  F20  1  0.96422643  0.32599460  0.11338915  1.0
  F  F21  1  0.03577357  0.67400540  0.11338915  1.0
  F  F22  1  0.46422643  0.17400540  0.61338915  1.0
  F  F23  1  0.53577357  0.82599460  0.61338915  1.0
  F  F24  1  0.32599460  0.03577357  0.88661085  1.0
  F  F25  1  0.67400540  0.96422643  0.88661085  1.0
  F  F26  1  0.17400540  0.53577357  0.38661085  1.0
  F  F27  1  0.82599460  0.46422643  0.38661085  1.0
  F  F28  1  0.03577357  0.67400540  0.88661085  1.0
  F  F29  1  0.96422643  0.32599460  0.88661085  1.0
  F  F30  1  0.53577357  0.82599460  0.38661085  1.0
  F  F31  1  0.46422643  0.17400540  0.38661085  1.0
  F  F32  1  0.56351803  0.25183223  0.00000000  1.0
  F  F33  1  0.43648197  0.74816777  0.00000000  1.0
  F  F34  1  0.93648197  0.75183223  0.50000000  1.0
  F  F35  1  0.06351803  0.24816777  0.50000000  1.0
  F  F36  1  0.25183223  0.43648197  0.00000000  1.0
  F  F37  1  0.74816777  0.56351803  0.00000000  1.0
  F  F38  1  0.75183223  0.06351803  0.50000000  1.0
  F  F39  1  0.24816777  0.93648197  0.50000000  1.0
  F  F40  1  0.50000000  0.50000000  0.16444120  1.0
  F  F41  1  0.00000000  0.00000000  0.66444120  1.0
  F  F42  1  0.50000000  0.50000000  0.83555880  1.0
  F  F43  1  0.00000000  0.00000000  0.33555880  1.0
