# generated using pymatgen
data_Sr5Cr3BrO12
_symmetry_space_group_name_H-M   'P 1'
_cell_length_a   10.50344340
_cell_length_b   10.50344340
_cell_length_c   7.25872484
_cell_angle_alpha   90.00000000
_cell_angle_beta   90.00000000
_cell_angle_gamma   120.00000000
_symmetry_Int_Tables_number   1
_chemical_formula_structural   Sr5Cr3BrO12
_chemical_formula_sum   'Sr10 Cr6 Br2 O24'
_cell_volume   693.51261276
_cell_formula_units_Z   2
loop_
 _symmetry_equiv_pos_site_id
 _symmetry_equiv_pos_as_xyz
  1  'x, y, z'
loop_
 _atom_site_type_symbol
 _atom_site_label
 _atom_site_symmetry_multiplicity
 _atom_site_fract_x
 _atom_site_fract_y
 _atom_site_fract_z
 _atom_site_occupancy
  Sr  Sr0  1  0.01579967  0.74815050  0.25000000  1.0
  Sr  Sr1  1  0.74815050  0.73235083  0.75000000  1.0
  Sr  Sr2  1  0.73235083  0.98420033  0.25000000  1.0
  Sr  Sr3  1  0.25184950  0.26764917  0.25000000  1.0
  Sr  Sr4  1  0.98420033  0.25184950  0.75000000  1.0
  Sr  Sr5  1  0.26764917  0.01579967  0.75000000  1.0
  Sr  Sr6  1  0.33333333  0.66666667  0.50258595  1.0
  Sr  Sr7  1  0.33333333  0.66666667  -0.00258595  1.0
  Sr  Sr8  1  0.66666667  0.33333333  0.00258595  1.0
  Sr  Sr9  1  0.66666667  0.33333333  0.49741405  1.0
  Cr  Cr10  1  0.37754899  0.96507195  0.25000000  1.0
  Cr  Cr11  1  0.96507195  0.58752297  0.75000000  1.0
  Cr  Cr12  1  0.58752297  0.62245101  0.25000000  1.0
  Cr  Cr13  1  0.03492805  0.41247703  0.25000000  1.0
  Cr  Cr14  1  0.62245101  0.03492805  0.75000000  1.0
  Cr  Cr15  1  0.41247703  0.37754899  0.75000000  1.0
  Br  Br16  1  -0.00000000  -0.00000000  0.50000000  1.0
  Br  Br17  1  -0.00000000  -0.00000000  0.00000000  1.0
  O  O18  1  0.26475653  0.90684078  0.43804577  1.0
  O  O19  1  0.26475653  0.90684078  0.06195423  1.0
  O  O20  1  0.90684078  0.64208425  0.93804577  1.0
  O  O21  1  0.90684078  0.64208425  0.56195423  1.0
  O  O22  1  0.64208425  0.73524347  0.43804577  1.0
  O  O23  1  0.64208425  0.73524347  0.06195423  1.0
  O  O24  1  0.09315922  0.35791575  0.43804577  1.0
  O  O25  1  0.09315922  0.35791575  0.06195423  1.0
  O  O26  1  0.73524347  0.09315922  0.93804577  1.0
  O  O27  1  0.73524347  0.09315922  0.56195423  1.0
  O  O28  1  0.35791575  0.26475653  0.93804577  1.0
  O  O29  1  0.35791575  0.26475653  0.56195423  1.0
  O  O30  1  0.46499640  0.86291646  0.25000000  1.0
  O  O31  1  0.86291646  0.39792007  0.75000000  1.0
  O  O32  1  0.39792007  0.53500360  0.25000000  1.0
  O  O33  1  0.13708354  0.60207993  0.25000000  1.0
  O  O34  1  0.53500360  0.13708354  0.75000000  1.0
  O  O35  1  0.60207993  0.46499640  0.75000000  1.0
  O  O36  1  0.64879886  0.50014941  0.25000000  1.0
  O  O37  1  0.50014941  0.85135055  0.75000000  1.0
  O  O38  1  0.85135055  0.35120114  0.25000000  1.0
  O  O39  1  0.49985059  0.14864945  0.25000000  1.0
  O  O40  1  0.35120114  0.49985059  0.75000000  1.0
  O  O41  1  0.14864945  0.64879886  0.75000000  1.0
