# generated using pymatgen
data_GaC10S
_symmetry_space_group_name_H-M   'P 1'
_cell_length_a   10.37355777
_cell_length_b   10.37355777
_cell_length_c   10.37355777
_cell_angle_alpha   109.47122063
_cell_angle_beta   109.47122063
_cell_angle_gamma   109.47122063
_symmetry_Int_Tables_number   1
_chemical_formula_structural   GaC10S
_chemical_formula_sum   'Ga4 C40 S4'
_cell_volume   859.33262165
_cell_formula_units_Z   4
loop_
 _symmetry_equiv_pos_site_id
 _symmetry_equiv_pos_as_xyz
  1  'x, y, z'
loop_
 _atom_site_type_symbol
 _atom_site_label
 _atom_site_symmetry_multiplicity
 _atom_site_fract_x
 _atom_site_fract_y
 _atom_site_fract_z
 _atom_site_occupancy
  Ga  Ga0  1  0.18169998  1.00000000  1.00000000  1.0
  Ga  Ga1  1  1.00000000  0.18169998  1.00000000  1.0
  Ga  Ga2  1  0.81830002  0.81830002  0.81830002  1.0
  Ga  Ga3  1  1.00000000  1.00000000  0.18169998  1.0
  S  S4  1  0.78932851  1.00000000  1.00000000  1.0
  S  S5  1  1.00000000  0.78932851  1.00000000  1.0
  S  S6  1  0.21067149  0.21067149  0.21067149  1.0
  S  S7  1  1.00000000  1.00000000  0.78932851  1.0
  C  C8  1  0.37595723  1.00000000  1.00000000  1.0
  C  C9  1  1.00000000  0.37595723  1.00000000  1.0
  C  C10  1  0.62404277  0.62404277  0.62404277  1.0
  C  C11  1  1.00000000  1.00000000  0.37595723  1.0
  C  C12  1  0.54432448  1.22721540  1.00000000  1.0
  C  C13  1  0.77278460  0.31710907  0.77278460  1.0
  C  C14  1  0.45567552  0.45567552  0.68289093  1.0
  C  C15  1  1.22721540  1.00000000  0.54432448  1.0
  C  C16  1  1.22721540  0.54432448  1.00000000  1.0
  C  C17  1  0.45567552  0.68289093  0.45567552  1.0
  C  C18  1  0.77278460  0.77278460  0.31710907  1.0
  C  C19  1  0.54432448  1.00000000  1.22721540  1.0
  C  C20  1  0.31710907  0.77278460  0.77278460  1.0
  C  C21  1  1.00000000  0.54432448  1.22721540  1.0
  C  C22  1  0.68289093  0.45567552  0.45567552  1.0
  C  C23  1  1.00000000  1.22721540  0.54432448  1.0
  C  C24  1  0.55498473  1.20029512  1.12264968  1.0
  C  C25  1  0.92235456  0.35468960  0.79970488  1.0
  C  C26  1  0.44501527  0.56766495  0.64531040  1.0
  C  C27  1  1.07764544  0.87735032  1.43233505  1.0
  C  C28  1  1.07764544  1.43233505  0.87735032  1.0
  C  C29  1  0.44501527  0.64531040  0.56766495  1.0
  C  C30  1  0.92235456  0.79970488  0.35468960  1.0
  C  C31  1  0.55498473  1.12264968  1.20029512  1.0
  C  C32  1  1.43233505  0.87735032  1.07764544  1.0
  C  C33  1  1.20029512  0.55498473  1.12264968  1.0
  C  C34  1  0.56766495  0.64531040  0.44501527  1.0
  C  C35  1  0.79970488  0.92235456  0.35468960  1.0
  C  C36  1  0.79970488  0.35468960  0.92235456  1.0
  C  C37  1  0.56766495  0.44501527  0.64531040  1.0
  C  C38  1  1.20029512  1.12264968  0.55498473  1.0
  C  C39  1  1.43233505  1.07764544  0.87735032  1.0
  C  C40  1  0.35468960  0.92235456  0.79970488  1.0
  C  C41  1  1.12264968  0.55498473  1.20029512  1.0
  C  C42  1  0.64531040  0.56766495  0.44501527  1.0
  C  C43  1  0.87735032  1.07764544  1.43233505  1.0
  C  C44  1  0.35468960  0.79970488  0.92235456  1.0
  C  C45  1  0.64531040  0.44501527  0.56766495  1.0
  C  C46  1  1.12264968  1.20029512  0.55498473  1.0
  C  C47  1  0.87735032  1.43233505  1.07764544  1.0
