# generated using pymatgen
data_Y3Al2
_symmetry_space_group_name_H-M   'P 1'
_cell_length_a   8.24775345
_cell_length_b   8.24775345
_cell_length_c   7.62910148
_cell_angle_alpha   90.00000000
_cell_angle_beta   90.00000000
_cell_angle_gamma   90.00000000
_symmetry_Int_Tables_number   1
_chemical_formula_structural   Y3Al2
_chemical_formula_sum   'Y12 Al8'
_cell_volume   518.97296201
_cell_formula_units_Z   4
loop_
 _symmetry_equiv_pos_site_id
 _symmetry_equiv_pos_as_xyz
  1  'x, y, z'
loop_
 _atom_site_type_symbol
 _atom_site_label
 _atom_site_symmetry_multiplicity
 _atom_site_fract_x
 _atom_site_fract_y
 _atom_site_fract_z
 _atom_site_occupancy
  Y  Y0  1  0.20040327  0.20040327  0.50000000  1.0
  Y  Y1  1  0.70040327  0.29959673  0.00000000  1.0
  Y  Y2  1  0.79959673  0.79959673  0.50000000  1.0
  Y  Y3  1  0.29959673  0.70040327  0.00000000  1.0
  Y  Y4  1  0.34799357  0.65200643  0.50000000  1.0
  Y  Y5  1  0.84799357  0.84799357  0.00000000  1.0
  Y  Y6  1  0.65200643  0.34799357  0.50000000  1.0
  Y  Y7  1  0.15200643  0.15200643  0.00000000  1.0
  Y  Y8  1  0.50000000  0.00000000  0.25000000  1.0
  Y  Y9  1  0.50000000  0.00000000  0.75000000  1.0
  Y  Y10  1  0.00000000  0.50000000  0.75000000  1.0
  Y  Y11  1  0.00000000  0.50000000  0.25000000  1.0
  Al  Al12  1  0.11901088  0.88098912  0.30233775  1.0
  Al  Al13  1  0.11901088  0.88098912  0.69766225  1.0
  Al  Al14  1  0.61901088  0.61901088  0.80233775  1.0
  Al  Al15  1  0.61901088  0.61901088  0.19766225  1.0
  Al  Al16  1  0.88098912  0.11901088  0.30233775  1.0
  Al  Al17  1  0.88098912  0.11901088  0.69766225  1.0
  Al  Al18  1  0.38098912  0.38098912  0.80233775  1.0
  Al  Al19  1  0.38098912  0.38098912  0.19766225  1.0
