# generated using pymatgen
data_Al9Fe2Si4HO24
_symmetry_space_group_name_H-M   'P 1'
_cell_length_a   9.22641874
_cell_length_b   9.22641874
_cell_length_c   5.74458674
_cell_angle_alpha   89.54180728
_cell_angle_beta   90.45819272
_cell_angle_gamma   50.37390701
_symmetry_Int_Tables_number   1
_chemical_formula_structural   Al9Fe2Si4HO24
_chemical_formula_sum   'Al9 Fe2 Si4 H1 O24'
_cell_volume   376.58657916
_cell_formula_units_Z   1
loop_
 _symmetry_equiv_pos_site_id
 _symmetry_equiv_pos_as_xyz
  1  'x, y, z'
loop_
 _atom_site_type_symbol
 _atom_site_label
 _atom_site_symmetry_multiplicity
 _atom_site_fract_x
 _atom_site_fract_y
 _atom_site_fract_z
 _atom_site_occupancy
  Fe  Fe0  1  0.64071520  -0.64071520  0.72613633  1.0
  Fe  Fe1  1  0.35928480  -0.35928480  0.27386367  1.0
  Si  Si2  1  0.69497147  -0.03225391  0.76128630  1.0
  Si  Si3  1  1.03225391  -0.69497147  0.76128630  1.0
  Si  Si4  1  0.96774609  -0.30502853  0.23871370  1.0
  Si  Si5  1  0.30502853  0.03225391  0.23871370  1.0
  Al  Al6  1  0.00000000  0.00000000  0.00000000  1.0
  Al  Al7  1  0.31835091  -0.14345606  0.73764866  1.0
  Al  Al8  1  1.14345606  -0.31835091  0.73764866  1.0
  Al  Al9  1  0.85654394  -0.68164909  0.26235134  1.0
  Al  Al10  1  0.68164909  0.14345606  0.26235134  1.0
  Al  Al11  1  0.67235346  -0.32764654  0.50000000  1.0
  Al  Al12  1  0.32764654  0.32764654  0.50000000  1.0
  Al  Al13  1  0.66979998  -0.33020002  -0.00000000  1.0
  Al  Al14  1  0.33020002  0.33020002  0.00000000  1.0
  O  O15  1  0.90404027  -0.09019596  0.77847606  1.0
  O  O16  1  0.09019596  0.09595973  0.77847606  1.0
  O  O17  1  0.90980404  -0.09595973  0.22152394  1.0
  O  O18  1  0.09595973  0.09019596  0.22152394  1.0
  O  O19  1  0.72338035  -0.22853557  0.75084827  1.0
  O  O20  1  0.22853557  0.27661965  0.75084827  1.0
  O  O21  1  0.77146443  -0.27661965  0.24915173  1.0
  O  O22  1  0.27661965  0.22853557  0.24915173  1.0
  O  O23  1  0.56634245  -0.37729718  0.74359894  1.0
  O  O24  1  0.37729718  0.43365755  0.74359894  1.0
  O  O25  1  0.62270282  -0.43365755  0.25640106  1.0
  O  O26  1  0.43365755  0.37729718  0.25640106  1.0
  O  O27  1  0.57733232  0.09853372  0.98831414  1.0
  O  O28  1  0.90146628  -0.57733232  0.98831414  1.0
  O  O29  1  1.09853372  -0.42266768  0.01168586  1.0
  O  O30  1  0.42266768  -0.09853372  0.01168586  1.0
  O  O31  1  0.58495283  0.09437720  0.52170539  1.0
  O  O32  1  0.90562280  -0.58495283  0.52170539  1.0
  O  O33  1  1.09437720  -0.41504717  0.47829461  1.0
  O  O34  1  0.41504717  -0.09437720  0.47829461  1.0
  O  O35  1  0.22842755  -0.22842755  0.95887279  1.0
  O  O36  1  0.77157245  -0.77157245  0.04112721  1.0
  O  O37  1  0.82180274  -0.82180274  0.47370896  1.0
  O  O38  1  0.17819726  -0.17819726  0.52629104  1.0
  H  H39  1  -0.00000000  0.00000000  0.50000000  1.0
