# generated using pymatgen
data_FeS
_symmetry_space_group_name_H-M   'P 1'
_cell_length_a   5.17744528
_cell_length_b   3.32063629
_cell_length_c   5.56770062
_cell_angle_alpha   90.00000000
_cell_angle_beta   90.00000000
_cell_angle_gamma   90.00000000
_symmetry_Int_Tables_number   1
_chemical_formula_structural   FeS
_chemical_formula_sum   'Fe4 S4'
_cell_volume   95.72220679
_cell_formula_units_Z   4
loop_
 _symmetry_equiv_pos_site_id
 _symmetry_equiv_pos_as_xyz
  1  'x, y, z'
loop_
 _atom_site_type_symbol
 _atom_site_label
 _atom_site_symmetry_multiplicity
 _atom_site_fract_x
 _atom_site_fract_y
 _atom_site_fract_z
 _atom_site_occupancy
  Fe  Fe0  1  0.98687039  0.75000000  0.20416743  1.0
  Fe  Fe1  1  0.48687039  0.75000000  0.29583257  1.0
  Fe  Fe2  1  0.01312961  0.25000000  0.79583257  1.0
  Fe  Fe3  1  0.51312961  0.25000000  0.70416743  1.0
  S  S4  1  0.78498473  0.75000000  0.58306801  1.0
  S  S5  1  0.28498473  0.75000000  0.91693199  1.0
  S  S6  1  0.21501527  0.25000000  0.41693199  1.0
  S  S7  1  0.71501527  0.25000000  0.08306801  1.0
