# generated using pymatgen
data_B3Os2
_symmetry_space_group_name_H-M   'P 1'
_cell_length_a   2.93809344
_cell_length_b   2.93809344
_cell_length_c   12.92563814
_cell_angle_alpha   90.00000000
_cell_angle_beta   90.00000000
_cell_angle_gamma   120.00000000
_symmetry_Int_Tables_number   1
_chemical_formula_structural   B3Os2
_chemical_formula_sum   'B6 Os4'
_cell_volume   96.63041206
_cell_formula_units_Z   2
loop_
 _symmetry_equiv_pos_site_id
 _symmetry_equiv_pos_as_xyz
  1  'x, y, z'
loop_
 _atom_site_type_symbol
 _atom_site_label
 _atom_site_symmetry_multiplicity
 _atom_site_fract_x
 _atom_site_fract_y
 _atom_site_fract_z
 _atom_site_occupancy
  B  B0  1  0.33333333  0.66666667  0.46932457  1.0
  B  B1  1  0.33333333  0.66666667  0.03067543  1.0
  B  B2  1  0.66666667  0.33333333  0.96932457  1.0
  B  B3  1  0.66666667  0.33333333  0.53067543  1.0
  B  B4  1  0.33333333  0.66666667  0.25000000  1.0
  B  B5  1  0.66666667  0.33333333  0.75000000  1.0
  Os  Os6  1  0.33333333  0.66666667  0.86017276  1.0
  Os  Os7  1  0.33333333  0.66666667  0.63982724  1.0
  Os  Os8  1  0.66666667  0.33333333  0.36017276  1.0
  Os  Os9  1  0.66666667  0.33333333  0.13982724  1.0
