# generated using pymatgen
data_CaVAgO4
_symmetry_space_group_name_H-M   'P 1'
_cell_length_a   7.11054671
_cell_length_b   5.99284038
_cell_length_c   9.43622684
_cell_angle_alpha   90.00000000
_cell_angle_beta   90.00000000
_cell_angle_gamma   90.00000000
_symmetry_Int_Tables_number   1
_chemical_formula_structural   CaVAgO4
_chemical_formula_sum   'Ca4 V4 Ag4 O16'
_cell_volume   402.10000325
_cell_formula_units_Z   4
loop_
 _symmetry_equiv_pos_site_id
 _symmetry_equiv_pos_as_xyz
  1  'x, y, z'
loop_
 _atom_site_type_symbol
 _atom_site_label
 _atom_site_symmetry_multiplicity
 _atom_site_fract_x
 _atom_site_fract_y
 _atom_site_fract_z
 _atom_site_occupancy
  Ca  Ca0  1  0.49997868  0.25000000  0.24984528  1.0
  Ca  Ca1  1  0.00002132  0.75000000  0.74984528  1.0
  Ca  Ca2  1  0.99997868  0.25000000  0.25015472  1.0
  Ca  Ca3  1  0.50002132  0.75000000  0.75015472  1.0
  V  V4  1  0.74996293  0.25000000  0.89577799  1.0
  V  V5  1  0.75003707  0.75000000  0.39577799  1.0
  V  V6  1  0.24996293  0.25000000  0.60422201  1.0
  V  V7  1  0.25003707  0.75000000  0.10422201  1.0
  Ag  Ag8  1  0.74973218  0.25000000  0.56110195  1.0
  Ag  Ag9  1  0.75026782  0.75000000  0.06110195  1.0
  Ag  Ag10  1  0.24973218  0.25000000  0.93889805  1.0
  Ag  Ag11  1  0.25026782  0.75000000  0.43889805  1.0
  O  O12  1  0.05590354  0.25000000  0.49769887  1.0
  O  O13  1  0.44409646  0.75000000  -0.00230113  1.0
  O  O14  1  0.55590354  0.25000000  1.00230113  1.0
  O  O15  1  0.94409646  0.75000000  0.50230113  1.0
  O  O16  1  0.74991083  0.50928156  0.28944132  1.0
  O  O17  1  0.75008917  0.49071844  0.78944132  1.0
  O  O18  1  0.24991083  0.99071844  0.21055868  1.0
  O  O19  1  0.25008917  0.00928156  0.71055868  1.0
  O  O20  1  0.25008917  0.49071844  0.71055868  1.0
  O  O21  1  0.24991083  0.50928156  0.21055868  1.0
  O  O22  1  0.75008917  0.00928156  0.78944132  1.0
  O  O23  1  0.74991083  0.99071844  0.28944132  1.0
  O  O24  1  0.94370867  0.25000000  0.00264739  1.0
  O  O25  1  0.55629133  0.75000000  0.50264739  1.0
  O  O26  1  0.44370867  0.25000000  0.49735261  1.0
  O  O27  1  0.05629133  0.75000000  0.99735261  1.0
