# generated using pymatgen
data_Lu2PbS4
_symmetry_space_group_name_H-M   'P 1'
_cell_length_a   12.12625482
_cell_length_b   3.90915042
_cell_length_c   14.10060458
_cell_angle_alpha   90.00000000
_cell_angle_beta   90.00000000
_cell_angle_gamma   90.00000000
_symmetry_Int_Tables_number   1
_chemical_formula_structural   Lu2PbS4
_chemical_formula_sum   'Lu8 Pb4 S16'
_cell_volume   668.41595279
_cell_formula_units_Z   4
loop_
 _symmetry_equiv_pos_site_id
 _symmetry_equiv_pos_as_xyz
  1  'x, y, z'
loop_
 _atom_site_type_symbol
 _atom_site_label
 _atom_site_symmetry_multiplicity
 _atom_site_fract_x
 _atom_site_fract_y
 _atom_site_fract_z
 _atom_site_occupancy
  Lu  Lu0  1  0.91396913  0.75000000  0.40472074  1.0
  Lu  Lu1  1  0.41396913  0.75000000  0.09527926  1.0
  Lu  Lu2  1  0.08603087  0.25000000  0.59527926  1.0
  Lu  Lu3  1  0.58603087  0.25000000  0.90472074  1.0
  Lu  Lu4  1  0.43996593  0.75000000  0.61433242  1.0
  Lu  Lu5  1  0.93996593  0.75000000  0.88566758  1.0
  Lu  Lu6  1  0.56003407  0.25000000  0.38566758  1.0
  Lu  Lu7  1  0.06003407  0.25000000  0.11433242  1.0
  Pb  Pb8  1  0.74773003  0.75000000  0.66815660  1.0
  Pb  Pb9  1  0.24773003  0.75000000  0.83184340  1.0
  Pb  Pb10  1  0.25226997  0.25000000  0.33184340  1.0
  Pb  Pb11  1  0.75226997  0.25000000  0.16815660  1.0
  S  S12  1  0.91195132  0.75000000  0.07316780  1.0
  S  S13  1  0.41195132  0.75000000  0.42683220  1.0
  S  S14  1  0.08804868  0.25000000  0.92683220  1.0
  S  S15  1  0.58804868  0.25000000  0.57316780  1.0
  S  S16  1  0.70255472  0.75000000  0.33497350  1.0
  S  S17  1  0.20255472  0.75000000  0.16502650  1.0
  S  S18  1  0.29744528  0.25000000  0.66502650  1.0
  S  S19  1  0.79744528  0.25000000  0.83497350  1.0
  S  S20  1  0.62334210  0.75000000  0.03262086  1.0
  S  S21  1  0.12334210  0.75000000  0.46737914  1.0
  S  S22  1  0.37665790  0.25000000  0.96737914  1.0
  S  S23  1  0.87665790  0.25000000  0.53262086  1.0
  S  S24  1  0.53950923  0.75000000  0.78298227  1.0
  S  S25  1  0.03950923  0.75000000  0.71701773  1.0
  S  S26  1  0.46049077  0.25000000  0.21701773  1.0
  S  S27  1  0.96049077  0.25000000  0.28298227  1.0
