# generated using pymatgen
data_AlPO4
_symmetry_space_group_name_H-M   'P 1'
_cell_length_a   5.35051415
_cell_length_b   5.35051415
_cell_length_c   5.35051415
_cell_angle_alpha   60.00000000
_cell_angle_beta   60.00000000
_cell_angle_gamma   60.00000000
_symmetry_Int_Tables_number   1
_chemical_formula_structural   AlPO4
_chemical_formula_sum   'Al1 P1 O4'
_cell_volume   108.31074733
_cell_formula_units_Z   1
loop_
 _symmetry_equiv_pos_site_id
 _symmetry_equiv_pos_as_xyz
  1  'x, y, z'
loop_
 _atom_site_type_symbol
 _atom_site_label
 _atom_site_symmetry_multiplicity
 _atom_site_fract_x
 _atom_site_fract_y
 _atom_site_fract_z
 _atom_site_occupancy
  Al  Al0  1  0.75000000  0.75000000  -0.25000000  1.0
  P  P1  1  -0.00000000  0.00000000  -0.00000000  1.0
  O  O2  1  0.88287427  0.88287427  -0.11712573  1.0
  O  O3  1  0.35137720  0.88287427  -0.11712573  1.0
  O  O4  1  0.88287427  0.88287427  -0.64862280  1.0
  O  O5  1  0.88287427  0.35137720  -0.11712573  1.0
