# generated using pymatgen
data_Sr2PbO4
_symmetry_space_group_name_H-M   'P 1'
_cell_length_a   6.23091565
_cell_length_b   10.21533994
_cell_length_c   3.55842082
_cell_angle_alpha   90.00000000
_cell_angle_beta   90.00000000
_cell_angle_gamma   90.00000000
_symmetry_Int_Tables_number   1
_chemical_formula_structural   Sr2PbO4
_chemical_formula_sum   'Sr4 Pb2 O8'
_cell_volume   226.49676419
_cell_formula_units_Z   2
loop_
 _symmetry_equiv_pos_site_id
 _symmetry_equiv_pos_as_xyz
  1  'x, y, z'
loop_
 _atom_site_type_symbol
 _atom_site_label
 _atom_site_symmetry_multiplicity
 _atom_site_fract_x
 _atom_site_fract_y
 _atom_site_fract_z
 _atom_site_occupancy
  Sr  Sr0  1  0.42514351  0.81882119  0.50000000  1.0
  Sr  Sr1  1  0.92514351  0.68117881  0.50000000  1.0
  Sr  Sr2  1  0.57485649  0.18117881  0.50000000  1.0
  Sr  Sr3  1  0.07485649  0.31882119  0.50000000  1.0
  Pb  Pb4  1  0.50000000  0.50000000  0.00000000  1.0
  Pb  Pb5  1  0.00000000  0.00000000  0.00000000  1.0
  O  O6  1  0.27318119  0.55081761  0.50000000  1.0
  O  O7  1  0.77318119  0.94918239  0.50000000  1.0
  O  O8  1  0.72681881  0.44918239  0.50000000  1.0
  O  O9  1  0.22681881  0.05081761  0.50000000  1.0
  O  O10  1  0.13501912  0.80516740  0.00000000  1.0
  O  O11  1  0.63501912  0.69483260  0.00000000  1.0
  O  O12  1  0.86498088  0.19483260  0.00000000  1.0
  O  O13  1  0.36498088  0.30516740  0.00000000  1.0
