# generated using pymatgen
data_C
_symmetry_space_group_name_H-M   'P 1'
_cell_length_a   4.76667905
_cell_length_b   4.76667905
_cell_length_c   4.14810366
_cell_angle_alpha   83.21953273
_cell_angle_beta   96.78046727
_cell_angle_gamma   149.28919383
_symmetry_Int_Tables_number   1
_chemical_formula_structural   C
_chemical_formula_sum   C8
_cell_volume   47.77181963
_cell_formula_units_Z   8
loop_
 _symmetry_equiv_pos_site_id
 _symmetry_equiv_pos_as_xyz
  1  'x, y, z'
loop_
 _atom_site_type_symbol
 _atom_site_label
 _atom_site_symmetry_multiplicity
 _atom_site_fract_x
 _atom_site_fract_y
 _atom_site_fract_z
 _atom_site_occupancy
  C  C0  1  1.05730617  -0.05730617  0.87960493  1.0
  C  C1  1  0.94269383  -0.94269383  0.12039507  1.0
  C  C2  1  0.55820910  -0.55820910  0.65366461  1.0
  C  C3  1  1.44179090  -0.44179090  0.34633539  1.0
  C  C4  1  1.21433990  -0.21433990  0.05928005  1.0
  C  C5  1  0.78566010  -0.78566010  0.94071995  1.0
  C  C6  1  0.72868823  -0.72868823  0.58535355  1.0
  C  C7  1  1.27131177  -0.27131177  0.41464645  1.0
