# generated using pymatgen
data_Hf(Ni2P)2
_symmetry_space_group_name_H-M   'P 1'
_cell_length_a   6.92812314
_cell_length_b   6.92812314
_cell_length_c   3.56911413
_cell_angle_alpha   90.00000000
_cell_angle_beta   90.00000000
_cell_angle_gamma   90.00000000
_symmetry_Int_Tables_number   1
_chemical_formula_structural   Hf(Ni2P)2
_chemical_formula_sum   'Hf2 Ni8 P4'
_cell_volume   171.31351755
_cell_formula_units_Z   2
loop_
 _symmetry_equiv_pos_site_id
 _symmetry_equiv_pos_as_xyz
  1  'x, y, z'
loop_
 _atom_site_type_symbol
 _atom_site_label
 _atom_site_symmetry_multiplicity
 _atom_site_fract_x
 _atom_site_fract_y
 _atom_site_fract_z
 _atom_site_occupancy
  Hf  Hf0  1  0.50000000  0.50000000  0.50000000  1.0
  Hf  Hf1  1  0.00000000  0.00000000  0.00000000  1.0
  Ni  Ni2  1  0.33264868  0.08355532  0.50000000  1.0
  Ni  Ni3  1  0.83264868  0.41644468  0.00000000  1.0
  Ni  Ni4  1  0.91644468  0.66735132  0.50000000  1.0
  Ni  Ni5  1  0.41644468  0.83264868  0.00000000  1.0
  Ni  Ni6  1  0.66735132  0.91644468  0.50000000  1.0
  Ni  Ni7  1  0.16735132  0.58355532  0.00000000  1.0
  Ni  Ni8  1  0.08355532  0.33264868  0.50000000  1.0
  Ni  Ni9  1  0.58355532  0.16735132  0.00000000  1.0
  P  P10  1  0.21937956  0.78062044  0.50000000  1.0
  P  P11  1  0.71937956  0.71937956  0.00000000  1.0
  P  P12  1  0.78062044  0.21937956  0.50000000  1.0
  P  P13  1  0.28062044  0.28062044  0.00000000  1.0
