# generated using pymatgen
data_La3BeAlS7
_symmetry_space_group_name_H-M   'P 1'
_cell_length_a   10.01301683
_cell_length_b   10.01301683
_cell_length_c   6.44546129
_cell_angle_alpha   90.00000000
_cell_angle_beta   90.00000000
_cell_angle_gamma   120.00000000
_symmetry_Int_Tables_number   1
_chemical_formula_structural   La3BeAlS7
_chemical_formula_sum   'La6 Be2 Al2 S14'
_cell_volume   559.64744863
_cell_formula_units_Z   2
loop_
 _symmetry_equiv_pos_site_id
 _symmetry_equiv_pos_as_xyz
  1  'x, y, z'
loop_
 _atom_site_type_symbol
 _atom_site_label
 _atom_site_symmetry_multiplicity
 _atom_site_fract_x
 _atom_site_fract_y
 _atom_site_fract_z
 _atom_site_occupancy
  La  La0  1  0.77573291  0.62463378  0.22855747  1.0
  La  La1  1  0.62463378  0.84890087  0.72855747  1.0
  La  La2  1  0.84890087  0.22426709  0.22855747  1.0
  La  La3  1  0.37536622  0.15109913  0.22855747  1.0
  La  La4  1  0.22426709  0.37536622  0.72855747  1.0
  La  La5  1  0.15109913  0.77573291  0.72855747  1.0
  Be  Be6  1  0.00000000  0.00000000  -0.16250986  1.0
  Be  Be7  1  0.00000000  0.00000000  0.33749014  1.0
  Al  Al8  1  0.33333333  0.66666667  0.15162684  1.0
  Al  Al9  1  0.66666667  0.33333333  0.65162684  1.0
  S  S10  1  0.42769451  0.90348151  0.00691370  1.0
  S  S11  1  0.90348151  0.47578700  0.50691370  1.0
  S  S12  1  0.47578700  0.57230549  0.00691370  1.0
  S  S13  1  0.09651849  0.52421300  0.00691370  1.0
  S  S14  1  0.57230549  0.09651849  0.50691370  1.0
  S  S15  1  0.52421300  0.42769451  0.50691370  1.0
  S  S16  1  0.09541672  0.86406110  0.31069647  1.0
  S  S17  1  0.86406110  0.76864438  0.81069648  1.0
  S  S18  1  0.76864438  0.90458328  0.31069647  1.0
  S  S19  1  0.13593890  0.23135562  0.31069647  1.0
  S  S20  1  0.90458328  0.13593890  0.81069648  1.0
  S  S21  1  0.23135562  0.09541672  0.81069648  1.0
  S  S22  1  0.33333333  0.66666667  0.50338010  1.0
  S  S23  1  0.66666667  0.33333333  0.00338010  1.0
