# generated using pymatgen
data_K4GeTe4(H2O)2
_symmetry_space_group_name_H-M   'P 1'
_cell_length_a   10.62862447
_cell_length_b   10.62862447
_cell_length_c   14.06128046
_cell_angle_alpha   52.46043442
_cell_angle_beta   127.53956558
_cell_angle_gamma   137.95295725
_symmetry_Int_Tables_number   1
_chemical_formula_structural   K4GeTe4(H2O)2
_chemical_formula_sum   'K8 Ge2 Te8 H8 O4'
_cell_volume   805.94366974
_cell_formula_units_Z   2
loop_
 _symmetry_equiv_pos_site_id
 _symmetry_equiv_pos_as_xyz
  1  'x, y, z'
loop_
 _atom_site_type_symbol
 _atom_site_label
 _atom_site_symmetry_multiplicity
 _atom_site_fract_x
 _atom_site_fract_y
 _atom_site_fract_z
 _atom_site_occupancy
  K  K0  1  1.81500498  0.13814659  0.51481905  1.0
  K  K1  1  0.86185341  -0.81500498  0.01481905  1.0
  K  K2  1  1.13814659  0.81500498  0.98518095  1.0
  K  K3  1  0.18499502  -0.13814659  0.48518095  1.0
  K  K4  1  0.40980911  0.24025604  0.64784604  1.0
  K  K5  1  0.75974396  -0.40980911  0.14784604  1.0
  K  K6  1  1.24025604  0.40980911  0.85215396  1.0
  K  K7  1  1.59019089  -0.24025604  0.35215396  1.0
  Ge  Ge8  1  0.64692618  0.64692618  0.75000000  1.0
  Ge  Ge9  1  0.35307382  0.35307382  0.25000000  1.0
  Te  Te10  1  1.78202663  -0.09706207  0.83338969  1.0
  Te  Te11  1  1.09706207  -0.78202663  0.33338969  1.0
  Te  Te12  1  0.90293793  0.78202663  0.66661031  1.0
  Te  Te13  1  0.21797337  0.09706207  0.16661031  1.0
  Te  Te14  1  0.58196417  0.32258823  0.93703608  1.0
  Te  Te15  1  0.67741177  0.41803583  0.43703608  1.0
  Te  Te16  1  1.32258823  -0.41803583  0.56296392  1.0
  Te  Te17  1  1.41803583  -0.32258823  0.06296392  1.0
  H  H18  1  0.49686448  -0.09125823  0.75519300  1.0
  H  H19  1  1.09125823  -0.49686448  0.25519300  1.0
  H  H20  1  0.90874177  0.49686448  0.74480700  1.0
  H  H21  1  1.50313552  0.09125823  0.24480700  1.0
  H  H22  1  0.33614445  -0.18546645  0.80305603  1.0
  H  H23  1  1.18546645  -0.33614445  0.30305603  1.0
  H  H24  1  0.81453355  0.33614445  0.69694397  1.0
  H  H25  1  1.66385555  0.18546645  0.19694397  1.0
  O  O26  1  0.37953880  -0.10027847  0.72748116  1.0
  O  O27  1  1.10027847  -0.37953880  0.22748116  1.0
  O  O28  1  0.89972153  0.37953880  0.77251884  1.0
  O  O29  1  1.62046120  0.10027847  0.27251884  1.0
