# generated using pymatgen
data_Ba3NbGa3(SiO7)2
_symmetry_space_group_name_H-M   'P 1'
_cell_length_a   8.63044099
_cell_length_b   8.63044099
_cell_length_c   5.24679545
_cell_angle_alpha   90.00000000
_cell_angle_beta   90.00000000
_cell_angle_gamma   120.00000000
_symmetry_Int_Tables_number   1
_chemical_formula_structural   Ba3NbGa3(SiO7)2
_chemical_formula_sum   'Ba3 Nb1 Ga3 Si2 O14'
_cell_volume   338.44705568
_cell_formula_units_Z   1
loop_
 _symmetry_equiv_pos_site_id
 _symmetry_equiv_pos_as_xyz
  1  'x, y, z'
loop_
 _atom_site_type_symbol
 _atom_site_label
 _atom_site_symmetry_multiplicity
 _atom_site_fract_x
 _atom_site_fract_y
 _atom_site_fract_z
 _atom_site_occupancy
  Ba  Ba0  1  0.42781804  0.42781804  0.00000000  1.0
  Ba  Ba1  1  -0.00000000  0.57218196  0.00000000  1.0
  Ba  Ba2  1  0.57218196  0.00000000  0.00000000  1.0
  Nb  Nb3  1  0.00000000  0.00000000  0.00000000  1.0
  Ga  Ga4  1  0.74288061  0.74288061  0.50000000  1.0
  Ga  Ga5  1  -0.00000000  0.25711939  0.50000000  1.0
  Ga  Ga6  1  0.25711939  0.00000000  0.50000000  1.0
  Si  Si7  1  0.33333333  0.66666667  0.52013091  1.0
  Si  Si8  1  0.66666667  0.33333333  0.47986909  1.0
  O  O9  1  0.10765882  0.89124501  0.22548523  1.0
  O  O10  1  0.89124501  0.10765882  0.77451477  1.0
  O  O11  1  0.78358618  0.89234118  0.22548523  1.0
  O  O12  1  0.10875499  0.21641382  0.22548523  1.0
  O  O13  1  0.89234118  0.78358618  0.77451477  1.0
  O  O14  1  0.21641382  0.10875499  0.77451477  1.0
  O  O15  1  0.69845115  0.52387038  0.35215063  1.0
  O  O16  1  0.52387038  0.69845115  0.64784937  1.0
  O  O17  1  0.82541923  0.30154885  0.35215063  1.0
  O  O18  1  0.47612962  0.17458077  0.35215063  1.0
  O  O19  1  0.30154885  0.82541923  0.64784937  1.0
  O  O20  1  0.17458077  0.47612962  0.64784937  1.0
  O  O21  1  0.33333333  0.66666667  0.21341229  1.0
  O  O22  1  0.66666667  0.33333333  0.78658771  1.0
