# generated using pymatgen
data_Ca2P4PdO8
_symmetry_space_group_name_H-M   'P 1'
_cell_length_a   11.25377682
_cell_length_b   8.85878335
_cell_length_c   8.85441385
_cell_angle_alpha   78.88935351
_cell_angle_beta   50.57250261
_cell_angle_gamma   50.53814388
_symmetry_Int_Tables_number   1
_chemical_formula_structural   Ca2P4PdO8
_chemical_formula_sum   'Ca4 P8 Pd2 O16'
_cell_volume   492.38993875
_cell_formula_units_Z   2
loop_
 _symmetry_equiv_pos_site_id
 _symmetry_equiv_pos_as_xyz
  1  'x, y, z'
loop_
 _atom_site_type_symbol
 _atom_site_label
 _atom_site_symmetry_multiplicity
 _atom_site_fract_x
 _atom_site_fract_y
 _atom_site_fract_z
 _atom_site_occupancy
  Ca  Ca0  1  0.62500000  -0.37500000  1.12500000  1.0
  Ca  Ca1  1  -0.37500000  1.12500000  0.62500000  1.0
  Ca  Ca2  1  -0.37500000  0.62500000  0.62500000  1.0
  Ca  Ca3  1  1.12500000  -0.37500000  0.62500000  1.0
  P  P4  1  0.64438933  0.19883857  1.19874971  1.0
  P  P5  1  -0.04197760  0.19874971  0.19883857  1.0
  P  P6  1  0.05116143  0.60561067  0.29197760  1.0
  P  P7  1  0.05125029  0.29197760  0.60561067  1.0
  P  P8  1  0.19874971  -0.04197760  1.64438933  1.0
  P  P9  1  0.19883857  0.64438933  -0.04197760  1.0
  P  P10  1  -0.70802240  1.05125029  1.05116143  1.0
  P  P11  1  -0.39438933  1.05116143  1.05125029  1.0
  Pd  Pd12  1  -0.00000000  0.00000000  0.00000000  1.0
  Pd  Pd13  1  0.25000000  0.25000000  1.25000000  1.0
  O  O14  1  -0.15903960  0.19529702  0.42142157  1.0
  O  O15  1  0.54232101  0.42142157  1.19529702  1.0
  O  O16  1  0.05470298  0.40903960  0.70767899  1.0
  O  O17  1  -0.17142157  0.70767899  0.40903960  1.0
  O  O18  1  0.42142157  0.54232101  -0.15903960  1.0
  O  O19  1  0.19529702  -0.15903960  1.54232101  1.0
  O  O20  1  -0.29232101  0.82857843  1.05470298  1.0
  O  O21  1  -0.59096040  1.05470298  0.82857843  1.0
  O  O22  1  0.54201194  0.19575482  1.42148822  1.0
  O  O23  1  -0.15925498  0.42148822  0.19575482  1.0
  O  O24  1  0.05424518  0.70798806  0.40925498  1.0
  O  O25  1  -0.17148822  0.40925498  0.70798806  1.0
  O  O26  1  0.42148822  -0.15925498  1.54201194  1.0
  O  O27  1  0.19575482  0.54201194  -0.15925498  1.0
  O  O28  1  -0.59074502  0.82851178  1.05424518  1.0
  O  O29  1  -0.29201194  1.05424518  0.82851178  1.0
