# generated using pymatgen
data_Ba2GeSe4
_symmetry_space_group_name_H-M   'P 1'
_cell_length_a   7.20815406
_cell_length_b   7.16501089
_cell_length_c   9.22431014
_cell_angle_alpha   90.00000000
_cell_angle_beta   108.50532874
_cell_angle_gamma   90.00000000
_symmetry_Int_Tables_number   1
_chemical_formula_structural   Ba2GeSe4
_chemical_formula_sum   'Ba4 Ge2 Se8'
_cell_volume   451.77051030
_cell_formula_units_Z   2
loop_
 _symmetry_equiv_pos_site_id
 _symmetry_equiv_pos_as_xyz
  1  'x, y, z'
loop_
 _atom_site_type_symbol
 _atom_site_label
 _atom_site_symmetry_multiplicity
 _atom_site_fract_x
 _atom_site_fract_y
 _atom_site_fract_z
 _atom_site_occupancy
  Ba  Ba0  1  0.77794905  0.75000000  0.44973547  1.0
  Ba  Ba1  1  0.22205095  0.25000000  0.55026453  1.0
  Ba  Ba2  1  0.72741492  0.75000000  0.93001205  1.0
  Ba  Ba3  1  0.27258508  0.25000000  0.06998795  1.0
  Ge  Ge4  1  0.21294482  0.75000000  0.29373018  1.0
  Ge  Ge5  1  0.78705518  0.25000000  0.70626982  1.0
  Se  Se6  1  0.00345928  0.99126261  0.76735066  1.0
  Se  Se7  1  0.00345928  0.50873739  0.76735066  1.0
  Se  Se8  1  0.99654072  0.49126261  0.23264934  1.0
  Se  Se9  1  0.99654072  0.00873739  0.23264934  1.0
  Se  Se10  1  0.41162865  0.75000000  0.12963504  1.0
  Se  Se11  1  0.58837135  0.25000000  0.87036496  1.0
  Se  Se12  1  0.37602301  0.75000000  0.56272041  1.0
  Se  Se13  1  0.62397699  0.25000000  0.43727959  1.0
