# generated using pymatgen
data_NaPH2OF6
_symmetry_space_group_name_H-M   'P 1'
_cell_length_a   11.02664563
_cell_length_b   8.28636788
_cell_length_c   6.32809106
_cell_angle_alpha   90.00000000
_cell_angle_beta   90.00000000
_cell_angle_gamma   90.00000000
_symmetry_Int_Tables_number   1
_chemical_formula_structural   NaPH2OF6
_chemical_formula_sum   'Na4 P4 H8 O4 F24'
_cell_volume   578.20301013
_cell_formula_units_Z   4
loop_
 _symmetry_equiv_pos_site_id
 _symmetry_equiv_pos_as_xyz
  1  'x, y, z'
loop_
 _atom_site_type_symbol
 _atom_site_label
 _atom_site_symmetry_multiplicity
 _atom_site_fract_x
 _atom_site_fract_y
 _atom_site_fract_z
 _atom_site_occupancy
  Na  Na0  1  0.25051889  0.25000000  0.75000000  1.0
  Na  Na1  1  0.75051889  0.25000000  0.25000000  1.0
  Na  Na2  1  0.74948111  0.75000000  0.25000000  1.0
  Na  Na3  1  0.24948111  0.75000000  0.75000000  1.0
  P  P4  1  0.50000000  0.50000000  0.50000000  1.0
  P  P5  1  0.50000000  0.00000000  0.00000000  1.0
  P  P6  1  0.00000000  0.50000000  0.50000000  1.0
  P  P7  1  0.00000000  0.00000000  0.00000000  1.0
  H  H8  1  0.32039559  0.50014432  0.06583394  1.0
  H  H9  1  0.32039559  -0.00014432  0.43416606  1.0
  H  H10  1  0.82039559  0.50014432  0.93416606  1.0
  H  H11  1  0.82039559  -0.00014432  0.56583394  1.0
  H  H12  1  0.67960441  1.00014432  0.56583394  1.0
  H  H13  1  0.67960441  0.49985568  0.93416606  1.0
  H  H14  1  0.17960441  1.00014432  0.43416606  1.0
  H  H15  1  0.17960441  0.49985568  0.06583394  1.0
  O  O16  1  0.25000000  0.50000000  0.97189686  1.0
  O  O17  1  0.25000000  0.00000000  0.52810314  1.0
  O  O18  1  0.75000000  0.50000000  0.02810314  1.0
  O  O19  1  0.75000000  0.00000000  0.47189686  1.0
  F  F20  1  0.39671650  0.35817534  0.52646728  1.0
  F  F21  1  0.39671650  0.14182466  0.97353272  1.0
  F  F22  1  0.89671650  0.35817534  0.47353272  1.0
  F  F23  1  0.89671650  0.14182466  0.02646728  1.0
  F  F24  1  0.60328350  0.85817534  0.02646728  1.0
  F  F25  1  0.60328350  0.64182466  0.47353272  1.0
  F  F26  1  0.10328350  0.85817534  0.97353272  1.0
  F  F27  1  0.10328350  0.64182466  0.52646728  1.0
  F  F28  1  0.10543409  0.13896412  -0.02716171  1.0
  F  F29  1  0.10543409  0.36103588  0.52716171  1.0
  F  F30  1  0.60543409  0.13896412  1.02716171  1.0
  F  F31  1  0.60543409  0.36103588  0.47283829  1.0
  F  F32  1  0.89456591  0.63896412  0.47283829  1.0
  F  F33  1  0.89456591  0.86103588  1.02716171  1.0
  F  F34  1  0.39456591  0.63896412  0.52716171  1.0
  F  F35  1  0.39456591  0.86103588  -0.02716171  1.0
  F  F36  1  0.97763754  0.50007717  0.75605342  1.0
  F  F37  1  0.97763754  -0.00007717  0.74394658  1.0
  F  F38  1  0.47763754  0.50007717  0.24394658  1.0
  F  F39  1  0.47763754  -0.00007717  0.25605342  1.0
  F  F40  1  0.02236246  1.00007717  0.25605342  1.0
  F  F41  1  0.02236246  0.49992283  0.24394658  1.0
  F  F42  1  0.52236246  1.00007717  0.74394658  1.0
  F  F43  1  0.52236246  0.49992283  0.75605342  1.0
