# generated using pymatgen
data_CdH8C2S2(N2Cl)2
_symmetry_space_group_name_H-M   'P 1'
_cell_length_a   13.21793328
_cell_length_b   5.96671231
_cell_length_c   7.22683273
_cell_angle_alpha   90.00000000
_cell_angle_beta   90.00000000
_cell_angle_gamma   90.00000000
_symmetry_Int_Tables_number   1
_chemical_formula_structural   CdH8C2S2(N2Cl)2
_chemical_formula_sum   'Cd2 H16 C4 S4 N8 Cl4'
_cell_volume   569.96299085
_cell_formula_units_Z   2
loop_
 _symmetry_equiv_pos_site_id
 _symmetry_equiv_pos_as_xyz
  1  'x, y, z'
loop_
 _atom_site_type_symbol
 _atom_site_label
 _atom_site_symmetry_multiplicity
 _atom_site_fract_x
 _atom_site_fract_y
 _atom_site_fract_z
 _atom_site_occupancy
  Cd  Cd0  1  0.50000000  0.73384465  0.48591324  1.0
  Cd  Cd1  1  0.00000000  0.26615535  -0.01408676  1.0
  H  H2  1  0.33847782  0.39283670  0.54991484  1.0
  H  H3  1  0.83847782  0.60716330  0.04991484  1.0
  H  H4  1  0.66152218  0.39283670  0.54991484  1.0
  H  H5  1  0.16152218  0.60716330  0.04991484  1.0
  H  H6  1  0.29024572  0.67167777  0.03314293  1.0
  H  H7  1  0.79024572  0.32832223  0.53314293  1.0
  H  H8  1  0.70975428  0.67167777  0.03314293  1.0
  H  H9  1  0.20975428  0.32832223  0.53314293  1.0
  H  H10  1  0.12130800  0.87760365  0.60196204  1.0
  H  H11  1  0.62130800  0.12239635  0.10196204  1.0
  H  H12  1  0.87869200  0.87760365  0.60196204  1.0
  H  H13  1  0.37869200  0.12239635  0.10196204  1.0
  H  H14  1  0.08973554  0.59227225  0.58958334  1.0
  H  H15  1  0.58973554  0.40772775  0.08958334  1.0
  H  H16  1  0.91026446  0.59227225  0.58958334  1.0
  H  H17  1  0.41026446  0.40772775  0.08958334  1.0
  C  C18  1  0.24089744  0.66064921  0.57377973  1.0
  C  C19  1  0.74089744  0.33935079  0.07377973  1.0
  C  C20  1  0.75910256  0.66064921  0.57377973  1.0
  C  C21  1  0.25910256  0.33935079  0.07377973  1.0
  S  S22  1  0.32937116  0.87200594  0.60079457  1.0
  S  S23  1  0.82937116  0.12799406  0.10079457  1.0
  S  S24  1  0.67062884  0.87200594  0.60079457  1.0
  S  S25  1  0.17062884  0.12799406  0.10079457  1.0
  N  N26  1  0.26478968  0.44610770  0.54846913  1.0
  N  N27  1  0.76478968  0.55389230  0.04846913  1.0
  N  N28  1  0.73521032  0.44610770  0.54846913  1.0
  N  N29  1  0.23521032  0.55389230  0.04846913  1.0
  N  N30  1  0.14299506  0.71608750  0.58185578  1.0
  N  N31  1  0.64299506  0.28391250  0.08185578  1.0
  N  N32  1  0.85700494  0.71608750  0.58185578  1.0
  N  N33  1  0.35700494  0.28391250  0.08185578  1.0
  Cl  Cl34  1  0.50000000  0.75992691  0.12790578  1.0
  Cl  Cl35  1  0.00000000  0.24007309  0.62790578  1.0
  Cl  Cl36  1  0.50000000  0.30741628  0.52857626  1.0
  Cl  Cl37  1  0.00000000  0.69258372  0.02857626  1.0
