# generated using pymatgen
data_H12C5S2N2O5
_symmetry_space_group_name_H-M   'P 1'
_cell_length_a   6.23397945
_cell_length_b   13.08644412
_cell_length_c   7.52761921
_cell_angle_alpha   75.74842601
_cell_angle_beta   88.66421353
_cell_angle_gamma   88.99363551
_symmetry_Int_Tables_number   1
_chemical_formula_structural   H12C5S2N2O5
_chemical_formula_sum   'H24 C10 S4 N4 O10'
_cell_volume   595.00211550
_cell_formula_units_Z   2
loop_
 _symmetry_equiv_pos_site_id
 _symmetry_equiv_pos_as_xyz
  1  'x, y, z'
loop_
 _atom_site_type_symbol
 _atom_site_label
 _atom_site_symmetry_multiplicity
 _atom_site_fract_x
 _atom_site_fract_y
 _atom_site_fract_z
 _atom_site_occupancy
  H  H0  1  -0.42149523  -0.75625898  -0.70637297  1.0
  H  H1  1  -0.57850477  -0.24374102  -0.29362703  1.0
  H  H2  1  -0.54140306  -0.88467082  -0.66522914  1.0
  H  H3  1  -0.45859694  -0.11532918  -0.33477086  1.0
  H  H4  1  -0.56491859  -0.79470281  -0.88709929  1.0
  H  H5  1  -0.43508141  -0.20529719  -0.11290071  1.0
  H  H6  1  -0.19174631  -0.84270343  -0.25392956  1.0
  H  H7  1  -0.80825369  -0.15729657  -0.74607044  1.0
  H  H8  1  -0.14815862  -0.91637562  -0.42595731  1.0
  H  H9  1  -0.85184138  -0.08362438  -0.57404269  1.0
  H  H10  1  -0.12943499  -0.98250192  -0.18623032  1.0
  H  H11  1  -0.87056500  -0.01749808  -0.81376968  1.0
  H  H12  1  -0.65758361  -0.46905647  -0.30493649  1.0
  H  H13  1  -0.34241639  -0.53094353  -0.69506351  1.0
  H  H14  1  -0.68255474  -0.55489125  -0.07989635  1.0
  H  H15  1  -0.31744526  -0.44510875  -0.92010365  1.0
  H  H16  1  -0.46118055  -0.56994270  -0.22861358  1.0
  H  H17  1  -0.53881945  -0.43005730  -0.77138642  1.0
  H  H18  1  -0.02646674  -0.66256466  -0.11716267  1.0
  H  H19  1  -0.97353326  -0.33743534  -0.88283733  1.0
  H  H20  1  -0.03895673  -0.53806817  -0.27984435  1.0
  H  H21  1  -0.96104327  -0.46193183  -0.72015565  1.0
  H  H22  1  -0.07491532  -0.65592763  -0.35322040  1.0
  H  H23  1  -0.92508468  -0.34407237  -0.64677960  1.0
  C  C24  1  -0.55405265  -0.80168700  -0.73929801  1.0
  C  C25  1  -0.44594735  -0.19831300  -0.26070199  1.0
  C  C26  1  -0.10449514  -0.90823467  -0.29019365  1.0
  C  C27  1  -0.89550486  -0.09176533  -0.70980635  1.0
  C  C28  1  -0.65267971  -0.68887621  -0.38071225  1.0
  C  C29  1  -0.34732029  -0.31112379  -0.61928775  1.0
  C  C30  1  -0.63154104  -0.54996734  -0.22232063  1.0
  C  C31  1  -0.36845896  -0.45003266  -0.77767937  1.0
  C  C32  1  0.01238918  -0.62073491  -0.25965235  1.0
  C  C33  1  -1.01238918  -0.37926509  -0.74034765  1.0
  S  S34  1  -0.79881145  -0.74882480  -0.67406259  1.0
  S  S35  1  -0.20118855  -0.25117520  -0.32593741  1.0
  S  S36  1  -0.82502613  -0.88534392  -0.29212806  1.0
  S  S37  1  -0.17497387  -0.11465608  -0.70787194  1.0
  N  N38  1  -0.79350254  -0.76308791  -0.44154551  1.0
  N  N39  1  -0.20649746  -0.23691209  -0.55845449  1.0
  N  N40  1  -0.75671092  -0.62369069  -0.29417112  1.0
  N  N41  1  -0.24328908  -0.37630931  -0.70582888  1.0
  O  O42  1  -0.80339531  -0.63549688  -0.74983026  1.0
  O  O43  1  -0.19660469  -0.36450312  -0.25016974  1.0
  O  O44  1  -0.97538093  -0.81250667  -0.70462041  1.0
  O  O45  1  -0.02461907  -0.18749333  -0.29537959  1.0
  O  O46  1  -0.76359824  -0.86919753  -0.11628868  1.0
  O  O47  1  -0.23640176  -0.13080247  -0.88371132  1.0
  O  O48  1  -0.71231797  -0.96360744  -0.36703089  1.0
  O  O49  1  -0.28768203  -0.03639256  -0.63296911  1.0
  O  O50  1  -0.45834303  -0.68965979  -0.41390745  1.0
  O  O51  1  -0.54165697  -0.31034021  -0.58609255  1.0
