# generated using pymatgen
data_Mg3(SiO3)4
_symmetry_space_group_name_H-M   'P 1'
_cell_length_a   10.21221132
_cell_length_b   5.33533507
_cell_length_c   5.38663533
_cell_angle_alpha   60.32401980
_cell_angle_beta   82.08020844
_cell_angle_gamma   86.15477736
_symmetry_Int_Tables_number   1
_chemical_formula_structural   Mg3(SiO3)4
_chemical_formula_sum   'Mg3 Si4 O12'
_cell_volume   252.56655612
_cell_formula_units_Z   1
loop_
 _symmetry_equiv_pos_site_id
 _symmetry_equiv_pos_as_xyz
  1  'x, y, z'
loop_
 _atom_site_type_symbol
 _atom_site_label
 _atom_site_symmetry_multiplicity
 _atom_site_fract_x
 _atom_site_fract_y
 _atom_site_fract_z
 _atom_site_occupancy
  Si  Si0  1  -0.72532625  -0.67287210  -0.90468500  1.0
  Si  Si1  1  -0.27467375  -0.32712790  -0.09531500  1.0
  Si  Si2  1  -0.27465477  -0.99459638  -0.76038187  1.0
  Si  Si3  1  -0.72534523  -0.00540362  -0.23961813  1.0
  O  O4  1  -0.32887395  -0.66102776  -0.91907516  1.0
  O  O5  1  -0.67112605  -0.33897224  -0.08092484  1.0
  O  O6  1  -0.88829832  -0.67376563  -0.86365295  1.0
  O  O7  1  -0.11170168  -0.32623437  -0.13634705  1.0
  O  O8  1  -0.11168848  -0.99180802  -0.80495615  1.0
  O  O9  1  -0.88831152  -0.00819198  -0.19504385  1.0
  O  O10  1  -0.67317103  -0.84457692  -0.58583899  1.0
  O  O11  1  -0.32682897  -0.15542308  -0.41416101  1.0
  O  O12  1  -0.67124459  -0.83366972  -0.09167243  1.0
  O  O13  1  -0.32875541  -0.16633028  -0.90832757  1.0
  O  O14  1  -0.91703721  -0.35125525  -0.52174001  1.0
  O  O15  1  -0.08296279  -0.64874475  -0.47825999  1.0
  Mg  Mg16  1  0.00001251  -0.32323658  -0.85353085  1.0
  Mg  Mg17  1  -1.00001251  -0.67676342  -0.14646915  1.0
  Mg  Mg18  1  0.00000000  0.00000000  -0.50000000  1.0
