# generated using pymatgen
data_Na5Gd4Si4O16F
_symmetry_space_group_name_H-M   'P 1'
_cell_length_a   8.80359181
_cell_length_b   8.80359181
_cell_length_c   8.80359181
_cell_angle_alpha   95.58871981
_cell_angle_beta   95.58871981
_cell_angle_gamma   143.63209455
_symmetry_Int_Tables_number   1
_chemical_formula_structural   Na5Gd4Si4O16F
_chemical_formula_sum   'Na5 Gd4 Si4 O16 F1'
_cell_volume   384.38081108
_cell_formula_units_Z   1
loop_
 _symmetry_equiv_pos_site_id
 _symmetry_equiv_pos_as_xyz
  1  'x, y, z'
loop_
 _atom_site_type_symbol
 _atom_site_label
 _atom_site_symmetry_multiplicity
 _atom_site_fract_x
 _atom_site_fract_y
 _atom_site_fract_z
 _atom_site_occupancy
  Na  Na0  1  0.88155053  0.57638092  0.48335602  1.0
  Na  Na1  1  0.60180549  0.11844947  0.69483039  1.0
  Na  Na2  1  1.09302490  1.39819451  1.51664398  1.0
  Na  Na3  1  0.42361908  0.90697510  1.30516961  1.0
  Na  Na4  1  0.00000000  0.00000000  0.00000000  1.0
  Gd  Gd5  1  0.40737140  0.33964463  0.70131950  1.0
  Gd  Gd6  1  1.29394810  0.59262860  0.93227323  1.0
  Gd  Gd7  1  0.63832514  0.70605190  1.29868050  1.0
  Gd  Gd8  1  0.66035537  1.36167486  1.06772677  1.0
  Si  Si9  1  1.74100322  1.88551027  1.64903153  1.0
  Si  Si10  1  0.90802831  1.25899678  1.14450705  1.0
  Si  Si11  1  1.23647875  1.09197169  0.35096847  1.0
  Si  Si12  1  1.11448973  0.76352125  0.85549295  1.0
  O  O13  1  0.87063073  1.36505943  1.27769545  1.0
  O  O14  1  0.40706472  0.12936927  0.49442870  1.0
  O  O15  1  1.08736398  0.59293528  0.72230455  1.0
  O  O16  1  0.63494057  0.91263602  1.50557130  1.0
  O  O17  1  0.73089758  0.70099380  0.56113203  1.0
  O  O18  1  0.83023445  0.26910242  0.97009622  1.0
  O  O19  1  1.13986177  1.16976555  1.43886797  1.0
  O  O20  1  0.29900620  0.86013823  1.02990378  1.0
  O  O21  1  1.53043611  1.70528081  1.75509462  1.0
  O  O22  1  1.22465851  1.46956389  1.17484470  1.0
  O  O23  1  0.95018619  0.77534149  0.24490538  1.0
  O  O24  1  1.29471919  1.04981381  0.82515530  1.0
  O  O25  1  0.41346747  0.27718541  0.23389581  1.0
  O  O26  1  0.82042834  0.58653253  0.86371794  1.0
  O  O27  1  1.04328960  1.17957166  1.76610419  1.0
  O  O28  1  0.72281459  0.95671040  1.13628206  1.0
  F  F29  1  0.50000000  0.50000000  -0.00000000  1.0
