# generated using pymatgen
data_NaAu(SO4)2
_symmetry_space_group_name_H-M   'P 1'
_cell_length_a   4.80558488
_cell_length_b   8.70640852
_cell_length_c   9.47464661
_cell_angle_alpha   90.00000000
_cell_angle_beta   115.59456596
_cell_angle_gamma   90.00000000
_symmetry_Int_Tables_number   1
_chemical_formula_structural   NaAu(SO4)2
_chemical_formula_sum   'Na2 Au2 S4 O16'
_cell_volume   357.51473102
_cell_formula_units_Z   2
loop_
 _symmetry_equiv_pos_site_id
 _symmetry_equiv_pos_as_xyz
  1  'x, y, z'
loop_
 _atom_site_type_symbol
 _atom_site_label
 _atom_site_symmetry_multiplicity
 _atom_site_fract_x
 _atom_site_fract_y
 _atom_site_fract_z
 _atom_site_occupancy
  Na  Na0  1  -0.00000000  0.50000000  0.50000000  1.0
  Na  Na1  1  0.00000000  -0.00000000  0.00000000  1.0
  Au  Au2  1  0.00000000  0.50000000  0.00000000  1.0
  Au  Au3  1  -0.00000000  0.00000000  0.50000000  1.0
  S  S4  1  0.60470629  0.29574539  0.11014353  1.0
  S  S5  1  0.60470629  0.20425461  0.61014353  1.0
  S  S6  1  0.39529371  0.79574539  0.38985647  1.0
  S  S7  1  0.39529371  0.70425461  0.88985647  1.0
  O  O8  1  0.77062916  0.38932083  0.24783709  1.0
  O  O9  1  0.77062916  0.11067917  0.74783709  1.0
  O  O10  1  0.22937084  0.88932083  0.25216291  1.0
  O  O11  1  0.22937084  0.61067917  0.75216291  1.0
  O  O12  1  0.75195440  0.80159162  0.44515136  1.0
  O  O13  1  0.75195440  0.69840838  0.94515136  1.0
  O  O14  1  0.24804560  0.30159162  0.05484864  1.0
  O  O15  1  0.24804560  0.19840838  0.55484864  1.0
  O  O16  1  0.67533538  0.13206745  0.12223861  1.0
  O  O17  1  0.67533538  0.36793255  0.62223861  1.0
  O  O18  1  0.32466462  0.63206745  0.37776139  1.0
  O  O19  1  0.32466462  0.86793255  0.87776139  1.0
  O  O20  1  0.63828550  0.13632270  0.46585732  1.0
  O  O21  1  0.63828550  0.36367730  0.96585732  1.0
  O  O22  1  0.36171450  0.63632270  0.03414268  1.0
  O  O23  1  0.36171450  0.86367730  0.53414268  1.0
