# generated using pymatgen
data_La2Ni5B4
_symmetry_space_group_name_H-M   'P 1'
_cell_length_a   5.54314216
_cell_length_b   5.54314216
_cell_length_c   6.82579144
_cell_angle_alpha   59.41447010
_cell_angle_beta   120.58552990
_cell_angle_gamma   124.56452913
_symmetry_Int_Tables_number   1
_chemical_formula_structural   La2Ni5B4
_chemical_formula_sum   'La2 Ni5 B4'
_cell_volume   141.33147656
_cell_formula_units_Z   1
loop_
 _symmetry_equiv_pos_site_id
 _symmetry_equiv_pos_as_xyz
  1  'x, y, z'
loop_
 _atom_site_type_symbol
 _atom_site_label
 _atom_site_symmetry_multiplicity
 _atom_site_fract_x
 _atom_site_fract_y
 _atom_site_fract_z
 _atom_site_occupancy
  La  La0  1  0.27472418  -0.27472418  0.85296144  1.0
  La  La1  1  0.72527582  -0.72527582  0.14703856  1.0
  Ni  Ni2  1  1.67142546  -0.17461209  0.62564653  1.0
  Ni  Ni3  1  1.17461209  -0.67142546  0.62564653  1.0
  Ni  Ni4  1  0.82538791  0.67142546  0.37435347  1.0
  Ni  Ni5  1  0.32857454  0.17461209  0.37435347  1.0
  Ni  Ni6  1  0.00000000  0.00000000  0.00000000  1.0
  B  B7  1  0.77832415  0.22167585  0.65966269  1.0
  B  B8  1  1.22167585  -0.22167585  0.34033731  1.0
  B  B9  1  0.59744811  0.40255189  0.63496558  1.0
  B  B10  1  1.40255189  -0.40255189  0.36503442  1.0
