# generated using pymatgen
data_SrH2(SeO3)2
_symmetry_space_group_name_H-M   'P 1'
_cell_length_a   8.23897642
_cell_length_b   7.34139499
_cell_length_c   5.96383725
_cell_angle_alpha   106.85238465
_cell_angle_beta   103.54413589
_cell_angle_gamma   98.22160460
_symmetry_Int_Tables_number   1
_chemical_formula_structural   SrH2(SeO3)2
_chemical_formula_sum   'Sr2 H4 Se4 O12'
_cell_volume   326.89816291
_cell_formula_units_Z   2
loop_
 _symmetry_equiv_pos_site_id
 _symmetry_equiv_pos_as_xyz
  1  'x, y, z'
loop_
 _atom_site_type_symbol
 _atom_site_label
 _atom_site_symmetry_multiplicity
 _atom_site_fract_x
 _atom_site_fract_y
 _atom_site_fract_z
 _atom_site_occupancy
  Sr  Sr0  1  -0.95237370  -0.28091333  -0.66627641  1.0
  Sr  Sr1  1  -0.04762630  -0.71908667  -0.33372359  1.0
  H  H2  1  -0.54789561  -0.96724954  -0.23847362  1.0
  H  H3  1  -0.45210439  -0.03275046  -0.76152638  1.0
  H  H4  1  -0.79837180  -0.94064100  -0.06282202  1.0
  H  H5  1  -0.20162820  -0.05935900  -0.93717798  1.0
  Se  Se6  1  -0.34343795  -0.71202231  -0.92024880  1.0
  Se  Se7  1  -0.65656205  -0.28797769  -0.07975120  1.0
  Se  Se8  1  -0.73950747  -0.74948896  -0.65004263  1.0
  Se  Se9  1  -0.26049253  -0.25051104  -0.34995737  1.0
  O  O10  1  -0.16984731  -0.60459235  -0.97505040  1.0
  O  O11  1  -0.83015269  -0.39540765  -0.02494960  1.0
  O  O12  1  -0.83466856  -0.81832637  -0.98214408  1.0
  O  O13  1  -0.16533144  -0.18167363  -0.01785592  1.0
  O  O14  1  -0.27732846  -0.87223035  -0.77783777  1.0
  O  O15  1  -0.72267154  -0.12776965  -0.22216223  1.0
  O  O16  1  -0.85837052  -0.91516261  -0.57346996  1.0
  O  O17  1  -0.14162948  -0.08483739  -0.42653004  1.0
  O  O18  1  -0.82290615  -0.55331867  -0.55500284  1.0
  O  O19  1  -0.17709385  -0.44668133  -0.44499716  1.0
  O  O20  1  -0.44004821  -0.87952597  -0.23191757  1.0
  O  O21  1  -0.55995179  -0.12047402  -0.76808243  1.0
