# generated using pymatgen
data_Sr2GeN2
_symmetry_space_group_name_H-M   'P 1'
_cell_length_a   6.34424528
_cell_length_b   6.34424528
_cell_length_c   12.27355679
_cell_angle_alpha   90.00000000
_cell_angle_beta   90.00000000
_cell_angle_gamma   129.17997372
_symmetry_Int_Tables_number   1
_chemical_formula_structural   Sr2GeN2
_chemical_formula_sum   'Sr8 Ge4 N8'
_cell_volume   382.93469670
_cell_formula_units_Z   4
loop_
 _symmetry_equiv_pos_site_id
 _symmetry_equiv_pos_as_xyz
  1  'x, y, z'
loop_
 _atom_site_type_symbol
 _atom_site_label
 _atom_site_symmetry_multiplicity
 _atom_site_fract_x
 _atom_site_fract_y
 _atom_site_fract_z
 _atom_site_occupancy
  Sr  Sr0  1  0.04717322  0.95282678  0.64270784  1.0
  Sr  Sr1  1  -0.45282678  0.45282678  0.85729216  1.0
  Sr  Sr2  1  -0.04717322  0.04717322  0.35729216  1.0
  Sr  Sr3  1  0.45282678  0.54717322  0.14270784  1.0
  Sr  Sr4  1  0.35528377  0.64471623  0.55699333  1.0
  Sr  Sr5  1  -0.14471623  0.14471623  0.94300667  1.0
  Sr  Sr6  1  -0.35528377  0.35528377  0.44300667  1.0
  Sr  Sr7  1  0.14471623  0.85528377  0.05699333  1.0
  Ge  Ge8  1  0.23952359  0.76047641  0.81932960  1.0
  Ge  Ge9  1  -0.26047641  0.26047641  0.68067040  1.0
  Ge  Ge10  1  -0.23952359  0.23952359  0.18067040  1.0
  Ge  Ge11  1  0.26047641  0.73952359  0.31932960  1.0
  N  N12  1  0.07864907  0.92135093  0.85842521  1.0
  N  N13  1  -0.42135093  0.42135093  0.64157479  1.0
  N  N14  1  -0.07864907  0.07864907  0.14157479  1.0
  N  N15  1  0.42135093  0.57864907  0.35842521  1.0
  N  N16  1  0.34001843  0.65998157  0.93958055  1.0
  N  N17  1  -0.15998157  0.15998157  0.56041945  1.0
  N  N18  1  -0.34001843  0.34001843  0.06041945  1.0
  N  N19  1  0.15998157  0.84001843  0.43958055  1.0
