# generated using pymatgen
data_Cs2NaAl3F12
_symmetry_space_group_name_H-M   'P 1'
_cell_length_a   7.45179217
_cell_length_b   7.45179217
_cell_length_c   7.45179217
_cell_angle_alpha   57.39849426
_cell_angle_beta   57.39849426
_cell_angle_gamma   57.39849426
_symmetry_Int_Tables_number   1
_chemical_formula_structural   Cs2NaAl3F12
_chemical_formula_sum   'Cs2 Na1 Al3 F12'
_cell_volume   275.07913611
_cell_formula_units_Z   1
loop_
 _symmetry_equiv_pos_site_id
 _symmetry_equiv_pos_as_xyz
  1  'x, y, z'
loop_
 _atom_site_type_symbol
 _atom_site_label
 _atom_site_symmetry_multiplicity
 _atom_site_fract_x
 _atom_site_fract_y
 _atom_site_fract_z
 _atom_site_occupancy
  Cs  Cs0  1  0.87668236  0.87668236  0.87668236  1.0
  Cs  Cs1  1  1.12331764  1.12331764  0.12331764  1.0
  Na  Na2  1  1.50000000  0.50000000  0.50000000  1.0
  Al  Al3  1  0.50000000  -0.00000000  -0.50000000  1.0
  Al  Al4  1  0.50000000  -0.50000000  0.00000000  1.0
  Al  Al5  1  -0.00000000  0.50000000  -0.50000000  1.0
  F  F6  1  1.20327680  1.20327680  0.57749036  1.0
  F  F7  1  1.20327680  1.57749036  0.20327680  1.0
  F  F8  1  1.42250964  0.79672320  -0.20327680  1.0
  F  F9  1  0.79672320  1.42250964  -0.20327680  1.0
  F  F10  1  0.79672320  0.79672320  0.42250964  1.0
  F  F11  1  1.57749036  1.20327680  0.20327680  1.0
  F  F12  1  1.41482862  0.41482862  0.88365756  1.0
  F  F13  1  1.41482862  0.88365756  0.41482862  1.0
  F  F14  1  1.11634244  0.58517138  0.58517138  1.0
  F  F15  1  1.58517138  0.11634244  0.58517138  1.0
  F  F16  1  1.58517138  0.58517138  0.11634244  1.0
  F  F17  1  1.88365756  0.41482862  0.41482862  1.0
