# generated using pymatgen
data_Zr13Pt4
_symmetry_space_group_name_H-M   'P 1'
_cell_length_a   11.64184514
_cell_length_b   11.64184514
_cell_length_c   11.64184514
_cell_angle_alpha   60.00000000
_cell_angle_beta   60.00000000
_cell_angle_gamma   60.00000000
_symmetry_Int_Tables_number   1
_chemical_formula_structural   Zr13Pt4
_chemical_formula_sum   'Zr26 Pt8'
_cell_volume   1115.70776746
_cell_formula_units_Z   2
loop_
 _symmetry_equiv_pos_site_id
 _symmetry_equiv_pos_as_xyz
  1  'x, y, z'
loop_
 _atom_site_type_symbol
 _atom_site_label
 _atom_site_symmetry_multiplicity
 _atom_site_fract_x
 _atom_site_fract_y
 _atom_site_fract_z
 _atom_site_occupancy
  Zr  Zr0  1  0.93768097  -0.56239470  0.68703276  1.0
  Zr  Zr1  1  -0.06231903  0.68703276  0.43760530  1.0
  Zr  Zr2  1  -0.18760530  0.31231903  0.31231903  1.0
  Zr  Zr3  1  0.56296724  0.31231903  0.31231903  1.0
  Zr  Zr4  1  -0.56239470  0.93768097  0.68703276  1.0
  Zr  Zr5  1  0.93768097  -0.06231903  0.68703276  1.0
  Zr  Zr6  1  0.93768097  -0.31296724  0.93768097  1.0
  Zr  Zr7  1  -0.56239470  0.68703276  0.93768097  1.0
  Zr  Zr8  1  0.31231903  -0.18760530  0.31231903  1.0
  Zr  Zr9  1  0.31231903  0.31231903  -0.18760530  1.0
  Zr  Zr10  1  0.56296724  0.31231903  -0.18760530  1.0
  Zr  Zr11  1  0.56296724  -0.18760530  0.31231903  1.0
  Zr  Zr12  1  0.68703276  -0.06231903  0.93768097  1.0
  Zr  Zr13  1  -0.56239470  0.93768097  0.93768097  1.0
  Zr  Zr14  1  0.31231903  0.56296724  -0.18760530  1.0
  Zr  Zr15  1  0.31231903  -0.18760530  0.56296724  1.0
  Zr  Zr16  1  -0.31296724  0.93768097  0.43760530  1.0
  Zr  Zr17  1  0.68703276  -0.56239470  0.93768097  1.0
  Zr  Zr18  1  0.93768097  -0.56239470  0.93768097  1.0
  Zr  Zr19  1  -0.06231903  0.93768097  0.43760530  1.0
  Zr  Zr20  1  0.31231903  0.56296724  0.31231903  1.0
  Zr  Zr21  1  -0.18760530  0.56296724  0.31231903  1.0
  Zr  Zr22  1  -0.18760530  0.31231903  0.56296724  1.0
  Zr  Zr23  1  0.31231903  0.31231903  0.56296724  1.0
  Zr  Zr24  1  0.50000000  0.50000000  -0.50000000  1.0
  Zr  Zr25  1  0.75000000  -0.25000000  0.75000000  1.0
  Pt  Pt26  1  0.66570891  -0.33429109  1.00287326  1.0
  Pt  Pt27  1  0.66570891  0.00287326  0.66570891  1.0
  Pt  Pt28  1  0.58429109  -0.41570891  0.58429109  1.0
  Pt  Pt29  1  1.24712674  -0.41570891  0.58429109  1.0
  Pt  Pt30  1  1.00287326  -0.33429109  0.66570891  1.0
  Pt  Pt31  1  0.66570891  -0.33429109  0.66570891  1.0
  Pt  Pt32  1  0.58429109  0.24712674  0.58429109  1.0
  Pt  Pt33  1  0.58429109  -0.41570891  1.24712674  1.0
