# generated using pymatgen
data_CsCuPSe3
_symmetry_space_group_name_H-M   'P 1'
_cell_length_a   10.20467689
_cell_length_b   13.43415380
_cell_length_c   10.92708986
_cell_angle_alpha   90.00000000
_cell_angle_beta   103.50050962
_cell_angle_gamma   90.00000000
_symmetry_Int_Tables_number   1
_chemical_formula_structural   CsCuPSe3
_chemical_formula_sum   'Cs8 Cu8 P8 Se24'
_cell_volume   1456.61466183
_cell_formula_units_Z   8
loop_
 _symmetry_equiv_pos_site_id
 _symmetry_equiv_pos_as_xyz
  1  'x, y, z'
loop_
 _atom_site_type_symbol
 _atom_site_label
 _atom_site_symmetry_multiplicity
 _atom_site_fract_x
 _atom_site_fract_y
 _atom_site_fract_z
 _atom_site_occupancy
  Cs  Cs0  1  0.87257403  0.15224022  0.33744077  1.0
  Cs  Cs1  1  0.87257403  0.34775978  0.83744077  1.0
  Cs  Cs2  1  0.12742597  0.65224022  0.16255923  1.0
  Cs  Cs3  1  0.12742597  0.84775978  0.66255923  1.0
  Cs  Cs4  1  0.38869350  0.31744669  0.38078185  1.0
  Cs  Cs5  1  0.38869350  0.18255331  0.88078185  1.0
  Cs  Cs6  1  0.61130650  0.81744669  0.11921815  1.0
  Cs  Cs7  1  0.61130650  0.68255331  0.61921815  1.0
  Cu  Cu8  1  0.97512133  0.40230351  0.46318645  1.0
  Cu  Cu9  1  0.97512133  0.09769649  0.96318645  1.0
  Cu  Cu10  1  0.02487867  0.90230351  0.03681355  1.0
  Cu  Cu11  1  0.02487867  0.59769649  0.53681355  1.0
  Cu  Cu12  1  0.45718009  0.45175628  0.09592318  1.0
  Cu  Cu13  1  0.45718009  0.04824372  0.59592318  1.0
  Cu  Cu14  1  0.54281991  0.95175628  0.40407682  1.0
  Cu  Cu15  1  0.54281991  0.54824372  0.90407682  1.0
  P  P16  1  0.78138430  0.45745993  0.16840078  1.0
  P  P17  1  0.78138430  0.04254007  0.66840078  1.0
  P  P18  1  0.21861570  0.95745993  0.33159922  1.0
  P  P19  1  0.21861570  0.54254007  0.83159922  1.0
  P  P20  1  0.71803813  0.96449486  0.83401684  1.0
  P  P21  1  0.71803813  0.53550514  0.33401684  1.0
  P  P22  1  0.28196187  0.46449486  0.66598316  1.0
  P  P23  1  0.28196187  0.03550514  0.16598316  1.0
  Se  Se24  1  0.99123498  0.40827230  0.24712855  1.0
  Se  Se25  1  0.99123498  0.09172770  0.74712855  1.0
  Se  Se26  1  0.00876502  0.90827230  0.25287145  1.0
  Se  Se27  1  0.00876502  0.59172770  0.75287145  1.0
  Se  Se28  1  0.84598680  0.67075294  0.38202003  1.0
  Se  Se29  1  0.84598680  0.82924706  0.88202003  1.0
  Se  Se30  1  0.15401320  0.17075294  0.11797997  1.0
  Se  Se31  1  0.15401320  0.32924706  0.61797997  1.0
  Se  Se32  1  0.74932906  0.42293205  0.48623255  1.0
  Se  Se33  1  0.74932906  0.07706795  0.98623255  1.0
  Se  Se34  1  0.25067094  0.92293205  0.01376745  1.0
  Se  Se35  1  0.25067094  0.57706795  0.51376745  1.0
  Se  Se36  1  0.63623062  0.33340909  0.11440138  1.0
  Se  Se37  1  0.63623062  0.16659091  0.61440138  1.0
  Se  Se38  1  0.36376938  0.83340909  0.38559862  1.0
  Se  Se39  1  0.36376938  0.66659091  0.88559862  1.0
  Se  Se40  1  0.49499983  0.07753699  0.24358360  1.0
  Se  Se41  1  0.49499983  0.42246301  0.74358360  1.0
  Se  Se42  1  0.50500017  0.57753699  0.25641640  1.0
  Se  Se43  1  0.50500017  0.92246301  0.75641640  1.0
  Se  Se44  1  0.22929982  0.07146059  0.48194332  1.0
  Se  Se45  1  0.22929982  0.42853941  0.98194332  1.0
  Se  Se46  1  0.77070018  0.57146059  0.01805668  1.0
  Se  Se47  1  0.77070018  0.92853941  0.51805668  1.0
