# generated using pymatgen
data_KPb
_symmetry_space_group_name_H-M   'P 1'
_cell_length_a   12.69822316
_cell_length_b   12.69822316
_cell_length_c   12.69822316
_cell_angle_alpha   124.99806216
_cell_angle_beta   124.99806216
_cell_angle_gamma   81.54124252
_symmetry_Int_Tables_number   1
_chemical_formula_structural   KPb
_chemical_formula_sum   'K16 Pb16'
_cell_volume   1322.55406285
_cell_formula_units_Z   16
loop_
 _symmetry_equiv_pos_site_id
 _symmetry_equiv_pos_as_xyz
  1  'x, y, z'
loop_
 _atom_site_type_symbol
 _atom_site_label
 _atom_site_symmetry_multiplicity
 _atom_site_fract_x
 _atom_site_fract_y
 _atom_site_fract_z
 _atom_site_occupancy
  K  K0  1  0.75420121  1.37500000  0.87920121  1.0
  K  K1  1  1.25420121  1.37500000  1.37920121  1.0
  K  K2  1  1.62500000  1.50420121  1.37920121  1.0
  K  K3  1  1.12500000  1.74579879  1.12079879  1.0
  K  K4  1  0.99579879  0.87500000  0.62079879  1.0
  K  K5  1  1.49579879  0.87500000  1.12079879  1.0
  K  K6  1  1.62500000  1.00420121  0.87920121  1.0
  K  K7  1  1.12500000  1.24579879  0.62079879  1.0
  K  K8  1  0.87385147  0.87385147  0.24770294  1.0
  K  K9  1  1.37385147  1.12614853  1.00000000  1.0
  K  K10  1  0.12385147  0.62385147  0.74770294  1.0
  K  K11  1  0.62385147  0.87614853  1.50000000  1.0
  K  K12  1  0.87614853  0.37614853  1.25229706  1.0
  K  K13  1  0.37614853  0.12385147  0.50000000  1.0
  K  K14  1  1.62614853  1.62614853  1.75229706  1.0
  K  K15  1  1.12614853  1.37385147  1.00000000  1.0
  Pb  Pb16  1  1.50228372  1.32148627  0.94166652  1.0
  Pb  Pb17  1  1.00228372  1.06061720  0.18079745  1.0
  Pb  Pb18  1  1.57148627  1.25228372  1.44166652  1.0
  Pb  Pb19  1  1.07148627  1.62981975  1.31920255  1.0
  Pb  Pb20  1  1.24771628  0.92851373  0.55833348  1.0
  Pb  Pb21  1  1.74771628  1.18938280  1.31920255  1.0
  Pb  Pb22  1  0.17851373  0.99771628  1.05833348  1.0
  Pb  Pb23  1  0.67851373  0.62018025  1.18079745  1.0
  Pb  Pb24  1  1.87981975  1.82148627  1.81920255  1.0
  Pb  Pb25  1  1.37981975  1.56061720  1.05833348  1.0
  Pb  Pb26  1  1.31061720  0.75228372  0.68079745  1.0
  Pb  Pb27  1  0.81061720  1.12981975  0.55833348  1.0
  Pb  Pb28  1  0.87018025  1.42851373  0.68079745  1.0
  Pb  Pb29  1  1.37018025  1.68938280  1.44166652  1.0
  Pb  Pb30  1  0.43938280  0.49771628  0.81920255  1.0
  Pb  Pb31  1  0.93938280  0.12018025  0.94166652  1.0
