# generated using pymatgen
data_Sr5Cr3O12F
_symmetry_space_group_name_H-M   'P 1'
_cell_length_a   10.08448392
_cell_length_b   10.08448392
_cell_length_c   7.30136934
_cell_angle_alpha   90.00000000
_cell_angle_beta   90.00000000
_cell_angle_gamma   120.00000000
_symmetry_Int_Tables_number   1
_chemical_formula_structural   Sr5Cr3O12F
_chemical_formula_sum   'Sr10 Cr6 O24 F2'
_cell_volume   643.04639050
_cell_formula_units_Z   2
loop_
 _symmetry_equiv_pos_site_id
 _symmetry_equiv_pos_as_xyz
  1  'x, y, z'
loop_
 _atom_site_type_symbol
 _atom_site_label
 _atom_site_symmetry_multiplicity
 _atom_site_fract_x
 _atom_site_fract_y
 _atom_site_fract_z
 _atom_site_occupancy
  Sr  Sr0  1  -0.00164892  0.76229358  0.25000000  1.0
  Sr  Sr1  1  0.76229358  0.76394250  0.75000000  1.0
  Sr  Sr2  1  0.76394250  1.00164892  0.25000000  1.0
  Sr  Sr3  1  0.23770642  0.23605750  0.25000000  1.0
  Sr  Sr4  1  1.00164892  0.23770642  0.75000000  1.0
  Sr  Sr5  1  0.23605750  -0.00164892  0.75000000  1.0
  Sr  Sr6  1  0.33333333  0.66666667  0.49970001  1.0
  Sr  Sr7  1  0.33333333  0.66666667  0.00029999  1.0
  Sr  Sr8  1  0.66666667  0.33333333  -0.00029999  1.0
  Sr  Sr9  1  0.66666667  0.33333333  0.50029999  1.0
  Cr  Cr10  1  0.37381777  0.97180760  0.25000000  1.0
  Cr  Cr11  1  0.97180760  0.59798983  0.75000000  1.0
  Cr  Cr12  1  0.59798983  0.62618223  0.25000000  1.0
  Cr  Cr13  1  0.02819240  0.40201017  0.25000000  1.0
  Cr  Cr14  1  0.62618223  0.02819240  0.75000000  1.0
  Cr  Cr15  1  0.40201017  0.37381777  0.75000000  1.0
  O  O16  1  0.25521256  0.90982520  0.43490313  1.0
  O  O17  1  0.25521256  0.90982520  0.06509687  1.0
  O  O18  1  0.90982520  0.65461265  0.93490313  1.0
  O  O19  1  0.90982520  0.65461265  0.56509687  1.0
  O  O20  1  0.65461265  0.74478744  0.43490313  1.0
  O  O21  1  0.65461265  0.74478744  0.06509687  1.0
  O  O22  1  0.09017480  0.34538735  0.43490313  1.0
  O  O23  1  0.09017480  0.34538735  0.06509687  1.0
  O  O24  1  0.74478744  0.09017480  0.93490313  1.0
  O  O25  1  0.74478744  0.09017480  0.56509687  1.0
  O  O26  1  0.34538735  0.25521256  0.93490313  1.0
  O  O27  1  0.34538735  0.25521256  0.56509687  1.0
  O  O28  1  0.47506897  0.87650743  0.25000000  1.0
  O  O29  1  0.87650743  0.40143846  0.75000000  1.0
  O  O30  1  0.40143846  0.52493103  0.25000000  1.0
  O  O31  1  0.12349257  0.59856154  0.25000000  1.0
  O  O32  1  0.52493103  0.12349257  0.75000000  1.0
  O  O33  1  0.59856154  0.47506897  0.75000000  1.0
  O  O34  1  0.68544701  0.51888560  0.25000000  1.0
  O  O35  1  0.51888560  0.83343859  0.75000000  1.0
  O  O36  1  0.83343859  0.31455299  0.25000000  1.0
  O  O37  1  0.48111440  0.16656141  0.25000000  1.0
  O  O38  1  0.31455299  0.48111440  0.75000000  1.0
  O  O39  1  0.16656141  0.68544701  0.75000000  1.0
  F  F40  1  0.00000000  0.00000000  0.50000000  1.0
  F  F41  1  0.00000000  0.00000000  0.00000000  1.0
