# generated using pymatgen
data_Cr(CuO2)2
_symmetry_space_group_name_H-M   'P 1'
_cell_length_a   6.94409905
_cell_length_b   5.53874617
_cell_length_c   6.94490856
_cell_angle_alpha   66.48999383
_cell_angle_beta   47.00465373
_cell_angle_gamma   66.50535244
_symmetry_Int_Tables_number   1
_chemical_formula_structural   Cr(CuO2)2
_chemical_formula_sum   'Cr2 Cu4 O8'
_cell_volume   175.92876959
_cell_formula_units_Z   2
loop_
 _symmetry_equiv_pos_site_id
 _symmetry_equiv_pos_as_xyz
  1  'x, y, z'
loop_
 _atom_site_type_symbol
 _atom_site_label
 _atom_site_symmetry_multiplicity
 _atom_site_fract_x
 _atom_site_fract_y
 _atom_site_fract_z
 _atom_site_occupancy
  Cr  Cr0  1  0.00000000  0.00000000  0.00000000  1.0
  Cr  Cr1  1  0.25000000  0.25000000  1.25000000  1.0
  Cu  Cu2  1  0.62500000  -0.37500000  1.12500000  1.0
  Cu  Cu3  1  -0.37500000  1.12500000  0.62500000  1.0
  Cu  Cu4  1  -0.37500000  0.62500000  0.62500000  1.0
  Cu  Cu5  1  1.12500000  -0.37500000  0.62500000  1.0
  O  O6  1  -0.08803355  0.33385431  0.42035504  1.0
  O  O7  1  1.33382420  -0.57964496  0.33385431  1.0
  O  O8  1  -0.08385431  0.33803355  -0.08382420  1.0
  O  O9  1  0.82964496  -0.08382420  1.33803355  1.0
  O  O10  1  -0.57964496  1.33382420  0.91196645  1.0
  O  O11  1  0.33385431  -0.08803355  1.33382420  1.0
  O  O12  1  -0.08382420  0.82964496  -0.08385431  1.0
  O  O13  1  0.33803355  -0.08385431  1.82964496  1.0
