# generated using pymatgen
data_TaInS2
_symmetry_space_group_name_H-M   'P 1'
_cell_length_a   3.32715384
_cell_length_b   3.32715384
_cell_length_c   8.94634076
_cell_angle_alpha   90.00000000
_cell_angle_beta   90.00000000
_cell_angle_gamma   120.00000000
_symmetry_Int_Tables_number   1
_chemical_formula_structural   TaInS2
_chemical_formula_sum   'Ta1 In1 S2'
_cell_volume   85.76731868
_cell_formula_units_Z   1
loop_
 _symmetry_equiv_pos_site_id
 _symmetry_equiv_pos_as_xyz
  1  'x, y, z'
loop_
 _atom_site_type_symbol
 _atom_site_label
 _atom_site_symmetry_multiplicity
 _atom_site_fract_x
 _atom_site_fract_y
 _atom_site_fract_z
 _atom_site_occupancy
  Ta  Ta0  1  0.33333333  0.66666667  0.50000000  1.0
  In  In1  1  0.00000000  -0.00000000  0.00000000  1.0
  S  S2  1  0.00000000  0.00000000  0.67478750  1.0
  S  S3  1  -0.00000000  0.00000000  0.32521250  1.0
