# generated using pymatgen
data_CsTe7Mo6
_symmetry_space_group_name_H-M   'P 1'
_cell_length_a   10.46443041
_cell_length_b   10.46443041
_cell_length_c   10.46443041
_cell_angle_alpha   60.27562680
_cell_angle_beta   60.27562680
_cell_angle_gamma   60.27562680
_symmetry_Int_Tables_number   1
_chemical_formula_structural   CsTe7Mo6
_chemical_formula_sum   'Cs2 Te14 Mo12'
_cell_volume   815.32842732
_cell_formula_units_Z   2
loop_
 _symmetry_equiv_pos_site_id
 _symmetry_equiv_pos_as_xyz
  1  'x, y, z'
loop_
 _atom_site_type_symbol
 _atom_site_label
 _atom_site_symmetry_multiplicity
 _atom_site_fract_x
 _atom_site_fract_y
 _atom_site_fract_z
 _atom_site_occupancy
  Cs  Cs0  1  0.38094893  0.38094893  -0.61905107  1.0
  Cs  Cs1  1  0.61905107  0.61905107  -0.38094893  1.0
  Te  Te2  1  0.36921991  0.01881577  -0.24663402  1.0
  Te  Te3  1  1.24663402  -0.36921991  -0.01881577  1.0
  Te  Te4  1  0.98118423  0.24663402  -0.36921991  1.0
  Te  Te5  1  0.63078009  -0.01881577  0.24663402  1.0
  Te  Te6  1  0.75336598  -0.63078009  0.01881577  1.0
  Te  Te7  1  1.01881577  -0.24663402  -0.63078009  1.0
  Te  Te8  1  0.57444937  0.19702423  -0.16378765  1.0
  Te  Te9  1  0.16378765  0.42555063  -0.19702423  1.0
  Te  Te10  1  0.80297577  0.16378765  -0.57444937  1.0
  Te  Te11  1  0.42555063  0.80297577  -0.83621235  1.0
  Te  Te12  1  0.83621235  -0.42555063  0.19702423  1.0
  Te  Te13  1  1.19702423  -0.16378765  -0.42555063  1.0
  Te  Te14  1  0.22505149  0.22505149  0.22505149  1.0
  Te  Te15  1  0.77494851  -0.22505149  -0.22505149  1.0
  Mo  Mo16  1  0.18548260  0.89154024  -0.94406357  1.0
  Mo  Mo17  1  0.94406357  -0.18548260  0.10845976  1.0
  Mo  Mo18  1  1.10845976  -0.05593643  -0.18548260  1.0
  Mo  Mo19  1  0.81451740  0.10845976  -0.05593643  1.0
  Mo  Mo20  1  0.05593643  0.18548260  -0.10845976  1.0
  Mo  Mo21  1  0.89154024  0.05593643  -0.81451740  1.0
  Mo  Mo22  1  0.28802104  0.11855385  0.00005391  1.0
  Mo  Mo23  1  0.99994609  -0.28802104  -0.11855385  1.0
  Mo  Mo24  1  0.88144615  -0.00005391  -0.28802104  1.0
  Mo  Mo25  1  0.71197896  -0.11855385  -0.00005391  1.0
  Mo  Mo26  1  1.00005391  -0.71197896  0.11855385  1.0
  Mo  Mo27  1  1.11855385  0.00005391  -0.71197896  1.0
