# generated using pymatgen
data_Co(PdSe)2
_symmetry_space_group_name_H-M   'P 1'
_cell_length_a   6.60263180
_cell_length_b   6.60263180
_cell_length_c   6.60263180
_cell_angle_alpha   125.78366365
_cell_angle_beta   72.87165025
_cell_angle_gamma   135.21757257
_symmetry_Int_Tables_number   1
_chemical_formula_structural   Co(PdSe)2
_chemical_formula_sum   'Co2 Pd4 Se4'
_cell_volume   160.78488262
_cell_formula_units_Z   2
loop_
 _symmetry_equiv_pos_site_id
 _symmetry_equiv_pos_as_xyz
  1  'x, y, z'
loop_
 _atom_site_type_symbol
 _atom_site_label
 _atom_site_symmetry_multiplicity
 _atom_site_fract_x
 _atom_site_fract_y
 _atom_site_fract_z
 _atom_site_occupancy
  Co  Co0  1  0.25000000  0.25000000  0.00000000  1.0
  Co  Co1  1  0.75000000  0.75000000  -0.00000000  1.0
  Pd  Pd2  1  0.11265577  0.37596265  0.48861842  1.0
  Pd  Pd3  1  0.38734423  0.87596265  1.26330689  1.0
  Pd  Pd4  1  0.61265577  1.12403735  0.73669311  1.0
  Pd  Pd5  1  0.88734423  0.62403735  0.51138158  1.0
  Se  Se6  1  0.35849575  0.29031927  0.64881502  1.0
  Se  Se7  1  0.14150425  0.79031927  0.93182351  1.0
  Se  Se8  1  0.85849575  1.20968073  1.06817649  1.0
  Se  Se9  1  0.64150425  0.70968073  0.35118498  1.0
