# generated using pymatgen
data_Li2S
_symmetry_space_group_name_H-M   'P 1'
_cell_length_a   7.08579870
_cell_length_b   6.79882292
_cell_length_c   3.92224620
_cell_angle_alpha   90.00000000
_cell_angle_beta   90.00000000
_cell_angle_gamma   90.00000000
_symmetry_Int_Tables_number   1
_chemical_formula_structural   Li2S
_chemical_formula_sum   'Li8 S4'
_cell_volume   188.95456600
_cell_formula_units_Z   4
loop_
 _symmetry_equiv_pos_site_id
 _symmetry_equiv_pos_as_xyz
  1  'x, y, z'
loop_
 _atom_site_type_symbol
 _atom_site_label
 _atom_site_symmetry_multiplicity
 _atom_site_fract_x
 _atom_site_fract_y
 _atom_site_fract_z
 _atom_site_occupancy
  Li  Li0  1  0.40799000  0.58333808  0.52114444  1.0
  Li  Li1  1  0.90799000  0.91666192  0.52114444  1.0
  Li  Li2  1  0.59201000  0.41666192  0.02114444  1.0
  Li  Li3  1  0.09201000  0.08333808  0.02114444  1.0
  Li  Li4  1  0.09197450  0.58363436  0.52151423  1.0
  Li  Li5  1  0.59197450  0.91636564  0.52151423  1.0
  Li  Li6  1  0.90802550  0.41636564  0.02151423  1.0
  Li  Li7  1  0.40802550  0.08363436  0.02151423  1.0
  S  S8  1  0.25000466  0.91669900  0.52134133  1.0
  S  S9  1  0.75000466  0.58330100  0.52134133  1.0
  S  S10  1  0.74999534  0.08330100  0.02134133  1.0
  S  S11  1  0.24999534  0.41669900  0.02134133  1.0
