# generated using pymatgen
data_KBrF6
_symmetry_space_group_name_H-M   'P 1'
_cell_length_a   5.18834469
_cell_length_b   5.18834469
_cell_length_c   5.18834469
_cell_angle_alpha   98.39742432
_cell_angle_beta   98.39742432
_cell_angle_gamma   98.39742432
_symmetry_Int_Tables_number   1
_chemical_formula_structural   KBrF6
_chemical_formula_sum   'K1 Br1 F6'
_cell_volume   134.67242161
_cell_formula_units_Z   1
loop_
 _symmetry_equiv_pos_site_id
 _symmetry_equiv_pos_as_xyz
  1  'x, y, z'
loop_
 _atom_site_type_symbol
 _atom_site_label
 _atom_site_symmetry_multiplicity
 _atom_site_fract_x
 _atom_site_fract_y
 _atom_site_fract_z
 _atom_site_occupancy
  K  K0  1  0.50000000  0.50000000  0.50000000  1.0
  Br  Br1  1  0.00000000  0.00000000  0.00000000  1.0
  F  F2  1  1.26280517  0.26280517  -0.07505167  1.0
  F  F3  1  1.26280517  -0.07505167  0.26280517  1.0
  F  F4  1  1.07505167  0.73719483  -0.26280517  1.0
  F  F5  1  0.73719483  1.07505167  -0.26280517  1.0
  F  F6  1  0.73719483  0.73719483  0.07505167  1.0
  F  F7  1  0.92494833  0.26280517  0.26280517  1.0
