# generated using pymatgen
data_Mg(Mo3Se4)2
_symmetry_space_group_name_H-M   'P 1'
_cell_length_a   6.76757534
_cell_length_b   6.76757534
_cell_length_c   6.76757534
_cell_angle_alpha   91.55781507
_cell_angle_beta   91.55781507
_cell_angle_gamma   91.55781507
_symmetry_Int_Tables_number   1
_chemical_formula_structural   Mg(Mo3Se4)2
_chemical_formula_sum   'Mg1 Mo6 Se8'
_cell_volume   309.60542615
_cell_formula_units_Z   1
loop_
 _symmetry_equiv_pos_site_id
 _symmetry_equiv_pos_as_xyz
  1  'x, y, z'
loop_
 _atom_site_type_symbol
 _atom_site_label
 _atom_site_symmetry_multiplicity
 _atom_site_fract_x
 _atom_site_fract_y
 _atom_site_fract_z
 _atom_site_occupancy
  Mg  Mg0  1  -0.00000000  -0.00000000  -0.00000000  1.0
  Mo  Mo1  1  1.44900163  0.57862409  -0.23192183  1.0
  Mo  Mo2  1  0.42137591  1.23192183  -0.44900163  1.0
  Mo  Mo3  1  1.23192183  0.55099837  -0.57862409  1.0
  Mo  Mo4  1  0.55099837  0.42137591  0.23192183  1.0
  Mo  Mo5  1  1.57862409  -0.23192183  0.44900163  1.0
  Mo  Mo6  1  0.76807817  0.44900163  0.57862409  1.0
  Se  Se7  1  0.87280260  0.63185328  0.25604425  1.0
  Se  Se8  1  1.36814672  -0.25604425  0.12719740  1.0
  Se  Se9  1  0.74395575  0.12719740  0.36814672  1.0
  Se  Se10  1  1.12719740  0.36814672  -0.25604425  1.0
  Se  Se11  1  0.63185328  1.25604425  -0.12719740  1.0
  Se  Se12  1  1.25604425  0.87280260  -0.36814672  1.0
  Se  Se13  1  0.77470042  0.77470042  0.77470042  1.0
  Se  Se14  1  0.22529958  0.22529958  0.22529958  1.0
