# generated using pymatgen
data_K2TcH9
_symmetry_space_group_name_H-M   'P 1'
_cell_length_a   9.59438799
_cell_length_b   9.59438799
_cell_length_c   5.62292534
_cell_angle_alpha   90.00000000
_cell_angle_beta   90.00000000
_cell_angle_gamma   120.00000000
_symmetry_Int_Tables_number   1
_chemical_formula_structural   K2TcH9
_chemical_formula_sum   'K6 Tc3 H27'
_cell_volume   448.25743637
_cell_formula_units_Z   3
loop_
 _symmetry_equiv_pos_site_id
 _symmetry_equiv_pos_as_xyz
  1  'x, y, z'
loop_
 _atom_site_type_symbol
 _atom_site_label
 _atom_site_symmetry_multiplicity
 _atom_site_fract_x
 _atom_site_fract_y
 _atom_site_fract_z
 _atom_site_occupancy
  K  K0  1  0.73783532  0.73783532  0.50000000  1.0
  K  K1  1  -0.00000000  0.26216468  0.50000000  1.0
  K  K2  1  0.26216468  0.00000000  0.50000000  1.0
  K  K3  1  0.40846318  0.40846318  0.00000000  1.0
  K  K4  1  0.00000000  0.59153682  0.00000000  1.0
  K  K5  1  0.59153682  0.00000000  0.00000000  1.0
  Tc  Tc6  1  0.33333333  0.66666667  0.50000000  1.0
  Tc  Tc7  1  0.66666667  0.33333333  0.50000000  1.0
  Tc  Tc8  1  0.00000000  0.00000000  0.00000000  1.0
  H  H9  1  0.30797626  0.77485327  0.71613106  1.0
  H  H10  1  0.30797626  0.77485327  0.28386894  1.0
  H  H11  1  0.77485327  0.30797626  0.71613106  1.0
  H  H12  1  0.77485327  0.30797626  0.28386894  1.0
  H  H13  1  0.46687701  0.69202374  0.71613106  1.0
  H  H14  1  0.46687701  0.69202374  0.28386894  1.0
  H  H15  1  0.22514673  0.53312299  0.71613106  1.0
  H  H16  1  0.22514673  0.53312299  0.28386894  1.0
  H  H17  1  0.69202374  0.46687701  0.71613106  1.0
  H  H18  1  0.69202374  0.46687701  0.28386894  1.0
  H  H19  1  0.53312299  0.22514673  0.71613106  1.0
  H  H20  1  0.53312299  0.22514673  0.28386894  1.0
  H  H21  1  0.14525274  0.63155844  0.50000000  1.0
  H  H22  1  0.63155844  0.14525274  0.50000000  1.0
  H  H23  1  0.48630570  0.85474726  0.50000000  1.0
  H  H24  1  0.36844156  0.51369430  0.50000000  1.0
  H  H25  1  0.85474726  0.48630570  0.50000000  1.0
  H  H26  1  0.51369430  0.36844156  0.50000000  1.0
  H  H27  1  0.12565019  0.12565019  0.78995596  1.0
  H  H28  1  0.12565019  0.12565019  0.21004404  1.0
  H  H29  1  0.00000000  0.87434981  0.78995596  1.0
  H  H30  1  0.00000000  0.87434981  0.21004404  1.0
  H  H31  1  0.87434981  0.00000000  0.78995596  1.0
  H  H32  1  0.87434981  0.00000000  0.21004404  1.0
  H  H33  1  0.82674331  0.82674331  0.00000000  1.0
  H  H34  1  -0.00000000  0.17325669  0.00000000  1.0
  H  H35  1  0.17325669  0.00000000  0.00000000  1.0
