# generated using pymatgen
data_Na2Te4WO12
_symmetry_space_group_name_H-M   'P 1'
_cell_length_a   9.31709334
_cell_length_b   9.31709334
_cell_length_c   11.53588414
_cell_angle_alpha   74.37873940
_cell_angle_beta   105.62126060
_cell_angle_gamma   143.29268123
_symmetry_Int_Tables_number   1
_chemical_formula_structural   Na2Te4WO12
_chemical_formula_sum   'Na4 Te8 W2 O24'
_cell_volume   573.97512392
_cell_formula_units_Z   2
loop_
 _symmetry_equiv_pos_site_id
 _symmetry_equiv_pos_as_xyz
  1  'x, y, z'
loop_
 _atom_site_type_symbol
 _atom_site_label
 _atom_site_symmetry_multiplicity
 _atom_site_fract_x
 _atom_site_fract_y
 _atom_site_fract_z
 _atom_site_occupancy
  Na  Na0  1  0.55620880  -0.01753038  0.73012445  1.0
  Na  Na1  1  1.01753038  0.44379120  0.23012445  1.0
  Na  Na2  1  0.98246962  0.55620880  0.76987555  1.0
  Na  Na3  1  0.44379120  0.01753038  0.26987555  1.0
  Te  Te4  1  0.47915120  0.16642411  0.93625204  1.0
  Te  Te5  1  0.83357589  0.52084880  0.43625204  1.0
  Te  Te6  1  1.16642411  0.47915120  0.56374796  1.0
  Te  Te7  1  0.52084880  -0.16642411  0.06374796  1.0
  Te  Te8  1  0.31043254  0.12767009  0.59878030  1.0
  Te  Te9  1  0.87232991  0.68956746  0.09878030  1.0
  Te  Te10  1  1.12767009  0.31043254  0.90121970  1.0
  Te  Te11  1  0.68956746  -0.12767009  0.40121970  1.0
  W  W12  1  0.67281428  0.67281428  0.75000000  1.0
  W  W13  1  0.32718572  0.32718572  0.25000000  1.0
  O  O14  1  0.84706894  -0.11261784  0.85788821  1.0
  O  O15  1  1.11261784  0.15293106  0.35788821  1.0
  O  O16  1  0.88738216  0.84706894  0.64211179  1.0
  O  O17  1  0.15293106  0.11261784  0.14211179  1.0
  O  O18  1  0.50172316  -0.27914390  0.66590165  1.0
  O  O19  1  1.27914390  0.49827684  0.16590165  1.0
  O  O20  1  0.72085610  0.50172316  0.83409835  1.0
  O  O21  1  0.49827684  0.27914390  0.33409835  1.0
  O  O22  1  0.69153074  0.16794859  0.93426956  1.0
  O  O23  1  0.83205141  0.30846926  0.43426956  1.0
  O  O24  1  1.16794859  0.69153074  0.56573044  1.0
  O  O25  1  0.30846926  -0.16794859  0.06573044  1.0
  O  O26  1  0.65078544  0.32366381  0.59373258  1.0
  O  O27  1  0.67633619  0.34921456  0.09373258  1.0
  O  O28  1  1.32366381  0.65078544  0.90626742  1.0
  O  O29  1  0.34921456  -0.32366381  0.40626742  1.0
  O  O30  1  0.30883522  -0.01224339  0.75930128  1.0
  O  O31  1  1.01224339  0.69116478  0.25930128  1.0
  O  O32  1  0.98775661  0.30883522  0.74069872  1.0
  O  O33  1  0.69116478  0.01224339  0.24069872  1.0
  O  O34  1  1.38285973  0.39721993  0.86691709  1.0
  O  O35  1  0.60278007  -0.38285973  0.36691709  1.0
  O  O36  1  0.39721993  0.38285973  0.63308291  1.0
  O  O37  1  0.61714027  0.60278007  0.13308291  1.0
