# generated using pymatgen
data_Ba2Tl2CuO6
_symmetry_space_group_name_H-M   'P 1'
_cell_length_a   12.22856346
_cell_length_b   12.22856346
_cell_length_c   12.22856346
_cell_angle_alpha   161.62658570
_cell_angle_beta   161.62658570
_cell_angle_gamma   26.09776368
_symmetry_Int_Tables_number   1
_chemical_formula_structural   Ba2Tl2CuO6
_chemical_formula_sum   'Ba2 Tl2 Cu1 O6'
_cell_volume   181.62438637
_cell_formula_units_Z   1
loop_
 _symmetry_equiv_pos_site_id
 _symmetry_equiv_pos_as_xyz
  1  'x, y, z'
loop_
 _atom_site_type_symbol
 _atom_site_label
 _atom_site_symmetry_multiplicity
 _atom_site_fract_x
 _atom_site_fract_y
 _atom_site_fract_z
 _atom_site_occupancy
  Ba  Ba0  1  0.58111798  0.58111798  1.00000000  1.0
  Ba  Ba1  1  0.41888202  0.41888202  -0.00000000  1.0
  Tl  Tl2  1  0.79790209  0.79790209  1.00000000  1.0
  Tl  Tl3  1  0.20209791  0.20209791  -0.00000000  1.0
  Cu  Cu4  1  0.00000000  0.00000000  0.00000000  1.0
  O  O5  1  0.88272873  0.88272873  1.00000000  1.0
  O  O6  1  0.11727127  0.11727127  -0.00000000  1.0
  O  O7  1  0.00000000  0.50000000  0.50000000  1.0
  O  O8  1  0.50000000  0.00000000  0.50000000  1.0
  O  O9  1  0.71114930  0.71114930  1.00000000  1.0
  O  O10  1  0.28885070  0.28885070  -0.00000000  1.0
