# generated using pymatgen
data_NaMn3F10
_symmetry_space_group_name_H-M   'P 1'
_cell_length_a   8.78287822
_cell_length_b   7.60031113
_cell_length_c   10.33240838
_cell_angle_alpha   56.19420992
_cell_angle_beta   45.97595793
_cell_angle_gamma   77.82983215
_symmetry_Int_Tables_number   1
_chemical_formula_structural   NaMn3F10
_chemical_formula_sum   'Na2 Mn6 F20'
_cell_volume   393.83741772
_cell_formula_units_Z   2
loop_
 _symmetry_equiv_pos_site_id
 _symmetry_equiv_pos_as_xyz
  1  'x, y, z'
loop_
 _atom_site_type_symbol
 _atom_site_label
 _atom_site_symmetry_multiplicity
 _atom_site_fract_x
 _atom_site_fract_y
 _atom_site_fract_z
 _atom_site_occupancy
  Na  Na0  1  1.02666534  0.02666534  -0.02666534  1.0
  Na  Na1  1  0.27666534  0.27666534  0.22333466  1.0
  Mn  Mn2  1  -0.22284022  0.27947012  0.72060292  1.0
  Mn  Mn3  1  0.52939708  0.02723282  0.47284022  1.0
  Mn  Mn4  1  0.27947012  -0.22284022  0.22276718  1.0
  Mn  Mn5  1  0.02723282  0.52939708  -0.02947012  1.0
  Mn  Mn6  1  0.52823404  -0.47176596  0.47176596  1.0
  Mn  Mn7  1  0.77823404  0.77823404  -0.27823404  1.0
  F  F8  1  -0.33990250  0.39623176  0.60382364  1.0
  F  F9  1  0.64617636  0.91015290  -0.41009750  1.0
  F  F10  1  0.39623176  -0.33990250  0.33984710  1.0
  F  F11  1  0.91015290  0.64617636  -0.14623176  1.0
  F  F12  1  -0.10942224  0.16660039  0.83339671  1.0
  F  F13  1  0.41660329  0.14057486  0.35942224  1.0
  F  F14  1  0.16660039  -0.10942224  0.10942514  1.0
  F  F15  1  0.14057486  0.41660329  0.08339961  1.0
  F  F16  1  0.07196584  0.48464642  0.42779013  1.0
  F  F17  1  0.82220987  0.23440240  0.17803416  1.0
  F  F18  1  0.48464642  0.07196584  0.01559760  1.0
  F  F19  1  0.23440240  0.82220987  -0.23464642  1.0
  F  F20  1  0.80908509  0.61207672  0.18738460  1.0
  F  F21  1  1.06261540  0.85854641  -0.55908509  1.0
  F  F22  1  0.61207672  0.80908509  -0.60854641  1.0
  F  F23  1  0.85854641  1.06261540  -0.36207672  1.0
  F  F24  1  0.44834495  0.24404428  0.55529572  1.0
  F  F25  1  0.69470428  0.49768495  -0.19834495  1.0
  F  F26  1  0.24404428  0.44834495  -0.24768495  1.0
  F  F27  1  0.49768495  0.69470428  0.00595572  1.0
