# generated using pymatgen
data_Cs3As
_symmetry_space_group_name_H-M   'P 1'
_cell_length_a   11.04270235
_cell_length_b   11.04270235
_cell_length_c   11.40132135
_cell_angle_alpha   90.00000000
_cell_angle_beta   90.00000000
_cell_angle_gamma   120.00000000
_symmetry_Int_Tables_number   1
_chemical_formula_structural   Cs3As
_chemical_formula_sum   'Cs18 As6'
_cell_volume   1204.02790115
_cell_formula_units_Z   6
loop_
 _symmetry_equiv_pos_site_id
 _symmetry_equiv_pos_as_xyz
  1  'x, y, z'
loop_
 _atom_site_type_symbol
 _atom_site_label
 _atom_site_symmetry_multiplicity
 _atom_site_fract_x
 _atom_site_fract_y
 _atom_site_fract_z
 _atom_site_occupancy
  Cs  Cs0  1  0.62756037  0.62756037  0.40983686  1.0
  Cs  Cs1  1  0.62756037  0.00000000  0.90983686  1.0
  Cs  Cs2  1  0.00000000  0.62756037  0.90983686  1.0
  Cs  Cs3  1  0.00000000  0.37243963  0.40983686  1.0
  Cs  Cs4  1  0.37243963  0.37243963  0.90983686  1.0
  Cs  Cs5  1  0.37243963  0.00000000  0.40983686  1.0
  Cs  Cs6  1  0.28862637  0.28862637  0.24478671  1.0
  Cs  Cs7  1  0.28862637  0.00000000  0.74478671  1.0
  Cs  Cs8  1  -0.00000000  0.28862637  0.74478671  1.0
  Cs  Cs9  1  -0.00000000  0.71137363  0.24478671  1.0
  Cs  Cs10  1  0.71137363  0.71137363  0.74478671  1.0
  Cs  Cs11  1  0.71137363  0.00000000  0.24478671  1.0
  Cs  Cs12  1  0.33333333  0.66666667  0.11896795  1.0
  Cs  Cs13  1  0.33333333  0.66666667  0.61896795  1.0
  Cs  Cs14  1  0.66666667  0.33333333  0.11896795  1.0
  Cs  Cs15  1  0.66666667  0.33333333  0.61896795  1.0
  Cs  Cs16  1  0.00000000  0.00000000  0.00929998  1.0
  Cs  Cs17  1  0.00000000  0.00000000  0.50929998  1.0
  As  As18  1  0.67254396  0.67254396  0.07803114  1.0
  As  As19  1  0.67254396  0.00000000  0.57803114  1.0
  As  As20  1  -0.00000000  0.67254396  0.57803114  1.0
  As  As21  1  0.00000000  0.32745604  0.07803114  1.0
  As  As22  1  0.32745604  0.32745604  0.57803114  1.0
  As  As23  1  0.32745604  0.00000000  0.07803114  1.0
