# generated using pymatgen
data_Sr4Mg(ReO6)2
_symmetry_space_group_name_H-M   'P 1'
_cell_length_a   9.59323394
_cell_length_b   9.59323394
_cell_length_c   9.59323394
_cell_angle_alpha   33.85408672
_cell_angle_beta   33.85408672
_cell_angle_gamma   33.85408672
_symmetry_Int_Tables_number   1
_chemical_formula_structural   Sr4Mg(ReO6)2
_chemical_formula_sum   'Sr4 Mg1 Re2 O12'
_cell_volume   244.16627979
_cell_formula_units_Z   1
loop_
 _symmetry_equiv_pos_site_id
 _symmetry_equiv_pos_as_xyz
  1  'x, y, z'
loop_
 _atom_site_type_symbol
 _atom_site_label
 _atom_site_symmetry_multiplicity
 _atom_site_fract_x
 _atom_site_fract_y
 _atom_site_fract_z
 _atom_site_occupancy
  Sr  Sr0  1  0.86685526  0.86685526  0.86685526  1.0
  Sr  Sr1  1  1.13314474  1.13314474  0.13314474  1.0
  Sr  Sr2  1  0.70883146  0.70883146  0.70883146  1.0
  Sr  Sr3  1  1.29116854  1.29116854  0.29116854  1.0
  Mg  Mg4  1  0.00000000  0.00000000  0.00000000  1.0
  Re  Re5  1  1.57990956  0.57990956  0.57990956  1.0
  Re  Re6  1  1.42009044  0.42009044  0.42009044  1.0
  O  O7  1  1.38197641  0.38197641  0.86789651  1.0
  O  O8  1  1.38197641  0.86789651  0.38197641  1.0
  O  O9  1  1.13210349  0.61802359  0.61802359  1.0
  O  O10  1  1.61802359  0.13210349  0.61802359  1.0
  O  O11  1  1.61802359  0.61802359  0.13210349  1.0
  O  O12  1  0.86789651  1.38197641  0.38197641  1.0
  O  O13  1  1.21777394  0.21777394  0.69482798  1.0
  O  O14  1  1.21777394  0.69482798  0.21777394  1.0
  O  O15  1  1.30517202  0.78222606  0.78222606  1.0
  O  O16  1  1.78222606  0.30517202  0.78222606  1.0
  O  O17  1  1.78222606  0.78222606  0.30517202  1.0
  O  O18  1  0.69482798  1.21777394  0.21777394  1.0
