# generated using pymatgen
data_Bi4Br2O5
_symmetry_space_group_name_H-M   'P 1'
_cell_length_a   11.12885009
_cell_length_b   5.74818904
_cell_length_c   14.82118696
_cell_angle_alpha   90.00000000
_cell_angle_beta   98.51738581
_cell_angle_gamma   90.00000000
_symmetry_Int_Tables_number   1
_chemical_formula_structural   Bi4Br2O5
_chemical_formula_sum   'Bi16 Br8 O20'
_cell_volume   937.66533807
_cell_formula_units_Z   4
loop_
 _symmetry_equiv_pos_site_id
 _symmetry_equiv_pos_as_xyz
  1  'x, y, z'
loop_
 _atom_site_type_symbol
 _atom_site_label
 _atom_site_symmetry_multiplicity
 _atom_site_fract_x
 _atom_site_fract_y
 _atom_site_fract_z
 _atom_site_occupancy
  Bi  Bi0  1  0.92270238  0.02252435  0.04242757  1.0
  Bi  Bi1  1  0.07729762  0.52252435  0.95757243  1.0
  Bi  Bi2  1  0.90567179  0.02691142  0.79388152  1.0
  Bi  Bi3  1  0.09432821  0.52691142  0.20611848  1.0
  Bi  Bi4  1  0.78689341  0.50933784  0.34697524  1.0
  Bi  Bi5  1  0.21310659  0.00933784  0.65302476  1.0
  Bi  Bi6  1  0.73351425  0.57187987  0.61666509  1.0
  Bi  Bi7  1  0.26648575  0.07187987  0.38333491  1.0
  Bi  Bi8  1  0.72685662  0.53653719  0.87205286  1.0
  Bi  Bi9  1  0.27314338  0.03653719  0.12794714  1.0
  Bi  Bi10  1  0.59631936  0.12506178  0.45865881  1.0
  Bi  Bi11  1  0.40368064  0.62506178  0.54134119  1.0
  Bi  Bi12  1  0.56612112  0.10332587  0.71939343  1.0
  Bi  Bi13  1  0.43387888  0.60332587  0.28060657  1.0
  Bi  Bi14  1  0.35381107  0.50889804  0.80250589  1.0
  Bi  Bi15  1  0.64618893  0.00889804  0.19749411  1.0
  Br  Br16  1  0.94672514  0.01422237  0.27246830  1.0
  Br  Br17  1  0.05327486  0.51422237  0.72753170  1.0
  Br  Br18  1  0.87427780  -0.00224897  0.56303495  1.0
  Br  Br19  1  0.12572220  0.49775103  0.43696505  1.0
  Br  Br20  1  0.62387894  -0.00883700  0.94864938  1.0
  Br  Br21  1  0.37612106  0.49116300  0.05135062  1.0
  Br  Br22  1  0.21475791  0.01276175  0.87992211  1.0
  Br  Br23  1  0.78524209  0.51276174  0.12007789  1.0
  O  O24  1  0.91999966  0.26381470  0.92019322  1.0
  O  O25  1  0.08000034  0.76381470  0.07980678  1.0
  O  O26  1  0.92260657  0.78010960  0.92053872  1.0
  O  O27  1  0.07739343  0.28010960  0.07946128  1.0
  O  O28  1  0.75231392  0.27864951  0.75925944  1.0
  O  O29  1  0.24768608  0.77864951  0.24074056  1.0
  O  O30  1  0.74617531  0.78840286  0.76345229  1.0
  O  O31  1  0.25382469  0.28840286  0.23654771  1.0
  O  O32  1  0.70302407  0.46947377  0.46598020  1.0
  O  O33  1  0.29697593  0.96947377  0.53401980  1.0
  O  O34  1  0.64815490  0.25996699  0.30336563  1.0
  O  O35  1  0.35184510  0.75996699  0.69663437  1.0
  O  O36  1  0.57813959  0.30830968  0.59588337  1.0
  O  O37  1  0.42186041  0.80830968  0.40411663  1.0
  O  O38  1  0.54153597  0.45533779  0.79656388  1.0
  O  O39  1  0.45846403  0.95533779  0.20343612  1.0
  O  O40  1  0.42363357  0.30829306  0.41282407  1.0
  O  O41  1  0.57636643  0.80829306  0.58717593  1.0
  O  O42  1  0.34806166  0.26116755  0.69469336  1.0
  O  O43  1  0.65193834  0.76116755  0.30530664  1.0
