# generated using pymatgen
data_Hf2Ag(PO4)3
_symmetry_space_group_name_H-M   'P 1'
_cell_length_a   9.22001452
_cell_length_b   9.22001452
_cell_length_c   9.22001452
_cell_angle_alpha   57.76682192
_cell_angle_beta   57.76682192
_cell_angle_gamma   57.76682192
_symmetry_Int_Tables_number   1
_chemical_formula_structural   Hf2Ag(PO4)3
_chemical_formula_sum   'Hf4 Ag2 P6 O24'
_cell_volume   525.79098999
_cell_formula_units_Z   2
loop_
 _symmetry_equiv_pos_site_id
 _symmetry_equiv_pos_as_xyz
  1  'x, y, z'
loop_
 _atom_site_type_symbol
 _atom_site_label
 _atom_site_symmetry_multiplicity
 _atom_site_fract_x
 _atom_site_fract_y
 _atom_site_fract_z
 _atom_site_occupancy
  Hf  Hf0  1  0.85482614  -0.14517386  -0.14517386  1.0
  Hf  Hf1  1  0.35482614  0.35482614  0.35482614  1.0
  Hf  Hf2  1  0.64517386  0.64517386  -0.35482614  1.0
  Hf  Hf3  1  1.14517386  0.14517386  0.14517386  1.0
  Ag  Ag4  1  1.00000000  -0.00000000  -0.00000000  1.0
  Ag  Ag5  1  0.50000000  0.50000000  0.50000000  1.0
  P  P6  1  0.46169908  0.75000000  0.03830092  1.0
  P  P7  1  0.96169908  -0.46169908  0.25000000  1.0
  P  P8  1  0.25000000  0.96169908  -0.46169908  1.0
  P  P9  1  0.75000000  1.03830092  -0.53830092  1.0
  P  P10  1  0.53830092  0.25000000  -0.03830092  1.0
  P  P11  1  1.03830092  0.46169908  -0.25000000  1.0
  O  O12  1  0.78570760  1.00442035  -0.37509875  1.0
  O  O13  1  1.28570760  0.12490125  -0.49557965  1.0
  O  O14  1  0.87509875  0.49557965  -0.28570760  1.0
  O  O15  1  0.37509875  0.21429240  -0.00442035  1.0
  O  O16  1  0.99557965  0.37509875  -0.78570760  1.0
  O  O17  1  0.49557965  0.71429240  -0.12490125  1.0
  O  O18  1  0.21429240  0.99557965  -0.62490125  1.0
  O  O19  1  0.71429240  0.87509875  -0.50442035  1.0
  O  O20  1  0.62490125  0.78570760  0.00442035  1.0
  O  O21  1  1.12490125  -0.49557965  0.28570760  1.0
  O  O22  1  0.50442035  0.28570760  0.12490125  1.0
  O  O23  1  1.00442035  0.62490125  -0.21429240  1.0
  O  O24  1  0.71590064  0.08143643  -0.06278400  1.0
  O  O25  1  1.21590064  0.43721600  -0.41856357  1.0
  O  O26  1  0.56278400  0.41856357  -0.21590064  1.0
  O  O27  1  1.06278400  0.28409936  -0.08143643  1.0
  O  O28  1  0.91856357  0.06278400  0.28409936  1.0
  O  O29  1  0.41856357  0.78409936  -0.43721600  1.0
  O  O30  1  1.28409936  -0.08143643  0.06278400  1.0
  O  O31  1  0.78409936  0.56278400  -0.58143643  1.0
  O  O32  1  0.93721600  -0.28409936  0.08143643  1.0
  O  O33  1  0.43721600  0.58143643  0.21590064  1.0
  O  O34  1  0.58143643  1.21590064  -0.56278400  1.0
  O  O35  1  1.08143643  -0.06278400  -0.28409936  1.0
