# generated using pymatgen
data_LaNiSn
_symmetry_space_group_name_H-M   'P 1'
_cell_length_a   7.52499645
_cell_length_b   7.52499645
_cell_length_c   4.12681318
_cell_angle_alpha   90.00000000
_cell_angle_beta   90.00000000
_cell_angle_gamma   120.00000000
_symmetry_Int_Tables_number   1
_chemical_formula_structural   LaNiSn
_chemical_formula_sum   'La3 Ni3 Sn3'
_cell_volume   202.37554851
_cell_formula_units_Z   3
loop_
 _symmetry_equiv_pos_site_id
 _symmetry_equiv_pos_as_xyz
  1  'x, y, z'
loop_
 _atom_site_type_symbol
 _atom_site_label
 _atom_site_symmetry_multiplicity
 _atom_site_fract_x
 _atom_site_fract_y
 _atom_site_fract_z
 _atom_site_occupancy
  La  La0  1  0.41571989  0.41571989  0.00000000  1.0
  La  La1  1  0.00000000  0.58428011  0.00000000  1.0
  La  La2  1  0.58428011  0.00000000  0.00000000  1.0
  Ni  Ni3  1  0.33333333  0.66666667  0.50000000  1.0
  Ni  Ni4  1  0.66666667  0.33333333  0.50000000  1.0
  Ni  Ni5  1  0.00000000  0.00000000  0.00000000  1.0
  Sn  Sn6  1  0.75438421  0.75438421  0.50000000  1.0
  Sn  Sn7  1  -0.00000000  0.24561579  0.50000000  1.0
  Sn  Sn8  1  0.24561579  0.00000000  0.50000000  1.0
