# generated using pymatgen
data_SrAs3
_symmetry_space_group_name_H-M   'P 1'
_cell_length_a   5.93802663
_cell_length_b   6.21498333
_cell_length_c   7.16714616
_cell_angle_alpha   86.82931058
_cell_angle_beta   55.68610444
_cell_angle_gamma   72.28916495
_symmetry_Int_Tables_number   1
_chemical_formula_structural   SrAs3
_chemical_formula_sum   'Sr2 As6'
_cell_volume   205.83231819
_cell_formula_units_Z   2
loop_
 _symmetry_equiv_pos_site_id
 _symmetry_equiv_pos_as_xyz
  1  'x, y, z'
loop_
 _atom_site_type_symbol
 _atom_site_label
 _atom_site_symmetry_multiplicity
 _atom_site_fract_x
 _atom_site_fract_y
 _atom_site_fract_z
 _atom_site_occupancy
  Sr  Sr0  1  0.66654969  0.33518330  0.66449898  1.0
  Sr  Sr1  1  0.33345031  0.66481670  0.33550102  1.0
  As  As2  1  0.20973462  -0.00536472  0.00559534  1.0
  As  As3  1  0.79026538  1.00536472  0.99440466  1.0
  As  As4  1  0.39699515  0.13116662  0.40763356  1.0
  As  As5  1  0.60300485  0.86883338  0.59236644  1.0
  As  As6  1  0.06475711  0.40788720  0.13095310  1.0
  As  As7  1  0.93524289  0.59211280  0.86904690  1.0
