# generated using pymatgen
data_BiPb3Au
_symmetry_space_group_name_H-M   'P 1'
_cell_length_a   11.57642697
_cell_length_b   11.57642697
_cell_length_c   4.42745064
_cell_angle_alpha   90.00000000
_cell_angle_beta   90.00000000
_cell_angle_gamma   90.00000000
_symmetry_Int_Tables_number   1
_chemical_formula_structural   BiPb3Au
_chemical_formula_sum   'Bi4 Pb12 Au4'
_cell_volume   593.33887042
_cell_formula_units_Z   4
loop_
 _symmetry_equiv_pos_site_id
 _symmetry_equiv_pos_as_xyz
  1  'x, y, z'
loop_
 _atom_site_type_symbol
 _atom_site_label
 _atom_site_symmetry_multiplicity
 _atom_site_fract_x
 _atom_site_fract_y
 _atom_site_fract_z
 _atom_site_occupancy
  Bi  Bi0  1  0.20468875  0.20468875  0.50000000  1.0
  Bi  Bi1  1  0.70468875  0.29531125  0.00000000  1.0
  Bi  Bi2  1  0.79531125  0.79531125  0.50000000  1.0
  Bi  Bi3  1  0.29531125  0.70468875  0.00000000  1.0
  Pb  Pb4  1  0.49683917  0.83623505  0.50000000  1.0
  Pb  Pb5  1  0.99683917  0.66376495  -0.00000000  1.0
  Pb  Pb6  1  0.16376495  0.50316083  0.50000000  1.0
  Pb  Pb7  1  0.66376495  0.99683917  0.00000000  1.0
  Pb  Pb8  1  0.50316083  0.16376495  0.50000000  1.0
  Pb  Pb9  1  0.00316083  0.33623505  -0.00000000  1.0
  Pb  Pb10  1  0.83623505  0.49683917  0.50000000  1.0
  Pb  Pb11  1  0.33623505  0.00316083  0.00000000  1.0
  Pb  Pb12  1  0.10852619  0.89147381  0.50000000  1.0
  Pb  Pb13  1  0.60852619  0.60852619  0.00000000  1.0
  Pb  Pb14  1  0.89147381  0.10852619  0.50000000  1.0
  Pb  Pb15  1  0.39147381  0.39147381  -0.00000000  1.0
  Au  Au16  1  0.41437261  0.58562739  0.50000000  1.0
  Au  Au17  1  0.91437261  0.91437261  -0.00000000  1.0
  Au  Au18  1  0.58562739  0.41437261  0.50000000  1.0
  Au  Au19  1  0.08562739  0.08562739  0.00000000  1.0
