# generated using pymatgen
data_YOF
_symmetry_space_group_name_H-M   'P 1'
_cell_length_a   6.73860882
_cell_length_b   6.73860882
_cell_length_c   6.73860882
_cell_angle_alpha   32.91879330
_cell_angle_beta   32.91879330
_cell_angle_gamma   32.91879330
_symmetry_Int_Tables_number   1
_chemical_formula_structural   YOF
_chemical_formula_sum   'Y2 O2 F2'
_cell_volume   80.41193602
_cell_formula_units_Z   2
loop_
 _symmetry_equiv_pos_site_id
 _symmetry_equiv_pos_as_xyz
  1  'x, y, z'
loop_
 _atom_site_type_symbol
 _atom_site_label
 _atom_site_symmetry_multiplicity
 _atom_site_fract_x
 _atom_site_fract_y
 _atom_site_fract_z
 _atom_site_occupancy
  Y  Y0  1  0.74082299  0.74082299  0.74082299  1.0
  Y  Y1  1  1.25917701  1.25917701  0.25917701  1.0
  O  O2  1  1.62181630  0.62181630  0.62181630  1.0
  O  O3  1  1.37818370  0.37818370  0.37818370  1.0
  F  F4  1  0.87007575  0.87007575  0.87007575  1.0
  F  F5  1  1.12992425  1.12992425  0.12992425  1.0
