# generated using pymatgen
data_Sr3Y(BO3)3
_symmetry_space_group_name_H-M   'P 1'
_cell_length_a   7.91001067
_cell_length_b   7.91001067
_cell_length_c   7.91001067
_cell_angle_alpha   105.00827860
_cell_angle_beta   105.00827860
_cell_angle_gamma   105.00827860
_symmetry_Int_Tables_number   1
_chemical_formula_structural   Sr3Y(BO3)3
_chemical_formula_sum   'Sr6 Y2 B6 O18'
_cell_volume   432.61688961
_cell_formula_units_Z   2
loop_
 _symmetry_equiv_pos_site_id
 _symmetry_equiv_pos_as_xyz
  1  'x, y, z'
loop_
 _atom_site_type_symbol
 _atom_site_label
 _atom_site_symmetry_multiplicity
 _atom_site_fract_x
 _atom_site_fract_y
 _atom_site_fract_z
 _atom_site_occupancy
  Sr  Sr0  1  0.76465928  0.63842905  0.13960934  1.0
  Sr  Sr1  1  1.36157095  -0.13960934  0.23534072  1.0
  Sr  Sr2  1  0.86039066  0.23534072  0.36157095  1.0
  Sr  Sr3  1  1.23534072  0.36157095  -0.13960934  1.0
  Sr  Sr4  1  0.63842905  1.13960934  -0.23534072  1.0
  Sr  Sr5  1  1.13960934  0.76465928  -0.36157095  1.0
  Y  Y6  1  0.50000000  0.50000000  0.50000000  1.0
  Y  Y7  1  0.00000000  0.00000000  0.00000000  1.0
  B  B8  1  1.54024416  0.79207075  -0.11128533  1.0
  B  B9  1  1.20792925  0.11128533  -0.54024416  1.0
  B  B10  1  1.11128533  -0.54024416  0.20792925  1.0
  B  B11  1  0.45975584  0.20792925  0.11128533  1.0
  B  B12  1  0.79207075  0.88871467  0.54024416  1.0
  B  B13  1  0.88871467  1.54024416  -0.20792925  1.0
  O  O14  1  1.46760977  0.75160269  -0.30317744  1.0
  O  O15  1  1.24839731  0.30317744  -0.46760977  1.0
  O  O16  1  1.30317744  -0.46760977  0.24839731  1.0
  O  O17  1  0.53239023  0.24839731  0.30317744  1.0
  O  O18  1  0.75160269  0.69682256  0.46760977  1.0
  O  O19  1  0.69682256  1.46760977  -0.24839731  1.0
  O  O20  1  0.70532009  0.94491628  -0.00727191  1.0
  O  O21  1  1.05508372  0.00727191  0.29467991  1.0
  O  O22  1  1.00727191  0.29467991  0.05508372  1.0
  O  O23  1  1.29467991  0.05508372  0.00727191  1.0
  O  O24  1  0.94491628  0.99272809  -0.29467991  1.0
  O  O25  1  0.99272809  0.70532009  -0.05508372  1.0
  O  O26  1  0.54456595  0.31205596  0.02201625  1.0
  O  O27  1  1.68794404  -0.02201625  0.45543405  1.0
  O  O28  1  0.97798375  0.45543405  0.68794404  1.0
  O  O29  1  1.45543405  0.68794404  -0.02201625  1.0
  O  O30  1  0.31205596  1.02201625  -0.45543405  1.0
  O  O31  1  1.02201625  0.54456595  -0.68794404  1.0
