# generated using pymatgen
data_SrPbO3
_symmetry_space_group_name_H-M   'P 1'
_cell_length_a   6.09590455
_cell_length_b   8.48868179
_cell_length_c   5.95285665
_cell_angle_alpha   90.00000000
_cell_angle_beta   90.00000000
_cell_angle_gamma   90.00000000
_symmetry_Int_Tables_number   1
_chemical_formula_structural   SrPbO3
_chemical_formula_sum   'Sr4 Pb4 O12'
_cell_volume   308.03767450
_cell_formula_units_Z   4
loop_
 _symmetry_equiv_pos_site_id
 _symmetry_equiv_pos_as_xyz
  1  'x, y, z'
loop_
 _atom_site_type_symbol
 _atom_site_label
 _atom_site_symmetry_multiplicity
 _atom_site_fract_x
 _atom_site_fract_y
 _atom_site_fract_z
 _atom_site_occupancy
  Sr  Sr0  1  0.05076934  0.75000000  0.51487223  1.0
  Sr  Sr1  1  0.55076934  0.75000000  0.98512777  1.0
  Sr  Sr2  1  0.94923066  0.25000000  0.48512777  1.0
  Sr  Sr3  1  0.44923066  0.25000000  0.01487223  1.0
  Pb  Pb4  1  0.50000000  0.00000000  0.50000000  1.0
  Pb  Pb5  1  0.50000000  0.50000000  0.50000000  1.0
  Pb  Pb6  1  0.00000000  0.00000000  0.00000000  1.0
  Pb  Pb7  1  0.00000000  0.50000000  0.00000000  1.0
  O  O8  1  0.29536649  0.94427668  0.79924899  1.0
  O  O9  1  0.29536649  0.55572332  0.79924899  1.0
  O  O10  1  0.79536649  0.94427668  0.70075101  1.0
  O  O11  1  0.79536649  0.55572332  0.70075101  1.0
  O  O12  1  0.70463351  0.44427668  0.20075101  1.0
  O  O13  1  0.70463351  0.05572332  0.20075101  1.0
  O  O14  1  0.20463351  0.44427668  0.29924899  1.0
  O  O15  1  0.20463351  0.05572332  0.29924899  1.0
  O  O16  1  0.95726574  0.75000000  0.10427609  1.0
  O  O17  1  0.45726574  0.75000000  0.39572391  1.0
  O  O18  1  0.04273426  0.25000000  0.89572391  1.0
  O  O19  1  0.54273426  0.25000000  0.60427609  1.0
