# generated using pymatgen
data_In2P3H3O10
_symmetry_space_group_name_H-M   'P 1'
_cell_length_a   6.69466920
_cell_length_b   10.37575656
_cell_length_c   7.36311925
_cell_angle_alpha   90.00000000
_cell_angle_beta   106.60424608
_cell_angle_gamma   90.00000000
_symmetry_Int_Tables_number   1
_chemical_formula_structural   In2P3H3O10
_chemical_formula_sum   'In4 P6 H6 O20'
_cell_volume   490.13176867
_cell_formula_units_Z   2
loop_
 _symmetry_equiv_pos_site_id
 _symmetry_equiv_pos_as_xyz
  1  'x, y, z'
loop_
 _atom_site_type_symbol
 _atom_site_label
 _atom_site_symmetry_multiplicity
 _atom_site_fract_x
 _atom_site_fract_y
 _atom_site_fract_z
 _atom_site_occupancy
  P  P0  1  0.79968206  0.29575305  0.19379830  1.0
  P  P1  1  0.20031794  0.79575305  0.80620170  1.0
  P  P2  1  0.58643098  0.47498311  0.60020384  1.0
  P  P3  1  0.41356902  0.97498311  0.39979616  1.0
  P  P4  1  0.18900494  0.23075296  0.81506029  1.0
  P  P5  1  0.81099506  0.73075296  0.18493971  1.0
  O  O6  1  0.98308962  0.15977411  0.69939942  1.0
  O  O7  1  0.01691038  0.65977411  0.30060058  1.0
  O  O8  1  0.98744884  0.36339699  0.32718162  1.0
  O  O9  1  0.01255116  0.86339699  0.67281838  1.0
  O  O10  1  0.78982506  0.31344444  0.98377185  1.0
  O  O11  1  0.21017494  0.81344444  0.01622815  1.0
  O  O12  1  0.79464031  0.14764683  0.23903219  1.0
  O  O13  1  0.20535969  0.64764683  0.76096781  1.0
  O  O14  1  0.77207548  0.54905643  0.56975284  1.0
  O  O15  1  0.22792452  0.04905643  0.43024716  1.0
  O  O16  1  0.62330635  0.03182567  0.53611366  1.0
  O  O17  1  0.37669365  0.53182567  0.46388634  1.0
  O  O18  1  0.59232052  0.32900939  0.56666388  1.0
  O  O19  1  0.40767948  0.82900939  0.43333612  1.0
  O  O20  1  0.38015392  0.14517583  0.82773654  1.0
  O  O21  1  0.61984608  0.64517583  0.17226346  1.0
  O  O22  1  0.20730765  0.36735167  0.74154356  1.0
  O  O23  1  0.79269235  0.86735167  0.25845644  1.0
  O  O24  1  0.84664651  0.04469772  0.99432025  1.0
  O  O25  1  0.15335349  0.54469772  0.00567975  1.0
  In  In26  1  0.93109152  0.01143578  0.46605708  1.0
  In  In27  1  0.06890848  0.51143578  0.53394292  1.0
  In  In28  1  0.66599744  0.17531530  0.76250679  1.0
  In  In29  1  0.33400256  0.67531530  0.23749321  1.0
  H  H30  1  0.61435894  0.34562575  0.22048372  1.0
  H  H31  1  0.38564106  0.84562575  0.77951628  1.0
  H  H32  1  0.57449986  0.50045505  0.78402957  1.0
  H  H33  1  0.42550014  0.00045505  0.21597043  1.0
  H  H34  1  0.17069151  0.24239992  0.99983982  1.0
  H  H35  1  0.82930849  0.74239992  0.00016018  1.0
