# generated using pymatgen
data_Cr2Se3
_symmetry_space_group_name_H-M   'P 1'
_cell_length_a   6.34743520
_cell_length_b   6.34743520
_cell_length_c   11.75322576
_cell_angle_alpha   90.00000000
_cell_angle_beta   90.00000000
_cell_angle_gamma   120.00000000
_symmetry_Int_Tables_number   1
_chemical_formula_structural   Cr2Se3
_chemical_formula_sum   'Cr8 Se12'
_cell_volume   410.09479893
_cell_formula_units_Z   4
loop_
 _symmetry_equiv_pos_site_id
 _symmetry_equiv_pos_as_xyz
  1  'x, y, z'
loop_
 _atom_site_type_symbol
 _atom_site_label
 _atom_site_symmetry_multiplicity
 _atom_site_fract_x
 _atom_site_fract_y
 _atom_site_fract_z
 _atom_site_occupancy
  Cr  Cr0  1  0.33333333  0.66666667  -0.01326567  1.0
  Cr  Cr1  1  0.33333333  0.66666667  0.51326567  1.0
  Cr  Cr2  1  0.66666667  0.33333333  0.48673433  1.0
  Cr  Cr3  1  0.66666667  0.33333333  0.01326567  1.0
  Cr  Cr4  1  0.33333333  0.66666667  0.25000000  1.0
  Cr  Cr5  1  0.66666667  0.33333333  0.75000000  1.0
  Cr  Cr6  1  0.00000000  0.00000000  0.00000000  1.0
  Cr  Cr7  1  0.00000000  0.00000000  0.50000000  1.0
  Se  Se8  1  0.32627733  0.98544626  0.11926142  1.0
  Se  Se9  1  0.32627733  0.34083107  0.38073858  1.0
  Se  Se10  1  0.98544626  0.32627733  0.61926142  1.0
  Se  Se11  1  0.98544626  0.65916893  0.88073858  1.0
  Se  Se12  1  0.65916893  0.98544626  0.38073858  1.0
  Se  Se13  1  0.65916893  0.67372267  0.11926142  1.0
  Se  Se14  1  0.01455374  0.67372267  0.38073858  1.0
  Se  Se15  1  0.01455374  0.34083107  0.11926142  1.0
  Se  Se16  1  0.67372267  0.65916893  0.61926142  1.0
  Se  Se17  1  0.67372267  0.01455374  0.88073858  1.0
  Se  Se18  1  0.34083107  0.32627733  0.88073858  1.0
  Se  Se19  1  0.34083107  0.01455374  0.61926142  1.0
