# generated using pymatgen
data_Ca5P3H
_symmetry_space_group_name_H-M   'P 1'
_cell_length_a   8.25837976
_cell_length_b   8.25837976
_cell_length_c   6.56395756
_cell_angle_alpha   90.00000000
_cell_angle_beta   90.00000000
_cell_angle_gamma   120.00000000
_symmetry_Int_Tables_number   1
_chemical_formula_structural   Ca5P3H
_chemical_formula_sum   'Ca10 P6 H2'
_cell_volume   387.69133671
_cell_formula_units_Z   2
loop_
 _symmetry_equiv_pos_site_id
 _symmetry_equiv_pos_as_xyz
  1  'x, y, z'
loop_
 _atom_site_type_symbol
 _atom_site_label
 _atom_site_symmetry_multiplicity
 _atom_site_fract_x
 _atom_site_fract_y
 _atom_site_fract_z
 _atom_site_occupancy
  Ca  Ca0  1  0.66666667  0.33333333  0.50000000  1.0
  Ca  Ca1  1  0.33333333  0.66666667  0.50000000  1.0
  Ca  Ca2  1  0.33333333  0.66666667  0.00000000  1.0
  Ca  Ca3  1  0.66666667  0.33333333  0.00000000  1.0
  Ca  Ca4  1  0.75097124  0.75097124  0.25000000  1.0
  Ca  Ca5  1  0.24902876  0.00000000  0.25000000  1.0
  Ca  Ca6  1  -0.00000000  0.24902876  0.25000000  1.0
  Ca  Ca7  1  0.24902876  0.24902876  0.75000000  1.0
  Ca  Ca8  1  0.75097124  0.00000000  0.75000000  1.0
  Ca  Ca9  1  0.00000000  0.75097124  0.75000000  1.0
  P  P10  1  0.39104829  0.39104829  0.25000000  1.0
  P  P11  1  0.60895171  0.00000000  0.25000000  1.0
  P  P12  1  -0.00000000  0.60895171  0.25000000  1.0
  P  P13  1  0.60895171  0.60895171  0.75000000  1.0
  P  P14  1  0.39104829  0.00000000  0.75000000  1.0
  P  P15  1  -0.00000000  0.39104829  0.75000000  1.0
  H  H16  1  0.00000000  0.00000000  0.50000000  1.0
  H  H17  1  0.00000000  0.00000000  0.00000000  1.0
