# generated using pymatgen
data_CdI2
_symmetry_space_group_name_H-M   'P 1'
_cell_length_a   4.32832826
_cell_length_b   4.32832826
_cell_length_c   68.27759755
_cell_angle_alpha   90.00000000
_cell_angle_beta   90.00000000
_cell_angle_gamma   120.00000000
_symmetry_Int_Tables_number   1
_chemical_formula_structural   CdI2
_chemical_formula_sum   'Cd9 I18'
_cell_volume   1107.76909409
_cell_formula_units_Z   9
loop_
 _symmetry_equiv_pos_site_id
 _symmetry_equiv_pos_as_xyz
  1  'x, y, z'
loop_
 _atom_site_type_symbol
 _atom_site_label
 _atom_site_symmetry_multiplicity
 _atom_site_fract_x
 _atom_site_fract_y
 _atom_site_fract_z
 _atom_site_occupancy
  Cd  Cd0  1  0.00000000  0.00000000  0.02780758  1.0
  Cd  Cd1  1  -0.00000000  -0.00000000  0.13889695  1.0
  Cd  Cd2  1  -0.00000000  -0.00000000  0.24998117  1.0
  Cd  Cd3  1  0.00000000  0.00000000  0.47222431  1.0
  Cd  Cd4  1  0.00000000  0.00000000  0.58330965  1.0
  Cd  Cd5  1  -0.00000000  -0.00000000  0.80555749  1.0
  Cd  Cd6  1  0.66666667  0.33333333  0.36110303  1.0
  Cd  Cd7  1  0.66666667  0.33333333  0.69444113  1.0
  Cd  Cd8  1  0.66666667  0.33333333  0.91667597  1.0
  I  I9  1  0.00000000  0.00000000  0.38628571  1.0
  I  I10  1  0.00000000  0.00000000  0.71961325  1.0
  I  I11  1  0.00000000  0.00000000  0.94184807  1.0
  I  I12  1  0.66666667  0.33333333  0.05298958  1.0
  I  I13  1  0.66666667  0.33333333  0.16408098  1.0
  I  I14  1  0.66666667  0.33333333  0.27516479  1.0
  I  I15  1  0.66666667  0.33333333  0.49740644  1.0
  I  I16  1  0.66666667  0.33333333  0.60848335  1.0
  I  I17  1  0.66666667  0.33333333  0.83072812  1.0
  I  I18  1  0.33333333  0.66666667  0.00262702  1.0
  I  I19  1  0.33333333  0.66666667  0.11371389  1.0
  I  I20  1  0.33333333  0.66666667  0.22479683  1.0
  I  I21  1  0.33333333  0.66666667  0.33592141  1.0
  I  I22  1  0.33333333  0.66666667  0.44704409  1.0
  I  I23  1  0.33333333  0.66666667  0.55813693  1.0
  I  I24  1  0.33333333  0.66666667  0.66927069  1.0
  I  I25  1  0.33333333  0.66666667  0.78038607  1.0
  I  I26  1  0.33333333  0.66666667  0.89150552  1.0
