# generated using pymatgen
data_Li2Tl
_symmetry_space_group_name_H-M   'P 1'
_cell_length_a   5.60589171
_cell_length_b   5.60589171
_cell_length_c   4.83501636
_cell_angle_alpha   90.00000000
_cell_angle_beta   90.00000000
_cell_angle_gamma   129.75138923
_symmetry_Int_Tables_number   1
_chemical_formula_structural   Li2Tl
_chemical_formula_sum   'Li4 Tl2'
_cell_volume   116.81956990
_cell_formula_units_Z   2
loop_
 _symmetry_equiv_pos_site_id
 _symmetry_equiv_pos_as_xyz
  1  'x, y, z'
loop_
 _atom_site_type_symbol
 _atom_site_label
 _atom_site_symmetry_multiplicity
 _atom_site_fract_x
 _atom_site_fract_y
 _atom_site_fract_z
 _atom_site_occupancy
  Li  Li0  1  -0.58270437  0.58270437  0.25000000  1.0
  Li  Li1  1  -0.41729563  1.41729563  0.75000000  1.0
  Li  Li2  1  -0.24350924  1.24350924  0.25000000  1.0
  Li  Li3  1  -0.75649076  0.75649076  0.75000000  1.0
  Tl  Tl4  1  -0.90251141  0.90251141  0.25000000  1.0
  Tl  Tl5  1  -0.09748859  1.09748859  0.75000000  1.0
