# generated using pymatgen
data_K3(CuS)4
_symmetry_space_group_name_H-M   'P 1'
_cell_length_a   7.93811775
_cell_length_b   15.79504987
_cell_length_c   3.81193490
_cell_angle_alpha   90.00000000
_cell_angle_beta   90.00000000
_cell_angle_gamma   90.00000000
_symmetry_Int_Tables_number   1
_chemical_formula_structural   K3(CuS)4
_chemical_formula_sum   'K6 Cu8 S8'
_cell_volume   477.95170327
_cell_formula_units_Z   2
loop_
 _symmetry_equiv_pos_site_id
 _symmetry_equiv_pos_as_xyz
  1  'x, y, z'
loop_
 _atom_site_type_symbol
 _atom_site_label
 _atom_site_symmetry_multiplicity
 _atom_site_fract_x
 _atom_site_fract_y
 _atom_site_fract_z
 _atom_site_occupancy
  K  K0  1  0.47541817  0.73458285  0.50000000  1.0
  K  K1  1  0.97541817  0.76541715  0.50000000  1.0
  K  K2  1  0.52458183  0.26541715  0.50000000  1.0
  K  K3  1  0.02458183  0.23458285  0.50000000  1.0
  K  K4  1  0.50000000  0.50000000  0.00000000  1.0
  K  K5  1  0.00000000  0.00000000  0.00000000  1.0
  Cu  Cu6  1  0.15008922  0.55608428  0.50000000  1.0
  Cu  Cu7  1  0.65008922  0.94391572  0.50000000  1.0
  Cu  Cu8  1  0.84991078  0.44391572  0.50000000  1.0
  Cu  Cu9  1  0.34991078  0.05608428  0.50000000  1.0
  Cu  Cu10  1  0.42616874  0.91881996  0.00000000  1.0
  Cu  Cu11  1  0.92616874  0.58118004  0.00000000  1.0
  Cu  Cu12  1  0.57383126  0.08118004  0.00000000  1.0
  Cu  Cu13  1  0.07383126  0.41881996  0.00000000  1.0
  S  S14  1  0.26894882  0.91371872  0.50000000  1.0
  S  S15  1  0.76894882  0.58628128  0.50000000  1.0
  S  S16  1  0.73105118  0.08628128  0.50000000  1.0
  S  S17  1  0.23105118  0.41371872  0.50000000  1.0
  S  S18  1  0.19680027  0.63708807  0.00000000  1.0
  S  S19  1  0.69680027  0.86291193  0.00000000  1.0
  S  S20  1  0.80319973  0.36291193  0.00000000  1.0
  S  S21  1  0.30319973  0.13708807  0.00000000  1.0
