# generated using pymatgen
data_La(Sn3Ru2)2
_symmetry_space_group_name_H-M   'P 1'
_cell_length_a   6.98038362
_cell_length_b   6.98038362
_cell_length_c   6.98038362
_cell_angle_alpha   120.13384079
_cell_angle_beta   120.13384079
_cell_angle_gamma   89.76833685
_symmetry_Int_Tables_number   1
_chemical_formula_structural   La(Sn3Ru2)2
_chemical_formula_sum   'La1 Sn6 Ru4'
_cell_volume   240.01564919
_cell_formula_units_Z   1
loop_
 _symmetry_equiv_pos_site_id
 _symmetry_equiv_pos_as_xyz
  1  'x, y, z'
loop_
 _atom_site_type_symbol
 _atom_site_label
 _atom_site_symmetry_multiplicity
 _atom_site_fract_x
 _atom_site_fract_y
 _atom_site_fract_z
 _atom_site_occupancy
  La  La0  1  0.00000000  0.00000000  0.00000000  1.0
  Sn  Sn1  1  0.47485885  1.11740570  1.00000000  1.0
  Sn  Sn2  1  0.88259430  0.88259430  1.35745315  1.0
  Sn  Sn3  1  0.52514115  0.52514115  0.64254685  1.0
  Sn  Sn4  1  1.11740570  0.47485885  1.00000000  1.0
  Sn  Sn5  1  0.00000000  0.50000000  0.50000000  1.0
  Sn  Sn6  1  0.50000000  0.00000000  0.50000000  1.0
  Ru  Ru7  1  0.40830637  0.74960055  1.00000000  1.0
  Ru  Ru8  1  1.25039945  1.25039945  1.65870582  1.0
  Ru  Ru9  1  0.59169363  0.59169363  0.34129418  1.0
  Ru  Ru10  1  0.74960055  0.40830637  1.00000000  1.0
