# generated using pymatgen
data_LuAgPb
_symmetry_space_group_name_H-M   'P 1'
_cell_length_a   7.45395091
_cell_length_b   7.45395091
_cell_length_c   4.53737265
_cell_angle_alpha   90.00000000
_cell_angle_beta   90.00000000
_cell_angle_gamma   120.00000000
_symmetry_Int_Tables_number   1
_chemical_formula_structural   LuAgPb
_chemical_formula_sum   'Lu3 Ag3 Pb3'
_cell_volume   218.32734661
_cell_formula_units_Z   3
loop_
 _symmetry_equiv_pos_site_id
 _symmetry_equiv_pos_as_xyz
  1  'x, y, z'
loop_
 _atom_site_type_symbol
 _atom_site_label
 _atom_site_symmetry_multiplicity
 _atom_site_fract_x
 _atom_site_fract_y
 _atom_site_fract_z
 _atom_site_occupancy
  Lu  Lu0  1  0.43286568  0.43286568  0.00000000  1.0
  Lu  Lu1  1  -0.00000000  0.56713432  0.00000000  1.0
  Lu  Lu2  1  0.56713432  0.00000000  0.00000000  1.0
  Ag  Ag3  1  0.75462468  0.75462468  0.50000000  1.0
  Ag  Ag4  1  0.00000000  0.24537532  0.50000000  1.0
  Ag  Ag5  1  0.24537532  -0.00000000  0.50000000  1.0
  Pb  Pb6  1  0.33333333  0.66666667  0.50000000  1.0
  Pb  Pb7  1  0.66666667  0.33333333  0.50000000  1.0
  Pb  Pb8  1  -0.00000000  -0.00000000  0.00000000  1.0
