# generated using pymatgen
data_TlTe3Pt2
_symmetry_space_group_name_H-M   'P 1'
_cell_length_a   8.10066351
_cell_length_b   8.10066351
_cell_length_c   5.96154453
_cell_angle_alpha   90.00000000
_cell_angle_beta   90.00000000
_cell_angle_gamma   120.00000000
_symmetry_Int_Tables_number   1
_chemical_formula_structural   TlTe3Pt2
_chemical_formula_sum   'Tl2 Te6 Pt4'
_cell_volume   338.79002080
_cell_formula_units_Z   2
loop_
 _symmetry_equiv_pos_site_id
 _symmetry_equiv_pos_as_xyz
  1  'x, y, z'
loop_
 _atom_site_type_symbol
 _atom_site_label
 _atom_site_symmetry_multiplicity
 _atom_site_fract_x
 _atom_site_fract_y
 _atom_site_fract_z
 _atom_site_occupancy
  Tl  Tl0  1  0.33333333  0.66666667  0.31059731  1.0
  Tl  Tl1  1  0.66666667  0.33333333  0.68940269  1.0
  Te  Te2  1  0.33897037  0.16948518  0.22483304  1.0
  Te  Te3  1  0.16948518  0.33897037  0.77516696  1.0
  Te  Te4  1  0.16948518  0.83051482  0.77516696  1.0
  Te  Te5  1  0.83051482  0.16948518  0.22483304  1.0
  Te  Te6  1  0.83051482  0.66102963  0.22483304  1.0
  Te  Te7  1  0.66102963  0.83051482  0.77516696  1.0
  Pt  Pt8  1  0.50000000  0.50000000  0.00000000  1.0
  Pt  Pt9  1  0.50000000  0.00000000  0.00000000  1.0
  Pt  Pt10  1  0.00000000  0.50000000  0.00000000  1.0
  Pt  Pt11  1  0.00000000  0.00000000  0.00000000  1.0
