# generated using pymatgen
data_Cu3TePbO8
_symmetry_space_group_name_H-M   'P 1'
_cell_length_a   13.82027480
_cell_length_b   13.22716129
_cell_length_c   5.71465148
_cell_angle_alpha   83.69019582
_cell_angle_beta   72.04258967
_cell_angle_gamma   24.26721451
_symmetry_Int_Tables_number   1
_chemical_formula_structural   Cu3TePbO8
_chemical_formula_sum   'Cu6 Te2 Pb2 O16'
_cell_volume   367.21103741
_cell_formula_units_Z   2
loop_
 _symmetry_equiv_pos_site_id
 _symmetry_equiv_pos_as_xyz
  1  'x, y, z'
loop_
 _atom_site_type_symbol
 _atom_site_label
 _atom_site_symmetry_multiplicity
 _atom_site_fract_x
 _atom_site_fract_y
 _atom_site_fract_z
 _atom_site_occupancy
  O  O0  1  1.41352842  0.57021095  0.29704530  1.0
  O  O1  1  0.95295470  0.53078468  0.83647158  1.0
  O  O2  1  1.57021095  0.41352842  -0.28078468  1.0
  O  O3  1  0.53078468  0.95295470  0.67978905  1.0
  O  O4  1  1.33727038  0.45438701  0.38777732  1.0
  O  O5  1  0.86222268  0.42943471  0.91272962  1.0
  O  O6  1  1.45438701  0.33727038  -0.17943471  1.0
  O  O7  1  0.42943471  0.86222268  0.79561299  1.0
  O  O8  1  1.04357963  0.55960657  0.22231099  1.0
  O  O9  1  1.02768901  0.07549719  0.20642037  1.0
  O  O10  1  1.55960657  0.04357963  0.17450281  1.0
  O  O11  1  1.07549719  0.02768901  0.69039343  1.0
  O  O12  1  0.96432171  0.43491549  0.29990224  1.0
  O  O13  1  0.95009776  0.94913945  0.28567829  1.0
  O  O14  1  1.43491549  -0.03567829  0.30086055  1.0
  O  O15  1  0.94913945  0.95009776  0.81508451  1.0
  Cu  Cu16  1  1.44234852  0.44234852  -0.44234852  1.0
  Cu  Cu17  1  0.69234852  0.69234852  0.80765148  1.0
  Cu  Cu18  1  1.19153401  0.19153401  -0.19153401  1.0
  Cu  Cu19  1  1.44153401  0.44153401  0.05846599  1.0
  Cu  Cu20  1  1.00217289  0.00217289  -0.00217289  1.0
  Cu  Cu21  1  1.25217289  0.25217289  0.24782711  1.0
  Pb  Pb22  1  0.60512665  0.60512665  0.39487335  1.0
  Pb  Pb23  1  0.85512665  0.85512665  0.64487335  1.0
  Te  Te24  1  0.75009777  0.75009777  0.24990223  1.0
  Te  Te25  1  1.00009777  0.00009777  0.49990223  1.0
