# generated using pymatgen
data_MgPdF6
_symmetry_space_group_name_H-M   'P 1'
_cell_length_a   5.42597713
_cell_length_b   5.42597713
_cell_length_c   5.42597713
_cell_angle_alpha   56.46890785
_cell_angle_beta   56.46890785
_cell_angle_gamma   56.46890785
_symmetry_Int_Tables_number   1
_chemical_formula_structural   MgPdF6
_chemical_formula_sum   'Mg1 Pd1 F6'
_cell_volume   103.73790054
_cell_formula_units_Z   1
loop_
 _symmetry_equiv_pos_site_id
 _symmetry_equiv_pos_as_xyz
  1  'x, y, z'
loop_
 _atom_site_type_symbol
 _atom_site_label
 _atom_site_symmetry_multiplicity
 _atom_site_fract_x
 _atom_site_fract_y
 _atom_site_fract_z
 _atom_site_occupancy
  Mg  Mg0  1  0.00000000  0.00000000  0.00000000  1.0
  Pd  Pd1  1  0.50000000  0.50000000  -0.50000000  1.0
  F  F2  1  0.12867530  0.74210815  -0.61761390  1.0
  F  F3  1  0.61761390  -0.12867530  0.25789185  1.0
  F  F4  1  1.25789185  -0.38238610  -0.12867530  1.0
  F  F5  1  0.87132470  0.25789185  -0.38238610  1.0
  F  F6  1  0.38238610  0.12867530  -0.25789185  1.0
  F  F7  1  0.74210815  0.38238610  -0.87132470  1.0
