# generated using pymatgen
data_NbNO
_symmetry_space_group_name_H-M   'P 1'
_cell_length_a   5.00769332
_cell_length_b   5.05951007
_cell_length_c   5.22382367
_cell_angle_alpha   90.00000000
_cell_angle_beta   99.82436716
_cell_angle_gamma   90.00000000
_symmetry_Int_Tables_number   1
_chemical_formula_structural   NbNO
_chemical_formula_sum   'Nb4 N4 O4'
_cell_volume   130.41237164
_cell_formula_units_Z   4
loop_
 _symmetry_equiv_pos_site_id
 _symmetry_equiv_pos_as_xyz
  1  'x, y, z'
loop_
 _atom_site_type_symbol
 _atom_site_label
 _atom_site_symmetry_multiplicity
 _atom_site_fract_x
 _atom_site_fract_y
 _atom_site_fract_z
 _atom_site_occupancy
  Nb  Nb0  1  0.70653431  0.95104838  0.78015298  1.0
  Nb  Nb1  1  0.70653431  0.54895162  0.28015298  1.0
  Nb  Nb2  1  0.29346569  0.45104838  0.71984702  1.0
  Nb  Nb3  1  0.29346569  0.04895162  0.21984702  1.0
  N  N4  1  0.44383411  0.74518045  0.97510578  1.0
  N  N5  1  0.44383411  0.75481955  0.47510578  1.0
  N  N6  1  0.55616589  0.24518045  0.52489422  1.0
  N  N7  1  0.55616589  0.25481955  0.02489422  1.0
  O  O8  1  0.93900103  0.67838014  0.65037510  1.0
  O  O9  1  0.93900103  0.82161986  0.15037510  1.0
  O  O10  1  0.06099897  0.17838014  0.84962490  1.0
  O  O11  1  0.06099897  0.32161986  0.34962490  1.0
