# generated using pymatgen
data_K2C7N4O
_symmetry_space_group_name_H-M   'P 1'
_cell_length_a   8.10771031
_cell_length_b   4.16326923
_cell_length_c   14.79818645
_cell_angle_alpha   95.60568263
_cell_angle_beta   98.64658984
_cell_angle_gamma   92.41742769
_symmetry_Int_Tables_number   1
_chemical_formula_structural   K2C7N4O
_chemical_formula_sum   'K4 C14 N8 O2'
_cell_volume   490.64628318
_cell_formula_units_Z   2
loop_
 _symmetry_equiv_pos_site_id
 _symmetry_equiv_pos_as_xyz
  1  'x, y, z'
loop_
 _atom_site_type_symbol
 _atom_site_label
 _atom_site_symmetry_multiplicity
 _atom_site_fract_x
 _atom_site_fract_y
 _atom_site_fract_z
 _atom_site_occupancy
  K  K0  1  -0.10786125  -0.81547534  -0.87863712  1.0
  K  K1  1  -0.89213875  -0.18452466  -0.12136288  1.0
  K  K2  1  -0.87042692  -0.68462763  -0.37742095  1.0
  K  K3  1  -0.12957308  -0.31537237  -0.62257905  1.0
  C  C4  1  -0.32290334  -0.99607142  -0.32072352  1.0
  C  C5  1  -0.67709666  -0.00392858  -0.67927648  1.0
  C  C6  1  -0.50755729  -0.91199613  -0.65192789  1.0
  C  C7  1  -0.49244271  -0.08800387  -0.34807211  1.0
  C  C8  1  -0.78699100  -0.87817515  -0.62229503  1.0
  C  C9  1  -0.21300900  -0.12182485  -0.37770497  1.0
  C  C10  1  -0.73505621  -0.51459685  -0.90922831  1.0
  C  C11  1  -0.26494379  -0.48540315  -0.09077169  1.0
  C  C12  1  -0.64980441  -0.33992458  -0.82873881  1.0
  C  C13  1  -0.35019559  -0.66007542  -0.17126119  1.0
  C  C14  1  -0.47521996  -0.32569624  -0.81940354  1.0
  C  C15  1  -0.52478004  -0.67430376  -0.18059646  1.0
  C  C16  1  -0.75132844  -0.20231494  -0.76305896  1.0
  C  C17  1  -0.24867156  -0.79768506  -0.23694104  1.0
  N  N18  1  -0.36622288  -0.83050744  -0.62753358  1.0
  N  N19  1  -0.63377712  -0.16949256  -0.37246642  1.0
  N  N20  1  -0.88201047  -0.77388481  -0.57595060  1.0
  N  N21  1  -0.11798953  -0.22611519  -0.42404940  1.0
  N  N22  1  -0.67095947  -0.67728290  -0.18554858  1.0
  N  N23  1  -0.32904053  -0.32271710  -0.81445142  1.0
  N  N24  1  -0.80819464  -0.66011690  -0.97638645  1.0
  N  N25  1  -0.19180536  -0.33988310  -0.02361355  1.0
  O  O26  1  -0.90923196  -0.25474444  -0.77971593  1.0
  O  O27  1  -0.09076804  -0.74525556  -0.22028407  1.0
