# generated using pymatgen
data_Na(Cu3Se2)2
_symmetry_space_group_name_H-M   'P 1'
_cell_length_a   14.13537494
_cell_length_b   14.13537494
_cell_length_c   14.13537494
_cell_angle_alpha   16.56952149
_cell_angle_beta   16.56952149
_cell_angle_gamma   16.56952149
_symmetry_Int_Tables_number   1
_chemical_formula_structural   Na(Cu3Se2)2
_chemical_formula_sum   'Na1 Cu6 Se4'
_cell_volume   200.30980331
_cell_formula_units_Z   1
loop_
 _symmetry_equiv_pos_site_id
 _symmetry_equiv_pos_as_xyz
  1  'x, y, z'
loop_
 _atom_site_type_symbol
 _atom_site_label
 _atom_site_symmetry_multiplicity
 _atom_site_fract_x
 _atom_site_fract_y
 _atom_site_fract_z
 _atom_site_occupancy
  Na  Na0  1  0.00000000  0.00000000  0.00000000  1.0
  Cu  Cu1  1  0.85189898  0.85189898  0.85189898  1.0
  Cu  Cu2  1  1.14810102  1.14810102  0.14810102  1.0
  Cu  Cu3  1  0.72616767  0.72616767  0.72616767  1.0
  Cu  Cu4  1  1.27383233  1.27383233  0.27383233  1.0
  Cu  Cu5  1  1.56315951  0.56315951  0.56315951  1.0
  Cu  Cu6  1  1.43684049  0.43684049  0.43684049  1.0
  Se  Se7  1  0.79272541  0.79272541  0.79272541  1.0
  Se  Se8  1  1.20727459  1.20727459  0.20727459  1.0
  Se  Se9  1  1.62053342  0.62053342  0.62053342  1.0
  Se  Se10  1  1.37946658  0.37946658  0.37946658  1.0
