# generated using pymatgen
data_YAlIr
_symmetry_space_group_name_H-M   'P 1'
_cell_length_a   6.88121570
_cell_length_b   4.24496658
_cell_length_c   7.92272289
_cell_angle_alpha   90.00000000
_cell_angle_beta   90.00000000
_cell_angle_gamma   90.00000000
_symmetry_Int_Tables_number   1
_chemical_formula_structural   YAlIr
_chemical_formula_sum   'Y4 Al4 Ir4'
_cell_volume   231.42694025
_cell_formula_units_Z   4
loop_
 _symmetry_equiv_pos_site_id
 _symmetry_equiv_pos_as_xyz
  1  'x, y, z'
loop_
 _atom_site_type_symbol
 _atom_site_label
 _atom_site_symmetry_multiplicity
 _atom_site_fract_x
 _atom_site_fract_y
 _atom_site_fract_z
 _atom_site_occupancy
  Y  Y0  1  0.96897450  0.75000000  0.68046014  1.0
  Y  Y1  1  0.46897450  0.75000000  0.81953986  1.0
  Y  Y2  1  0.03102550  0.25000000  0.31953986  1.0
  Y  Y3  1  0.53102550  0.25000000  0.18046014  1.0
  Al  Al4  1  0.85887354  0.75000000  0.06150601  1.0
  Al  Al5  1  0.35887354  0.75000000  0.43849399  1.0
  Al  Al6  1  0.14112646  0.25000000  0.93849399  1.0
  Al  Al7  1  0.64112646  0.25000000  0.56150601  1.0
  Ir  Ir8  1  0.73044014  0.75000000  0.38114773  1.0
  Ir  Ir9  1  0.23044014  0.75000000  0.11885227  1.0
  Ir  Ir10  1  0.26955986  0.25000000  0.61885227  1.0
  Ir  Ir11  1  0.76955986  0.25000000  0.88114773  1.0
