# generated using pymatgen
data_H13C4NF2
_symmetry_space_group_name_H-M   'P 1'
_cell_length_a   6.52508424
_cell_length_b   9.11643999
_cell_length_c   5.57343476
_cell_angle_alpha   90.00000000
_cell_angle_beta   90.00000000
_cell_angle_gamma   90.00000000
_symmetry_Int_Tables_number   1
_chemical_formula_structural   H13C4NF2
_chemical_formula_sum   'H26 C8 N2 F4'
_cell_volume   331.53876998
_cell_formula_units_Z   2
loop_
 _symmetry_equiv_pos_site_id
 _symmetry_equiv_pos_as_xyz
  1  'x, y, z'
loop_
 _atom_site_type_symbol
 _atom_site_label
 _atom_site_symmetry_multiplicity
 _atom_site_fract_x
 _atom_site_fract_y
 _atom_site_fract_z
 _atom_site_occupancy
  H  H0  1  0.00000000  0.00000000  0.67285832  1.0
  H  H1  1  0.50000000  0.50000000  0.32714168  1.0
  H  H2  1  0.68647983  0.09882307  0.31552279  1.0
  H  H3  1  0.31352017  0.09882307  0.31552279  1.0
  H  H4  1  0.68647983  0.90117693  0.31552279  1.0
  H  H5  1  0.31352017  0.90117693  0.31552279  1.0
  H  H6  1  0.81352017  0.40117693  0.68447721  1.0
  H  H7  1  0.18647983  0.40117693  0.68447721  1.0
  H  H8  1  0.81352017  0.59882307  0.68447721  1.0
  H  H9  1  0.18647983  0.59882307  0.68447721  1.0
  H  H10  1  0.82160918  0.00000000  0.08593964  1.0
  H  H11  1  0.17839082  0.00000000  0.08593964  1.0
  H  H12  1  0.67839082  0.50000000  0.91406036  1.0
  H  H13  1  0.32160918  0.50000000  0.91406036  1.0
  H  H14  1  0.36113122  0.86673499  0.78295119  1.0
  H  H15  1  0.63886878  0.86673499  0.78295119  1.0
  H  H16  1  0.36113122  0.13326501  0.78295119  1.0
  H  H17  1  0.63886878  0.13326501  0.78295119  1.0
  H  H18  1  0.13886878  0.63326501  0.21704881  1.0
  H  H19  1  0.86113122  0.63326501  0.21704881  1.0
  H  H20  1  0.13886878  0.36673499  0.21704881  1.0
  H  H21  1  0.86113122  0.36673499  0.21704881  1.0
  H  H22  1  0.50000000  0.76935751  1.01301936  1.0
  H  H23  1  0.50000000  0.23064249  1.01301936  1.0
  H  H24  1  0.00000000  0.73064249  -0.01301936  1.0
  H  H25  1  0.00000000  0.26935751  -0.01301936  1.0
  C  C26  1  0.68760765  0.00000000  0.20398386  1.0
  C  C27  1  0.31239235  0.00000000  0.20398386  1.0
  C  C28  1  0.81239235  0.50000000  0.79601614  1.0
  C  C29  1  0.18760765  0.50000000  0.79601614  1.0
  C  C30  1  0.50000000  0.86511535  0.89368701  1.0
  C  C31  1  0.50000000  0.13488465  0.89368701  1.0
  C  C32  1  0.00000000  0.63488465  0.10631299  1.0
  C  C33  1  0.00000000  0.36511535  0.10631299  1.0
  N  N34  1  0.50000000  0.00000000  0.04855172  1.0
  N  N35  1  0.00000000  0.50000000  0.95144828  1.0
  F  F36  1  0.00000000  0.87365389  0.67660065  1.0
  F  F37  1  0.00000000  0.12634611  0.67660065  1.0
  F  F38  1  0.50000000  0.62634611  0.32339935  1.0
  F  F39  1  0.50000000  0.37365389  0.32339935  1.0
