# generated using pymatgen
data_Ca2Mg(CO3)3
_symmetry_space_group_name_H-M   'P 1'
_cell_length_a   4.88872283
_cell_length_b   4.88872283
_cell_length_c   16.83851848
_cell_angle_alpha   90.00000000
_cell_angle_beta   90.00000000
_cell_angle_gamma   120.00000000
_symmetry_Int_Tables_number   1
_chemical_formula_structural   Ca2Mg(CO3)3
_chemical_formula_sum   'Ca4 Mg2 C6 O18'
_cell_volume   348.51810236
_cell_formula_units_Z   2
loop_
 _symmetry_equiv_pos_site_id
 _symmetry_equiv_pos_as_xyz
  1  'x, y, z'
loop_
 _atom_site_type_symbol
 _atom_site_label
 _atom_site_symmetry_multiplicity
 _atom_site_fract_x
 _atom_site_fract_y
 _atom_site_fract_z
 _atom_site_occupancy
  Ca  Ca0  1  0.00000000  -0.00000000  0.50226165  1.0
  Ca  Ca1  1  0.00000000  -0.00000000  0.00226165  1.0
  Ca  Ca2  1  0.66666667  0.33333333  0.68308555  1.0
  Ca  Ca3  1  0.33333333  0.66666667  0.18308555  1.0
  Mg  Mg4  1  0.33333333  0.66666667  0.84126147  1.0
  Mg  Mg5  1  0.66666667  0.33333333  0.34126147  1.0
  C  C6  1  0.33333333  0.66666667  0.59501380  1.0
  C  C7  1  0.66666667  0.33333333  0.09501380  1.0
  C  C8  1  0.00000000  -0.00000000  0.76839472  1.0
  C  C9  1  0.00000000  0.00000000  0.26839472  1.0
  C  C10  1  0.66666667  0.33333333  0.91347373  1.0
  C  C11  1  0.33333333  0.66666667  0.41347373  1.0
  O  O12  1  0.32652315  0.39834206  0.59475474  1.0
  O  O13  1  0.60165794  0.92818109  0.59475474  1.0
  O  O14  1  0.07181891  0.67347685  0.59475474  1.0
  O  O15  1  0.39834206  0.32652315  0.09475474  1.0
  O  O16  1  0.92818109  0.60165794  0.09475474  1.0
  O  O17  1  0.67347685  0.07181891  0.09475474  1.0
  O  O18  1  0.71826735  0.75526275  0.76735004  1.0
  O  O19  1  0.24473725  0.96300460  0.76735004  1.0
  O  O20  1  0.03699540  0.28173265  0.76735004  1.0
  O  O21  1  0.75526275  0.71826735  0.26735004  1.0
  O  O22  1  0.96300460  0.24473725  0.26735004  1.0
  O  O23  1  0.28173265  0.03699540  0.26735004  1.0
  O  O24  1  0.94746794  0.57978096  0.91484159  1.0
  O  O25  1  0.42021904  0.36768698  0.91484159  1.0
  O  O26  1  0.63231302  0.05253206  0.91484159  1.0
  O  O27  1  0.57978096  0.94746794  0.41484159  1.0
  O  O28  1  0.36768698  0.42021904  0.41484159  1.0
  O  O29  1  0.05253206  0.63231302  0.41484159  1.0
