# generated using pymatgen
data_OsW2
_symmetry_space_group_name_H-M   'P 1'
_cell_length_a   9.67819988
_cell_length_b   9.67819988
_cell_length_c   4.98160227
_cell_angle_alpha   90.00000000
_cell_angle_beta   90.00000000
_cell_angle_gamma   90.00000000
_symmetry_Int_Tables_number   1
_chemical_formula_structural   OsW2
_chemical_formula_sum   'Os10 W20'
_cell_volume   466.61449406
_cell_formula_units_Z   10
loop_
 _symmetry_equiv_pos_site_id
 _symmetry_equiv_pos_as_xyz
  1  'x, y, z'
loop_
 _atom_site_type_symbol
 _atom_site_label
 _atom_site_symmetry_multiplicity
 _atom_site_fract_x
 _atom_site_fract_y
 _atom_site_fract_z
 _atom_site_occupancy
  Os  Os0  1  0.50000000  0.50000000  0.50000000  1.0
  Os  Os1  1  0.00000000  0.00000000  0.00000000  1.0
  Os  Os2  1  0.43083799  0.23706542  0.50000000  1.0
  Os  Os3  1  0.56916201  0.76293458  0.50000000  1.0
  Os  Os4  1  0.06916201  0.73706542  0.00000000  1.0
  Os  Os5  1  0.93083799  0.26293458  0.00000000  1.0
  Os  Os6  1  0.23706542  0.43083799  0.50000000  1.0
  Os  Os7  1  0.76293458  0.56916201  0.50000000  1.0
  Os  Os8  1  0.73706542  0.06916201  0.00000000  1.0
  Os  Os9  1  0.26293458  0.93083799  -0.00000000  1.0
  W  W10  1  0.10349066  0.89650934  0.50000000  1.0
  W  W11  1  0.89650934  0.10349066  0.50000000  1.0
  W  W12  1  0.39650934  0.39650934  -0.00000000  1.0
  W  W13  1  0.60349066  0.60349066  -0.00000000  1.0
  W  W14  1  0.36943658  0.96239614  0.50000000  1.0
  W  W15  1  0.63056342  0.03760386  0.50000000  1.0
  W  W16  1  0.13056342  0.46239614  0.00000000  1.0
  W  W17  1  0.86943658  0.53760386  0.00000000  1.0
  W  W18  1  0.96239614  0.36943658  0.50000000  1.0
  W  W19  1  0.03760386  0.63056342  0.50000000  1.0
  W  W20  1  0.46239614  0.13056342  -0.00000000  1.0
  W  W21  1  0.53760386  0.86943658  -0.00000000  1.0
  W  W22  1  0.32000195  0.67999805  0.24931581  1.0
  W  W23  1  0.67999805  0.32000195  0.24931581  1.0
  W  W24  1  0.17999805  0.17999805  0.74931581  1.0
  W  W25  1  0.82000195  0.82000195  0.74931581  1.0
  W  W26  1  0.67999805  0.32000195  0.75068419  1.0
  W  W27  1  0.32000195  0.67999805  0.75068419  1.0
  W  W28  1  0.82000195  0.82000195  0.25068419  1.0
  W  W29  1  0.17999805  0.17999805  0.25068419  1.0
