# generated using pymatgen
data_ZnS
_symmetry_space_group_name_H-M   'P 1'
_cell_length_a   12.79005210
_cell_length_b   12.79005210
_cell_length_c   12.79005210
_cell_angle_alpha   17.30372230
_cell_angle_beta   17.30372230
_cell_angle_gamma   17.30372230
_symmetry_Int_Tables_number   1
_chemical_formula_structural   ZnS
_chemical_formula_sum   'Zn4 S4'
_cell_volume   161.51959422
_cell_formula_units_Z   4
loop_
 _symmetry_equiv_pos_site_id
 _symmetry_equiv_pos_as_xyz
  1  'x, y, z'
loop_
 _atom_site_type_symbol
 _atom_site_label
 _atom_site_symmetry_multiplicity
 _atom_site_fract_x
 _atom_site_fract_y
 _atom_site_fract_z
 _atom_site_occupancy
  Zn  Zn0  1  0.35412176  0.35412176  -0.64587824  1.0
  Zn  Zn1  1  0.93757415  -0.06242585  -0.06242585  1.0
  Zn  Zn2  1  0.77079169  -0.22920831  -0.22920831  1.0
  Zn  Zn3  1  0.52090457  0.52090457  -0.47909543  1.0
  S  S4  1  -0.00002439  -0.00002439  -0.00002439  1.0
  S  S5  1  0.83329829  -0.16670171  -0.16670171  1.0
  S  S6  1  0.58340626  0.58340626  -0.41659374  1.0
  S  S7  1  0.41652766  0.41652766  -0.58347234  1.0
