# generated using pymatgen
data_SiO2
_symmetry_space_group_name_H-M   'P 1'
_cell_length_a   13.19732626
_cell_length_b   13.19732626
_cell_length_c   12.41978329
_cell_angle_alpha   71.65054961
_cell_angle_beta   108.34945039
_cell_angle_gamma   156.93359128
_symmetry_Int_Tables_number   1
_chemical_formula_structural   SiO2
_chemical_formula_sum   'Si14 O28'
_cell_volume   802.57878151
_cell_formula_units_Z   14
loop_
 _symmetry_equiv_pos_site_id
 _symmetry_equiv_pos_as_xyz
  1  'x, y, z'
loop_
 _atom_site_type_symbol
 _atom_site_label
 _atom_site_symmetry_multiplicity
 _atom_site_fract_x
 _atom_site_fract_y
 _atom_site_fract_z
 _atom_site_occupancy
  Si  Si0  1  0.93416810  -0.93416810  0.08265001  1.0
  Si  Si1  1  1.06583190  -0.06583190  0.91734999  1.0
  Si  Si2  1  0.93408765  -0.93408765  0.83003742  1.0
  Si  Si3  1  1.06591235  -0.06591235  0.16996258  1.0
  Si  Si4  1  0.71568868  -0.71568868  0.77289233  1.0
  Si  Si5  1  1.28431132  -0.28431132  0.22710767  1.0
  Si  Si6  1  0.71645468  -0.71645468  0.51461463  1.0
  Si  Si7  1  1.28354532  -0.28354532  0.48538537  1.0
  Si  Si8  1  0.62745556  -0.62745556  0.88726594  1.0
  Si  Si9  1  1.37254444  -0.37254444  0.11273406  1.0
  Si  Si10  1  1.37230473  -0.37230473  0.71738069  1.0
  Si  Si11  1  0.62769527  -0.62769527  0.28261931  1.0
  Si  Si12  1  1.28693082  -0.28693082  0.85813221  1.0
  Si  Si13  1  0.71306918  -0.71306918  0.14186779  1.0
  O  O14  1  1.66017430  -0.16056256  0.75473612  1.0
  O  O15  1  1.16056256  -0.66017430  0.75473612  1.0
  O  O16  1  0.83943744  -0.33982570  0.24526388  1.0
  O  O17  1  1.33982570  0.16056256  0.24526388  1.0
  O  O18  1  1.49903095  0.00153562  0.83448087  1.0
  O  O19  1  0.99846438  -0.49903095  0.83448087  1.0
  O  O20  1  1.00153562  -0.50096905  0.16551913  1.0
  O  O21  1  1.50096905  -0.00153562  0.16551913  1.0
  O  O22  1  1.33970248  0.16126003  0.87347744  1.0
  O  O23  1  0.83873997  -0.33970248  0.87347744  1.0
  O  O24  1  1.16126003  -0.66029752  0.12652256  1.0
  O  O25  1  1.66029752  -0.16126003  0.12652256  1.0
  O  O26  1  0.99991149  -0.99991149  0.86489557  1.0
  O  O27  1  1.00008851  -0.00008851  0.13510443  1.0
  O  O28  1  0.91530585  -0.91530585  0.94372554  1.0
  O  O29  1  1.08469415  -0.08469415  0.05627446  1.0
  O  O30  1  0.70852726  -0.70852726  0.63860172  1.0
  O  O31  1  1.29147274  -0.29147274  0.36139828  1.0
  O  O32  1  0.65519686  -0.65519686  0.78675376  1.0
  O  O33  1  1.34480314  -0.34480314  0.21324624  1.0
  O  O34  1  0.65580353  -0.65580353  0.42011003  1.0
  O  O35  1  1.34419647  -0.34419647  0.57988997  1.0
  O  O36  1  1.32497427  -0.32497427  0.99001918  1.0
  O  O37  1  0.67502573  -0.67502573  0.00998082  1.0
  O  O38  1  1.32425441  -0.32425441  0.77527311  1.0
  O  O39  1  0.67574559  -0.67574559  0.22472689  1.0
  O  O40  1  1.50000000  -0.00000000  0.50000000  1.0
  O  O41  1  1.00000000  -0.50000000  0.50000000  1.0
