# generated using pymatgen
data_K2PbCl6
_symmetry_space_group_name_H-M   'P 1'
_cell_length_a   7.39026993
_cell_length_b   7.92583893
_cell_length_c   12.09613938
_cell_angle_alpha   90.00000000
_cell_angle_beta   124.72865290
_cell_angle_gamma   90.00000000
_symmetry_Int_Tables_number   1
_chemical_formula_structural   K2PbCl6
_chemical_formula_sum   'K4 Pb2 Cl12'
_cell_volume   582.30399895
_cell_formula_units_Z   2
loop_
 _symmetry_equiv_pos_site_id
 _symmetry_equiv_pos_as_xyz
  1  'x, y, z'
loop_
 _atom_site_type_symbol
 _atom_site_label
 _atom_site_symmetry_multiplicity
 _atom_site_fract_x
 _atom_site_fract_y
 _atom_site_fract_z
 _atom_site_occupancy
  K  K0  1  0.72188831  0.08310461  0.24645952  1.0
  K  K1  1  0.72188831  0.41689539  0.74645952  1.0
  K  K2  1  0.27811169  0.58310461  0.25354048  1.0
  K  K3  1  0.27811169  0.91689539  0.75354048  1.0
  Pb  Pb4  1  -0.00000000  0.50000000  0.50000000  1.0
  Pb  Pb5  1  0.00000000  0.00000000  0.00000000  1.0
  Cl  Cl6  1  0.84526034  0.47982222  0.24920306  1.0
  Cl  Cl7  1  0.84526034  0.02017778  0.74920306  1.0
  Cl  Cl8  1  0.15473966  0.97982222  0.25079694  1.0
  Cl  Cl9  1  0.15473966  0.52017778  0.75079694  1.0
  Cl  Cl10  1  0.78071394  0.77610866  0.45618682  1.0
  Cl  Cl11  1  0.78071394  0.72389134  0.95618682  1.0
  Cl  Cl12  1  0.21928606  0.27610866  0.04381318  1.0
  Cl  Cl13  1  0.21928606  0.22389134  0.54381318  1.0
  Cl  Cl14  1  0.66890470  0.32436135  0.45430164  1.0
  Cl  Cl15  1  0.66890470  0.17563865  0.95430164  1.0
  Cl  Cl16  1  0.33109530  0.82436135  0.04569836  1.0
  Cl  Cl17  1  0.33109530  0.67563865  0.54569836  1.0
