# generated using pymatgen
data_KPSO2
_symmetry_space_group_name_H-M   'P 1'
_cell_length_a   11.30836749
_cell_length_b   8.26586638
_cell_length_c   14.02479068
_cell_angle_alpha   90.00000000
_cell_angle_beta   90.00000000
_cell_angle_gamma   90.00000000
_symmetry_Int_Tables_number   1
_chemical_formula_structural   KPSO2
_chemical_formula_sum   'K12 P12 S12 O24'
_cell_volume   1310.94563476
_cell_formula_units_Z   12
loop_
 _symmetry_equiv_pos_site_id
 _symmetry_equiv_pos_as_xyz
  1  'x, y, z'
loop_
 _atom_site_type_symbol
 _atom_site_label
 _atom_site_symmetry_multiplicity
 _atom_site_fract_x
 _atom_site_fract_y
 _atom_site_fract_z
 _atom_site_occupancy
  K  K0  1  0.90417534  0.32904216  0.17172597  1.0
  K  K1  1  0.09582466  0.67095784  0.67172597  1.0
  K  K2  1  0.59582466  0.82904216  0.67172597  1.0
  K  K3  1  0.40417534  0.17095784  0.17172597  1.0
  K  K4  1  0.90418125  0.32903155  0.83350907  1.0
  K  K5  1  0.09581875  0.67096845  0.33350907  1.0
  K  K6  1  0.59581875  0.82903155  0.33350907  1.0
  K  K7  1  0.40418125  0.17096845  0.83350907  1.0
  K  K8  1  0.02048383  0.19671579  0.50262334  1.0
  K  K9  1  0.97951617  0.80328421  0.00262334  1.0
  K  K10  1  0.47951617  0.69671579  0.00262334  1.0
  K  K11  1  0.52048383  0.30328421  0.50262334  1.0
  P  P12  1  0.80340859  0.48523347  0.39509486  1.0
  P  P13  1  0.19659141  0.51476653  0.89509486  1.0
  P  P14  1  0.69659141  0.98523347  0.89509486  1.0
  P  P15  1  0.30340859  0.01476653  0.39509486  1.0
  P  P16  1  0.64428580  0.29049893  0.00261500  1.0
  P  P17  1  0.35571420  0.70950107  0.50261500  1.0
  P  P18  1  0.85571420  0.79049893  0.50261500  1.0
  P  P19  1  0.14428580  0.20950107  0.00261500  1.0
  P  P20  1  0.80340197  0.48523531  0.61014948  1.0
  P  P21  1  0.19659803  0.51476469  0.11014948  1.0
  P  P22  1  0.69659803  0.98523531  0.11014948  1.0
  P  P23  1  0.30340197  0.01476469  0.61014948  1.0
  S  S24  1  0.72838106  0.49873143  0.00261513  1.0
  S  S25  1  0.27161894  0.50126857  0.50261513  1.0
  S  S26  1  0.77161894  -0.00126857  0.50261513  1.0
  S  S27  1  0.22838106  1.00126857  0.00261513  1.0
  S  S28  1  0.67161870  0.43556439  0.69654346  1.0
  S  S29  1  0.32838130  0.56443561  0.19654346  1.0
  S  S30  1  0.82838130  0.93556439  0.19654346  1.0
  S  S31  1  0.17161870  0.06443561  0.69654346  1.0
  S  S32  1  0.67161684  0.43555326  0.30871240  1.0
  S  S33  1  0.32838316  0.56444674  0.80871240  1.0
  S  S34  1  0.82838316  0.93555326  0.80871240  1.0
  S  S35  1  0.17161684  0.06444674  0.30871240  1.0
  O  O36  1  0.76755202  0.41967793  0.50262221  1.0
  O  O37  1  0.23244798  0.58032207  0.00262221  1.0
  O  O38  1  0.73244798  0.91967793  0.00262221  1.0
  O  O39  1  0.26755202  0.08032207  0.50262221  1.0
  O  O40  1  0.42679235  0.07091821  0.37031549  1.0
  O  O41  1  0.57320765  0.92908179  0.87031549  1.0
  O  O42  1  0.07320765  0.57091821  0.87031549  1.0
  O  O43  1  0.92679235  0.42908179  0.37031549  1.0
  O  O44  1  0.92678366  0.42907685  0.63493106  1.0
  O  O45  1  0.07321634  0.57092315  0.13493106  1.0
  O  O46  1  0.57321634  0.92907685  0.13493106  1.0
  O  O47  1  0.42678366  0.07092315  0.63493106  1.0
  O  O48  1  0.01125904  0.21282556  0.00261464  1.0
  O  O49  1  0.98874096  0.78717444  0.50261464  1.0
  O  O50  1  0.48874096  0.71282556  0.50261464  1.0
  O  O51  1  0.51125904  0.28717444  0.00261464  1.0
  O  O52  1  0.19576755  0.31709107  0.91216402  1.0
  O  O53  1  0.80423245  0.68290893  0.41216402  1.0
  O  O54  1  0.30423245  0.81709107  0.41216402  1.0
  O  O55  1  0.69576755  0.18290893  0.91216402  1.0
  O  O56  1  0.19577369  0.31709351  0.09306388  1.0
  O  O57  1  0.80422631  0.68290649  0.59306388  1.0
  O  O58  1  0.30422631  0.81709351  0.59306388  1.0
  O  O59  1  0.69577369  0.18290649  0.09306388  1.0
