# generated using pymatgen
data_KCa(PO3)3
_symmetry_space_group_name_H-M   'P 1'
_cell_length_a   6.92407198
_cell_length_b   6.92407198
_cell_length_c   10.48867517
_cell_angle_alpha   90.00000000
_cell_angle_beta   90.00000000
_cell_angle_gamma   120.00000000
_symmetry_Int_Tables_number   1
_chemical_formula_structural   KCa(PO3)3
_chemical_formula_sum   'K2 Ca2 P6 O18'
_cell_volume   435.48621776
_cell_formula_units_Z   2
loop_
 _symmetry_equiv_pos_site_id
 _symmetry_equiv_pos_as_xyz
  1  'x, y, z'
loop_
 _atom_site_type_symbol
 _atom_site_label
 _atom_site_symmetry_multiplicity
 _atom_site_fract_x
 _atom_site_fract_y
 _atom_site_fract_z
 _atom_site_occupancy
  K  K0  1  0.00000000  0.00000000  0.50000000  1.0
  K  K1  1  0.00000000  0.00000000  0.00000000  1.0
  Ca  Ca2  1  0.33333333  0.66666667  0.50000000  1.0
  Ca  Ca3  1  0.33333333  0.66666667  0.00000000  1.0
  P  P4  1  0.62736548  0.56248987  0.25000000  1.0
  P  P5  1  0.62736548  0.06487560  0.75000000  1.0
  P  P6  1  0.93512440  0.56248987  0.75000000  1.0
  P  P7  1  0.93512440  0.37263452  0.25000000  1.0
  P  P8  1  0.43751013  0.37263452  0.75000000  1.0
  P  P9  1  0.43751013  0.06487560  0.25000000  1.0
  O  O10  1  0.05307555  0.38667049  0.37324619  1.0
  O  O11  1  0.05307555  0.38667049  0.12675381  1.0
  O  O12  1  0.05307555  0.66640505  0.87324619  1.0
  O  O13  1  0.05307555  0.66640505  0.62675381  1.0
  O  O14  1  0.33359495  0.38667049  0.87324619  1.0
  O  O15  1  0.33359495  0.38667049  0.62675381  1.0
  O  O16  1  0.33359495  0.94692445  0.37324619  1.0
  O  O17  1  0.33359495  0.94692445  0.12675381  1.0
  O  O18  1  0.61332951  0.94692445  0.87324619  1.0
  O  O19  1  0.61332951  0.94692445  0.62675381  1.0
  O  O20  1  0.61332951  0.66640505  0.37324619  1.0
  O  O21  1  0.61332951  0.66640505  0.12675381  1.0
  O  O22  1  0.86037747  0.56028124  0.25000000  1.0
  O  O23  1  0.86037747  0.30009623  0.75000000  1.0
  O  O24  1  0.69990377  0.56028124  0.75000000  1.0
  O  O25  1  0.69990377  0.13962253  0.25000000  1.0
  O  O26  1  0.43971876  0.13962253  0.75000000  1.0
  O  O27  1  0.43971876  0.30009623  0.25000000  1.0
