# generated using pymatgen
data_B4CCl6O
_symmetry_space_group_name_H-M   'P 1'
_cell_length_a   7.42818203
_cell_length_b   7.42818203
_cell_length_c   7.42818203
_cell_angle_alpha   107.61412842
_cell_angle_beta   107.61412842
_cell_angle_gamma   107.61412842
_symmetry_Int_Tables_number   1
_chemical_formula_structural   B4CCl6O
_chemical_formula_sum   'B4 C1 Cl6 O1'
_cell_volume   335.46211659
_cell_formula_units_Z   1
loop_
 _symmetry_equiv_pos_site_id
 _symmetry_equiv_pos_as_xyz
  1  'x, y, z'
loop_
 _atom_site_type_symbol
 _atom_site_label
 _atom_site_symmetry_multiplicity
 _atom_site_fract_x
 _atom_site_fract_y
 _atom_site_fract_z
 _atom_site_occupancy
  B  B0  1  0.56877029  0.33262363  0.33262363  1.0
  B  B1  1  1.33262363  -0.43122971  0.33262363  1.0
  B  B2  1  1.33262363  0.33262363  -0.43122971  1.0
  B  B3  1  0.34671752  0.34671752  0.34671752  1.0
  C  C4  1  0.16111844  0.16111844  0.16111844  1.0
  Cl  Cl5  1  0.81968936  0.52254519  0.52254519  1.0
  Cl  Cl6  1  1.52254519  -0.18031064  0.52254519  1.0
  Cl  Cl7  1  1.52254519  0.52254519  -0.18031064  1.0
  Cl  Cl8  1  0.55491716  0.12578259  0.12578259  1.0
  Cl  Cl9  1  1.12578259  -0.44508284  0.12578259  1.0
  Cl  Cl10  1  1.12578259  0.12578259  -0.44508284  1.0
  O  O11  1  0.01978441  0.01978441  0.01978441  1.0
