# generated using pymatgen
data_SrZn2
_symmetry_space_group_name_H-M   'P 1'
_cell_length_a   6.00294363
_cell_length_b   6.00294363
_cell_length_c   6.00294363
_cell_angle_alpha   133.07533171
_cell_angle_beta   99.45369476
_cell_angle_gamma   98.78865746
_symmetry_Int_Tables_number   1
_chemical_formula_structural   SrZn2
_chemical_formula_sum   'Sr2 Zn4'
_cell_volume   144.94352947
_cell_formula_units_Z   2
loop_
 _symmetry_equiv_pos_site_id
 _symmetry_equiv_pos_as_xyz
  1  'x, y, z'
loop_
 _atom_site_type_symbol
 _atom_site_label
 _atom_site_symmetry_multiplicity
 _atom_site_fract_x
 _atom_site_fract_y
 _atom_site_fract_z
 _atom_site_occupancy
  Sr  Sr0  1  1.69867764  1.44867764  1.25000000  1.0
  Sr  Sr1  1  0.30132236  0.55132236  0.75000000  1.0
  Zn  Zn2  1  1.26898635  0.83561900  1.43336735  1.0
  Zn  Zn3  1  1.09774835  0.16438100  0.93336735  1.0
  Zn  Zn4  1  0.73101365  1.16438100  0.56663265  1.0
  Zn  Zn5  1  0.90225165  0.83561900  0.06663265  1.0
