# generated using pymatgen
data_Cr22MoC6
_symmetry_space_group_name_H-M   'P 1'
_cell_length_a   7.48687303
_cell_length_b   7.48687303
_cell_length_c   7.48687303
_cell_angle_alpha   60.00000000
_cell_angle_beta   60.00000000
_cell_angle_gamma   60.00000000
_symmetry_Int_Tables_number   1
_chemical_formula_structural   Cr22MoC6
_chemical_formula_sum   'Cr22 Mo1 C6'
_cell_volume   296.74704728
_cell_formula_units_Z   1
loop_
 _symmetry_equiv_pos_site_id
 _symmetry_equiv_pos_as_xyz
  1  'x, y, z'
loop_
 _atom_site_type_symbol
 _atom_site_label
 _atom_site_symmetry_multiplicity
 _atom_site_fract_x
 _atom_site_fract_y
 _atom_site_fract_z
 _atom_site_occupancy
  Cr  Cr0  1  0.75000000  0.75000000  -0.25000000  1.0
  Cr  Cr1  1  1.25000000  0.25000000  0.25000000  1.0
  Cr  Cr2  1  0.61854045  0.61854045  1.14437865  1.0
  Cr  Cr3  1  0.61854045  1.14437865  -0.38145955  1.0
  Cr  Cr4  1  1.14437865  0.61854045  0.61854045  1.0
  Cr  Cr5  1  0.61854045  0.61854045  -0.38145955  1.0
  Cr  Cr6  1  0.38145955  1.38145955  -0.14437865  1.0
  Cr  Cr7  1  1.38145955  -0.14437865  0.38145955  1.0
  Cr  Cr8  1  -0.14437865  1.38145955  0.38145955  1.0
  Cr  Cr9  1  1.38145955  0.38145955  0.38145955  1.0
  Cr  Cr10  1  -0.00000000  -0.00000000  0.34545360  1.0
  Cr  Cr11  1  0.65454640  1.00000000  -0.65454640  1.0
  Cr  Cr12  1  1.00000000  0.65454640  -0.65454640  1.0
  Cr  Cr13  1  0.65454640  -0.65454640  1.00000000  1.0
  Cr  Cr14  1  -0.00000000  1.34545360  0.00000000  1.0
  Cr  Cr15  1  1.00000000  0.34545360  -0.34545360  1.0
  Cr  Cr16  1  0.34545360  -0.34545360  1.00000000  1.0
  Cr  Cr17  1  0.34545360  1.00000000  -0.34545360  1.0
  Cr  Cr18  1  1.34545360  -0.00000000  0.00000000  1.0
  Cr  Cr19  1  0.00000000  0.00000000  0.65454640  1.0
  Cr  Cr20  1  -0.00000000  1.65454640  0.00000000  1.0
  Cr  Cr21  1  1.65454640  -0.00000000  0.00000000  1.0
  Mo  Mo22  1  0.00000000  0.00000000  0.00000000  1.0
  C  C23  1  0.72403118  0.72403118  -0.72403118  1.0
  C  C24  1  0.27596882  -0.27596882  1.27596882  1.0
  C  C25  1  -0.27596882  0.27596882  0.27596882  1.0
  C  C26  1  0.27596882  1.27596882  -0.27596882  1.0
  C  C27  1  -0.27596882  0.27596882  0.72403118  1.0
  C  C28  1  -0.72403118  0.72403118  0.72403118  1.0
