# generated using pymatgen
data_GaClO
_symmetry_space_group_name_H-M   'P 1'
_cell_length_a   5.77204622
_cell_length_b   8.67558779
_cell_length_c   5.18013231
_cell_angle_alpha   90.00000000
_cell_angle_beta   90.00000000
_cell_angle_gamma   90.00000000
_symmetry_Int_Tables_number   1
_chemical_formula_structural   GaClO
_chemical_formula_sum   'Ga4 Cl4 O4'
_cell_volume   259.39975525
_cell_formula_units_Z   4
loop_
 _symmetry_equiv_pos_site_id
 _symmetry_equiv_pos_as_xyz
  1  'x, y, z'
loop_
 _atom_site_type_symbol
 _atom_site_label
 _atom_site_symmetry_multiplicity
 _atom_site_fract_x
 _atom_site_fract_y
 _atom_site_fract_z
 _atom_site_occupancy
  Ga  Ga0  1  0.41573263  0.10040042  0.49643893  1.0
  Ga  Ga1  1  0.91573263  0.89959958  0.49643893  1.0
  Ga  Ga2  1  0.58426737  0.89959958  -0.00356107  1.0
  Ga  Ga3  1  0.08426737  0.10040042  -0.00356107  1.0
  Cl  Cl4  1  0.50332430  0.33267027  0.58160576  1.0
  Cl  Cl5  1  1.00332430  0.66732973  0.58160576  1.0
  Cl  Cl6  1  0.49667570  0.66732973  0.08160576  1.0
  Cl  Cl7  1  -0.00332430  0.33267027  0.08160576  1.0
  O  O8  1  0.12965449  0.03949190  0.65095531  1.0
  O  O9  1  0.62965449  0.96050810  0.65095531  1.0
  O  O10  1  0.87034551  0.96050810  0.15095531  1.0
  O  O11  1  0.37034551  0.03949190  0.15095531  1.0
