# generated using pymatgen
data_ZrSnF6
_symmetry_space_group_name_H-M   'P 1'
_cell_length_a   6.73731859
_cell_length_b   5.46318680
_cell_length_c   7.49816236
_cell_angle_alpha   90.00000000
_cell_angle_beta   121.75494989
_cell_angle_gamma   90.00000000
_symmetry_Int_Tables_number   1
_chemical_formula_structural   ZrSnF6
_chemical_formula_sum   'Zr2 Sn2 F12'
_cell_volume   234.67326083
_cell_formula_units_Z   2
loop_
 _symmetry_equiv_pos_site_id
 _symmetry_equiv_pos_as_xyz
  1  'x, y, z'
loop_
 _atom_site_type_symbol
 _atom_site_label
 _atom_site_symmetry_multiplicity
 _atom_site_fract_x
 _atom_site_fract_y
 _atom_site_fract_z
 _atom_site_occupancy
  Zr  Zr0  1  0.00000000  0.98906823  0.25000000  1.0
  Zr  Zr1  1  0.00000000  0.01093177  0.75000000  1.0
  Sn  Sn2  1  0.50000000  0.46462665  0.25000000  1.0
  Sn  Sn3  1  0.50000000  0.53537335  0.75000000  1.0
  F  F4  1  0.87255355  0.83014029  0.45263938  1.0
  F  F5  1  0.87255355  0.16985971  0.95263938  1.0
  F  F6  1  0.12744645  0.83014029  0.04736062  1.0
  F  F7  1  0.12744645  0.16985971  0.54736062  1.0
  F  F8  1  0.75913022  0.72109521  0.07591124  1.0
  F  F9  1  0.75913022  0.27890479  0.57591124  1.0
  F  F10  1  0.24086978  0.72109521  0.42408876  1.0
  F  F11  1  0.24086978  0.27890479  0.92408876  1.0
  F  F12  1  0.71667332  0.79347460  0.68918206  1.0
  F  F13  1  0.71667332  0.20652540  0.18918206  1.0
  F  F14  1  0.28332668  0.79347460  0.81081794  1.0
  F  F15  1  0.28332668  0.20652540  0.31081794  1.0
