# generated using pymatgen
data_InAsF6
_symmetry_space_group_name_H-M   'P 1'
_cell_length_a   5.20449791
_cell_length_b   5.20449791
_cell_length_c   5.20449791
_cell_angle_alpha   97.37093170
_cell_angle_beta   97.37093170
_cell_angle_gamma   97.37093169
_symmetry_Int_Tables_number   1
_chemical_formula_structural   InAsF6
_chemical_formula_sum   'In1 As1 F6'
_cell_volume   137.14307499
_cell_formula_units_Z   1
loop_
 _symmetry_equiv_pos_site_id
 _symmetry_equiv_pos_as_xyz
  1  'x, y, z'
loop_
 _atom_site_type_symbol
 _atom_site_label
 _atom_site_symmetry_multiplicity
 _atom_site_fract_x
 _atom_site_fract_y
 _atom_site_fract_z
 _atom_site_occupancy
  In  In0  1  0.50000000  0.50000000  0.50000000  1.0
  As  As1  1  0.00000000  0.00000000  0.00000000  1.0
  F  F2  1  0.76507071  0.74834873  0.07998621  1.0
  F  F3  1  1.25165127  -0.07998621  0.23492929  1.0
  F  F4  1  0.92001379  0.23492929  0.25165127  1.0
  F  F5  1  1.23492929  0.25165127  -0.07998621  1.0
  F  F6  1  0.74834873  1.07998621  -0.23492929  1.0
  F  F7  1  1.07998621  0.76507071  -0.25165127  1.0
