# generated using pymatgen
data_Sr3Sc2Fe2As2O5
_symmetry_space_group_name_H-M   'P 1'
_cell_length_a   13.66909061
_cell_length_b   13.66909061
_cell_length_c   13.66909061
_cell_angle_alpha   162.83387917
_cell_angle_beta   162.83387917
_cell_angle_gamma   24.36913083
_symmetry_Int_Tables_number   1
_chemical_formula_structural   Sr3Sc2Fe2As2O5
_chemical_formula_sum   'Sr3 Sc2 Fe2 As2 O5'
_cell_volume   222.41881907
_cell_formula_units_Z   1
loop_
 _symmetry_equiv_pos_site_id
 _symmetry_equiv_pos_as_xyz
  1  'x, y, z'
loop_
 _atom_site_type_symbol
 _atom_site_label
 _atom_site_symmetry_multiplicity
 _atom_site_fract_x
 _atom_site_fract_y
 _atom_site_fract_z
 _atom_site_occupancy
  Sr  Sr0  1  0.64248956  0.64248956  1.00000000  1.0
  Sr  Sr1  1  0.35751044  0.35751044  0.00000000  1.0
  Sr  Sr2  1  0.50000000  0.50000000  1.00000000  1.0
  Sc  Sc3  1  0.92530783  0.92530783  1.00000000  1.0
  Sc  Sc4  1  0.07469217  0.07469217  -0.00000000  1.0
  Fe  Fe5  1  0.25000000  0.75000000  0.50000000  1.0
  Fe  Fe6  1  0.75000000  0.25000000  0.50000000  1.0
  As  As7  1  0.79442719  0.79442719  1.00000000  1.0
  As  As8  1  0.20557281  0.20557281  0.00000000  1.0
  O  O9  1  0.41458303  0.91458303  0.50000000  1.0
  O  O10  1  0.58541697  0.08541697  0.50000000  1.0
  O  O11  1  0.91458303  0.41458303  0.50000000  1.0
  O  O12  1  0.08541697  0.58541697  0.50000000  1.0
  O  O13  1  0.00000000  0.00000000  0.00000000  1.0
