# generated using pymatgen
data_Gd3(Ni2Sn)4
_symmetry_space_group_name_H-M   'P 1'
_cell_length_a   8.92586247
_cell_length_b   8.92586247
_cell_length_c   7.53305740
_cell_angle_alpha   90.00000000
_cell_angle_beta   90.00000000
_cell_angle_gamma   120.00000000
_symmetry_Int_Tables_number   1
_chemical_formula_structural   Gd3(Ni2Sn)4
_chemical_formula_sum   'Gd6 Ni16 Sn8'
_cell_volume   519.75932501
_cell_formula_units_Z   2
loop_
 _symmetry_equiv_pos_site_id
 _symmetry_equiv_pos_as_xyz
  1  'x, y, z'
loop_
 _atom_site_type_symbol
 _atom_site_label
 _atom_site_symmetry_multiplicity
 _atom_site_fract_x
 _atom_site_fract_y
 _atom_site_fract_z
 _atom_site_occupancy
  Gd  Gd0  1  0.94339092  0.47169546  0.21471372  1.0
  Gd  Gd1  1  0.47169546  0.94339092  0.71471372  1.0
  Gd  Gd2  1  0.47169546  0.52830454  0.71471372  1.0
  Gd  Gd3  1  0.52830454  0.47169546  0.21471372  1.0
  Gd  Gd4  1  0.52830454  0.05660908  0.21471372  1.0
  Gd  Gd5  1  0.05660908  0.52830454  0.71471372  1.0
  Ni  Ni6  1  0.67188617  0.83594309  0.05228547  1.0
  Ni  Ni7  1  0.83594309  0.67188617  0.55228547  1.0
  Ni  Ni8  1  0.83594309  0.16405691  0.55228547  1.0
  Ni  Ni9  1  0.16405691  0.83594309  0.05228547  1.0
  Ni  Ni10  1  0.16405691  0.32811383  0.05228547  1.0
  Ni  Ni11  1  0.32811383  0.16405691  0.55228547  1.0
  Ni  Ni12  1  0.20946988  0.10473494  0.23774547  1.0
  Ni  Ni13  1  0.10473494  0.20946988  0.73774547  1.0
  Ni  Ni14  1  0.10473494  0.89526506  0.73774547  1.0
  Ni  Ni15  1  0.89526506  0.10473494  0.23774547  1.0
  Ni  Ni16  1  0.89526506  0.79053012  0.23774547  1.0
  Ni  Ni17  1  0.79053012  0.89526506  0.73774547  1.0
  Ni  Ni18  1  0.33333333  0.66666667  0.41230701  1.0
  Ni  Ni19  1  0.66666667  0.33333333  0.91230701  1.0
  Ni  Ni20  1  0.00000000  0.00000000  -0.00501671  1.0
  Ni  Ni21  1  0.00000000  0.00000000  0.49498329  1.0
  Sn  Sn22  1  0.66609021  0.83304511  0.41732727  1.0
  Sn  Sn23  1  0.83304511  0.66609021  0.91732727  1.0
  Sn  Sn24  1  0.83304511  0.16695489  0.91732727  1.0
  Sn  Sn25  1  0.16695489  0.83304511  0.41732727  1.0
  Sn  Sn26  1  0.16695489  0.33390979  0.41732727  1.0
  Sn  Sn27  1  0.33390979  0.16695489  0.91732727  1.0
  Sn  Sn28  1  0.33333333  0.66666667  0.03859392  1.0
  Sn  Sn29  1  0.66666667  0.33333333  0.53859392  1.0
