# generated using pymatgen
data_MnC5ClO5
_symmetry_space_group_name_H-M   'P 1'
_cell_length_a   12.18450416
_cell_length_b   12.05758340
_cell_length_c   6.24989391
_cell_angle_alpha   90.00000000
_cell_angle_beta   90.00000000
_cell_angle_gamma   90.00000000
_symmetry_Int_Tables_number   1
_chemical_formula_structural   MnC5ClO5
_chemical_formula_sum   'Mn4 C20 Cl4 O20'
_cell_volume   918.20738244
_cell_formula_units_Z   4
loop_
 _symmetry_equiv_pos_site_id
 _symmetry_equiv_pos_as_xyz
  1  'x, y, z'
loop_
 _atom_site_type_symbol
 _atom_site_label
 _atom_site_symmetry_multiplicity
 _atom_site_fract_x
 _atom_site_fract_y
 _atom_site_fract_z
 _atom_site_occupancy
  Mn  Mn0  1  0.37702294  0.25000000  0.54751976  1.0
  Mn  Mn1  1  0.87702294  0.25000000  0.95248024  1.0
  Mn  Mn2  1  0.62297706  0.75000000  0.45248024  1.0
  Mn  Mn3  1  0.12297706  0.75000000  0.04751976  1.0
  C  C4  1  0.95796515  0.36000826  0.81718316  1.0
  C  C5  1  0.95796515  0.13999174  0.81718316  1.0
  C  C6  1  0.45796515  0.36000826  0.68281684  1.0
  C  C7  1  0.45796515  0.13999174  0.68281684  1.0
  C  C8  1  0.04203485  0.86000826  0.18281684  1.0
  C  C9  1  0.04203485  0.63999174  0.18281684  1.0
  C  C10  1  0.54203485  0.86000826  0.31718316  1.0
  C  C11  1  0.54203485  0.63999174  0.31718316  1.0
  C  C12  1  0.78610722  0.35881038  0.06696800  1.0
  C  C13  1  0.78610722  0.14118962  0.06696800  1.0
  C  C14  1  0.28610722  0.35881038  0.43303200  1.0
  C  C15  1  0.28610722  0.14118962  0.43303200  1.0
  C  C16  1  0.21389278  0.85881038  0.93303200  1.0
  C  C17  1  0.21389278  0.64118962  0.93303200  1.0
  C  C18  1  0.71389278  0.85881038  0.56696800  1.0
  C  C19  1  0.71389278  0.64118962  0.56696800  1.0
  C  C20  1  0.96624032  0.25000000  0.18151904  1.0
  C  C21  1  0.46624032  0.25000000  0.31848096  1.0
  C  C22  1  0.03375968  0.75000000  0.81848096  1.0
  C  C23  1  0.53375968  0.75000000  0.68151904  1.0
  Cl  Cl24  1  0.75918988  0.25000000  0.64620248  1.0
  Cl  Cl25  1  0.25918988  0.25000000  0.85379752  1.0
  Cl  Cl26  1  0.24081012  0.75000000  0.35379752  1.0
  Cl  Cl27  1  0.74081012  0.75000000  0.14620248  1.0
  O  O28  1  0.99358430  0.92990265  0.26410322  1.0
  O  O29  1  0.99358430  0.57009735  0.26410322  1.0
  O  O30  1  0.49358430  0.92990265  0.23589678  1.0
  O  O31  1  0.49358430  0.57009735  0.23589678  1.0
  O  O32  1  0.00641570  0.42990265  0.73589678  1.0
  O  O33  1  0.00641570  0.07009735  0.73589678  1.0
  O  O34  1  0.50641570  0.42990265  0.76410322  1.0
  O  O35  1  0.50641570  0.07009735  0.76410322  1.0
  O  O36  1  0.72986082  0.42636376  0.13508081  1.0
  O  O37  1  0.72986082  0.07363624  0.13508081  1.0
  O  O38  1  0.22986082  0.42636376  0.36491919  1.0
  O  O39  1  0.22986082  0.07363624  0.36491919  1.0
  O  O40  1  0.27013918  0.92636376  0.86491919  1.0
  O  O41  1  0.27013918  0.57363624  0.86491919  1.0
  O  O42  1  0.77013918  0.92636376  0.63508081  1.0
  O  O43  1  0.77013918  0.57363624  0.63508081  1.0
  O  O44  1  0.52469761  0.25000000  0.17274176  1.0
  O  O45  1  0.02469761  0.25000000  0.32725824  1.0
  O  O46  1  0.47530239  0.75000000  0.82725824  1.0
  O  O47  1  0.97530239  0.75000000  0.67274176  1.0
