# generated using pymatgen
data_Ba2GaSbS5
_symmetry_space_group_name_H-M   'P 1'
_cell_length_a   12.32013039
_cell_length_b   8.91719008
_cell_length_c   9.16754739
_cell_angle_alpha   90.00000000
_cell_angle_beta   90.00000000
_cell_angle_gamma   90.00000000
_symmetry_Int_Tables_number   1
_chemical_formula_structural   Ba2GaSbS5
_chemical_formula_sum   'Ba8 Ga4 Sb4 S20'
_cell_volume   1007.15541511
_cell_formula_units_Z   4
loop_
 _symmetry_equiv_pos_site_id
 _symmetry_equiv_pos_as_xyz
  1  'x, y, z'
loop_
 _atom_site_type_symbol
 _atom_site_label
 _atom_site_symmetry_multiplicity
 _atom_site_fract_x
 _atom_site_fract_y
 _atom_site_fract_z
 _atom_site_occupancy
  Ba  Ba0  1  0.17636295  0.99400476  0.87715072  1.0
  Ba  Ba1  1  0.17636295  0.50599524  0.87715072  1.0
  Ba  Ba2  1  0.67636295  0.99400476  0.62284928  1.0
  Ba  Ba3  1  0.67636295  0.50599524  0.62284928  1.0
  Ba  Ba4  1  0.82363705  0.49400476  0.12284928  1.0
  Ba  Ba5  1  0.82363705  0.00599524  0.12284928  1.0
  Ba  Ba6  1  0.32363705  0.49400476  0.37715072  1.0
  Ba  Ba7  1  0.32363705  0.00599524  0.37715072  1.0
  Ga  Ga8  1  0.40458397  0.75000000  0.67324918  1.0
  Ga  Ga9  1  0.90458397  0.75000000  0.82675082  1.0
  Ga  Ga10  1  0.59541603  0.25000000  0.32675082  1.0
  Ga  Ga11  1  0.09541603  0.25000000  0.17324918  1.0
  Sb  Sb12  1  0.47642011  0.75000000  0.02301403  1.0
  Sb  Sb13  1  0.97642011  0.75000000  0.47698597  1.0
  Sb  Sb14  1  0.52357989  0.25000000  0.97698597  1.0
  Sb  Sb15  1  0.02357989  0.25000000  0.52301403  1.0
  S  S16  1  0.44414805  0.95030362  0.82815799  1.0
  S  S17  1  0.44414805  0.54969638  0.82815799  1.0
  S  S18  1  0.94414805  0.95030362  0.67184201  1.0
  S  S19  1  0.94414805  0.54969638  0.67184201  1.0
  S  S20  1  0.55585195  0.45030362  0.17184201  1.0
  S  S21  1  0.55585195  0.04969638  0.17184201  1.0
  S  S22  1  0.05585195  0.45030362  0.32815799  1.0
  S  S23  1  0.05585195  0.04969638  0.32815799  1.0
  S  S24  1  0.28967493  0.75000000  0.11786410  1.0
  S  S25  1  0.78967493  0.75000000  0.38213590  1.0
  S  S26  1  0.71032507  0.25000000  0.88213590  1.0
  S  S27  1  0.21032507  0.25000000  0.61786410  1.0
  S  S28  1  0.22577104  0.75000000  0.61764869  1.0
  S  S29  1  0.72577104  0.75000000  0.88235131  1.0
  S  S30  1  0.77422896  0.25000000  0.38235131  1.0
  S  S31  1  0.27422896  0.25000000  0.11764869  1.0
  S  S32  1  0.00800157  0.75000000  0.02705833  1.0
  S  S33  1  0.50800157  0.75000000  0.47294167  1.0
  S  S34  1  0.99199843  0.25000000  0.97294167  1.0
  S  S35  1  0.49199843  0.25000000  0.52705833  1.0
