# generated using pymatgen
data_Sr(NiP)2
_symmetry_space_group_name_H-M   'P 1'
_cell_length_a   9.47385667
_cell_length_b   8.79384490
_cell_length_c   7.22378953
_cell_angle_alpha   71.76258620
_cell_angle_beta   61.83545838
_cell_angle_gamma   46.40195542
_symmetry_Int_Tables_number   1
_chemical_formula_structural   Sr(NiP)2
_chemical_formula_sum   'Sr4 Ni8 P8'
_cell_volume   384.16003464
_cell_formula_units_Z   4
loop_
 _symmetry_equiv_pos_site_id
 _symmetry_equiv_pos_as_xyz
  1  'x, y, z'
loop_
 _atom_site_type_symbol
 _atom_site_label
 _atom_site_symmetry_multiplicity
 _atom_site_fract_x
 _atom_site_fract_y
 _atom_site_fract_z
 _atom_site_occupancy
  Sr  Sr0  1  0.62500000  0.62500000  1.12500000  1.0
  Sr  Sr1  1  0.62500000  1.12500000  0.62500000  1.0
  Sr  Sr2  1  0.62500000  0.62500000  0.62500000  1.0
  Sr  Sr3  1  1.12500000  0.62500000  0.62500000  1.0
  Ni  Ni4  1  0.81524265  0.02115730  0.94594195  1.0
  Ni  Ni5  1  1.21765810  0.94594195  0.02115730  1.0
  Ni  Ni6  1  1.22884270  0.43475735  0.03234190  1.0
  Ni  Ni7  1  1.30405805  0.03234190  0.43475735  1.0
  Ni  Ni8  1  1.94594195  0.21765810  -0.18475735  1.0
  Ni  Ni9  1  1.02115730  -0.18475735  0.21765810  1.0
  Ni  Ni10  1  1.03234190  0.30405805  0.22884270  1.0
  Ni  Ni11  1  1.43475735  0.22884270  0.30405805  1.0
  P  P12  1  0.98000522  0.07595959  0.33019688  1.0
  P  P13  1  1.61383832  0.33019688  0.07595959  1.0
  P  P14  1  1.17404041  0.26999478  0.63616168  1.0
  P  P15  1  0.91980312  0.63616168  0.26999478  1.0
  P  P16  1  1.33019688  0.61383832  -0.01999478  1.0
  P  P17  1  1.07595959  -0.01999478  0.61383832  1.0
  P  P18  1  0.63616168  0.91980312  1.17404041  1.0
  P  P19  1  0.26999478  1.17404041  0.91980312  1.0
