# generated using pymatgen
data_ZnCu2GeS4
_symmetry_space_group_name_H-M   'P 1'
_cell_length_a   6.55475008
_cell_length_b   6.55475008
_cell_length_c   6.55475008
_cell_angle_alpha   131.91310116
_cell_angle_beta   131.91310116
_cell_angle_gamma   70.36630882
_symmetry_Int_Tables_number   1
_chemical_formula_structural   ZnCu2GeS4
_chemical_formula_sum   'Zn1 Cu2 Ge1 S4'
_cell_volume   152.83472442
_cell_formula_units_Z   1
loop_
 _symmetry_equiv_pos_site_id
 _symmetry_equiv_pos_as_xyz
  1  'x, y, z'
loop_
 _atom_site_type_symbol
 _atom_site_label
 _atom_site_symmetry_multiplicity
 _atom_site_fract_x
 _atom_site_fract_y
 _atom_site_fract_z
 _atom_site_occupancy
  Zn  Zn0  1  0.50000000  0.50000000  1.00000000  1.0
  Cu  Cu1  1  0.25000000  0.75000000  0.50000000  1.0
  Cu  Cu2  1  0.75000000  0.25000000  0.50000000  1.0
  Ge  Ge3  1  0.00000000  0.00000000  0.00000000  1.0
  S  S4  1  0.37067261  0.88501871  1.00000000  1.0
  S  S5  1  1.11498129  1.11498129  1.48565390  1.0
  S  S6  1  0.62932739  0.62932739  0.51434610  1.0
  S  S7  1  0.88501871  0.37067261  1.00000000  1.0
