# generated using pymatgen
data_SmSeF
_symmetry_space_group_name_H-M   'P 1'
_cell_length_a   4.02712454
_cell_length_b   4.02712454
_cell_length_c   7.24596685
_cell_angle_alpha   90.00000000
_cell_angle_beta   90.00000000
_cell_angle_gamma   90.00000000
_symmetry_Int_Tables_number   1
_chemical_formula_structural   SmSeF
_chemical_formula_sum   'Sm2 Se2 F2'
_cell_volume   117.51314871
_cell_formula_units_Z   2
loop_
 _symmetry_equiv_pos_site_id
 _symmetry_equiv_pos_as_xyz
  1  'x, y, z'
loop_
 _atom_site_type_symbol
 _atom_site_label
 _atom_site_symmetry_multiplicity
 _atom_site_fract_x
 _atom_site_fract_y
 _atom_site_fract_z
 _atom_site_occupancy
  Sm  Sm0  1  0.50000000  0.00000000  0.21242279  1.0
  Sm  Sm1  1  0.00000000  0.50000000  0.78757721  1.0
  Se  Se2  1  0.50000000  0.00000000  0.63864479  1.0
  Se  Se3  1  0.00000000  0.50000000  0.36135521  1.0
  F  F4  1  0.00000000  0.00000000  0.00000000  1.0
  F  F5  1  0.50000000  0.50000000  0.00000000  1.0
