# generated using pymatgen
data_AsClF8
_symmetry_space_group_name_H-M   'P 1'
_cell_length_a   5.98613148
_cell_length_b   5.98613148
_cell_length_c   10.92149196
_cell_angle_alpha   71.74149523
_cell_angle_beta   108.25850477
_cell_angle_gamma   94.95396330
_symmetry_Int_Tables_number   1
_chemical_formula_structural   AsClF8
_chemical_formula_sum   'As2 Cl2 F16'
_cell_volume   352.91231798
_cell_formula_units_Z   2
loop_
 _symmetry_equiv_pos_site_id
 _symmetry_equiv_pos_as_xyz
  1  'x, y, z'
loop_
 _atom_site_type_symbol
 _atom_site_label
 _atom_site_symmetry_multiplicity
 _atom_site_fract_x
 _atom_site_fract_y
 _atom_site_fract_z
 _atom_site_occupancy
  As  As0  1  0.50000000  0.00000000  0.50000000  1.0
  As  As1  1  1.00000000  0.50000000  -0.00000000  1.0
  Cl  Cl2  1  0.06092532  0.06092532  0.75000000  1.0
  Cl  Cl3  1  0.93907468  -0.06092532  0.25000000  1.0
  F  F4  1  0.27214703  0.18657222  0.48635803  1.0
  F  F5  1  0.81342778  -0.27214703  0.98635803  1.0
  F  F6  1  0.72785297  -0.18657222  0.51364197  1.0
  F  F7  1  1.18657222  -0.72785297  0.01364197  1.0
  F  F8  1  0.67615526  0.06097581  0.65968731  1.0
  F  F9  1  0.93902419  0.32384474  0.15968731  1.0
  F  F10  1  0.32384474  -0.06097581  0.34031269  1.0
  F  F11  1  1.06097581  0.67615526  0.84031269  1.0
  F  F12  1  0.37032497  -0.24195230  0.59472607  1.0
  F  F13  1  1.24195230  0.62967503  0.09472607  1.0
  F  F14  1  0.62967503  0.24195230  0.40527393  1.0
  F  F15  1  0.75804770  0.37032497  0.90527393  1.0
  F  F16  1  1.04994945  -0.65749806  0.67324612  1.0
  F  F17  1  0.65749806  -0.04994945  0.17324612  1.0
  F  F18  1  0.95005055  -0.34250194  0.32675388  1.0
  F  F19  1  0.34250194  0.04994945  0.82675388  1.0
