# generated using pymatgen
data_VO3
_symmetry_space_group_name_H-M   'P 1'
_cell_length_a   5.55525895
_cell_length_b   5.55525895
_cell_length_c   5.55525895
_cell_angle_alpha   76.57637478
_cell_angle_beta   120.67283109
_cell_angle_gamma   136.22100024
_symmetry_Int_Tables_number   1
_chemical_formula_structural   VO3
_chemical_formula_sum   'V2 O6'
_cell_volume   99.31371976
_cell_formula_units_Z   2
loop_
 _symmetry_equiv_pos_site_id
 _symmetry_equiv_pos_as_xyz
  1  'x, y, z'
loop_
 _atom_site_type_symbol
 _atom_site_label
 _atom_site_symmetry_multiplicity
 _atom_site_fract_x
 _atom_site_fract_y
 _atom_site_fract_z
 _atom_site_occupancy
  V  V0  1  1.15115000  0.90115000  1.25000000  1.0
  V  V1  1  0.84885000  0.09885000  0.75000000  1.0
  O  O2  1  0.00000000  0.13994743  0.13994743  1.0
  O  O3  1  0.50000000  0.13994743  0.63994743  1.0
  O  O4  1  0.50000000  0.86005257  0.36005257  1.0
  O  O5  1  1.00000000  0.86005257  0.86005257  1.0
  O  O6  1  1.75957294  1.50957294  1.25000000  1.0
  O  O7  1  1.24042706  0.49042706  0.75000000  1.0
