# generated using pymatgen
data_TaAs
_symmetry_space_group_name_H-M   'P 1'
_cell_length_a   6.35321793
_cell_length_b   6.35321793
_cell_length_c   6.35321793
_cell_angle_alpha   148.35798714
_cell_angle_beta   148.35798714
_cell_angle_gamma   45.35718143
_symmetry_Int_Tables_number   1
_chemical_formula_structural   TaAs
_chemical_formula_sum   'Ta2 As2'
_cell_volume   70.34776003
_cell_formula_units_Z   2
loop_
 _symmetry_equiv_pos_site_id
 _symmetry_equiv_pos_as_xyz
  1  'x, y, z'
loop_
 _atom_site_type_symbol
 _atom_site_label
 _atom_site_symmetry_multiplicity
 _atom_site_fract_x
 _atom_site_fract_y
 _atom_site_fract_z
 _atom_site_occupancy
  Ta  Ta0  1  -0.00089281  -0.00089281  -0.00000000  1.0
  Ta  Ta1  1  0.74910719  0.24910719  0.50000000  1.0
  As  As2  1  0.41689281  0.41689281  0.00000000  1.0
  As  As3  1  0.16689281  0.66689281  0.50000000  1.0
