# generated using pymatgen
data_BaAg2GeS4
_symmetry_space_group_name_H-M   'P 1'
_cell_length_a   6.37010429
_cell_length_b   6.37010429
_cell_length_c   6.37010429
_cell_angle_alpha   114.92576211
_cell_angle_beta   114.92576211
_cell_angle_gamma   99.03935138
_symmetry_Int_Tables_number   1
_chemical_formula_structural   BaAg2GeS4
_chemical_formula_sum   'Ba1 Ag2 Ge1 S4'
_cell_volume   194.17130751
_cell_formula_units_Z   1
loop_
 _symmetry_equiv_pos_site_id
 _symmetry_equiv_pos_as_xyz
  1  'x, y, z'
loop_
 _atom_site_type_symbol
 _atom_site_label
 _atom_site_symmetry_multiplicity
 _atom_site_fract_x
 _atom_site_fract_y
 _atom_site_fract_z
 _atom_site_occupancy
  Ba  Ba0  1  0.50000000  0.50000000  -0.00000000  1.0
  Ag  Ag1  1  0.75000000  1.25000000  0.50000000  1.0
  Ag  Ag2  1  1.25000000  0.75000000  0.50000000  1.0
  Ge  Ge3  1  -0.00000000  -0.00000000  -0.00000000  1.0
  S  S4  1  0.96661162  0.96661162  0.62112044  1.0
  S  S5  1  1.03338838  0.65450882  1.00000000  1.0
  S  S6  1  0.65450882  1.03338838  1.00000000  1.0
  S  S7  1  0.34549118  0.34549118  0.37887956  1.0
