# generated using pymatgen
data_LiNbS2
_symmetry_space_group_name_H-M   'P 1'
_cell_length_a   6.97249406
_cell_length_b   6.97249406
_cell_length_c   6.97249406
_cell_angle_alpha   27.98224363
_cell_angle_beta   27.98224363
_cell_angle_gamma   27.98224363
_symmetry_Int_Tables_number   1
_chemical_formula_structural   LiNbS2
_chemical_formula_sum   'Li1 Nb1 S2'
_cell_volume   65.90911984
_cell_formula_units_Z   1
loop_
 _symmetry_equiv_pos_site_id
 _symmetry_equiv_pos_as_xyz
  1  'x, y, z'
loop_
 _atom_site_type_symbol
 _atom_site_label
 _atom_site_symmetry_multiplicity
 _atom_site_fract_x
 _atom_site_fract_y
 _atom_site_fract_z
 _atom_site_occupancy
  Li  Li0  1  0.83804300  -0.16195700  -0.16195700  1.0
  Nb  Nb1  1  0.00070975  0.00070975  0.00070975  1.0
  S  S2  1  0.58758436  0.58758436  -0.41241564  1.0
  S  S3  1  0.41366289  0.41366289  -0.58633711  1.0
