# generated using pymatgen
data_Ge3Mo5
_symmetry_space_group_name_H-M   'P 1'
_cell_length_a   7.44778240
_cell_length_b   7.44778240
_cell_length_c   5.14184742
_cell_angle_alpha   90.00000000
_cell_angle_beta   90.00000000
_cell_angle_gamma   120.00000000
_symmetry_Int_Tables_number   1
_chemical_formula_structural   Ge3Mo5
_chemical_formula_sum   'Ge6 Mo10'
_cell_volume   247.00388019
_cell_formula_units_Z   2
loop_
 _symmetry_equiv_pos_site_id
 _symmetry_equiv_pos_as_xyz
  1  'x, y, z'
loop_
 _atom_site_type_symbol
 _atom_site_label
 _atom_site_symmetry_multiplicity
 _atom_site_fract_x
 _atom_site_fract_y
 _atom_site_fract_z
 _atom_site_occupancy
  Ge  Ge0  1  0.39448467  0.39448467  0.25000000  1.0
  Ge  Ge1  1  0.39448467  0.00000000  0.75000000  1.0
  Ge  Ge2  1  -0.00000000  0.39448467  0.75000000  1.0
  Ge  Ge3  1  -0.00000000  0.60551533  0.25000000  1.0
  Ge  Ge4  1  0.60551533  0.60551533  0.75000000  1.0
  Ge  Ge5  1  0.60551533  0.00000000  0.25000000  1.0
  Mo  Mo6  1  0.76901597  0.76901597  0.25000000  1.0
  Mo  Mo7  1  0.76901597  0.00000000  0.75000000  1.0
  Mo  Mo8  1  -0.00000000  0.76901597  0.75000000  1.0
  Mo  Mo9  1  0.00000000  0.23098403  0.25000000  1.0
  Mo  Mo10  1  0.23098403  0.23098403  0.75000000  1.0
  Mo  Mo11  1  0.23098403  0.00000000  0.25000000  1.0
  Mo  Mo12  1  0.33333333  0.66666667  0.50000000  1.0
  Mo  Mo13  1  0.33333333  0.66666667  0.00000000  1.0
  Mo  Mo14  1  0.66666667  0.33333333  0.50000000  1.0
  Mo  Mo15  1  0.66666667  0.33333333  0.00000000  1.0
