# generated using pymatgen
data_CuTeO3
_symmetry_space_group_name_H-M   'P 1'
_cell_length_a   12.97944296
_cell_length_b   7.70831348
_cell_length_c   6.04678937
_cell_angle_alpha   90.00000000
_cell_angle_beta   90.00000000
_cell_angle_gamma   90.00000000
_symmetry_Int_Tables_number   1
_chemical_formula_structural   CuTeO3
_chemical_formula_sum   'Cu8 Te8 O24'
_cell_volume   604.97894935
_cell_formula_units_Z   8
loop_
 _symmetry_equiv_pos_site_id
 _symmetry_equiv_pos_as_xyz
  1  'x, y, z'
loop_
 _atom_site_type_symbol
 _atom_site_label
 _atom_site_symmetry_multiplicity
 _atom_site_fract_x
 _atom_site_fract_y
 _atom_site_fract_z
 _atom_site_occupancy
  Te  Te0  1  0.88594313  0.25000000  0.67927573  1.0
  Te  Te1  1  0.38594313  0.25000000  0.82072427  1.0
  Te  Te2  1  0.11405687  0.75000000  0.32072427  1.0
  Te  Te3  1  0.61405687  0.75000000  0.17927573  1.0
  Te  Te4  1  0.65338368  0.25000000  0.08313485  1.0
  Te  Te5  1  0.15338368  0.25000000  0.41686515  1.0
  Te  Te6  1  0.34661632  0.75000000  0.91686515  1.0
  Te  Te7  1  0.84661632  0.75000000  0.58313485  1.0
  Cu  Cu8  1  0.90555276  0.45297836  0.14797281  1.0
  Cu  Cu9  1  0.90555276  0.04702164  0.14797281  1.0
  Cu  Cu10  1  0.40555276  0.45297836  0.35202719  1.0
  Cu  Cu11  1  0.40555276  0.04702164  0.35202719  1.0
  Cu  Cu12  1  0.09444724  0.95297836  0.85202719  1.0
  Cu  Cu13  1  0.09444724  0.54702164  0.85202719  1.0
  Cu  Cu14  1  0.59444724  0.95297836  0.64797281  1.0
  Cu  Cu15  1  0.59444724  0.54702164  0.64797281  1.0
  O  O16  1  0.98937856  0.25000000  0.43552937  1.0
  O  O17  1  0.48937856  0.25000000  0.06447063  1.0
  O  O18  1  0.01062144  0.75000000  0.56447063  1.0
  O  O19  1  0.51062144  0.75000000  0.93552937  1.0
  O  O20  1  0.83305531  0.96132695  0.40186926  1.0
  O  O21  1  0.83305531  0.53867305  0.40186926  1.0
  O  O22  1  0.33305531  0.96132695  0.09813074  1.0
  O  O23  1  0.33305531  0.53867305  0.09813074  1.0
  O  O24  1  0.16694469  0.46132695  0.59813074  1.0
  O  O25  1  0.16694469  0.03867305  0.59813074  1.0
  O  O26  1  0.66694469  0.46132695  0.90186926  1.0
  O  O27  1  0.66694469  0.03867305  0.90186926  1.0
  O  O28  1  0.82030457  0.25000000  0.06239275  1.0
  O  O29  1  0.32030457  0.25000000  0.43760725  1.0
  O  O30  1  0.17969543  0.75000000  0.93760725  1.0
  O  O31  1  0.67969543  0.75000000  0.56239275  1.0
  O  O32  1  0.54118872  0.93460626  0.34734727  1.0
  O  O33  1  0.54118872  0.56539374  0.34734727  1.0
  O  O34  1  0.04118872  0.93460626  0.15265273  1.0
  O  O35  1  0.04118872  0.56539374  0.15265273  1.0
  O  O36  1  0.45881128  0.43460626  0.65265273  1.0
  O  O37  1  0.45881128  0.06539374  0.65265273  1.0
  O  O38  1  0.95881128  0.43460626  0.84734727  1.0
  O  O39  1  0.95881128  0.06539374  0.84734727  1.0
