# generated using pymatgen
data_La3BeGaS7
_symmetry_space_group_name_H-M   'P 1'
_cell_length_a   10.16471651
_cell_length_b   10.16471651
_cell_length_c   6.12089414
_cell_angle_alpha   90.00000000
_cell_angle_beta   90.00000000
_cell_angle_gamma   120.00000000
_symmetry_Int_Tables_number   1
_chemical_formula_structural   La3BeGaS7
_chemical_formula_sum   'La6 Be2 Ga2 S14'
_cell_volume   547.69155202
_cell_formula_units_Z   2
loop_
 _symmetry_equiv_pos_site_id
 _symmetry_equiv_pos_as_xyz
  1  'x, y, z'
loop_
 _atom_site_type_symbol
 _atom_site_label
 _atom_site_symmetry_multiplicity
 _atom_site_fract_x
 _atom_site_fract_y
 _atom_site_fract_z
 _atom_site_occupancy
  La  La0  1  0.75052898  0.14281237  0.73566897  1.0
  La  La1  1  0.39228338  0.24947102  0.73566897  1.0
  La  La2  1  0.85718763  0.60771662  0.73566897  1.0
  La  La3  1  0.24947102  0.85718763  0.23566897  1.0
  La  La4  1  0.60771662  0.75052898  0.23566897  1.0
  La  La5  1  0.14281237  0.39228338  0.23566897  1.0
  Be  Be6  1  0.66666667  0.33333333  0.14786568  1.0
  Be  Be7  1  0.33333333  0.66666667  0.64786568  1.0
  Ga  Ga8  1  0.00000000  0.00000000  0.52445331  1.0
  Ga  Ga9  1  0.00000000  0.00000000  0.02445331  1.0
  S  S10  1  0.86045548  0.08358128  0.29910157  1.0
  S  S11  1  0.22312580  0.13954452  0.29910157  1.0
  S  S12  1  0.91641872  0.77687420  0.29910157  1.0
  S  S13  1  0.13954452  0.91641872  0.79910157  1.0
  S  S14  1  0.77687420  0.86045548  0.79910157  1.0
  S  S15  1  0.08358128  0.22312580  0.79910157  1.0
  S  S16  1  0.88776784  0.40857521  0.01963432  1.0
  S  S17  1  0.52080736  0.11223216  0.01963432  1.0
  S  S18  1  0.59142479  0.47919264  0.01963432  1.0
  S  S19  1  0.11223216  0.59142479  0.51963432  1.0
  S  S20  1  0.47919264  0.88776784  0.51963432  1.0
  S  S21  1  0.40857521  0.52080736  0.51963432  1.0
  S  S22  1  0.66666667  0.33333333  0.49646646  1.0
  S  S23  1  0.33333333  0.66666667  -0.00353354  1.0
