# generated using pymatgen
data_MnH4(ClO)2
_symmetry_space_group_name_H-M   'P 1'
_cell_length_a   5.92573342
_cell_length_b   5.92573342
_cell_length_c   3.74702552
_cell_angle_alpha   79.99532531
_cell_angle_beta   100.00467469
_cell_angle_gamma   85.61465845
_symmetry_Int_Tables_number   1
_chemical_formula_structural   MnH4(ClO)2
_chemical_formula_sum   'Mn1 H4 Cl2 O2'
_cell_volume   126.82927253
_cell_formula_units_Z   1
loop_
 _symmetry_equiv_pos_site_id
 _symmetry_equiv_pos_as_xyz
  1  'x, y, z'
loop_
 _atom_site_type_symbol
 _atom_site_label
 _atom_site_symmetry_multiplicity
 _atom_site_fract_x
 _atom_site_fract_y
 _atom_site_fract_z
 _atom_site_occupancy
  Mn  Mn0  1  0.00000000  0.00000000  0.00000000  1.0
  H  H1  1  0.59640333  -0.22274673  0.85440950  1.0
  H  H2  1  1.22274673  0.40359667  0.85440950  1.0
  H  H3  1  0.77725327  -0.40359667  0.14559050  1.0
  H  H4  1  1.40359667  0.22274673  0.14559050  1.0
  Cl  Cl5  1  0.77261675  -0.77261675  0.38745430  1.0
  Cl  Cl6  1  0.22738325  -0.22738325  0.61254570  1.0
  O  O7  1  0.75426979  -0.24573021  0.00000000  1.0
  O  O8  1  1.24573021  0.24573021  0.00000000  1.0
