# generated using pymatgen
data_InBiS3
_symmetry_space_group_name_H-M   'P 1'
_cell_length_a   6.69721847
_cell_length_b   3.91939643
_cell_length_c   10.27235224
_cell_angle_alpha   90.00000000
_cell_angle_beta   86.57671265
_cell_angle_gamma   90.00000000
_symmetry_Int_Tables_number   1
_chemical_formula_structural   InBiS3
_chemical_formula_sum   'In2 Bi2 S6'
_cell_volume   269.15839696
_cell_formula_units_Z   2
loop_
 _symmetry_equiv_pos_site_id
 _symmetry_equiv_pos_as_xyz
  1  'x, y, z'
loop_
 _atom_site_type_symbol
 _atom_site_label
 _atom_site_symmetry_multiplicity
 _atom_site_fract_x
 _atom_site_fract_y
 _atom_site_fract_z
 _atom_site_occupancy
  In  In0  1  0.74970358  0.75000000  -0.00002345  1.0
  In  In1  1  0.25029642  0.25000000  1.00002345  1.0
  Bi  Bi2  1  0.42183527  0.75000000  0.66064846  1.0
  Bi  Bi3  1  0.57816473  0.25000000  0.33935154  1.0
  S  S4  1  0.25335712  0.25000000  0.52629636  1.0
  S  S5  1  0.74664288  0.75000000  0.47370364  1.0
  S  S6  1  0.40774874  0.75000000  0.14576927  1.0
  S  S7  1  0.59225126  0.25000000  0.85423073  1.0
  S  S8  1  0.10314810  0.75000000  0.86324212  1.0
  S  S9  1  0.89685190  0.25000000  0.13675788  1.0
