# generated using pymatgen
data_ScCl
_symmetry_space_group_name_H-M   'P 1'
_cell_length_a   9.80660677
_cell_length_b   9.80660677
_cell_length_c   9.80660677
_cell_angle_alpha   20.53457059
_cell_angle_beta   20.53457059
_cell_angle_gamma   20.53457059
_symmetry_Int_Tables_number   1
_chemical_formula_structural   ScCl
_chemical_formula_sum   'Sc2 Cl2'
_cell_volume   101.56883907
_cell_formula_units_Z   2
loop_
 _symmetry_equiv_pos_site_id
 _symmetry_equiv_pos_as_xyz
  1  'x, y, z'
loop_
 _atom_site_type_symbol
 _atom_site_label
 _atom_site_symmetry_multiplicity
 _atom_site_fract_x
 _atom_site_fract_y
 _atom_site_fract_z
 _atom_site_occupancy
  Sc  Sc0  1  0.71059459  0.71059459  0.71059459  1.0
  Sc  Sc1  1  1.28940541  1.28940541  0.28940541  1.0
  Cl  Cl2  1  0.89940000  0.89940000  0.89940000  1.0
  Cl  Cl3  1  1.10060000  1.10060000  0.10060000  1.0
