# generated using pymatgen
data_NaMgH2C3O7
_symmetry_space_group_name_H-M   'P 1'
_cell_length_a   5.92885862
_cell_length_b   15.61838755
_cell_length_c   7.38067427
_cell_angle_alpha   90.00000000
_cell_angle_beta   102.34178362
_cell_angle_gamma   90.00000000
_symmetry_Int_Tables_number   1
_chemical_formula_structural   NaMgH2C3O7
_chemical_formula_sum   'Na4 Mg4 H8 C12 O28'
_cell_volume   667.65018587
_cell_formula_units_Z   4
loop_
 _symmetry_equiv_pos_site_id
 _symmetry_equiv_pos_as_xyz
  1  'x, y, z'
loop_
 _atom_site_type_symbol
 _atom_site_label
 _atom_site_symmetry_multiplicity
 _atom_site_fract_x
 _atom_site_fract_y
 _atom_site_fract_z
 _atom_site_occupancy
  Na  Na0  1  0.97986001  0.82280967  0.30460538  1.0
  Na  Na1  1  0.97986001  0.67719033  0.80460538  1.0
  Na  Na2  1  0.02013999  0.32280967  0.19539462  1.0
  Na  Na3  1  0.02013999  0.17719033  0.69539462  1.0
  Mg  Mg4  1  0.21389686  0.10112806  0.28779023  1.0
  Mg  Mg5  1  0.21389686  0.39887194  0.78779023  1.0
  Mg  Mg6  1  0.78610314  0.60112806  0.21220977  1.0
  Mg  Mg7  1  0.78610314  0.89887194  0.71220977  1.0
  H  H8  1  0.66687930  0.97204476  0.37150289  1.0
  H  H9  1  0.66687930  0.52795524  0.87150289  1.0
  H  H10  1  0.33312070  0.47204476  0.12849711  1.0
  H  H11  1  0.33312070  0.02795524  0.62849711  1.0
  H  H12  1  0.44242073  0.37725747  0.13527195  1.0
  H  H13  1  0.44242073  0.12274253  0.63527195  1.0
  H  H14  1  0.55757927  0.87725747  0.36472805  1.0
  H  H15  1  0.55757927  0.62274253  0.86472805  1.0
  C  C16  1  0.99691352  0.46268242  0.43072875  1.0
  C  C17  1  0.99691352  0.03731758  0.93072875  1.0
  C  C18  1  0.00308648  0.96268242  0.06927125  1.0
  C  C19  1  0.00308648  0.53731758  0.56927125  1.0
  C  C20  1  0.68692098  0.14803423  0.28717119  1.0
  C  C21  1  0.68692098  0.35196577  0.78717119  1.0
  C  C22  1  0.31307902  0.64803423  0.21282881  1.0
  C  C23  1  0.31307902  0.85196577  0.71282881  1.0
  C  C24  1  0.53954006  0.23164293  0.25043695  1.0
  C  C25  1  0.53954006  0.26835707  0.75043695  1.0
  C  C26  1  0.46045994  0.73164293  0.24956305  1.0
  C  C27  1  0.46045994  0.76835707  0.74956305  1.0
  O  O28  1  0.90354438  0.15609713  0.31944402  1.0
  O  O29  1  0.90354438  0.34390287  0.81944402  1.0
  O  O30  1  0.09645562  0.65609713  0.18055598  1.0
  O  O31  1  0.09645562  0.84390287  0.68055598  1.0
  O  O32  1  0.90700908  0.89372697  0.00475445  1.0
  O  O33  1  0.90700908  0.60627303  0.50475445  1.0
  O  O34  1  0.09299092  0.39372697  0.49524555  1.0
  O  O35  1  0.09299092  0.10627303  0.99524555  1.0
  O  O36  1  0.89721713  0.47615887  0.26364176  1.0
  O  O37  1  0.89721713  0.02384113  0.76364176  1.0
  O  O38  1  0.10278287  0.97615887  0.23635824  1.0
  O  O39  1  0.10278287  0.52384113  0.73635824  1.0
  O  O40  1  0.69361703  0.91362523  0.42398993  1.0
  O  O41  1  0.69361703  0.58637477  0.92398993  1.0
  O  O42  1  0.30638297  0.41362523  0.07601007  1.0
  O  O43  1  0.30638297  0.08637477  0.57601007  1.0
  O  O44  1  0.63226362  0.29832101  0.20505162  1.0
  O  O45  1  0.63226362  0.20167899  0.70505162  1.0
  O  O46  1  0.36773638  0.79832101  0.29494838  1.0
  O  O47  1  0.36773638  0.70167899  0.79494838  1.0
  O  O48  1  0.57251304  0.07915709  0.28305910  1.0
  O  O49  1  0.57251304  0.42084291  0.78305910  1.0
  O  O50  1  0.42748696  0.57915709  0.21694090  1.0
  O  O51  1  0.42748696  0.92084291  0.71694090  1.0
  O  O52  1  0.33188891  0.22459463  0.26845920  1.0
  O  O53  1  0.33188891  0.27540537  0.76845920  1.0
  O  O54  1  0.66811109  0.72459463  0.23154080  1.0
  O  O55  1  0.66811109  0.77540537  0.73154080  1.0
