# generated using pymatgen
data_TaV2
_symmetry_space_group_name_H-M   'P 1'
_cell_length_a   5.07699072
_cell_length_b   5.07699072
_cell_length_c   8.09977221
_cell_angle_alpha   90.00000000
_cell_angle_beta   90.00000000
_cell_angle_gamma   120.00000000
_symmetry_Int_Tables_number   1
_chemical_formula_structural   TaV2
_chemical_formula_sum   'Ta4 V8'
_cell_volume   180.80738926
_cell_formula_units_Z   4
loop_
 _symmetry_equiv_pos_site_id
 _symmetry_equiv_pos_as_xyz
  1  'x, y, z'
loop_
 _atom_site_type_symbol
 _atom_site_label
 _atom_site_symmetry_multiplicity
 _atom_site_fract_x
 _atom_site_fract_y
 _atom_site_fract_z
 _atom_site_occupancy
  Ta  Ta0  1  0.33333333  0.66666667  0.93790392  1.0
  Ta  Ta1  1  0.33333333  0.66666667  0.56209608  1.0
  Ta  Ta2  1  0.66666667  0.33333333  0.43790392  1.0
  Ta  Ta3  1  0.66666667  0.33333333  0.06209608  1.0
  V  V4  1  0.16978963  0.83021037  0.25000000  1.0
  V  V5  1  0.16978963  0.33957926  0.25000000  1.0
  V  V6  1  0.83021037  0.16978963  0.75000000  1.0
  V  V7  1  0.83021037  0.66042074  0.75000000  1.0
  V  V8  1  0.66042074  0.83021037  0.25000000  1.0
  V  V9  1  0.33957926  0.16978963  0.75000000  1.0
  V  V10  1  -0.00000000  -0.00000000  0.50000000  1.0
  V  V11  1  0.00000000  0.00000000  0.00000000  1.0
