# generated using pymatgen
data_SiO2
_symmetry_space_group_name_H-M   'P 1'
_cell_length_a   4.90049067
_cell_length_b   8.82515931
_cell_length_c   10.71958132
_cell_angle_alpha   90.00000000
_cell_angle_beta   90.00000000
_cell_angle_gamma   90.00000000
_symmetry_Int_Tables_number   1
_chemical_formula_structural   SiO2
_chemical_formula_sum   'Si12 O24'
_cell_volume   463.59628166
_cell_formula_units_Z   12
loop_
 _symmetry_equiv_pos_site_id
 _symmetry_equiv_pos_as_xyz
  1  'x, y, z'
loop_
 _atom_site_type_symbol
 _atom_site_label
 _atom_site_symmetry_multiplicity
 _atom_site_fract_x
 _atom_site_fract_y
 _atom_site_fract_z
 _atom_site_occupancy
  Si  Si0  1  0.00000000  0.50000000  0.22297627  1.0
  Si  Si1  1  0.00000000  0.00000000  0.72297627  1.0
  Si  Si2  1  0.50000000  0.50000000  0.77158149  1.0
  Si  Si3  1  0.50000000  0.00000000  0.27158149  1.0
  Si  Si4  1  0.19444459  0.72213712  0.58174060  1.0
  Si  Si5  1  0.80555541  0.27786288  0.58174060  1.0
  Si  Si6  1  0.80555541  0.22213712  0.08174060  1.0
  Si  Si7  1  0.19444459  0.77786288  0.08174060  1.0
  Si  Si8  1  0.30555564  0.22213255  0.91281648  1.0
  Si  Si9  1  0.69444436  0.77786745  0.91281648  1.0
  Si  Si10  1  0.69444436  0.72213255  0.41281648  1.0
  Si  Si11  1  0.30555564  0.27786745  0.41281648  1.0
  O  O12  1  0.12087896  0.30538835  0.53769646  1.0
  O  O13  1  0.87912104  0.69461165  0.53769646  1.0
  O  O14  1  0.87912104  0.80538835  0.03769646  1.0
  O  O15  1  0.12087896  0.19461165  0.03769646  1.0
  O  O16  1  0.37911963  0.80538431  0.95686039  1.0
  O  O17  1  0.62088037  0.19461569  0.95686039  1.0
  O  O18  1  0.62088037  0.30538431  0.45686039  1.0
  O  O19  1  0.37911963  0.69461569  0.45686039  1.0
  O  O20  1  0.20477745  0.10504659  0.80574433  1.0
  O  O21  1  0.79522255  0.89495341  0.80574433  1.0
  O  O22  1  0.79522255  0.60504659  0.30574433  1.0
  O  O23  1  0.20477745  0.39495341  0.30574433  1.0
  O  O24  1  0.29821942  0.39463407  0.85743112  1.0
  O  O25  1  0.70178058  0.60536593  0.85743112  1.0
  O  O26  1  0.70178058  0.89463407  0.35743112  1.0
  O  O27  1  0.29821942  0.10536593  0.35743112  1.0
  O  O28  1  0.20177842  0.89464003  0.63712363  1.0
  O  O29  1  0.79822158  0.10535997  0.63712363  1.0
  O  O30  1  0.79822158  0.39464003  0.13712363  1.0
  O  O31  1  0.20177842  0.60535997  0.13712363  1.0
  O  O32  1  0.29522905  0.60504899  0.68880811  1.0
  O  O33  1  0.70477095  0.39495101  0.68880811  1.0
  O  O34  1  0.70477095  0.10504899  0.18880811  1.0
  O  O35  1  0.29522905  0.89495101  0.18880811  1.0
