# generated using pymatgen
data_NbAsPCl13
_symmetry_space_group_name_H-M   'P 1'
_cell_length_a   9.89148751
_cell_length_b   9.89148751
_cell_length_c   12.18476133
_cell_angle_alpha   90.00000000
_cell_angle_beta   90.00000000
_cell_angle_gamma   113.87835149
_symmetry_Int_Tables_number   1
_chemical_formula_structural   NbAsPCl13
_chemical_formula_sum   'Nb2 As2 P2 Cl26'
_cell_volume   1090.13370542
_cell_formula_units_Z   2
loop_
 _symmetry_equiv_pos_site_id
 _symmetry_equiv_pos_as_xyz
  1  'x, y, z'
loop_
 _atom_site_type_symbol
 _atom_site_label
 _atom_site_symmetry_multiplicity
 _atom_site_fract_x
 _atom_site_fract_y
 _atom_site_fract_z
 _atom_site_occupancy
  Nb  Nb0  1  0.28912557  0.71087443  0.46008778  1.0
  Nb  Nb1  1  -0.28912557  1.28912557  0.96008778  1.0
  As  As2  1  0.05980980  0.94019020  0.31235048  1.0
  As  As3  1  -0.05980980  1.05980980  0.81235048  1.0
  P  P4  1  0.36091161  0.63908839  -0.00348476  1.0
  P  P5  1  -0.36091161  1.36091161  0.49651524  1.0
  Cl  Cl6  1  0.26893706  0.43419647  0.04957816  1.0
  Cl  Cl7  1  -0.56580353  1.26893706  0.54957816  1.0
  Cl  Cl8  1  0.56580353  0.73106294  0.04957816  1.0
  Cl  Cl9  1  -0.26893706  1.56580353  0.54957816  1.0
  Cl  Cl10  1  0.07610423  0.61135166  0.34291790  1.0
  Cl  Cl11  1  -0.38864834  1.07610423  0.84291790  1.0
  Cl  Cl12  1  0.38864834  0.92389577  0.34291790  1.0
  Cl  Cl13  1  -0.07610423  1.38864834  0.84291790  1.0
  Cl  Cl14  1  -0.18851429  1.49908406  0.07448868  1.0
  Cl  Cl15  1  0.49908406  0.81148571  0.57448868  1.0
  Cl  Cl16  1  -0.49908406  1.18851429  0.07448868  1.0
  Cl  Cl17  1  0.18851429  0.50091594  0.57448868  1.0
  Cl  Cl18  1  0.13073678  0.18293380  0.33393738  1.0
  Cl  Cl19  1  -0.81706620  1.13073678  0.83393738  1.0
  Cl  Cl20  1  0.81706620  0.86926322  0.33393738  1.0
  Cl  Cl21  1  -0.13073678  1.81706620  0.83393738  1.0
  Cl  Cl22  1  0.06427028  0.93572972  0.12866607  1.0
  Cl  Cl23  1  -0.06427028  1.06427028  0.62866607  1.0
  Cl  Cl24  1  0.16698467  0.83301533  0.56191682  1.0
  Cl  Cl25  1  -0.16698467  1.16698467  0.06191682  1.0
  Cl  Cl26  1  0.24959787  0.75040213  0.05169427  1.0
  Cl  Cl27  1  -0.24959787  1.24959787  0.55169427  1.0
  Cl  Cl28  1  0.40718975  0.59281025  0.34937068  1.0
  Cl  Cl29  1  -0.40718975  1.40718975  0.84937068  1.0
  Cl  Cl30  1  -0.35921880  1.35921880  0.33515442  1.0
  Cl  Cl31  1  0.35921880  0.64078120  0.83515442  1.0
