# generated using pymatgen
data_Fe2NiB
_symmetry_space_group_name_H-M   'P 1'
_cell_length_a   6.39161636
_cell_length_b   6.39161636
_cell_length_c   6.39161636
_cell_angle_alpha   96.22835818
_cell_angle_beta   96.22835818
_cell_angle_gamma   141.53766522
_symmetry_Int_Tables_number   1
_chemical_formula_structural   Fe2NiB
_chemical_formula_sum   'Fe8 Ni4 B4'
_cell_volume   153.35052791
_cell_formula_units_Z   4
loop_
 _symmetry_equiv_pos_site_id
 _symmetry_equiv_pos_as_xyz
  1  'x, y, z'
loop_
 _atom_site_type_symbol
 _atom_site_label
 _atom_site_symmetry_multiplicity
 _atom_site_fract_x
 _atom_site_fract_y
 _atom_site_fract_z
 _atom_site_occupancy
  Fe  Fe0  1  1.14044209  0.33207468  0.97322309  1.0
  Fe  Fe1  1  0.35885159  1.16721900  1.02677691  1.0
  Fe  Fe2  1  0.66792532  0.64114841  0.80836741  1.0
  Fe  Fe3  1  0.83278100  0.85955791  1.19163259  1.0
  Fe  Fe4  1  0.95932056  1.35136436  1.33300907  1.0
  Fe  Fe5  1  1.01835529  0.62631149  0.66699093  1.0
  Fe  Fe6  1  0.64863564  0.98164471  1.60795620  1.0
  Fe  Fe7  1  0.37368851  0.04067944  0.39204380  1.0
  Ni  Ni8  1  1.52624315  0.91828962  0.95808786  1.0
  Ni  Ni9  1  0.96020175  1.56815528  1.04191214  1.0
  Ni  Ni10  1  1.08171038  1.03979825  0.60795353  1.0
  Ni  Ni11  1  1.43184472  1.47375685  1.39204647  1.0
  B  B12  1  1.44563286  1.78156739  1.25151637  1.0
  B  B13  1  1.53005102  1.19411649  0.74848363  1.0
  B  B14  1  1.21843261  1.46994898  1.66406547  1.0
  B  B15  1  0.80588351  0.55436714  0.33593453  1.0
