# generated using pymatgen
data_CaH8(ClO2)2
_symmetry_space_group_name_H-M   'P 1'
_cell_length_a   8.81934896
_cell_length_b   6.52959405
_cell_length_c   6.53156757
_cell_angle_alpha   111.22122312
_cell_angle_beta   101.00814194
_cell_angle_gamma   92.84337152
_symmetry_Int_Tables_number   1
_chemical_formula_structural   CaH8(ClO2)2
_chemical_formula_sum   'Ca2 H16 Cl4 O8'
_cell_volume   341.26551760
_cell_formula_units_Z   2
loop_
 _symmetry_equiv_pos_site_id
 _symmetry_equiv_pos_as_xyz
  1  'x, y, z'
loop_
 _atom_site_type_symbol
 _atom_site_label
 _atom_site_symmetry_multiplicity
 _atom_site_fract_x
 _atom_site_fract_y
 _atom_site_fract_z
 _atom_site_occupancy
  Ca  Ca0  1  -0.77111014  -0.61496616  -0.97609571  1.0
  Ca  Ca1  1  -0.22888986  -0.38503384  -0.02390429  1.0
  H  H2  1  -0.57858733  -0.16901187  -0.79007800  1.0
  H  H3  1  -0.42141267  -0.83098813  -0.20992200  1.0
  H  H4  1  -0.02230769  -0.70202183  -0.74936007  1.0
  H  H5  1  -0.97769231  -0.29797817  -0.25063993  1.0
  H  H6  1  -0.91488363  -0.88722520  -0.74657161  1.0
  H  H7  1  -0.08511637  -0.11277480  -0.25342839  1.0
  H  H8  1  -0.33842240  -0.96699876  -0.76631885  1.0
  H  H9  1  -0.66157760  -0.03300124  -0.23368115  1.0
  H  H10  1  -0.31428304  -0.60600429  -0.72753481  1.0
  H  H11  1  -0.68571696  -0.39399571  -0.27246519  1.0
  H  H12  1  -0.18419766  -0.96223904  -0.59891353  1.0
  H  H13  1  -0.81580234  -0.03776096  -0.40108647  1.0
  H  H14  1  -0.82700765  -0.57212796  -0.43219296  1.0
  H  H15  1  -0.17299235  -0.42787204  -0.56780704  1.0
  H  H16  1  -0.48270392  -0.70677533  -0.36579269  1.0
  H  H17  1  -0.51729608  -0.29322467  -0.63420731  1.0
  Cl  Cl18  1  -0.91702855  -0.23140439  -0.76188589  1.0
  Cl  Cl19  1  -0.08297145  -0.76859561  -0.23811411  1.0
  Cl  Cl20  1  -0.54106510  -0.79143142  -0.72905381  1.0
  Cl  Cl21  1  -0.45893490  -0.20856858  -0.27094619  1.0
  O  O22  1  -0.56014339  -0.31751911  -0.79382850  1.0
  O  O23  1  -0.43985661  -0.68248089  -0.20617150  1.0
  O  O24  1  -0.91251220  -0.72899728  -0.72584605  1.0
  O  O25  1  -0.08748780  -0.27100272  -0.27415395  1.0
  O  O26  1  -0.78447315  -0.47192147  -0.27261702  1.0
  O  O27  1  -0.21552685  -0.52807853  -0.72738298  1.0
  O  O28  1  -0.75988363  -0.96773558  -0.24186805  1.0
  O  O29  1  -0.24011637  -0.03226442  -0.75813195  1.0
