# generated using pymatgen
data_Cu3PS4
_symmetry_space_group_name_H-M   'P 1'
_cell_length_a   7.28863850
_cell_length_b   6.34849072
_cell_length_c   6.08511808
_cell_angle_alpha   90.00000000
_cell_angle_beta   90.00000000
_cell_angle_gamma   90.00000000
_symmetry_Int_Tables_number   1
_chemical_formula_structural   Cu3PS4
_chemical_formula_sum   'Cu6 P2 S8'
_cell_volume   281.56969482
_cell_formula_units_Z   2
loop_
 _symmetry_equiv_pos_site_id
 _symmetry_equiv_pos_as_xyz
  1  'x, y, z'
loop_
 _atom_site_type_symbol
 _atom_site_label
 _atom_site_symmetry_multiplicity
 _atom_site_fract_x
 _atom_site_fract_y
 _atom_site_fract_z
 _atom_site_occupancy
  Cu  Cu0  1  0.24716499  0.17529481  0.00900064  1.0
  Cu  Cu1  1  0.74716499  0.82470519  0.50900064  1.0
  Cu  Cu2  1  0.75283501  0.17529481  0.00900064  1.0
  Cu  Cu3  1  0.25283501  0.82470519  0.50900064  1.0
  Cu  Cu4  1  0.50000000  0.65106709  1.00144729  1.0
  Cu  Cu5  1  0.00000000  0.34893291  0.50144729  1.0
  P  P6  1  0.50000000  0.32573875  0.49904188  1.0
  P  P7  1  0.00000000  0.67426125  -0.00095812  1.0
  S  S8  1  0.26218954  0.16772693  0.38355206  1.0
  S  S9  1  0.76218954  0.83227307  0.88355206  1.0
  S  S10  1  0.73781046  0.16772693  0.38355206  1.0
  S  S11  1  0.23781046  0.83227307  0.88355206  1.0
  S  S12  1  0.50000000  0.32118116  0.84508141  1.0
  S  S13  1  0.00000000  0.67881884  0.34508141  1.0
  S  S14  1  0.50000000  0.63647320  0.37862403  1.0
  S  S15  1  0.00000000  0.36352680  0.87862403  1.0
