# generated using pymatgen
data_VCuHPbO5
_symmetry_space_group_name_H-M   'P 1'
_cell_length_a   7.84404048
_cell_length_b   6.21603318
_cell_length_c   9.20037846
_cell_angle_alpha   90.00000000
_cell_angle_beta   90.00000000
_cell_angle_gamma   90.00000000
_symmetry_Int_Tables_number   1
_chemical_formula_structural   VCuHPbO5
_chemical_formula_sum   'V4 Cu4 H4 Pb4 O20'
_cell_volume   448.59955968
_cell_formula_units_Z   4
loop_
 _symmetry_equiv_pos_site_id
 _symmetry_equiv_pos_as_xyz
  1  'x, y, z'
loop_
 _atom_site_type_symbol
 _atom_site_label
 _atom_site_symmetry_multiplicity
 _atom_site_fract_x
 _atom_site_fract_y
 _atom_site_fract_z
 _atom_site_occupancy
  V  V0  1  0.89795205  0.75000000  0.30545151  1.0
  V  V1  1  0.39795205  0.75000000  0.19454849  1.0
  V  V2  1  0.10204795  0.25000000  0.69454849  1.0
  V  V3  1  0.60204795  0.25000000  0.80545151  1.0
  Pb  Pb4  1  0.85986850  0.75000000  0.67234685  1.0
  Pb  Pb5  1  0.35986850  0.75000000  0.82765315  1.0
  Pb  Pb6  1  0.14013150  0.25000000  0.32765315  1.0
  Pb  Pb7  1  0.64013150  0.25000000  0.17234685  1.0
  Cu  Cu8  1  0.00000000  0.00000000  0.00000000  1.0
  Cu  Cu9  1  0.00000000  0.50000000  0.00000000  1.0
  Cu  Cu10  1  0.50000000  0.00000000  0.50000000  1.0
  Cu  Cu11  1  0.50000000  0.50000000  0.50000000  1.0
  O  O12  1  0.90365710  0.99281889  0.20196315  1.0
  O  O13  1  0.90365710  0.50718111  0.20196315  1.0
  O  O14  1  0.40365710  0.99281889  0.29803685  1.0
  O  O15  1  0.40365710  0.50718111  0.29803685  1.0
  O  O16  1  0.09634290  0.49281889  0.79803685  1.0
  O  O17  1  0.09634290  0.00718111  0.79803685  1.0
  O  O18  1  0.59634290  0.49281889  0.70196315  1.0
  O  O19  1  0.59634290  0.00718111  0.70196315  1.0
  O  O20  1  0.72088351  0.75000000  0.40991126  1.0
  O  O21  1  0.22088351  0.75000000  0.09008874  1.0
  O  O22  1  0.27911649  0.25000000  0.59008874  1.0
  O  O23  1  0.77911649  0.25000000  0.90991126  1.0
  O  O24  1  0.56168703  0.75000000  0.07396373  1.0
  O  O25  1  0.06168703  0.75000000  0.42603627  1.0
  O  O26  1  0.43831297  0.25000000  0.92603627  1.0
  O  O27  1  0.93831297  0.25000000  0.57396373  1.0
  O  O28  1  0.36666975  0.75000000  0.55523184  1.0
  O  O29  1  0.86666975  0.75000000  0.94476816  1.0
  O  O30  1  0.63333025  0.25000000  0.44476816  1.0
  O  O31  1  0.13333025  0.25000000  0.05523184  1.0
  H  H32  1  0.75277641  0.75000000  -0.00483382  1.0
  H  H33  1  0.25277641  0.75000000  0.50483382  1.0
  H  H34  1  0.24722359  0.25000000  1.00483382  1.0
  H  H35  1  0.74722359  0.25000000  0.49516618  1.0
