# generated using pymatgen
data_K2V3O8
_symmetry_space_group_name_H-M   'P 1'
_cell_length_a   8.90769878
_cell_length_b   8.90769878
_cell_length_c   5.48064719
_cell_angle_alpha   90.00000000
_cell_angle_beta   90.00000000
_cell_angle_gamma   90.00000000
_symmetry_Int_Tables_number   1
_chemical_formula_structural   K2V3O8
_chemical_formula_sum   'K4 V6 O16'
_cell_volume   434.87344728
_cell_formula_units_Z   2
loop_
 _symmetry_equiv_pos_site_id
 _symmetry_equiv_pos_as_xyz
  1  'x, y, z'
loop_
 _atom_site_type_symbol
 _atom_site_label
 _atom_site_symmetry_multiplicity
 _atom_site_fract_x
 _atom_site_fract_y
 _atom_site_fract_z
 _atom_site_occupancy
  O  O0  1  0.30873583  0.58550967  0.41917872  1.0
  O  O1  1  0.80873583  0.91449033  0.41917872  1.0
  O  O2  1  0.41449033  0.30873583  0.41917872  1.0
  O  O3  1  0.91449033  0.19126417  0.41917872  1.0
  O  O4  1  0.69126417  0.41449033  0.41917872  1.0
  O  O5  1  0.19126417  0.08550967  0.41917872  1.0
  O  O6  1  0.58550967  0.69126417  0.41917872  1.0
  O  O7  1  0.08550967  0.80873583  0.41917872  1.0
  O  O8  1  0.36696120  0.13303880  1.00398466  1.0
  O  O9  1  0.86696120  0.36696120  1.00398466  1.0
  O  O10  1  0.63303880  0.86696120  1.00398466  1.0
  O  O11  1  0.13303880  0.63303880  1.00398466  1.0
  O  O12  1  0.00000000  0.50000000  0.42149590  1.0
  O  O13  1  0.50000000  0.00000000  0.42149590  1.0
  O  O14  1  0.50000000  0.50000000  0.02610050  1.0
  O  O15  1  0.00000000  0.00000000  0.02610050  1.0
  K  K16  1  0.83143099  0.66856901  0.77099880  1.0
  K  K17  1  0.33143099  0.83143099  0.77099880  1.0
  K  K18  1  0.16856901  0.33143099  0.77099880  1.0
  K  K19  1  0.66856901  0.16856901  0.77099880  1.0
  V  V20  1  0.36526098  0.13473902  0.30433368  1.0
  V  V21  1  0.86526098  0.36526098  0.30433368  1.0
  V  V22  1  0.63473902  0.86526098  0.30433368  1.0
  V  V23  1  0.13473902  0.63473902  0.30433368  1.0
  V  V24  1  0.50000000  0.50000000  0.31915442  1.0
  V  V25  1  0.00000000  0.00000000  0.31915442  1.0
