# generated using pymatgen
data_K2PtC4(BrN2)2
_symmetry_space_group_name_H-M   'P 1'
_cell_length_a   7.24971625
_cell_length_b   9.59438376
_cell_length_c   8.87736427
_cell_angle_alpha   90.00000000
_cell_angle_beta   107.42211110
_cell_angle_gamma   90.00000000
_symmetry_Int_Tables_number   1
_chemical_formula_structural   K2PtC4(BrN2)2
_chemical_formula_sum   'K4 Pt2 C8 Br4 N8'
_cell_volume   589.15198386
_cell_formula_units_Z   2
loop_
 _symmetry_equiv_pos_site_id
 _symmetry_equiv_pos_as_xyz
  1  'x, y, z'
loop_
 _atom_site_type_symbol
 _atom_site_label
 _atom_site_symmetry_multiplicity
 _atom_site_fract_x
 _atom_site_fract_y
 _atom_site_fract_z
 _atom_site_occupancy
  K  K0  1  0.98364098  0.29044845  0.11857258  1.0
  K  K1  1  0.98364098  0.20955155  0.61857258  1.0
  K  K2  1  0.01635902  0.79044845  0.38142742  1.0
  K  K3  1  0.01635902  0.70955155  0.88142742  1.0
  Pt  Pt4  1  0.50000000  0.50000000  0.50000000  1.0
  Pt  Pt5  1  0.50000000  0.00000000  0.00000000  1.0
  C  C6  1  0.69825848  0.45558987  0.38976220  1.0
  C  C7  1  0.69825848  0.04441013  0.88976220  1.0
  C  C8  1  0.30174152  0.95558987  0.11023780  1.0
  C  C9  1  0.30174152  0.54441013  0.61023780  1.0
  C  C10  1  0.69709281  0.04583396  0.20666932  1.0
  C  C11  1  0.69709281  0.45416604  0.70666932  1.0
  C  C12  1  0.30290719  0.54583396  0.29333068  1.0
  C  C13  1  0.30290719  0.95416604  0.79333068  1.0
  Br  Br14  1  0.38580868  0.24936482  0.46700319  1.0
  Br  Br15  1  0.38580868  0.25063518  0.96700319  1.0
  Br  Br16  1  0.61419132  0.74936482  0.03299681  1.0
  Br  Br17  1  0.61419132  0.75063518  0.53299681  1.0
  N  N18  1  0.81725305  0.42693986  0.33086749  1.0
  N  N19  1  0.81725305  0.07306014  0.83086749  1.0
  N  N20  1  0.18274695  0.92693986  0.16913251  1.0
  N  N21  1  0.18274695  0.57306014  0.66913251  1.0
  N  N22  1  0.81787168  0.07127132  0.32395806  1.0
  N  N23  1  0.81787168  0.42872868  0.82395806  1.0
  N  N24  1  0.18212832  0.57127132  0.17604194  1.0
  N  N25  1  0.18212832  0.92872868  0.67604194  1.0
