# generated using pymatgen
data_CdH6C2O7
_symmetry_space_group_name_H-M   'P 1'
_cell_length_a   6.71480555
_cell_length_b   6.10560464
_cell_length_c   8.84285861
_cell_angle_alpha   74.72339413
_cell_angle_beta   72.77892687
_cell_angle_gamma   78.75208276
_symmetry_Int_Tables_number   1
_chemical_formula_structural   CdH6C2O7
_chemical_formula_sum   'Cd2 H12 C4 O14'
_cell_volume   331.34401870
_cell_formula_units_Z   2
loop_
 _symmetry_equiv_pos_site_id
 _symmetry_equiv_pos_as_xyz
  1  'x, y, z'
loop_
 _atom_site_type_symbol
 _atom_site_label
 _atom_site_symmetry_multiplicity
 _atom_site_fract_x
 _atom_site_fract_y
 _atom_site_fract_z
 _atom_site_occupancy
  Cd  Cd0  1  -0.53527923  -0.21193888  -0.41623945  1.0
  Cd  Cd1  1  -0.16375536  -0.32431570  -0.83921594  1.0
  H  H2  1  -0.84908720  -0.04110306  -0.05455661  1.0
  H  H3  1  -0.93774843  -0.21878219  -0.46731996  1.0
  H  H4  1  -0.76130626  -0.31730855  -0.78817006  1.0
  H  H5  1  -0.85021585  -0.49497676  -0.20095129  1.0
  H  H6  1  -0.76340330  -0.55713738  -0.81945258  1.0
  H  H7  1  -0.66532193  -0.64965402  -0.30912768  1.0
  H  H8  1  -0.62377292  -0.65961570  -0.05265671  1.0
  H  H9  1  -0.12964733  -0.66036186  -0.33473785  1.0
  H  H10  1  -0.07510961  -0.87622855  -0.20336005  1.0
  H  H11  1  -0.56907410  -0.87537566  -0.92123363  1.0
  H  H12  1  -1.03396122  -0.88644303  -0.94649458  1.0
  H  H13  1  -0.93516378  -0.97874856  -0.43663775  1.0
  C  C14  1  -0.45429418  -0.20917880  -0.07941677  1.0
  C  C15  1  -0.24478931  -0.32698807  -0.17598700  1.0
  C  C16  1  -0.42297312  -0.69903795  -0.56530035  1.0
  C  C17  1  -0.27585706  -0.83737190  -0.69008521  1.0
  O  O18  1  -0.00433785  0.00097881  -0.01734408  1.0
  O  O19  1  -0.30013535  -0.04611103  -0.66531348  1.0
  O  O20  1  -0.84603407  -0.09986439  -0.49542982  1.0
  O  O21  1  -0.60190742  -0.14138304  -0.14824950  1.0
  O  O22  1  -0.46507845  -0.18809495  -0.93791504  1.0
  O  O23  1  -0.23397200  -0.34798384  -0.31751581  1.0
  O  O24  1  -0.09716681  -0.39480439  -0.10716339  1.0
  O  O25  1  -0.85276860  -0.43639044  -0.76038091  1.0
  O  O26  1  -0.39871236  -0.49028938  -0.59009301  1.0
  O  O27  1  -0.69495654  -0.53701584  -0.23832284  1.0
  O  O28  1  -0.59675043  -0.70771255  -0.94351099  1.0
  O  O29  1  -0.14400320  -0.73257186  -0.80631494  1.0
  O  O30  1  -0.55490362  -0.80377911  -0.44910173  1.0
  O  O31  1  -0.10181315  -0.82801137  -0.31260101  1.0
