# generated using pymatgen
data_CaMgAsO4F
_symmetry_space_group_name_H-M   'P 1'
_cell_length_a   5.67352372
_cell_length_b   5.67352372
_cell_length_c   7.20727419
_cell_angle_alpha   76.05284159
_cell_angle_beta   103.94715841
_cell_angle_gamma   73.98578452
_symmetry_Int_Tables_number   1
_chemical_formula_structural   CaMgAsO4F
_chemical_formula_sum   'Ca2 Mg2 As2 O8 F2'
_cell_volume   204.31958729
_cell_formula_units_Z   2
loop_
 _symmetry_equiv_pos_site_id
 _symmetry_equiv_pos_as_xyz
  1  'x, y, z'
loop_
 _atom_site_type_symbol
 _atom_site_label
 _atom_site_symmetry_multiplicity
 _atom_site_fract_x
 _atom_site_fract_y
 _atom_site_fract_z
 _atom_site_occupancy
  Ca  Ca0  1  1.65619364  0.00540057  0.82704229  1.0
  Ca  Ca1  1  0.99459943  -0.65619364  0.32704229  1.0
  Mg  Mg2  1  1.32545525  0.67457135  0.07701506  1.0
  Mg  Mg3  1  0.32542865  -0.32545525  0.57701506  1.0
  As  As4  1  0.64830170  -0.00256166  0.32702629  1.0
  As  As5  1  1.00256166  0.35169830  0.82702629  1.0
  O  O6  1  0.94825879  -0.06359846  0.49988495  1.0
  O  O7  1  1.06359846  0.05174121  -0.00011505  1.0
  O  O8  1  0.65360948  -0.22306233  0.19500145  1.0
  O  O9  1  1.22306233  0.34639052  0.69500145  1.0
  O  O10  1  0.42782032  0.00276369  0.45904921  1.0
  O  O11  1  0.99723631  0.57217968  0.95904921  1.0
  O  O12  1  1.58729175  0.29738116  0.15417222  1.0
  O  O13  1  0.70261884  -0.58729174  0.65417222  1.0
  F  F14  1  1.24411156  0.59314816  0.32700853  1.0
  F  F15  1  0.40685184  -0.24411156  0.82700853  1.0
