# generated using pymatgen
data_ScMnGe2
_symmetry_space_group_name_H-M   'P 1'
_cell_length_a   9.32325502
_cell_length_b   10.18793692
_cell_length_c   8.08589458
_cell_angle_alpha   90.00000000
_cell_angle_beta   90.00000000
_cell_angle_gamma   90.00000000
_symmetry_Int_Tables_number   1
_chemical_formula_structural   ScMnGe2
_chemical_formula_sum   'Sc12 Mn12 Ge24'
_cell_volume   768.03654543
_cell_formula_units_Z   12
loop_
 _symmetry_equiv_pos_site_id
 _symmetry_equiv_pos_as_xyz
  1  'x, y, z'
loop_
 _atom_site_type_symbol
 _atom_site_label
 _atom_site_symmetry_multiplicity
 _atom_site_fract_x
 _atom_site_fract_y
 _atom_site_fract_z
 _atom_site_occupancy
  Sc  Sc0  1  0.17188306  0.54705867  0.75796268  1.0
  Sc  Sc1  1  0.17188306  0.54705867  0.24203732  1.0
  Sc  Sc2  1  0.67188306  0.95294133  0.75796268  1.0
  Sc  Sc3  1  0.67188306  0.95294133  0.24203732  1.0
  Sc  Sc4  1  0.82811694  0.45294133  0.75796268  1.0
  Sc  Sc5  1  0.82811694  0.45294133  0.24203732  1.0
  Sc  Sc6  1  0.32811694  0.04705867  0.75796268  1.0
  Sc  Sc7  1  0.32811694  0.04705867  0.24203732  1.0
  Sc  Sc8  1  0.16400791  0.82093135  0.00000000  1.0
  Sc  Sc9  1  0.66400791  0.67906865  0.00000000  1.0
  Sc  Sc10  1  0.83599209  0.17906865  0.00000000  1.0
  Sc  Sc11  1  0.33599209  0.32093135  0.00000000  1.0
  Mn  Mn12  1  0.41703503  0.74952301  0.74858032  1.0
  Mn  Mn13  1  0.41703503  0.74952301  0.25141968  1.0
  Mn  Mn14  1  0.91703503  0.75047699  0.74858032  1.0
  Mn  Mn15  1  0.91703503  0.75047699  0.25141968  1.0
  Mn  Mn16  1  0.58296497  0.25047699  0.74858032  1.0
  Mn  Mn17  1  0.58296497  0.25047699  0.25141968  1.0
  Mn  Mn18  1  0.08296497  0.24952301  0.74858032  1.0
  Mn  Mn19  1  0.08296497  0.24952301  0.25141968  1.0
  Mn  Mn20  1  0.50000000  0.50000000  0.75341772  1.0
  Mn  Mn21  1  0.50000000  0.50000000  0.24658228  1.0
  Mn  Mn22  1  0.00000000  0.00000000  0.75341772  1.0
  Mn  Mn23  1  0.00000000  0.00000000  0.24658228  1.0
  Ge  Ge24  1  0.16632635  0.81838214  0.65977231  1.0
  Ge  Ge25  1  0.16632635  0.81838214  0.34022769  1.0
  Ge  Ge26  1  0.66632635  0.68161786  0.65977231  1.0
  Ge  Ge27  1  0.66632635  0.68161786  0.34022769  1.0
  Ge  Ge28  1  0.83367365  0.18161786  0.65977231  1.0
  Ge  Ge29  1  0.83367365  0.18161786  0.34022769  1.0
  Ge  Ge30  1  0.33367365  0.31838214  0.65977231  1.0
  Ge  Ge31  1  0.33367365  0.31838214  0.34022769  1.0
  Ge  Ge32  1  0.46303783  0.87801744  0.50000000  1.0
  Ge  Ge33  1  0.96303783  0.62198256  0.50000000  1.0
  Ge  Ge34  1  0.53696217  0.12198256  0.50000000  1.0
  Ge  Ge35  1  0.03696217  0.37801744  0.50000000  1.0
  Ge  Ge36  1  0.37458603  0.59532827  0.50000000  1.0
  Ge  Ge37  1  0.87458603  0.90467173  0.50000000  1.0
  Ge  Ge38  1  0.62541397  0.40467173  0.50000000  1.0
  Ge  Ge39  1  0.12541397  0.09532827  0.50000000  1.0
  Ge  Ge40  1  0.45998072  0.87916488  0.00000000  1.0
  Ge  Ge41  1  0.95998072  0.62083512  0.00000000  1.0
  Ge  Ge42  1  0.54001928  0.12083512  0.00000000  1.0
  Ge  Ge43  1  0.04001928  0.37916488  0.00000000  1.0
  Ge  Ge44  1  0.36934631  0.60229789  0.00000000  1.0
  Ge  Ge45  1  0.86934631  0.89770211  0.00000000  1.0
  Ge  Ge46  1  0.63065369  0.39770211  0.00000000  1.0
  Ge  Ge47  1  0.13065369  0.10229789  0.00000000  1.0
