# generated using pymatgen
data_Mn(C2O3)2
_symmetry_space_group_name_H-M   'P 1'
_cell_length_a   7.84707850
_cell_length_b   7.84707850
_cell_length_c   7.84707850
_cell_angle_alpha   86.35974165
_cell_angle_beta   86.35974165
_cell_angle_gamma   86.35974165
_symmetry_Int_Tables_number   1
_chemical_formula_structural   Mn(C2O3)2
_chemical_formula_sum   'Mn3 C12 O18'
_cell_volume   480.39046324
_cell_formula_units_Z   3
loop_
 _symmetry_equiv_pos_site_id
 _symmetry_equiv_pos_as_xyz
  1  'x, y, z'
loop_
 _atom_site_type_symbol
 _atom_site_label
 _atom_site_symmetry_multiplicity
 _atom_site_fract_x
 _atom_site_fract_y
 _atom_site_fract_z
 _atom_site_occupancy
  C  C0  1  0.62397373  0.54233336  -0.02021061  1.0
  C  C1  1  1.45766664  1.02021061  0.37602627  1.0
  C  C2  1  1.02021061  1.37602627  0.45766664  1.0
  C  C3  1  1.37602627  1.45766664  0.02021061  1.0
  C  C4  1  0.54233336  0.97978939  -0.37602627  1.0
  C  C5  1  0.97978939  0.62397373  -0.45766664  1.0
  C  C6  1  1.54926189  1.37238982  -0.00545989  1.0
  C  C7  1  0.62761018  1.00545989  -0.54926189  1.0
  C  C8  1  1.00545989  0.45073811  -0.37238982  1.0
  C  C9  1  0.45073811  0.62761018  0.00545989  1.0
  C  C10  1  1.37238982  0.99454011  0.54926189  1.0
  C  C11  1  0.99454011  1.54926189  0.37238982  1.0
  Mn  Mn12  1  1.00000000  -0.00000000  -0.50000000  1.0
  Mn  Mn13  1  1.00000000  1.50000000  0.00000000  1.0
  Mn  Mn14  1  0.50000000  -0.00000000  0.00000000  1.0
  O  O15  1  0.76756771  0.60250023  -0.04838380  1.0
  O  O16  1  1.39749977  1.04838380  0.23243229  1.0
  O  O17  1  1.04838380  1.23243229  0.39749977  1.0
  O  O18  1  1.23243229  1.39749977  0.04838380  1.0
  O  O19  1  0.60250023  0.95161620  -0.23243229  1.0
  O  O20  1  0.95161620  0.76756771  -0.39749977  1.0
  O  O21  1  1.61499518  1.22377559  -0.01315947  1.0
  O  O22  1  0.77622441  1.01315947  -0.61499518  1.0
  O  O23  1  1.01315947  0.38500482  -0.22377559  1.0
  O  O24  1  0.38500482  0.77622441  0.01315947  1.0
  O  O25  1  1.22377559  0.98684053  0.61499518  1.0
  O  O26  1  0.98684053  1.61499518  0.22377559  1.0
  O  O27  1  0.66847855  -0.09505978  0.08370023  1.0
  O  O28  1  1.09505978  -0.08370023  -0.66847855  1.0
  O  O29  1  0.91629977  -0.66847855  0.09505978  1.0
  O  O30  1  0.33152145  0.09505978  -0.08370023  1.0
  O  O31  1  0.90494022  0.08370023  -0.33152145  1.0
  O  O32  1  1.08370023  -0.33152145  -0.09505978  1.0
