# generated using pymatgen
data_Mn2BO4
_symmetry_space_group_name_H-M   'P 1'
_cell_length_a   3.30308129
_cell_length_b   9.49969861
_cell_length_c   9.89312663
_cell_angle_alpha   90.00000000
_cell_angle_beta   109.04182892
_cell_angle_gamma   90.00000000
_symmetry_Int_Tables_number   1
_chemical_formula_structural   Mn2BO4
_chemical_formula_sum   'Mn8 B4 O16'
_cell_volume   293.44277490
_cell_formula_units_Z   4
loop_
 _symmetry_equiv_pos_site_id
 _symmetry_equiv_pos_as_xyz
  1  'x, y, z'
loop_
 _atom_site_type_symbol
 _atom_site_label
 _atom_site_symmetry_multiplicity
 _atom_site_fract_x
 _atom_site_fract_y
 _atom_site_fract_z
 _atom_site_occupancy
  Mn  Mn0  1  0.91483704  0.40250351  0.18425773  1.0
  Mn  Mn1  1  0.91483704  0.09749649  0.68425773  1.0
  Mn  Mn2  1  0.08516296  0.90250351  0.31574227  1.0
  Mn  Mn3  1  0.08516296  0.59749649  0.81574227  1.0
  Mn  Mn4  1  0.70451748  0.88302864  0.93350899  1.0
  Mn  Mn5  1  0.70451748  0.61697136  0.43350899  1.0
  Mn  Mn6  1  0.29548252  0.38302864  0.56649101  1.0
  Mn  Mn7  1  0.29548252  0.11697136  0.06649101  1.0
  O  O8  1  0.62930130  0.02534207  0.36826302  1.0
  O  O9  1  0.62930130  0.47465793  0.86826302  1.0
  O  O10  1  0.37069870  0.52534207  0.13173698  1.0
  O  O11  1  0.37069870  0.97465793  0.63173698  1.0
  O  O12  1  0.64638831  0.23584701  0.50171125  1.0
  O  O13  1  0.64638831  0.26415299  1.00171125  1.0
  O  O14  1  0.35361169  0.73584701  -0.00171125  1.0
  O  O15  1  0.35361169  0.76415299  0.49828875  1.0
  O  O16  1  0.40927175  0.24052100  0.24200769  1.0
  O  O17  1  0.40927175  0.25947900  0.74200769  1.0
  O  O18  1  0.59072825  0.74052100  0.25799231  1.0
  O  O19  1  0.59072825  0.75947900  0.75799231  1.0
  O  O20  1  0.89958492  0.98386002  0.11349276  1.0
  O  O21  1  0.89958492  0.51613998  0.61349276  1.0
  O  O22  1  0.10041508  0.48386002  0.38650724  1.0
  O  O23  1  0.10041508  0.01613998  0.88650724  1.0
  B  B24  1  0.56084439  0.16730170  0.37099023  1.0
  B  B25  1  0.56084439  0.33269830  0.87099023  1.0
  B  B26  1  0.43915561  0.66730170  0.12900977  1.0
  B  B27  1  0.43915561  0.83269830  0.62900977  1.0
