# generated using pymatgen
data_TaTlSe3
_symmetry_space_group_name_H-M   'P 1'
_cell_length_a   9.81660300
_cell_length_b   3.65570903
_cell_length_c   15.28898778
_cell_angle_alpha   90.00000000
_cell_angle_beta   90.00000000
_cell_angle_gamma   90.00000000
_symmetry_Int_Tables_number   1
_chemical_formula_structural   TaTlSe3
_chemical_formula_sum   'Ta4 Tl4 Se12'
_cell_volume   548.67046532
_cell_formula_units_Z   4
loop_
 _symmetry_equiv_pos_site_id
 _symmetry_equiv_pos_as_xyz
  1  'x, y, z'
loop_
 _atom_site_type_symbol
 _atom_site_label
 _atom_site_symmetry_multiplicity
 _atom_site_fract_x
 _atom_site_fract_y
 _atom_site_fract_z
 _atom_site_occupancy
  Ta  Ta0  1  0.84149753  0.75000000  0.42809921  1.0
  Ta  Ta1  1  0.34149753  0.75000000  0.07190079  1.0
  Ta  Ta2  1  0.15850247  0.25000000  0.57190079  1.0
  Ta  Ta3  1  0.65850247  0.25000000  0.92809921  1.0
  Tl  Tl4  1  -0.00046709  0.75000000  0.82858418  1.0
  Tl  Tl5  1  0.49953291  0.75000000  0.67141582  1.0
  Tl  Tl6  1  1.00046709  0.25000000  0.17141582  1.0
  Tl  Tl7  1  0.50046709  0.25000000  0.32858418  1.0
  Se  Se8  1  0.97183488  0.75000000  0.59660084  1.0
  Se  Se9  1  0.47183488  0.75000000  0.90339916  1.0
  Se  Se10  1  0.02816512  0.25000000  0.40339916  1.0
  Se  Se11  1  0.52816512  0.25000000  0.09660084  1.0
  Se  Se12  1  0.81085385  0.75000000  -0.00155598  1.0
  Se  Se13  1  0.31085385  0.75000000  0.50155598  1.0
  Se  Se14  1  0.18914615  0.25000000  1.00155598  1.0
  Se  Se15  1  0.68914615  0.25000000  0.49844402  1.0
  Se  Se16  1  0.75564365  0.75000000  0.28130104  1.0
  Se  Se17  1  0.25564365  0.75000000  0.21869896  1.0
  Se  Se18  1  0.24435635  0.25000000  0.71869896  1.0
  Se  Se19  1  0.74435635  0.25000000  0.78130104  1.0
