# generated using pymatgen
data_Y12Ni6Pb
_symmetry_space_group_name_H-M   'P 1'
_cell_length_a   8.45351485
_cell_length_b   8.45351485
_cell_length_c   8.45351485
_cell_angle_alpha   109.47122063
_cell_angle_beta   109.47122063
_cell_angle_gamma   109.47122063
_symmetry_Int_Tables_number   1
_chemical_formula_structural   Y12Ni6Pb
_chemical_formula_sum   'Y12 Ni6 Pb1'
_cell_volume   465.03974163
_cell_formula_units_Z   1
loop_
 _symmetry_equiv_pos_site_id
 _symmetry_equiv_pos_as_xyz
  1  'x, y, z'
loop_
 _atom_site_type_symbol
 _atom_site_label
 _atom_site_symmetry_multiplicity
 _atom_site_fract_x
 _atom_site_fract_y
 _atom_site_fract_z
 _atom_site_occupancy
  Y  Y0  1  0.81192085  1.30471286  1.11663371  1.0
  Y  Y1  1  0.81192085  0.69528714  0.50720799  1.0
  Y  Y2  1  0.18807915  0.30471286  0.49279201  1.0
  Y  Y3  1  0.18807915  0.69528714  0.88336629  1.0
  Y  Y4  1  0.50720799  0.81192085  0.69528714  1.0
  Y  Y5  1  1.11663371  0.81192085  1.30471286  1.0
  Y  Y6  1  0.69528714  0.88336629  0.18807915  1.0
  Y  Y7  1  0.69528714  0.50720799  0.81192085  1.0
  Y  Y8  1  0.88336629  0.18807915  0.69528714  1.0
  Y  Y9  1  0.49279201  0.18807915  0.30471286  1.0
  Y  Y10  1  0.30471286  0.49279201  0.18807915  1.0
  Y  Y11  1  1.30471286  1.11663371  0.81192085  1.0
  Ni  Ni12  1  0.87734789  0.37734789  0.50000000  1.0
  Ni  Ni13  1  0.50000000  0.12265211  0.62265211  1.0
  Ni  Ni14  1  0.50000000  0.87734789  0.37734789  1.0
  Ni  Ni15  1  0.37734789  0.50000000  0.87734789  1.0
  Ni  Ni16  1  0.62265211  0.50000000  0.12265211  1.0
  Ni  Ni17  1  0.12265211  0.62265211  0.50000000  1.0
  Pb  Pb18  1  0.00000000  0.00000000  0.00000000  1.0
