# generated using pymatgen
data_ZrSO6
_symmetry_space_group_name_H-M   'P 1'
_cell_length_a   11.57306638
_cell_length_b   5.69705173
_cell_length_c   6.94068700
_cell_angle_alpha   90.00000000
_cell_angle_beta   90.00000000
_cell_angle_gamma   90.00000000
_symmetry_Int_Tables_number   1
_chemical_formula_structural   ZrSO6
_chemical_formula_sum   'Zr4 S4 O24'
_cell_volume   457.61585899
_cell_formula_units_Z   4
loop_
 _symmetry_equiv_pos_site_id
 _symmetry_equiv_pos_as_xyz
  1  'x, y, z'
loop_
 _atom_site_type_symbol
 _atom_site_label
 _atom_site_symmetry_multiplicity
 _atom_site_fract_x
 _atom_site_fract_y
 _atom_site_fract_z
 _atom_site_occupancy
  S  S0  1  0.35466720  0.75000000  0.04403625  1.0
  S  S1  1  0.85466720  0.75000000  0.45596375  1.0
  S  S2  1  0.64533280  0.25000000  0.95596375  1.0
  S  S3  1  0.14533280  0.25000000  0.54403625  1.0
  O  O4  1  0.45817412  0.75000000  0.91800533  1.0
  O  O5  1  0.95817412  0.75000000  0.58199467  1.0
  O  O6  1  0.54182588  0.25000000  0.08199467  1.0
  O  O7  1  0.04182588  0.25000000  0.41800533  1.0
  O  O8  1  0.44716757  1.00035998  0.56367064  1.0
  O  O9  1  0.44716757  0.49964002  0.56367064  1.0
  O  O10  1  0.94716757  1.00035998  0.93632936  1.0
  O  O11  1  0.94716757  0.49964002  0.93632936  1.0
  O  O12  1  0.55283243  0.50035998  0.43632936  1.0
  O  O13  1  0.55283243  -0.00035998  0.43632936  1.0
  O  O14  1  0.05283243  0.50035998  0.06367064  1.0
  O  O15  1  0.05283243  -0.00035998  0.06367064  1.0
  O  O16  1  0.24932286  0.75000000  0.92373632  1.0
  O  O17  1  0.74932286  0.75000000  0.57626368  1.0
  O  O18  1  0.75067714  0.25000000  0.07626368  1.0
  O  O19  1  0.25067714  0.25000000  0.42373632  1.0
  O  O20  1  0.14537992  0.46309694  0.66744530  1.0
  O  O21  1  0.14537992  0.03690306  0.66744530  1.0
  O  O22  1  0.64537992  0.46309694  0.83255470  1.0
  O  O23  1  0.64537992  0.03690306  0.83255470  1.0
  O  O24  1  0.85462008  0.96309694  0.33255470  1.0
  O  O25  1  0.85462008  0.53690306  0.33255470  1.0
  O  O26  1  0.35462008  0.96309694  0.16744530  1.0
  O  O27  1  0.35462008  0.53690306  0.16744530  1.0
  Zr  Zr28  1  0.06937295  0.75000000  0.83434689  1.0
  Zr  Zr29  1  0.56937295  0.75000000  0.66565311  1.0
  Zr  Zr30  1  0.93062705  0.25000000  0.16565311  1.0
  Zr  Zr31  1  0.43062705  0.25000000  0.33434689  1.0
