# generated using pymatgen
data_Zn8B3H3O14
_symmetry_space_group_name_H-M   'P 1'
_cell_length_a   7.60762141
_cell_length_b   7.60762141
_cell_length_c   7.60762141
_cell_angle_alpha   65.59207389
_cell_angle_beta   65.59207389
_cell_angle_gamma   65.59207389
_symmetry_Int_Tables_number   1
_chemical_formula_structural   Zn8B3H3O14
_chemical_formula_sum   'Zn8 B3 H3 O14'
_cell_volume   349.15595657
_cell_formula_units_Z   1
loop_
 _symmetry_equiv_pos_site_id
 _symmetry_equiv_pos_as_xyz
  1  'x, y, z'
loop_
 _atom_site_type_symbol
 _atom_site_label
 _atom_site_symmetry_multiplicity
 _atom_site_fract_x
 _atom_site_fract_y
 _atom_site_fract_z
 _atom_site_occupancy
  Zn  Zn0  1  0.54410181  0.98133581  -0.27026681  1.0
  Zn  Zn1  1  1.27026681  1.01866419  0.45589819  1.0
  Zn  Zn2  1  1.01866419  1.45589819  0.27026681  1.0
  Zn  Zn3  1  1.45589819  1.27026681  0.01866419  1.0
  Zn  Zn4  1  0.72973319  0.54410181  -0.01866419  1.0
  Zn  Zn5  1  0.98133581  0.72973319  -0.45589819  1.0
  Zn  Zn6  1  0.90809514  0.90809514  -0.09190486  1.0
  Zn  Zn7  1  1.09190486  1.09190486  0.09190486  1.0
  B  B8  1  0.70214768  -0.00000000  0.29785232  1.0
  B  B9  1  0.00000000  0.29785232  -0.29785232  1.0
  B  B10  1  0.29785232  -0.29785232  -0.00000000  1.0
  H  H11  1  0.64250388  0.50000000  -0.64250388  1.0
  H  H12  1  0.50000000  0.35749612  -0.35749612  1.0
  H  H13  1  0.35749612  0.64250388  -0.50000000  1.0
  O  O14  1  1.68172960  1.04206170  0.11120065  1.0
  O  O15  1  0.88879935  -0.04206170  0.31827040  1.0
  O  O16  1  0.95793830  0.31827040  -0.11120065  1.0
  O  O17  1  1.31827040  -0.11120065  -0.04206170  1.0
  O  O18  1  1.11120065  1.68172960  0.04206170  1.0
  O  O19  1  1.04206170  1.11120065  0.68172960  1.0
  O  O20  1  0.75933703  0.50000000  -0.75933703  1.0
  O  O21  1  0.50000000  0.24066297  -0.24066297  1.0
  O  O22  1  0.24066297  0.75933703  -0.50000000  1.0
  O  O23  1  0.53295094  1.00000000  -0.53295094  1.0
  O  O24  1  -0.00000000  0.46704906  -0.46704906  1.0
  O  O25  1  0.46704906  -0.46704906  -0.00000000  1.0
  O  O26  1  0.79612220  0.79612220  -0.20387780  1.0
  O  O27  1  1.20387780  1.20387780  0.20387780  1.0
