# generated using pymatgen
data_FeF3
_symmetry_space_group_name_H-M   'P 1'
_cell_length_a   5.47198544
_cell_length_b   5.47198544
_cell_length_c   5.47198544
_cell_angle_alpha   58.03183725
_cell_angle_beta   58.03183725
_cell_angle_gamma   58.03183725
_symmetry_Int_Tables_number   1
_chemical_formula_structural   FeF3
_chemical_formula_sum   'Fe2 F6'
_cell_volume   110.62662501
_cell_formula_units_Z   2
loop_
 _symmetry_equiv_pos_site_id
 _symmetry_equiv_pos_as_xyz
  1  'x, y, z'
loop_
 _atom_site_type_symbol
 _atom_site_label
 _atom_site_symmetry_multiplicity
 _atom_site_fract_x
 _atom_site_fract_y
 _atom_site_fract_z
 _atom_site_occupancy
  Fe  Fe0  1  1.00000000  -0.00000000  -0.00000000  1.0
  Fe  Fe1  1  0.50000000  0.50000000  0.50000000  1.0
  F  F2  1  1.34065314  -0.25000000  0.15934686  1.0
  F  F3  1  0.84065314  -0.34065314  0.25000000  1.0
  F  F4  1  0.25000000  0.84065314  -0.34065314  1.0
  F  F5  1  0.75000000  0.15934686  0.34065314  1.0
  F  F6  1  0.65934686  0.25000000  -0.15934686  1.0
  F  F7  1  1.15934686  0.34065314  -0.25000000  1.0
