# generated using pymatgen
data_KLaSe2
_symmetry_space_group_name_H-M   'P 1'
_cell_length_a   8.10004683
_cell_length_b   8.10004683
_cell_length_c   8.10004683
_cell_angle_alpha   31.88715243
_cell_angle_beta   31.88715243
_cell_angle_gamma   31.88715243
_symmetry_Int_Tables_number   1
_chemical_formula_structural   KLaSe2
_chemical_formula_sum   'K1 La1 Se2'
_cell_volume   131.73938576
_cell_formula_units_Z   1
loop_
 _symmetry_equiv_pos_site_id
 _symmetry_equiv_pos_as_xyz
  1  'x, y, z'
loop_
 _atom_site_type_symbol
 _atom_site_label
 _atom_site_symmetry_multiplicity
 _atom_site_fract_x
 _atom_site_fract_y
 _atom_site_fract_z
 _atom_site_occupancy
  K  K0  1  0.00000000  0.00000000  0.00000000  1.0
  La  La1  1  1.50000000  0.50000000  0.50000000  1.0
  Se  Se2  1  0.76278803  0.76278803  0.76278803  1.0
  Se  Se3  1  1.23721197  1.23721197  0.23721197  1.0
