# generated using pymatgen
data_Sm2InGe2
_symmetry_space_group_name_H-M   'P 1'
_cell_length_a   7.45521271
_cell_length_b   7.45521271
_cell_length_c   4.48896785
_cell_angle_alpha   90.00000000
_cell_angle_beta   90.00000000
_cell_angle_gamma   90.00000000
_symmetry_Int_Tables_number   1
_chemical_formula_structural   Sm2InGe2
_chemical_formula_sum   'Sm4 In2 Ge4'
_cell_volume   249.49771512
_cell_formula_units_Z   2
loop_
 _symmetry_equiv_pos_site_id
 _symmetry_equiv_pos_as_xyz
  1  'x, y, z'
loop_
 _atom_site_type_symbol
 _atom_site_label
 _atom_site_symmetry_multiplicity
 _atom_site_fract_x
 _atom_site_fract_y
 _atom_site_fract_z
 _atom_site_occupancy
  Sm  Sm0  1  0.32432846  0.17567154  0.50000000  1.0
  Sm  Sm1  1  0.82432846  0.32432846  0.50000000  1.0
  Sm  Sm2  1  0.67567154  0.82432846  0.50000000  1.0
  Sm  Sm3  1  0.17567154  0.67567154  0.50000000  1.0
  In  In4  1  0.50000000  0.50000000  0.00000000  1.0
  In  In5  1  0.00000000  0.00000000  0.00000000  1.0
  Ge  Ge6  1  0.87863346  0.62136654  0.00000000  1.0
  Ge  Ge7  1  0.37863346  0.87863346  0.00000000  1.0
  Ge  Ge8  1  0.12136654  0.37863346  0.00000000  1.0
  Ge  Ge9  1  0.62136654  0.12136654  0.00000000  1.0
