# generated using pymatgen
data_Y2Co7
_symmetry_space_group_name_H-M   'P 1'
_cell_length_a   12.35464577
_cell_length_b   12.35464577
_cell_length_c   12.35464577
_cell_angle_alpha   23.19675777
_cell_angle_beta   23.19675777
_cell_angle_gamma   23.19675777
_symmetry_Int_Tables_number   1
_chemical_formula_structural   Y2Co7
_chemical_formula_sum   'Y4 Co14'
_cell_volume   256.83857186
_cell_formula_units_Z   2
loop_
 _symmetry_equiv_pos_site_id
 _symmetry_equiv_pos_as_xyz
  1  'x, y, z'
loop_
 _atom_site_type_symbol
 _atom_site_label
 _atom_site_symmetry_multiplicity
 _atom_site_fract_x
 _atom_site_fract_y
 _atom_site_fract_z
 _atom_site_occupancy
  Y  Y0  1  0.94863103  0.94863103  0.94863103  1.0
  Y  Y1  1  1.05136897  1.05136897  0.05136897  1.0
  Y  Y2  1  0.85187592  0.85187592  0.85187592  1.0
  Y  Y3  1  1.14812408  1.14812408  0.14812408  1.0
  Co  Co4  1  1.39071973  0.39071973  0.89158367  1.0
  Co  Co5  1  1.39071973  0.89158367  0.39071973  1.0
  Co  Co6  1  1.10841633  0.60928027  0.60928027  1.0
  Co  Co7  1  1.60928027  0.10841633  0.60928027  1.0
  Co  Co8  1  1.60928027  0.60928027  0.10841633  1.0
  Co  Co9  1  0.89158367  1.39071973  0.39071973  1.0
  Co  Co10  1  0.50000000  -0.00000000  -0.50000000  1.0
  Co  Co11  1  0.50000000  -0.50000000  0.00000000  1.0
  Co  Co12  1  -0.00000000  0.50000000  -0.50000000  1.0
  Co  Co13  1  0.72127628  0.72127628  0.72127628  1.0
  Co  Co14  1  1.27872372  1.27872372  0.27872372  1.0
  Co  Co15  1  1.61163385  0.61163385  0.61163385  1.0
  Co  Co16  1  1.38836615  0.38836615  0.38836615  1.0
  Co  Co17  1  1.50000000  0.50000000  0.50000000  1.0
