# generated using pymatgen
data_CoSO4
_symmetry_space_group_name_H-M   'P 1'
_cell_length_a   8.67386225
_cell_length_b   6.77933138
_cell_length_c   4.82494851
_cell_angle_alpha   90.00000000
_cell_angle_beta   90.00000000
_cell_angle_gamma   90.00000000
_symmetry_Int_Tables_number   1
_chemical_formula_structural   CoSO4
_chemical_formula_sum   'Co4 S4 O16'
_cell_volume   283.72138233
_cell_formula_units_Z   4
loop_
 _symmetry_equiv_pos_site_id
 _symmetry_equiv_pos_as_xyz
  1  'x, y, z'
loop_
 _atom_site_type_symbol
 _atom_site_label
 _atom_site_symmetry_multiplicity
 _atom_site_fract_x
 _atom_site_fract_y
 _atom_site_fract_z
 _atom_site_occupancy
  S  S0  1  0.67711420  0.25000000  0.03036539  1.0
  S  S1  1  0.17711420  0.25000000  0.46963461  1.0
  S  S2  1  0.32288580  0.75000000  0.96963461  1.0
  S  S3  1  0.82288580  0.75000000  0.53036539  1.0
  O  O4  1  0.62373634  0.43355402  0.16858879  1.0
  O  O5  1  0.62373634  0.06644598  0.16858879  1.0
  O  O6  1  0.12373634  0.43355402  0.33141121  1.0
  O  O7  1  0.12373634  0.06644598  0.33141121  1.0
  O  O8  1  0.37626366  0.93355402  0.83141121  1.0
  O  O9  1  0.37626366  0.56644598  0.83141121  1.0
  O  O10  1  0.87626366  0.93355402  0.66858879  1.0
  O  O11  1  0.87626366  0.56644598  0.66858879  1.0
  O  O12  1  0.62223680  0.25000000  0.73566191  1.0
  O  O13  1  0.12223680  0.25000000  0.76433809  1.0
  O  O14  1  0.37776320  0.75000000  0.26433809  1.0
  O  O15  1  0.87776320  0.75000000  0.23566191  1.0
  O  O16  1  0.85250090  0.25000000  0.04483679  1.0
  O  O17  1  0.35250090  0.25000000  0.45516321  1.0
  O  O18  1  0.14749910  0.75000000  0.95516321  1.0
  O  O19  1  0.64749910  0.75000000  0.54483679  1.0
  Co  Co20  1  0.00000000  0.50000000  0.00000000  1.0
  Co  Co21  1  0.00000000  0.00000000  0.00000000  1.0
  Co  Co22  1  0.50000000  0.50000000  0.50000000  1.0
  Co  Co23  1  0.50000000  0.00000000  0.50000000  1.0
