# generated using pymatgen
data_Ca2AlPd2
_symmetry_space_group_name_H-M   'P 1'
_cell_length_a   5.78379957
_cell_length_b   5.78379957
_cell_length_c   7.78473727
_cell_angle_alpha   79.03179959
_cell_angle_beta   100.96820041
_cell_angle_gamma   120.05139218
_symmetry_Int_Tables_number   1
_chemical_formula_structural   Ca2AlPd2
_chemical_formula_sum   'Ca4 Al2 Pd4'
_cell_volume   219.90703655
_cell_formula_units_Z   2
loop_
 _symmetry_equiv_pos_site_id
 _symmetry_equiv_pos_as_xyz
  1  'x, y, z'
loop_
 _atom_site_type_symbol
 _atom_site_label
 _atom_site_symmetry_multiplicity
 _atom_site_fract_x
 _atom_site_fract_y
 _atom_site_fract_z
 _atom_site_occupancy
  Ca  Ca0  1  0.51795283  0.21863900  0.64883917  1.0
  Ca  Ca1  1  0.78136100  0.48204717  0.14883917  1.0
  Ca  Ca2  1  1.21863900  0.51795283  0.85116083  1.0
  Ca  Ca3  1  0.48204717  -0.21863900  0.35116083  1.0
  Al  Al4  1  0.87860928  0.87860928  0.75000000  1.0
  Al  Al5  1  0.12139072  0.12139072  0.25000000  1.0
  Pd  Pd6  1  0.74065758  -0.00411661  0.99665394  1.0
  Pd  Pd7  1  1.00411661  0.25934242  0.49665394  1.0
  Pd  Pd8  1  0.99588339  0.74065758  0.50334606  1.0
  Pd  Pd9  1  0.25934242  0.00411661  0.00334606  1.0
