# generated using pymatgen
data_CoWO4
_symmetry_space_group_name_H-M   'P 1'
_cell_length_a   4.66381335
_cell_length_b   5.72158122
_cell_length_c   4.95619457
_cell_angle_alpha   90.00000000
_cell_angle_beta   90.33413282
_cell_angle_gamma   90.00000000
_symmetry_Int_Tables_number   1
_chemical_formula_structural   CoWO4
_chemical_formula_sum   'Co2 W2 O8'
_cell_volume   132.25076455
_cell_formula_units_Z   2
loop_
 _symmetry_equiv_pos_site_id
 _symmetry_equiv_pos_as_xyz
  1  'x, y, z'
loop_
 _atom_site_type_symbol
 _atom_site_label
 _atom_site_symmetry_multiplicity
 _atom_site_fract_x
 _atom_site_fract_y
 _atom_site_fract_z
 _atom_site_occupancy
  Co  Co0  1  -0.00000000  0.15226818  0.75000000  1.0
  Co  Co1  1  -0.00000000  0.84773182  0.25000000  1.0
  W  W2  1  0.50000000  0.67592660  0.75000000  1.0
  W  W3  1  0.50000000  0.32407340  0.25000000  1.0
  O  O4  1  0.24119855  0.12541200  0.40326469  1.0
  O  O5  1  0.24119855  0.87458800  0.90326469  1.0
  O  O6  1  0.75880145  0.12541200  0.09673531  1.0
  O  O7  1  0.75880145  0.87458800  0.59673531  1.0
  O  O8  1  0.28020205  0.38935050  0.92723335  1.0
  O  O9  1  0.28020205  0.61064950  0.42723335  1.0
  O  O10  1  0.71979795  0.38935050  0.57276665  1.0
  O  O11  1  0.71979795  0.61064950  0.07276665  1.0
