# generated using pymatgen
data_Na2FeH4(SO5)2
_symmetry_space_group_name_H-M   'P 1'
_cell_length_a   5.83291734
_cell_length_b   13.18630023
_cell_length_c   5.53849577
_cell_angle_alpha   90.00000000
_cell_angle_beta   106.12583320
_cell_angle_gamma   90.00000000
_symmetry_Int_Tables_number   1
_chemical_formula_structural   Na2FeH4(SO5)2
_chemical_formula_sum   'Na4 Fe2 H8 S4 O20'
_cell_volume   409.23014365
_cell_formula_units_Z   2
loop_
 _symmetry_equiv_pos_site_id
 _symmetry_equiv_pos_as_xyz
  1  'x, y, z'
loop_
 _atom_site_type_symbol
 _atom_site_label
 _atom_site_symmetry_multiplicity
 _atom_site_fract_x
 _atom_site_fract_y
 _atom_site_fract_z
 _atom_site_occupancy
  Na  Na0  1  0.41768623  0.88384994  0.74132788  1.0
  Na  Na1  1  0.41768623  0.61615006  0.24132788  1.0
  Na  Na2  1  0.58231377  0.38384994  0.75867212  1.0
  Na  Na3  1  0.58231377  0.11615006  0.25867212  1.0
  Fe  Fe4  1  0.00000000  0.00000000  0.00000000  1.0
  Fe  Fe5  1  0.00000000  0.50000000  0.50000000  1.0
  H  H6  1  0.91072029  0.20171570  0.99820533  1.0
  H  H7  1  0.91072029  0.29828430  0.49820533  1.0
  H  H8  1  0.08927971  0.70171570  0.50179467  1.0
  H  H9  1  0.08927971  0.79828430  0.00179467  1.0
  H  H10  1  0.31863160  0.65097625  0.68517720  1.0
  H  H11  1  0.31863160  0.84902375  0.18517720  1.0
  H  H12  1  0.68136840  0.15097625  0.81482280  1.0
  H  H13  1  0.68136840  0.34902375  0.31482280  1.0
  S  S14  1  0.77666885  0.61747745  0.92671590  1.0
  S  S15  1  0.77666885  0.88252255  0.42671590  1.0
  S  S16  1  0.22333115  0.11747745  0.57328410  1.0
  S  S17  1  0.22333115  0.38252255  0.07328410  1.0
  O  O18  1  0.00564242  0.82703697  0.48902615  1.0
  O  O19  1  0.00564242  0.67296303  0.98902615  1.0
  O  O20  1  0.99435758  0.32703697  0.01097385  1.0
  O  O21  1  0.99435758  0.17296303  0.51097385  1.0
  O  O22  1  0.81505054  0.36172863  0.46923848  1.0
  O  O23  1  0.81505054  0.13827137  0.96923848  1.0
  O  O24  1  0.18494946  0.86172863  0.03076152  1.0
  O  O25  1  0.18494946  0.63827137  0.53076152  1.0
  O  O26  1  0.77104969  0.95809398  0.63107493  1.0
  O  O27  1  0.77104969  0.54190602  0.13107493  1.0
  O  O28  1  0.22895031  0.45809398  0.86892507  1.0
  O  O29  1  0.22895031  0.04190602  0.36892507  1.0
  O  O30  1  0.74048176  0.55915806  0.68232934  1.0
  O  O31  1  0.74048176  0.94084194  0.18232934  1.0
  O  O32  1  0.25951824  0.05915806  0.81767066  1.0
  O  O33  1  0.25951824  0.44084194  0.31767066  1.0
  O  O34  1  0.56911238  0.68743990  0.90059928  1.0
  O  O35  1  0.56911238  0.81256010  0.40059928  1.0
  O  O36  1  0.43088762  0.18743990  0.59940072  1.0
  O  O37  1  0.43088762  0.31256010  0.09940072  1.0
