# generated using pymatgen
data_MgP4(Cl5O3)2
_symmetry_space_group_name_H-M   'P 1'
_cell_length_a   10.23763759
_cell_length_b   11.70216349
_cell_length_c   11.92806528
_cell_angle_alpha   113.48156811
_cell_angle_beta   116.48026145
_cell_angle_gamma   82.92229767
_symmetry_Int_Tables_number   1
_chemical_formula_structural   MgP4(Cl5O3)2
_chemical_formula_sum   'Mg2 P8 Cl20 O12'
_cell_volume   1170.58461072
_cell_formula_units_Z   2
loop_
 _symmetry_equiv_pos_site_id
 _symmetry_equiv_pos_as_xyz
  1  'x, y, z'
loop_
 _atom_site_type_symbol
 _atom_site_label
 _atom_site_symmetry_multiplicity
 _atom_site_fract_x
 _atom_site_fract_y
 _atom_site_fract_z
 _atom_site_occupancy
  Mg  Mg0  1  -0.24078583  0.93507213  0.49428554  1.0
  Mg  Mg1  1  0.24078583  0.06492787  0.50571446  1.0
  P  P2  1  -0.26685155  0.74913612  0.66107101  1.0
  P  P3  1  0.26685155  0.25086388  0.33892899  1.0
  P  P4  1  -0.61742527  0.85700199  0.29738137  1.0
  P  P5  1  0.61742527  0.14299801  0.70261863  1.0
  P  P6  1  0.19929488  0.33183754  0.77869115  1.0
  P  P7  1  -0.19929488  0.66816246  0.22130885  1.0
  P  P8  1  0.13434304  0.91678814  0.64784976  1.0
  P  P9  1  -0.13434304  0.08321186  0.35215024  1.0
  Cl  Cl10  1  -0.09885514  0.81265267  0.84669567  1.0
  Cl  Cl11  1  0.09885514  0.18734733  0.15330433  1.0
  Cl  Cl12  1  -0.63822342  0.67282597  0.26896027  1.0
  Cl  Cl13  1  0.63822342  0.32717403  0.73103973  1.0
  Cl  Cl14  1  -0.26707333  0.56207338  0.59899974  1.0
  Cl  Cl15  1  0.26707333  0.43792662  0.40100026  1.0
  Cl  Cl16  1  0.02097831  0.32904761  0.80625041  1.0
  Cl  Cl17  1  -0.02097831  0.67095239  0.19374959  1.0
  Cl  Cl18  1  -0.69977243  0.84246605  0.10003703  1.0
  Cl  Cl19  1  0.69977243  0.15753395  0.89996297  1.0
  Cl  Cl20  1  0.36918390  0.34969096  0.95688671  1.0
  Cl  Cl21  1  -0.36918390  0.65030904  0.04311329  1.0
  Cl  Cl22  1  0.20327996  0.49614307  0.76313964  1.0
  Cl  Cl23  1  -0.20327996  0.50385693  0.23686036  1.0
  Cl  Cl24  1  0.14928505  0.72778240  0.60810536  1.0
  Cl  Cl25  1  -0.14928505  0.27221760  0.39189464  1.0
  Cl  Cl26  1  -0.25397735  1.00793607  0.14503650  1.0
  Cl  Cl27  1  0.25397735  -0.00793607  0.85496350  1.0
  Cl  Cl28  1  0.55316025  0.79339128  0.69136251  1.0
  Cl  Cl29  1  -0.55316025  0.20660872  0.30863749  1.0
  O  O30  1  -0.27907824  0.07152155  0.64649934  1.0
  O  O31  1  0.27907824  0.92847845  0.35350066  1.0
  O  O32  1  -0.25918808  0.79358625  0.56418759  1.0
  O  O33  1  0.25918808  0.20641375  0.43581241  1.0
  O  O34  1  -0.45841954  0.89612560  0.36537288  1.0
  O  O35  1  0.45841954  0.10387440  0.63462712  1.0
  O  O36  1  -0.02099013  0.94721974  0.61684540  1.0
  O  O37  1  0.02099013  0.05278026  0.38315460  1.0
  O  O38  1  -0.20194159  0.77690538  0.33824445  1.0
  O  O39  1  0.20194159  0.22309462  0.66175555  1.0
  O  O40  1  0.21624789  0.94739973  0.58504568  1.0
  O  O41  1  -0.21624789  0.05260027  0.41495432  1.0
