# generated using pymatgen
data_K2SnTe3
_symmetry_space_group_name_H-M   'P 1'
_cell_length_a   12.51403055
_cell_length_b   12.51403055
_cell_length_c   8.83342741
_cell_angle_alpha   90.00000000
_cell_angle_beta   90.00000000
_cell_angle_gamma   41.08140212
_symmetry_Int_Tables_number   1
_chemical_formula_structural   K2SnTe3
_chemical_formula_sum   'K8 Sn4 Te12'
_cell_volume   909.02402830
_cell_formula_units_Z   4
loop_
 _symmetry_equiv_pos_site_id
 _symmetry_equiv_pos_as_xyz
  1  'x, y, z'
loop_
 _atom_site_type_symbol
 _atom_site_label
 _atom_site_symmetry_multiplicity
 _atom_site_fract_x
 _atom_site_fract_y
 _atom_site_fract_z
 _atom_site_occupancy
  K  K0  1  0.23546190  1.23546190  0.50000000  1.0
  K  K1  1  0.73546190  0.73546190  0.00000000  1.0
  K  K2  1  0.76453810  0.76453810  0.50000000  1.0
  K  K3  1  0.26453810  1.26453810  0.00000000  1.0
  K  K4  1  0.07815872  1.07815872  0.50000000  1.0
  K  K5  1  0.57815872  0.57815872  0.00000000  1.0
  K  K6  1  0.92184128  0.92184128  0.50000000  1.0
  K  K7  1  0.42184128  1.42184128  0.00000000  1.0
  Sn  Sn8  1  0.41613533  1.41613533  0.50000000  1.0
  Sn  Sn9  1  0.91613533  0.91613533  0.00000000  1.0
  Sn  Sn10  1  0.58386467  0.58386467  0.50000000  1.0
  Sn  Sn11  1  0.08386467  1.08386467  0.00000000  1.0
  Te  Te12  1  0.66440697  1.03701600  0.18629191  1.0
  Te  Te13  1  0.16440697  1.53701600  0.31370809  1.0
  Te  Te14  1  0.03701600  1.66440697  0.81370809  1.0
  Te  Te15  1  0.53701600  1.16440697  0.68629191  1.0
  Te  Te16  1  -0.03701600  1.33559303  0.18629191  1.0
  Te  Te17  1  0.46298400  0.83559303  0.31370809  1.0
  Te  Te18  1  0.33559303  0.96298400  0.81370809  1.0
  Te  Te19  1  -0.16440697  1.46298400  0.68629191  1.0
  Te  Te20  1  -0.33171655  0.33171655  0.33163368  1.0
  Te  Te21  1  -0.83171655  0.83171655  0.16836632  1.0
  Te  Te22  1  -0.66828345  0.66828345  0.66836632  1.0
  Te  Te23  1  -0.16828345  0.16828345  0.83163368  1.0
