# generated using pymatgen
data_Eu2SO6
_symmetry_space_group_name_H-M   'P 1'
_cell_length_a   7.24719774
_cell_length_b   7.24719774
_cell_length_c   8.28824353
_cell_angle_alpha   72.99640923
_cell_angle_beta   107.00359077
_cell_angle_gamma   145.80389606
_symmetry_Int_Tables_number   1
_chemical_formula_structural   Eu2SO6
_chemical_formula_sum   'Eu4 S2 O12'
_cell_volume   232.92606859
_cell_formula_units_Z   2
loop_
 _symmetry_equiv_pos_site_id
 _symmetry_equiv_pos_as_xyz
  1  'x, y, z'
loop_
 _atom_site_type_symbol
 _atom_site_label
 _atom_site_symmetry_multiplicity
 _atom_site_fract_x
 _atom_site_fract_y
 _atom_site_fract_z
 _atom_site_occupancy
  S  S0  1  0.94252328  0.94252328  0.25000000  1.0
  S  S1  1  0.05747672  0.05747672  0.75000000  1.0
  Eu  Eu2  1  0.67837460  0.33868010  0.08420120  1.0
  Eu  Eu3  1  0.66131990  0.32162540  0.58420120  1.0
  Eu  Eu4  1  0.33868010  -0.32162540  0.41579880  1.0
  Eu  Eu5  1  1.32162540  0.66131990  0.91579880  1.0
  O  O6  1  0.73447985  -0.26417160  0.10295378  1.0
  O  O7  1  1.26417160  0.26552015  0.60295378  1.0
  O  O8  1  0.73582840  0.73447985  0.39704622  1.0
  O  O9  1  0.26552015  0.26417160  0.89704622  1.0
  O  O10  1  0.23186300  0.04518528  0.29658718  1.0
  O  O11  1  0.95481472  0.76813700  0.79658718  1.0
  O  O12  1  1.04518528  0.23186300  0.20341282  1.0
  O  O13  1  0.76813700  -0.04518528  0.70341282  1.0
  O  O14  1  0.77191021  0.26271058  0.37708939  1.0
  O  O15  1  0.73728942  0.22808979  0.87708939  1.0
  O  O16  1  0.26271058  -0.22808979  0.12291061  1.0
  O  O17  1  1.22808979  0.73728942  0.62291061  1.0
