# generated using pymatgen
data_Rb2RuO4
_symmetry_space_group_name_H-M   'P 1'
_cell_length_a   8.24652593
_cell_length_b   6.44185533
_cell_length_c   11.24515398
_cell_angle_alpha   90.00000000
_cell_angle_beta   90.00000000
_cell_angle_gamma   90.00000000
_symmetry_Int_Tables_number   1
_chemical_formula_structural   Rb2RuO4
_chemical_formula_sum   'Rb8 Ru4 O16'
_cell_volume   597.37549392
_cell_formula_units_Z   4
loop_
 _symmetry_equiv_pos_site_id
 _symmetry_equiv_pos_as_xyz
  1  'x, y, z'
loop_
 _atom_site_type_symbol
 _atom_site_label
 _atom_site_symmetry_multiplicity
 _atom_site_fract_x
 _atom_site_fract_y
 _atom_site_fract_z
 _atom_site_occupancy
  Rb  Rb0  1  0.83470880  0.75000000  0.42933462  1.0
  Rb  Rb1  1  0.33470880  0.75000000  0.07066538  1.0
  Rb  Rb2  1  0.16529120  0.25000000  0.57066538  1.0
  Rb  Rb3  1  0.66529120  0.25000000  0.92933462  1.0
  Rb  Rb4  1  0.49656535  0.75000000  0.70617336  1.0
  Rb  Rb5  1  -0.00343465  0.75000000  0.79382664  1.0
  Rb  Rb6  1  0.50343465  0.25000000  0.29382664  1.0
  Rb  Rb7  1  1.00343465  0.25000000  0.20617336  1.0
  Ru  Ru8  1  0.78290217  0.75000000  0.08272356  1.0
  Ru  Ru9  1  0.28290217  0.75000000  0.41727644  1.0
  Ru  Ru10  1  0.21709783  0.25000000  0.91727644  1.0
  Ru  Ru11  1  0.71709783  0.25000000  0.58272356  1.0
  O  O12  1  0.71635123  0.97723259  0.16010333  1.0
  O  O13  1  0.71635123  0.52276741  0.16010333  1.0
  O  O14  1  0.21635123  0.97723259  0.33989667  1.0
  O  O15  1  0.21635123  0.52276741  0.33989667  1.0
  O  O16  1  0.28364877  0.47723259  0.83989667  1.0
  O  O17  1  0.28364877  0.02276741  0.83989667  1.0
  O  O18  1  0.78364877  0.47723259  0.66010333  1.0
  O  O19  1  0.78364877  0.02276741  0.66010333  1.0
  O  O20  1  0.99656814  0.75000000  0.06491760  1.0
  O  O21  1  0.49656814  0.75000000  0.43508240  1.0
  O  O22  1  0.00343186  0.25000000  0.93508240  1.0
  O  O23  1  0.50343186  0.25000000  0.56491760  1.0
  O  O24  1  0.18298767  0.75000000  0.55971484  1.0
  O  O25  1  0.68298767  0.75000000  0.94028516  1.0
  O  O26  1  0.81701233  0.25000000  0.44028516  1.0
  O  O27  1  0.31701233  0.25000000  0.05971484  1.0
