# generated using pymatgen
data_Rb
_symmetry_space_group_name_H-M   'P 1'
_cell_length_a   9.99968376
_cell_length_b   9.99968376
_cell_length_c   26.13944360
_cell_angle_alpha   90.00000000
_cell_angle_beta   90.00000000
_cell_angle_gamma   111.08559904
_symmetry_Int_Tables_number   1
_chemical_formula_structural   Rb
_chemical_formula_sum   Rb26
_cell_volume   2438.77081687
_cell_formula_units_Z   26
loop_
 _symmetry_equiv_pos_site_id
 _symmetry_equiv_pos_as_xyz
  1  'x, y, z'
loop_
 _atom_site_type_symbol
 _atom_site_label
 _atom_site_symmetry_multiplicity
 _atom_site_fract_x
 _atom_site_fract_y
 _atom_site_fract_z
 _atom_site_occupancy
  Rb  Rb0  1  0.38423451  0.59697568  0.07798240  1.0
  Rb  Rb1  1  -0.40302432  1.38423451  0.92201760  1.0
  Rb  Rb2  1  0.40302432  0.61576549  0.42201760  1.0
  Rb  Rb3  1  -0.38423451  1.40302432  0.57798240  1.0
  Rb  Rb4  1  -0.05218816  1.68051720  0.04396821  1.0
  Rb  Rb5  1  0.68051720  0.94781184  0.95603179  1.0
  Rb  Rb6  1  -0.68051720  1.05218816  0.45603179  1.0
  Rb  Rb7  1  0.05218816  0.31948280  0.54396821  1.0
  Rb  Rb8  1  0.13348742  0.40756019  0.25899297  1.0
  Rb  Rb9  1  -0.59243981  1.13348742  0.74100703  1.0
  Rb  Rb10  1  0.59243981  0.86651258  0.24100703  1.0
  Rb  Rb11  1  -0.13348742  1.59243981  0.75899297  1.0
  Rb  Rb12  1  -0.09821126  1.60925680  0.41523527  1.0
  Rb  Rb13  1  0.60925680  0.90178874  0.58476473  1.0
  Rb  Rb14  1  -0.60925680  1.09821126  0.08476473  1.0
  Rb  Rb15  1  0.09821126  0.39074320  0.91523527  1.0
  Rb  Rb16  1  -0.27634806  1.47629975  0.18161691  1.0
  Rb  Rb17  1  0.47629975  0.72365194  0.81838309  1.0
  Rb  Rb18  1  -0.47629975  1.27634806  0.31838309  1.0
  Rb  Rb19  1  0.27634806  0.52370025  0.68161691  1.0
  Rb  Rb20  1  -0.07307717  1.15236165  0.10192912  1.0
  Rb  Rb21  1  0.15236165  0.92692283  0.89807088  1.0
  Rb  Rb22  1  -0.15236165  1.07307717  0.39807088  1.0
  Rb  Rb23  1  0.07307717  0.84763835  0.60192912  1.0
  Rb  Rb24  1  0.10597126  0.89402874  0.25000000  1.0
  Rb  Rb25  1  -0.10597126  1.10597126  0.75000000  1.0
