# generated using pymatgen
data_Mg2Cr3O6
_symmetry_space_group_name_H-M   'P 1'
_cell_length_a   5.77960454
_cell_length_b   5.69395441
_cell_length_c   8.57527140
_cell_angle_alpha   90.00000000
_cell_angle_beta   90.00000000
_cell_angle_gamma   90.00000000
_symmetry_Int_Tables_number   1
_chemical_formula_structural   Mg2Cr3O6
_chemical_formula_sum   'Mg4 Cr6 O12'
_cell_volume   282.20193214
_cell_formula_units_Z   2
loop_
 _symmetry_equiv_pos_site_id
 _symmetry_equiv_pos_as_xyz
  1  'x, y, z'
loop_
 _atom_site_type_symbol
 _atom_site_label
 _atom_site_symmetry_multiplicity
 _atom_site_fract_x
 _atom_site_fract_y
 _atom_site_fract_z
 _atom_site_occupancy
  O  O0  1  0.98491377  0.00000000  0.76908646  1.0
  O  O1  1  0.48491377  0.00000000  0.23091354  1.0
  O  O2  1  0.01508623  0.00000000  0.23091354  1.0
  O  O3  1  0.51508623  0.00000000  0.76908646  1.0
  O  O4  1  0.25000000  0.23544875  0.01900250  1.0
  O  O5  1  0.75000000  0.23544875  0.98099750  1.0
  O  O6  1  0.25000000  0.76455125  0.01900250  1.0
  O  O7  1  0.75000000  0.76455125  0.98099750  1.0
  O  O8  1  0.25000000  0.74769026  0.46127905  1.0
  O  O9  1  0.75000000  0.74769026  0.53872095  1.0
  O  O10  1  0.25000000  0.25230974  0.46127905  1.0
  O  O11  1  0.75000000  0.25230974  0.53872095  1.0
  Cr  Cr12  1  0.25000000  0.25459134  0.26735501  1.0
  Cr  Cr13  1  0.75000000  0.25459134  0.73264499  1.0
  Cr  Cr14  1  0.25000000  0.74540866  0.26735501  1.0
  Cr  Cr15  1  0.75000000  0.74540866  0.73264499  1.0
  Cr  Cr16  1  0.50000000  0.00000000  0.00000000  1.0
  Cr  Cr17  1  0.00000000  0.00000000  0.00000000  1.0
  Mg  Mg18  1  0.25000000  0.50000000  0.87495641  1.0
  Mg  Mg19  1  0.75000000  0.50000000  0.12504359  1.0
  Mg  Mg20  1  0.25000000  0.00000000  0.61837561  1.0
  Mg  Mg21  1  0.75000000  0.00000000  0.38162439  1.0
