# generated using pymatgen
data_MgTa2N3
_symmetry_space_group_name_H-M   'P 1'
_cell_length_a   5.23699651
_cell_length_b   5.23699651
_cell_length_c   10.47569719
_cell_angle_alpha   90.00000000
_cell_angle_beta   90.00000000
_cell_angle_gamma   120.00000000
_symmetry_Int_Tables_number   1
_chemical_formula_structural   MgTa2N3
_chemical_formula_sum   'Mg4 Ta8 N12'
_cell_volume   248.81590444
_cell_formula_units_Z   4
loop_
 _symmetry_equiv_pos_site_id
 _symmetry_equiv_pos_as_xyz
  1  'x, y, z'
loop_
 _atom_site_type_symbol
 _atom_site_label
 _atom_site_symmetry_multiplicity
 _atom_site_fract_x
 _atom_site_fract_y
 _atom_site_fract_z
 _atom_site_occupancy
  Mg  Mg0  1  0.33333333  0.66666667  0.50000000  1.0
  Mg  Mg1  1  0.33333333  0.66666667  0.00000000  1.0
  Mg  Mg2  1  0.66666667  0.33333333  0.50000000  1.0
  Mg  Mg3  1  0.66666667  0.33333333  0.00000000  1.0
  Ta  Ta4  1  0.33580905  0.33580905  0.25000000  1.0
  Ta  Ta5  1  0.33580905  0.00000000  0.75000000  1.0
  Ta  Ta6  1  0.00000000  0.33580905  0.75000000  1.0
  Ta  Ta7  1  0.00000000  0.66419095  0.25000000  1.0
  Ta  Ta8  1  0.66419095  0.66419095  0.75000000  1.0
  Ta  Ta9  1  0.66419095  0.00000000  0.25000000  1.0
  Ta  Ta10  1  0.00000000  0.00000000  0.50000000  1.0
  Ta  Ta11  1  0.00000000  0.00000000  0.00000000  1.0
  N  N12  1  0.67052797  0.67052797  0.37976100  1.0
  N  N13  1  0.67052797  0.67052797  0.12023900  1.0
  N  N14  1  0.67052797  0.00000000  0.87976100  1.0
  N  N15  1  0.67052797  0.00000000  0.62023900  1.0
  N  N16  1  0.00000000  0.67052797  0.87976100  1.0
  N  N17  1  0.00000000  0.67052797  0.62023900  1.0
  N  N18  1  0.00000000  0.32947203  0.37976100  1.0
  N  N19  1  0.00000000  0.32947203  0.12023900  1.0
  N  N20  1  0.32947203  0.32947203  0.87976100  1.0
  N  N21  1  0.32947203  0.32947203  0.62023900  1.0
  N  N22  1  0.32947203  0.00000000  0.37976100  1.0
  N  N23  1  0.32947203  0.00000000  0.12023900  1.0
