# generated using pymatgen
data_AlP3NO10
_symmetry_space_group_name_H-M   'P 1'
_cell_length_a   7.79026280
_cell_length_b   5.03920497
_cell_length_c   11.78464060
_cell_angle_alpha   90.00000000
_cell_angle_beta   112.08773239
_cell_angle_gamma   90.00000000
_symmetry_Int_Tables_number   1
_chemical_formula_structural   AlP3NO10
_chemical_formula_sum   'Al2 P6 N2 O20'
_cell_volume   428.67392324
_cell_formula_units_Z   2
loop_
 _symmetry_equiv_pos_site_id
 _symmetry_equiv_pos_as_xyz
  1  'x, y, z'
loop_
 _atom_site_type_symbol
 _atom_site_label
 _atom_site_symmetry_multiplicity
 _atom_site_fract_x
 _atom_site_fract_y
 _atom_site_fract_z
 _atom_site_occupancy
  P  P0  1  0.76838800  0.49765205  0.52318426  1.0
  P  P1  1  0.76838800  0.50234795  1.02318426  1.0
  P  P2  1  0.23161200  0.49765205  -0.02318426  1.0
  P  P3  1  0.23161200  0.50234795  0.47681574  1.0
  P  P4  1  -0.00000000  0.76713456  0.25000000  1.0
  P  P5  1  0.00000000  0.23286544  0.75000000  1.0
  Al  Al6  1  0.00000000  0.00000000  0.50000000  1.0
  Al  Al7  1  0.00000000  0.00000000  0.00000000  1.0
  O  O8  1  0.92654356  0.91936647  0.33178534  1.0
  O  O9  1  0.92654356  0.08063353  0.83178534  1.0
  O  O10  1  0.07345644  0.91936647  0.16821466  1.0
  O  O11  1  0.07345644  0.08063353  0.66821466  1.0
  O  O12  1  0.83935584  0.56673606  0.16842775  1.0
  O  O13  1  0.83935584  0.43326394  0.66842775  1.0
  O  O14  1  0.16064416  0.56673606  0.33157225  1.0
  O  O15  1  0.16064416  0.43326394  0.83157225  1.0
  O  O16  1  0.55063094  0.41341120  0.47129606  1.0
  O  O17  1  0.55063094  0.58658880  0.97129606  1.0
  O  O18  1  0.44936906  0.41341120  0.02870394  1.0
  O  O19  1  0.44936906  0.58658880  0.52870394  1.0
  O  O20  1  0.84361783  0.69986167  0.95727910  1.0
  O  O21  1  0.84361783  0.30013833  0.45727910  1.0
  O  O22  1  0.15638217  0.69986167  0.54272090  1.0
  O  O23  1  0.15638217  0.30013833  0.04272090  1.0
  O  O24  1  0.79637277  0.78853258  0.50794258  1.0
  O  O25  1  0.79637277  0.21146742  1.00794258  1.0
  O  O26  1  0.20362723  0.78853258  -0.00794258  1.0
  O  O27  1  0.20362723  0.21146742  0.49205742  1.0
  N  N28  1  0.50000000  -0.02695782  0.25000000  1.0
  N  N29  1  0.50000000  1.02695782  0.75000000  1.0
