# generated using pymatgen
data_ScTaO4
_symmetry_space_group_name_H-M   'P 1'
_cell_length_a   4.84240273
_cell_length_b   5.74132206
_cell_length_c   5.15519611
_cell_angle_alpha   90.00000000
_cell_angle_beta   91.46035337
_cell_angle_gamma   90.00000000
_symmetry_Int_Tables_number   1
_chemical_formula_structural   ScTaO4
_chemical_formula_sum   'Sc2 Ta2 O8'
_cell_volume   143.27714648
_cell_formula_units_Z   2
loop_
 _symmetry_equiv_pos_site_id
 _symmetry_equiv_pos_as_xyz
  1  'x, y, z'
loop_
 _atom_site_type_symbol
 _atom_site_label
 _atom_site_symmetry_multiplicity
 _atom_site_fract_x
 _atom_site_fract_y
 _atom_site_fract_z
 _atom_site_occupancy
  Sc  Sc0  1  -0.00000000  0.82481920  0.25000000  1.0
  Sc  Sc1  1  -0.00000000  0.17518080  0.75000000  1.0
  Ta  Ta2  1  0.50000000  0.32449907  0.25000000  1.0
  Ta  Ta3  1  0.50000000  0.67550093  0.75000000  1.0
  O  O4  1  0.76512335  0.88205433  0.90483057  1.0
  O  O5  1  0.76512335  0.11794567  0.40483057  1.0
  O  O6  1  0.23487665  0.88205433  0.59516943  1.0
  O  O7  1  0.23487665  0.11794567  0.09516943  1.0
  O  O8  1  0.71659255  0.60855679  0.43406097  1.0
  O  O9  1  0.71659255  0.39144321  0.93406097  1.0
  O  O10  1  0.28340745  0.60855679  0.06593903  1.0
  O  O11  1  0.28340745  0.39144321  0.56593903  1.0
