# generated using pymatgen
data_BaYCuS3
_symmetry_space_group_name_H-M   'P 1'
_cell_length_a   7.08671562
_cell_length_b   7.08671562
_cell_length_c   10.25866258
_cell_angle_alpha   90.00000000
_cell_angle_beta   90.00000000
_cell_angle_gamma   147.04448824
_symmetry_Int_Tables_number   1
_chemical_formula_structural   BaYCuS3
_chemical_formula_sum   'Ba2 Y2 Cu2 S6'
_cell_volume   280.26561147
_cell_formula_units_Z   2
loop_
 _symmetry_equiv_pos_site_id
 _symmetry_equiv_pos_as_xyz
  1  'x, y, z'
loop_
 _atom_site_type_symbol
 _atom_site_label
 _atom_site_symmetry_multiplicity
 _atom_site_fract_x
 _atom_site_fract_y
 _atom_site_fract_z
 _atom_site_occupancy
  Ba  Ba0  1  -0.25497489  0.25497489  0.75000000  1.0
  Ba  Ba1  1  0.25497489  0.74502511  0.25000000  1.0
  Y  Y2  1  0.00000000  0.00000000  0.00000000  1.0
  Y  Y3  1  0.00000000  0.00000000  0.50000000  1.0
  Cu  Cu4  1  0.46917332  0.53082668  0.75000000  1.0
  Cu  Cu5  1  -0.46917332  0.46917332  0.25000000  1.0
  S  S6  1  0.36898254  0.63101746  0.93570468  1.0
  S  S7  1  0.36898254  0.63101746  0.56429532  1.0
  S  S8  1  -0.36898254  0.36898254  0.43570468  1.0
  S  S9  1  -0.36898254  0.36898254  0.06429532  1.0
  S  S10  1  0.06697305  0.93302695  0.75000000  1.0
  S  S11  1  -0.06697305  0.06697305  0.25000000  1.0
