# generated using pymatgen
data_Sr(NiP)2
_symmetry_space_group_name_H-M   'P 1'
_cell_length_a   8.21615009
_cell_length_b   8.21615009
_cell_length_c   8.21615009
_cell_angle_alpha   152.20604012
_cell_angle_beta   99.04482703
_cell_angle_gamma   87.60219940
_symmetry_Int_Tables_number   1
_chemical_formula_structural   Sr(NiP)2
_chemical_formula_sum   'Sr3 Ni6 P6'
_cell_volume   249.64717066
_cell_formula_units_Z   3
loop_
 _symmetry_equiv_pos_site_id
 _symmetry_equiv_pos_as_xyz
  1  'x, y, z'
loop_
 _atom_site_type_symbol
 _atom_site_label
 _atom_site_symmetry_multiplicity
 _atom_site_fract_x
 _atom_site_fract_y
 _atom_site_fract_z
 _atom_site_occupancy
  Sr  Sr0  1  0.68239708  0.68239708  1.00000000  1.0
  Sr  Sr1  1  1.31760292  1.31760292  1.00000000  1.0
  Sr  Sr2  1  0.00000000  0.00000000  0.00000000  1.0
  Ni  Ni3  1  1.58274112  0.84295845  0.73978267  1.0
  Ni  Ni4  1  0.89682422  0.15704155  0.73978267  1.0
  Ni  Ni5  1  1.10317578  0.84295845  0.26021733  1.0
  Ni  Ni6  1  0.41725888  0.15704155  0.26021733  1.0
  Ni  Ni7  1  0.26958868  0.50000000  0.76958868  1.0
  Ni  Ni8  1  0.73041132  0.50000000  1.23041132  1.0
  P  P9  1  0.62148273  0.00000000  0.62148273  1.0
  P  P10  1  0.37851727  -0.00000000  0.37851727  1.0
  P  P11  1  1.32336957  0.66438942  0.65898015  1.0
  P  P12  1  0.99459072  0.33561058  0.65898015  1.0
  P  P13  1  1.00540928  0.66438942  0.34101985  1.0
  P  P14  1  0.67663043  0.33561058  0.34101985  1.0
