# generated using pymatgen
data_Mn(NiO)4
_symmetry_space_group_name_H-M   'P 1'
_cell_length_a   6.49908495
_cell_length_b   6.49908495
_cell_length_c   6.49908495
_cell_angle_alpha   123.14535712
_cell_angle_beta   123.14535712
_cell_angle_gamma   84.63328700
_symmetry_Int_Tables_number   1
_chemical_formula_structural   Mn(NiO)4
_chemical_formula_sum   'Mn2 Ni8 O8'
_cell_volume   183.99687837
_cell_formula_units_Z   2
loop_
 _symmetry_equiv_pos_site_id
 _symmetry_equiv_pos_as_xyz
  1  'x, y, z'
loop_
 _atom_site_type_symbol
 _atom_site_label
 _atom_site_symmetry_multiplicity
 _atom_site_fract_x
 _atom_site_fract_y
 _atom_site_fract_z
 _atom_site_occupancy
  Mn  Mn0  1  0.00000000  0.00000000  0.00000000  1.0
  Mn  Mn1  1  0.75000000  0.25000000  0.50000000  1.0
  Ni  Ni2  1  1.22402320  0.49986853  0.72415467  1.0
  Ni  Ni3  1  0.97428614  0.75013147  1.22415467  1.0
  Ni  Ni4  1  0.77571386  0.49986853  0.27584533  1.0
  Ni  Ni5  1  0.52597680  0.75013147  0.77584533  1.0
  Ni  Ni6  1  0.50013147  0.22428614  0.72415467  1.0
  Ni  Ni7  1  0.24986853  0.47402320  0.22415467  1.0
  Ni  Ni8  1  0.50013147  0.77597680  1.27584533  1.0
  Ni  Ni9  1  0.24986853  1.02571386  0.77584533  1.0
  O  O10  1  0.52295677  0.30340848  0.21954830  1.0
  O  O11  1  0.66613982  -0.05340848  0.71954830  1.0
  O  O12  1  1.08386018  0.30340848  0.78045170  1.0
  O  O13  1  0.22704323  -0.05340848  0.28045170  1.0
  O  O14  1  0.69659152  0.91613982  1.21954830  1.0
  O  O15  1  1.05340848  0.77295677  0.71954830  1.0
  O  O16  1  0.69659152  0.47704323  0.78045170  1.0
  O  O17  1  1.05340848  1.33386018  1.28045170  1.0
