# generated using pymatgen
data_NaZn2P2HO8
_symmetry_space_group_name_H-M   'P 1'
_cell_length_a   8.97942234
_cell_length_b   8.81738639
_cell_length_c   5.17904895
_cell_angle_alpha   72.04390424
_cell_angle_beta   79.98147640
_cell_angle_gamma   76.86035314
_symmetry_Int_Tables_number   1
_chemical_formula_structural   NaZn2P2HO8
_chemical_formula_sum   'Na2 Zn4 P4 H2 O16'
_cell_volume   377.47029775
_cell_formula_units_Z   2
loop_
 _symmetry_equiv_pos_site_id
 _symmetry_equiv_pos_as_xyz
  1  'x, y, z'
loop_
 _atom_site_type_symbol
 _atom_site_label
 _atom_site_symmetry_multiplicity
 _atom_site_fract_x
 _atom_site_fract_y
 _atom_site_fract_z
 _atom_site_occupancy
  Na  Na0  1  -0.81352781  0.31401694  0.27888855  1.0
  Na  Na1  1  -0.18647219  0.68598306  -0.27888855  1.0
  Zn  Zn2  1  -0.60718962  0.88371869  -0.20616642  1.0
  Zn  Zn3  1  -0.39281038  0.11628131  0.20616642  1.0
  Zn  Zn4  1  -0.75653127  0.61419954  -0.39232550  1.0
  Zn  Zn5  1  -0.24346873  0.38580046  0.39232550  1.0
  P  P6  1  -0.56047778  0.24971783  0.65666518  1.0
  P  P7  1  -0.43952222  0.75028217  -0.65666518  1.0
  P  P8  1  -0.91549757  0.74630658  0.09472481  1.0
  P  P9  1  -0.08450243  0.25369342  -0.09472481  1.0
  H  H10  1  -0.12041873  0.93221224  -0.01281162  1.0
  H  H11  1  -0.87958127  0.06778776  0.01281162  1.0
  O  O12  1  -0.66377000  0.41210522  0.52669784  1.0
  O  O13  1  -0.33623000  0.58789478  -0.52669784  1.0
  O  O14  1  -0.81907665  0.88335282  -0.01465765  1.0
  O  O15  1  -0.18092335  0.11664718  0.01465765  1.0
  O  O16  1  -0.45087622  0.77045961  0.03985684  1.0
  O  O17  1  -0.54912378  0.22954039  -0.03985684  1.0
  O  O18  1  -0.07880187  0.81709423  -0.02298898  1.0
  O  O19  1  -0.92119813  0.18290577  0.02298898  1.0
  O  O20  1  -0.84422701  0.59696898  -0.01155940  1.0
  O  O21  1  -0.15577299  0.40303102  0.01155940  1.0
  O  O22  1  -0.37000447  0.88488072  -0.60939154  1.0
  O  O23  1  -0.62999553  0.11511928  0.60939154  1.0
  O  O24  1  -0.60532020  0.76224635  -0.48516582  1.0
  O  O25  1  -0.39467980  0.23775365  0.48516582  1.0
  O  O26  1  -0.94265797  0.69655080  -0.59005637  1.0
  O  O27  1  -0.05734203  0.30344920  0.59005637  1.0
