# generated using pymatgen
data_Si2N2O
_symmetry_space_group_name_H-M   'P 1'
_cell_length_a   12.30973198
_cell_length_b   12.30973198
_cell_length_c   12.30973198
_cell_angle_alpha   154.21142070
_cell_angle_beta   154.21142070
_cell_angle_gamma   36.79238146
_symmetry_Int_Tables_number   1
_chemical_formula_structural   Si2N2O
_chemical_formula_sum   'Si16 N16 O8'
_cell_volume   352.55768092
_cell_formula_units_Z   8
loop_
 _symmetry_equiv_pos_site_id
 _symmetry_equiv_pos_as_xyz
  1  'x, y, z'
loop_
 _atom_site_type_symbol
 _atom_site_label
 _atom_site_symmetry_multiplicity
 _atom_site_fract_x
 _atom_site_fract_y
 _atom_site_fract_z
 _atom_site_occupancy
  Si  Si0  1  1.37500000  1.12500000  0.75000000  1.0
  Si  Si1  1  0.87500000  0.62500000  0.25000000  1.0
  Si  Si2  1  1.37500000  0.62500000  0.75000000  1.0
  Si  Si3  1  1.37500000  1.62500000  1.25000000  1.0
  Si  Si4  1  1.16885436  1.16885436  1.00000000  1.0
  Si  Si5  1  0.91885436  1.41885436  0.50000000  1.0
  Si  Si6  1  0.58114564  0.08114564  0.50000000  1.0
  Si  Si7  1  0.83114564  0.83114564  0.00000000  1.0
  Si  Si8  1  0.04308902  0.79336319  0.75027416  1.0
  Si  Si9  1  1.54336319  1.29308902  1.25027416  1.0
  Si  Si10  1  1.04281486  1.29308902  0.74972584  1.0
  Si  Si11  1  0.04308902  0.29281486  0.24972584  1.0
  Si  Si12  1  0.70691098  1.45663681  0.74972584  1.0
  Si  Si13  1  1.20663681  0.95691098  0.24972584  1.0
  Si  Si14  1  1.70718514  0.95691098  0.75027416  1.0
  Si  Si15  1  0.70691098  0.95718514  0.25027416  1.0
  N  N16  1  0.12449412  0.38740944  0.26291531  1.0
  N  N17  1  1.13740944  1.37449412  0.76291531  1.0
  N  N18  1  1.61157881  1.37449412  1.23708469  1.0
  N  N19  1  0.12449412  0.86157881  0.73708469  1.0
  N  N20  1  0.62550588  0.86259056  0.23708469  1.0
  N  N21  1  1.61259056  0.87550588  0.73708469  1.0
  N  N22  1  1.13842119  0.87550588  0.26291531  1.0
  N  N23  1  0.62550588  1.38842119  0.76291531  1.0
  N  N24  1  0.96225468  1.72545006  0.76319538  1.0
  N  N25  1  1.47545006  1.21225468  1.26319538  1.0
  N  N26  1  0.94905930  1.21225468  0.73680462  1.0
  N  N27  1  0.96225468  1.19905930  0.23680462  1.0
  N  N28  1  0.78774532  1.52454994  0.73680462  1.0
  N  N29  1  0.27454994  0.03774532  0.23680462  1.0
  N  N30  1  0.80094070  0.03774532  0.76319538  1.0
  N  N31  1  0.78774532  1.05094070  0.26319538  1.0
  O  O32  1  1.29855418  1.08336709  0.78481290  1.0
  O  O33  1  0.83336709  0.54855418  1.28481290  1.0
  O  O34  1  0.26374128  0.54855418  0.71518710  1.0
  O  O35  1  1.29855418  1.51374128  1.21518710  1.0
  O  O36  1  1.45144582  1.16663291  0.71518710  1.0
  O  O37  1  0.91663291  0.70144582  0.21518710  1.0
  O  O38  1  1.48625872  0.70144582  0.78481290  1.0
  O  O39  1  1.45144582  1.73625872  1.28481290  1.0
