# generated using pymatgen
data_Ag3N5O6
_symmetry_space_group_name_H-M   'P 1'
_cell_length_a   7.40273967
_cell_length_b   7.40273967
_cell_length_c   9.14073634
_cell_angle_alpha   90.00000000
_cell_angle_beta   90.00000000
_cell_angle_gamma   51.20192470
_symmetry_Int_Tables_number   1
_chemical_formula_structural   Ag3N5O6
_chemical_formula_sum   'Ag6 N10 O12'
_cell_volume   390.39450780
_cell_formula_units_Z   2
loop_
 _symmetry_equiv_pos_site_id
 _symmetry_equiv_pos_as_xyz
  1  'x, y, z'
loop_
 _atom_site_type_symbol
 _atom_site_label
 _atom_site_symmetry_multiplicity
 _atom_site_fract_x
 _atom_site_fract_y
 _atom_site_fract_z
 _atom_site_occupancy
  Ag  Ag0  1  -0.21838143  0.95819092  0.09396165  1.0
  Ag  Ag1  1  -0.04180908  0.78161857  0.59396165  1.0
  Ag  Ag2  1  0.04180908  0.21838143  0.09396165  1.0
  Ag  Ag3  1  -0.78161857  1.04180908  0.59396165  1.0
  Ag  Ag4  1  -0.57585367  0.57585367  0.16772833  1.0
  Ag  Ag5  1  -0.42414633  0.42414633  0.66772833  1.0
  N  N6  1  -0.43557218  0.84180168  0.33321357  1.0
  N  N7  1  -0.15819832  0.56442782  0.83321357  1.0
  N  N8  1  0.15819832  0.43557218  0.33321357  1.0
  N  N9  1  -0.56442782  1.15819832  0.83321357  1.0
  N  N10  1  -0.16076321  0.16076321  0.50247815  1.0
  N  N11  1  -0.83923679  0.83923679  0.00247815  1.0
  N  N12  1  -0.19636473  0.19636473  0.37527286  1.0
  N  N13  1  -0.80363527  0.80363527  0.87527286  1.0
  N  N14  1  -0.22828622  0.22828622  0.24746835  1.0
  N  N15  1  -0.77171378  0.77171378  0.74746835  1.0
  O  O16  1  -0.39715390  0.95173560  0.41209314  1.0
  O  O17  1  -0.04826440  0.60284610  0.91209314  1.0
  O  O18  1  0.04826440  0.39715390  0.41209314  1.0
  O  O19  1  -0.60284610  1.04826440  0.91209314  1.0
  O  O20  1  -0.34405287  0.76776733  0.20747439  1.0
  O  O21  1  -0.23223267  0.65594713  0.70747439  1.0
  O  O22  1  0.23223267  0.34405287  0.20747439  1.0
  O  O23  1  -0.65594713  1.23223267  0.70747439  1.0
  O  O24  1  -0.57234572  0.80231783  0.37663341  1.0
  O  O25  1  -0.19768217  0.42765428  0.87663341  1.0
  O  O26  1  0.19768217  0.57234572  0.37663341  1.0
  O  O27  1  -0.42765428  1.19768217  0.87663341  1.0
