# generated using pymatgen
data_LaCrO4
_symmetry_space_group_name_H-M   'P 1'
_cell_length_a   6.71995473
_cell_length_b   7.31067384
_cell_length_c   8.43753026
_cell_angle_alpha   90.00000000
_cell_angle_beta   125.33890220
_cell_angle_gamma   90.00000000
_symmetry_Int_Tables_number   1
_chemical_formula_structural   LaCrO4
_chemical_formula_sum   'La4 Cr4 O16'
_cell_volume   338.13766412
_cell_formula_units_Z   4
loop_
 _symmetry_equiv_pos_site_id
 _symmetry_equiv_pos_as_xyz
  1  'x, y, z'
loop_
 _atom_site_type_symbol
 _atom_site_label
 _atom_site_symmetry_multiplicity
 _atom_site_fract_x
 _atom_site_fract_y
 _atom_site_fract_z
 _atom_site_occupancy
  La  La0  1  0.81746944  0.84498091  0.21881966  1.0
  La  La1  1  0.81746944  0.65501909  0.71881966  1.0
  La  La2  1  0.18253056  0.34498091  0.28118034  1.0
  La  La3  1  0.18253056  0.15501909  0.78118034  1.0
  Cr  Cr4  1  0.68998490  0.33639461  0.30181933  1.0
  Cr  Cr5  1  0.68998490  0.16360539  0.80181933  1.0
  Cr  Cr6  1  0.31001510  0.83639461  0.19818067  1.0
  Cr  Cr7  1  0.31001510  0.66360539  0.69818067  1.0
  O  O8  1  0.89290534  0.15927039  0.38774103  1.0
  O  O9  1  0.89290534  0.34072961  0.88774103  1.0
  O  O10  1  0.10709466  0.65927039  0.11225897  1.0
  O  O11  1  0.10709466  0.84072961  0.61225897  1.0
  O  O12  1  0.82124464  0.50204664  0.24669435  1.0
  O  O13  1  0.82124464  -0.00204664  0.74669435  1.0
  O  O14  1  0.17875536  1.00204664  0.25330565  1.0
  O  O15  1  0.17875536  0.49795336  0.75330565  1.0
  O  O16  1  0.65437614  0.39442352  0.47900842  1.0
  O  O17  1  0.65437614  0.10557648  0.97900842  1.0
  O  O18  1  0.34562386  0.89442352  0.02099158  1.0
  O  O19  1  0.34562386  0.60557648  0.52099158  1.0
  O  O20  1  0.39594593  0.28645089  0.11843206  1.0
  O  O21  1  0.39594593  0.21354911  0.61843206  1.0
  O  O22  1  0.60405407  0.78645089  0.38156794  1.0
  O  O23  1  0.60405407  0.71354911  0.88156794  1.0
