# generated using pymatgen
data_H3CN5O
_symmetry_space_group_name_H-M   'P 1'
_cell_length_a   6.15203936
_cell_length_b   6.15203936
_cell_length_c   10.18884565
_cell_angle_alpha   67.50748570
_cell_angle_beta   112.49251430
_cell_angle_gamma   141.69704285
_symmetry_Int_Tables_number   1
_chemical_formula_structural   H3CN5O
_chemical_formula_sum   'H6 C2 N10 O2'
_cell_volume   218.53956732
_cell_formula_units_Z   2
loop_
 _symmetry_equiv_pos_site_id
 _symmetry_equiv_pos_as_xyz
  1  'x, y, z'
loop_
 _atom_site_type_symbol
 _atom_site_label
 _atom_site_symmetry_multiplicity
 _atom_site_fract_x
 _atom_site_fract_y
 _atom_site_fract_z
 _atom_site_occupancy
  H  H0  1  0.99094635  -0.90991063  0.54929483  1.0
  H  H1  1  1.90991063  0.00905365  0.04929483  1.0
  H  H2  1  1.14666772  -0.76266078  0.90524946  1.0
  H  H3  1  1.76266078  -0.14666772  0.40524946  1.0
  H  H4  1  0.39288749  0.03163390  0.80865738  1.0
  H  H5  1  0.96836610  -0.39288749  0.30865738  1.0
  C  C6  1  1.03216130  0.78041072  0.56642522  1.0
  C  C7  1  1.21958928  -0.03216130  0.06642522  1.0
  N  N8  1  0.93798382  0.93478296  0.49852232  1.0
  N  N9  1  0.06521704  0.06201618  -0.00147768  1.0
  N  N10  1  1.20025599  -0.20593958  0.19961837  1.0
  N  N11  1  0.20593958  -0.20025599  0.69961837  1.0
  N  N12  1  0.96630962  0.56343244  0.50944268  1.0
  N  N13  1  1.43656756  0.03369038  0.00944268  1.0
  N  N14  1  1.23232046  0.58883822  0.72033212  1.0
  N  N15  1  1.41116178  -0.23232046  0.22033212  1.0
  N  N16  1  1.08705906  -0.55731917  0.60789475  1.0
  N  N17  1  1.55731917  -0.08705906  0.10789475  1.0
  O  O18  1  0.54824463  0.21816837  0.88076286  1.0
  O  O19  1  0.78183163  0.45175537  0.38076286  1.0
