# generated using pymatgen
data_K2Zn(GeO3)2
_symmetry_space_group_name_H-M   'P 1'
_cell_length_a   5.94997616
_cell_length_b   5.94997616
_cell_length_c   10.94770671
_cell_angle_alpha   90.00000000
_cell_angle_beta   90.00000000
_cell_angle_gamma   113.67281636
_symmetry_Int_Tables_number   1
_chemical_formula_structural   K2Zn(GeO3)2
_chemical_formula_sum   'K4 Zn2 Ge4 O12'
_cell_volume   354.96004341
_cell_formula_units_Z   2
loop_
 _symmetry_equiv_pos_site_id
 _symmetry_equiv_pos_as_xyz
  1  'x, y, z'
loop_
 _atom_site_type_symbol
 _atom_site_label
 _atom_site_symmetry_multiplicity
 _atom_site_fract_x
 _atom_site_fract_y
 _atom_site_fract_z
 _atom_site_occupancy
  K  K0  1  -0.22165553  1.43187768  0.07793049  1.0
  K  K1  1  0.43187768  0.77834447  0.92206951  1.0
  K  K2  1  -0.43187768  1.22165553  0.42206951  1.0
  K  K3  1  0.22165553  0.56812232  0.57793049  1.0
  Zn  Zn4  1  0.29569232  0.70430768  0.25000000  1.0
  Zn  Zn5  1  -0.29569232  1.29569232  0.75000000  1.0
  Ge  Ge6  1  -0.15292979  1.83287505  0.35964196  1.0
  Ge  Ge7  1  0.83287505  0.84707021  0.64035804  1.0
  Ge  Ge8  1  -0.83287505  1.15292979  0.14035804  1.0
  Ge  Ge9  1  0.15292979  0.16712495  0.85964196  1.0
  O  O10  1  0.28373471  0.47257291  0.11850425  1.0
  O  O11  1  -0.52742709  1.28373471  0.88149575  1.0
  O  O12  1  0.52742709  0.71626529  0.38149575  1.0
  O  O13  1  -0.28373471  1.52742709  0.61850425  1.0
  O  O14  1  -0.04039554  1.61288343  0.31965366  1.0
  O  O15  1  0.61288343  0.95960446  0.68034634  1.0
  O  O16  1  -0.61288343  1.04039554  0.18034634  1.0
  O  O17  1  0.04039554  0.38711657  0.81965366  1.0
  O  O18  1  -0.07687870  1.07687870  0.25000000  1.0
  O  O19  1  0.07687870  0.92312130  0.75000000  1.0
  O  O20  1  1.00820607  1.00820607  0.00000000  1.0
  O  O21  1  -0.00820607  -0.00820607  0.50000000  1.0
