# generated using pymatgen
data_FeSnH12(OF)6
_symmetry_space_group_name_H-M   'P 1'
_cell_length_a   6.70842968
_cell_length_b   6.70842968
_cell_length_c   6.70842968
_cell_angle_alpha   96.83098715
_cell_angle_beta   96.83098715
_cell_angle_gamma   96.83098715
_symmetry_Int_Tables_number   1
_chemical_formula_structural   FeSnH12(OF)6
_chemical_formula_sum   'Fe1 Sn1 H12 O6 F6'
_cell_volume   294.90417168
_cell_formula_units_Z   1
loop_
 _symmetry_equiv_pos_site_id
 _symmetry_equiv_pos_as_xyz
  1  'x, y, z'
loop_
 _atom_site_type_symbol
 _atom_site_label
 _atom_site_symmetry_multiplicity
 _atom_site_fract_x
 _atom_site_fract_y
 _atom_site_fract_z
 _atom_site_occupancy
  Fe  Fe0  1  0.50000000  0.50000000  0.50000000  1.0
  Sn  Sn1  1  0.00000000  0.00000000  0.00000000  1.0
  H  H2  1  1.53912329  0.71194413  -0.11190031  1.0
  H  H3  1  1.28805587  0.11190031  -0.53912329  1.0
  H  H4  1  1.11190031  -0.53912329  0.28805587  1.0
  H  H5  1  0.46087671  0.28805587  0.11190031  1.0
  H  H6  1  0.71194413  0.88809969  0.53912329  1.0
  H  H7  1  0.88809969  1.53912329  -0.28805587  1.0
  H  H8  1  0.67425012  0.80630969  0.30357195  1.0
  H  H9  1  1.19369031  -0.30357195  0.32574988  1.0
  H  H10  1  0.69642805  0.32574988  0.19369031  1.0
  H  H11  1  1.32574988  0.19369031  -0.30357195  1.0
  H  H12  1  0.80630969  1.30357195  -0.32574988  1.0
  H  H13  1  1.30357195  0.67425012  -0.19369031  1.0
  O  O14  1  1.43495454  0.62984055  -0.21394233  1.0
  O  O15  1  1.37015945  0.21394233  -0.43495454  1.0
  O  O16  1  1.21394233  -0.43495454  0.37015945  1.0
  O  O17  1  0.56504546  0.37015945  0.21394233  1.0
  O  O18  1  0.62984055  0.78605767  0.43495454  1.0
  O  O19  1  0.78605767  1.43495454  -0.37015945  1.0
  F  F20  1  0.73966079  0.85382172  0.06230944  1.0
  F  F21  1  1.14617828  -0.06230944  0.26033921  1.0
  F  F22  1  0.93769056  0.26033921  0.14617828  1.0
  F  F23  1  1.26033921  0.14617828  -0.06230944  1.0
  F  F24  1  0.85382172  1.06230944  -0.26033921  1.0
  F  F25  1  1.06230944  0.73966079  -0.14617828  1.0
