# generated using pymatgen
data_GaBr3
_symmetry_space_group_name_H-M   'P 1'
_cell_length_a   9.46746974
_cell_length_b   6.31247724
_cell_length_c   11.81563970
_cell_angle_alpha   90.00000000
_cell_angle_beta   108.51281700
_cell_angle_gamma   90.00000000
_symmetry_Int_Tables_number   1
_chemical_formula_structural   GaBr3
_chemical_formula_sum   'Ga4 Br12'
_cell_volume   669.59939934
_cell_formula_units_Z   4
loop_
 _symmetry_equiv_pos_site_id
 _symmetry_equiv_pos_as_xyz
  1  'x, y, z'
loop_
 _atom_site_type_symbol
 _atom_site_label
 _atom_site_symmetry_multiplicity
 _atom_site_fract_x
 _atom_site_fract_y
 _atom_site_fract_z
 _atom_site_occupancy
  Ga  Ga0  1  0.80822478  0.50789700  0.45161851  1.0
  Ga  Ga1  1  0.80822478  0.99210300  0.95161851  1.0
  Ga  Ga2  1  0.19177522  0.00789700  0.04838149  1.0
  Ga  Ga3  1  0.19177522  0.49210300  0.54838149  1.0
  Br  Br4  1  0.00376992  0.70563361  0.39439723  1.0
  Br  Br5  1  0.00376992  0.79436639  0.89439723  1.0
  Br  Br6  1  0.99623008  0.20563361  0.10560277  1.0
  Br  Br7  1  0.99623008  0.29436639  0.60560277  1.0
  Br  Br8  1  0.67863281  0.29348476  0.29712322  1.0
  Br  Br9  1  0.67863281  0.20651524  0.79712322  1.0
  Br  Br10  1  0.32136719  0.79348476  0.20287678  1.0
  Br  Br11  1  0.32136719  0.70651524  0.70287678  1.0
  Br  Br12  1  0.31040548  0.26715868  0.45596158  1.0
  Br  Br13  1  0.31040548  0.23284132  0.95596158  1.0
  Br  Br14  1  0.68959452  0.76715868  0.04403842  1.0
  Br  Br15  1  0.68959452  0.73284132  0.54403842  1.0
