# generated using pymatgen
data_Ba3GeS5
_symmetry_space_group_name_H-M   'P 1'
_cell_length_a   12.17095408
_cell_length_b   9.62679993
_cell_length_c   8.75528822
_cell_angle_alpha   90.00000000
_cell_angle_beta   90.00000000
_cell_angle_gamma   90.00000000
_symmetry_Int_Tables_number   1
_chemical_formula_structural   Ba3GeS5
_chemical_formula_sum   'Ba12 Ge4 S20'
_cell_volume   1025.83383071
_cell_formula_units_Z   4
loop_
 _symmetry_equiv_pos_site_id
 _symmetry_equiv_pos_as_xyz
  1  'x, y, z'
loop_
 _atom_site_type_symbol
 _atom_site_label
 _atom_site_symmetry_multiplicity
 _atom_site_fract_x
 _atom_site_fract_y
 _atom_site_fract_z
 _atom_site_occupancy
  Ba  Ba0  1  0.68425579  0.48152518  0.07783241  1.0
  Ba  Ba1  1  0.68425579  0.01847482  0.07783241  1.0
  Ba  Ba2  1  0.18425579  0.48152518  0.42216759  1.0
  Ba  Ba3  1  0.18425579  0.01847482  0.42216759  1.0
  Ba  Ba4  1  0.31574421  0.98152518  0.92216759  1.0
  Ba  Ba5  1  0.31574421  0.51847482  0.92216759  1.0
  Ba  Ba6  1  0.81574421  0.98152518  0.57783241  1.0
  Ba  Ba7  1  0.81574421  0.51847482  0.57783241  1.0
  Ba  Ba8  1  0.51773239  0.25000000  0.61578469  1.0
  Ba  Ba9  1  0.01773239  0.25000000  0.88421531  1.0
  Ba  Ba10  1  0.48226761  0.75000000  0.38421531  1.0
  Ba  Ba11  1  0.98226761  0.75000000  0.11578469  1.0
  Ge  Ge12  1  0.90199662  0.25000000  0.30430503  1.0
  Ge  Ge13  1  0.40199662  0.25000000  0.19569497  1.0
  Ge  Ge14  1  0.09800338  0.75000000  0.69569497  1.0
  Ge  Ge15  1  0.59800338  0.75000000  0.80430503  1.0
  S  S16  1  0.94500190  0.43926128  0.17544903  1.0
  S  S17  1  0.94500190  0.06073872  0.17544903  1.0
  S  S18  1  0.44500190  0.43926128  0.32455097  1.0
  S  S19  1  0.44500190  0.06073872  0.32455097  1.0
  S  S20  1  0.05499810  0.93926128  0.82455097  1.0
  S  S21  1  0.05499810  0.56073872  0.82455097  1.0
  S  S22  1  0.55499810  0.93926128  0.67544903  1.0
  S  S23  1  0.55499810  0.56073872  0.67544903  1.0
  S  S24  1  1.00040005  0.25000000  0.51699402  1.0
  S  S25  1  0.50040005  0.25000000  0.98300598  1.0
  S  S26  1  -0.00040005  0.75000000  0.48300598  1.0
  S  S27  1  0.49959995  0.75000000  0.01699402  1.0
  S  S28  1  0.76535404  0.25000000  0.81728187  1.0
  S  S29  1  0.26535404  0.25000000  0.68271813  1.0
  S  S30  1  0.23464596  0.75000000  0.18271813  1.0
  S  S31  1  0.73464596  0.75000000  0.31728187  1.0
  S  S32  1  0.72083073  0.25000000  0.34937235  1.0
  S  S33  1  0.22083073  0.25000000  0.15062765  1.0
  S  S34  1  0.27916927  0.75000000  0.65062765  1.0
  S  S35  1  0.77916927  0.75000000  0.84937235  1.0
