# generated using pymatgen
data_InSO5
_symmetry_space_group_name_H-M   'P 1'
_cell_length_a   7.87955310
_cell_length_b   6.72083954
_cell_length_c   7.71073673
_cell_angle_alpha   90.00000000
_cell_angle_beta   90.00000000
_cell_angle_gamma   90.00000000
_symmetry_Int_Tables_number   1
_chemical_formula_structural   InSO5
_chemical_formula_sum   'In4 S4 O20'
_cell_volume   408.33911974
_cell_formula_units_Z   4
loop_
 _symmetry_equiv_pos_site_id
 _symmetry_equiv_pos_as_xyz
  1  'x, y, z'
loop_
 _atom_site_type_symbol
 _atom_site_label
 _atom_site_symmetry_multiplicity
 _atom_site_fract_x
 _atom_site_fract_y
 _atom_site_fract_z
 _atom_site_occupancy
  O  O0  1  0.37046077  0.92619765  0.74611065  1.0
  O  O1  1  0.37046077  0.57380235  0.74611065  1.0
  O  O2  1  0.87046077  0.92619765  0.75388935  1.0
  O  O3  1  0.87046077  0.57380235  0.75388935  1.0
  O  O4  1  0.62953923  0.42619765  0.25388935  1.0
  O  O5  1  0.62953923  0.07380235  0.25388935  1.0
  O  O6  1  0.12953923  0.42619765  0.24611065  1.0
  O  O7  1  0.12953923  0.07380235  0.24611065  1.0
  O  O8  1  0.22735224  0.75000000  0.51040703  1.0
  O  O9  1  0.72735224  0.75000000  0.98959297  1.0
  O  O10  1  0.77264776  0.25000000  0.48959297  1.0
  O  O11  1  0.27264776  0.25000000  0.01040703  1.0
  O  O12  1  0.04095271  0.75000000  0.96889027  1.0
  O  O13  1  0.54095271  0.75000000  0.53110973  1.0
  O  O14  1  0.95904729  0.25000000  0.03110973  1.0
  O  O15  1  0.45904729  0.25000000  0.46889027  1.0
  O  O16  1  0.38985593  0.75000000  0.14611661  1.0
  O  O17  1  0.88985593  0.75000000  0.35388339  1.0
  O  O18  1  0.61014407  0.25000000  0.85388339  1.0
  O  O19  1  0.11014407  0.25000000  0.64611661  1.0
  S  S20  1  0.37663186  0.75000000  0.62750382  1.0
  S  S21  1  0.87663186  0.75000000  0.87249618  1.0
  S  S22  1  0.62336814  0.25000000  0.37249618  1.0
  S  S23  1  0.12336814  0.25000000  0.12750382  1.0
  In  In24  1  0.13575588  0.75000000  0.23854854  1.0
  In  In25  1  0.63575588  0.75000000  0.26145146  1.0
  In  In26  1  0.86424412  0.25000000  0.76145146  1.0
  In  In27  1  0.36424412  0.25000000  0.73854854  1.0
