# generated using pymatgen
data_GaPNO5
_symmetry_space_group_name_H-M   'P 1'
_cell_length_a   4.61705081
_cell_length_b   6.46969538
_cell_length_c   8.75800280
_cell_angle_alpha   90.00000000
_cell_angle_beta   78.28709741
_cell_angle_gamma   90.00000000
_symmetry_Int_Tables_number   1
_chemical_formula_structural   GaPNO5
_chemical_formula_sum   'Ga2 P2 N2 O10'
_cell_volume   256.16206984
_cell_formula_units_Z   2
loop_
 _symmetry_equiv_pos_site_id
 _symmetry_equiv_pos_as_xyz
  1  'x, y, z'
loop_
 _atom_site_type_symbol
 _atom_site_label
 _atom_site_symmetry_multiplicity
 _atom_site_fract_x
 _atom_site_fract_y
 _atom_site_fract_z
 _atom_site_occupancy
  N  N0  1  0.60720974  0.75000000  0.48547334  1.0
  N  N1  1  0.39279026  0.25000000  0.51452666  1.0
  O  O2  1  0.84879977  0.95487085  0.83519573  1.0
  O  O3  1  0.84879977  0.54512915  0.83519573  1.0
  O  O4  1  0.15120023  0.45487085  0.16480427  1.0
  O  O5  1  0.15120023  0.04512915  0.16480427  1.0
  O  O6  1  0.27110579  0.75000000  0.91593898  1.0
  O  O7  1  0.72889421  0.25000000  0.08406102  1.0
  O  O8  1  0.70363116  0.75000000  0.07316559  1.0
  O  O9  1  0.29636884  0.25000000  0.92683441  1.0
  O  O10  1  0.85967971  0.75000000  0.47863260  1.0
  O  O11  1  0.14032029  0.25000000  0.52136740  1.0
  Ga  Ga12  1  0.50000000  0.00000000  0.00000000  1.0
  Ga  Ga13  1  0.50000000  0.50000000  0.00000000  1.0
  P  P14  1  0.93840121  0.75000000  0.90501921  1.0
  P  P15  1  0.06159879  0.25000000  0.09498079  1.0
