# generated using pymatgen
data_Zr2InCu2
_symmetry_space_group_name_H-M   'P 1'
_cell_length_a   7.94229668
_cell_length_b   7.94229668
_cell_length_c   3.07686851
_cell_angle_alpha   90.00000000
_cell_angle_beta   90.00000000
_cell_angle_gamma   90.00000000
_symmetry_Int_Tables_number   1
_chemical_formula_structural   Zr2InCu2
_chemical_formula_sum   'Zr4 In2 Cu4'
_cell_volume   194.08910129
_cell_formula_units_Z   2
loop_
 _symmetry_equiv_pos_site_id
 _symmetry_equiv_pos_as_xyz
  1  'x, y, z'
loop_
 _atom_site_type_symbol
 _atom_site_label
 _atom_site_symmetry_multiplicity
 _atom_site_fract_x
 _atom_site_fract_y
 _atom_site_fract_z
 _atom_site_occupancy
  Zr  Zr0  1  0.83622347  0.66377653  0.00000000  1.0
  Zr  Zr1  1  0.33622347  0.83622347  0.00000000  1.0
  Zr  Zr2  1  0.16377653  0.33622347  0.00000000  1.0
  Zr  Zr3  1  0.66377653  0.16377653  0.00000000  1.0
  In  In4  1  0.50000000  0.50000000  0.00000000  1.0
  In  In5  1  0.00000000  0.00000000  0.00000000  1.0
  Cu  Cu6  1  0.37350540  0.12649460  0.50000000  1.0
  Cu  Cu7  1  0.87350540  0.37350540  0.50000000  1.0
  Cu  Cu8  1  0.62649460  0.87350540  0.50000000  1.0
  Cu  Cu9  1  0.12649460  0.62649460  0.50000000  1.0
