# generated using pymatgen
data_CsAg3Te2
_symmetry_space_group_name_H-M   'P 1'
_cell_length_a   9.24042999
_cell_length_b   9.24042999
_cell_length_c   9.57760257
_cell_angle_alpha   68.93090056
_cell_angle_beta   111.06909944
_cell_angle_gamma   150.66016398
_symmetry_Int_Tables_number   1
_chemical_formula_structural   CsAg3Te2
_chemical_formula_sum   'Cs2 Ag6 Te4'
_cell_volume   372.01254478
_cell_formula_units_Z   2
loop_
 _symmetry_equiv_pos_site_id
 _symmetry_equiv_pos_as_xyz
  1  'x, y, z'
loop_
 _atom_site_type_symbol
 _atom_site_label
 _atom_site_symmetry_multiplicity
 _atom_site_fract_x
 _atom_site_fract_y
 _atom_site_fract_z
 _atom_site_occupancy
  Cs  Cs0  1  0.86338204  0.13661796  0.95146145  1.0
  Cs  Cs1  1  0.13661796  -0.13661796  0.04853855  1.0
  Ag  Ag2  1  0.93920386  0.06079614  0.58960728  1.0
  Ag  Ag3  1  0.06079614  -0.06079614  0.41039272  1.0
  Ag  Ag4  1  0.58550134  0.41449866  0.61945726  1.0
  Ag  Ag5  1  0.41449866  -0.41449866  0.38054274  1.0
  Ag  Ag6  1  0.69112494  0.30887506  0.45654833  1.0
  Ag  Ag7  1  0.30887506  -0.30887506  0.54345167  1.0
  Te  Te8  1  0.80271020  0.19728980  0.31276510  1.0
  Te  Te9  1  0.19728980  -0.19728980  0.68723490  1.0
  Te  Te10  1  0.47767710  -0.47767710  0.76751471  1.0
  Te  Te11  1  0.52232290  0.47767710  0.23248529  1.0
