# generated using pymatgen
data_Mn20(MoC2)3
_symmetry_space_group_name_H-M   'P 1'
_cell_length_a   7.42185507
_cell_length_b   7.42185507
_cell_length_c   7.42185507
_cell_angle_alpha   60.00000000
_cell_angle_beta   60.00000000
_cell_angle_gamma   60.00000000
_symmetry_Int_Tables_number   1
_chemical_formula_structural   Mn20(MoC2)3
_chemical_formula_sum   'Mn20 Mo3 C6'
_cell_volume   289.08290460
_cell_formula_units_Z   1
loop_
 _symmetry_equiv_pos_site_id
 _symmetry_equiv_pos_as_xyz
  1  'x, y, z'
loop_
 _atom_site_type_symbol
 _atom_site_label
 _atom_site_symmetry_multiplicity
 _atom_site_fract_x
 _atom_site_fract_y
 _atom_site_fract_z
 _atom_site_occupancy
  Mn  Mn0  1  0.61602502  0.61602502  1.15192495  1.0
  Mn  Mn1  1  0.61602502  1.15192495  -0.38397498  1.0
  Mn  Mn2  1  1.15192495  0.61602502  0.61602502  1.0
  Mn  Mn3  1  0.61602502  0.61602502  -0.38397498  1.0
  Mn  Mn4  1  0.38397498  1.38397498  -0.15192495  1.0
  Mn  Mn5  1  1.38397498  -0.15192495  0.38397498  1.0
  Mn  Mn6  1  -0.15192495  1.38397498  0.38397498  1.0
  Mn  Mn7  1  1.38397498  0.38397498  0.38397498  1.0
  Mn  Mn8  1  -0.00000000  0.00000000  0.34085801  1.0
  Mn  Mn9  1  0.65914199  1.00000000  -0.65914199  1.0
  Mn  Mn10  1  1.00000000  0.65914199  -0.65914199  1.0
  Mn  Mn11  1  0.65914199  -0.65914199  1.00000000  1.0
  Mn  Mn12  1  -0.00000000  1.34085801  0.00000000  1.0
  Mn  Mn13  1  1.00000000  0.34085801  -0.34085801  1.0
  Mn  Mn14  1  0.34085801  -0.34085801  1.00000000  1.0
  Mn  Mn15  1  0.34085801  1.00000000  -0.34085801  1.0
  Mn  Mn16  1  1.34085801  -0.00000000  0.00000000  1.0
  Mn  Mn17  1  -0.00000000  0.00000000  0.65914199  1.0
  Mn  Mn18  1  -0.00000000  1.65914199  0.00000000  1.0
  Mn  Mn19  1  1.65914199  -0.00000000  0.00000000  1.0
  C  C20  1  0.72646561  0.72646561  -0.72646561  1.0
  C  C21  1  0.27353439  -0.27353439  1.27353439  1.0
  C  C22  1  -0.27353439  0.27353439  0.27353439  1.0
  C  C23  1  0.27353439  1.27353439  -0.27353439  1.0
  C  C24  1  -0.27353439  0.27353439  0.72646561  1.0
  C  C25  1  -0.72646561  0.72646561  0.72646561  1.0
  Mo  Mo26  1  0.00000000  0.00000000  -0.00000000  1.0
  Mo  Mo27  1  0.75000000  0.75000000  -0.25000000  1.0
  Mo  Mo28  1  1.25000000  0.25000000  0.25000000  1.0
