# generated using pymatgen
data_Ba2PIO4
_symmetry_space_group_name_H-M   'P 1'
_cell_length_a   9.70451014
_cell_length_b   9.37781593
_cell_length_c   9.00936645
_cell_angle_alpha   90.00000000
_cell_angle_beta   112.59864593
_cell_angle_gamma   90.00000000
_symmetry_Int_Tables_number   1
_chemical_formula_structural   Ba2PIO4
_chemical_formula_sum   'Ba8 P4 I4 O16'
_cell_volume   756.96264594
_cell_formula_units_Z   4
loop_
 _symmetry_equiv_pos_site_id
 _symmetry_equiv_pos_as_xyz
  1  'x, y, z'
loop_
 _atom_site_type_symbol
 _atom_site_label
 _atom_site_symmetry_multiplicity
 _atom_site_fract_x
 _atom_site_fract_y
 _atom_site_fract_z
 _atom_site_occupancy
  Ba  Ba0  1  0.84586471  0.80644153  0.45778064  1.0
  Ba  Ba1  1  0.84586471  0.69355847  0.95778064  1.0
  Ba  Ba2  1  0.15413529  0.30644153  0.04221936  1.0
  Ba  Ba3  1  0.15413529  0.19355847  0.54221936  1.0
  Ba  Ba4  1  0.75241434  0.17063591  0.04443813  1.0
  Ba  Ba5  1  0.75241434  0.32936409  0.54443813  1.0
  Ba  Ba6  1  0.24758566  0.67063591  0.45556187  1.0
  Ba  Ba7  1  0.24758566  0.82936409  0.95556187  1.0
  P  P8  1  0.96038561  0.44428499  0.26020317  1.0
  P  P9  1  0.96038561  0.05571501  0.76020317  1.0
  P  P10  1  0.03961439  0.94428499  0.23979683  1.0
  P  P11  1  0.03961439  0.55571501  0.73979683  1.0
  I  I12  1  0.49902777  0.08935873  0.24396750  1.0
  I  I13  1  0.49902777  0.41064127  0.74396750  1.0
  I  I14  1  0.50097223  0.58935873  0.25603250  1.0
  I  I15  1  0.50097223  0.91064127  0.75603250  1.0
  O  O16  1  0.93198015  0.60291573  0.28928293  1.0
  O  O17  1  0.93198015  0.89708427  0.78928293  1.0
  O  O18  1  0.06801985  0.10291573  0.21071707  1.0
  O  O19  1  0.06801985  0.39708427  0.71071707  1.0
  O  O20  1  0.90317715  0.41667213  0.07432037  1.0
  O  O21  1  0.90317715  0.08332787  0.57432037  1.0
  O  O22  1  0.09682285  0.91667213  0.42567963  1.0
  O  O23  1  0.09682285  0.58332787  0.92567963  1.0
  O  O24  1  0.88134942  0.33477398  0.33180374  1.0
  O  O25  1  0.88134942  0.16522602  0.83180374  1.0
  O  O26  1  0.11865058  0.83477398  0.16819626  1.0
  O  O27  1  0.11865058  0.66522602  0.66819626  1.0
  O  O28  1  0.86633115  0.91606858  0.16478899  1.0
  O  O29  1  0.86633115  0.58393142  0.66478899  1.0
  O  O30  1  0.13366885  0.41606858  0.33521101  1.0
  O  O31  1  0.13366885  0.08393142  0.83521101  1.0
