# generated using pymatgen
data_SnSb4S7
_symmetry_space_group_name_H-M   'P 1'
_cell_length_a   11.21553203
_cell_length_b   3.90233386
_cell_length_c   15.06897429
_cell_angle_alpha   90.00000000
_cell_angle_beta   104.05966586
_cell_angle_gamma   90.00000000
_symmetry_Int_Tables_number   1
_chemical_formula_structural   SnSb4S7
_chemical_formula_sum   'Sn2 Sb8 S14'
_cell_volume   639.76297346
_cell_formula_units_Z   2
loop_
 _symmetry_equiv_pos_site_id
 _symmetry_equiv_pos_as_xyz
  1  'x, y, z'
loop_
 _atom_site_type_symbol
 _atom_site_label
 _atom_site_symmetry_multiplicity
 _atom_site_fract_x
 _atom_site_fract_y
 _atom_site_fract_z
 _atom_site_occupancy
  Sn  Sn0  1  0.38079687  0.25000000  0.71284573  1.0
  Sn  Sn1  1  0.61920313  0.75000000  0.28715427  1.0
  Sb  Sb2  1  0.65694120  0.25000000  0.53507455  1.0
  Sb  Sb3  1  0.34305880  0.75000000  0.46492545  1.0
  Sb  Sb4  1  0.66399690  0.25000000  0.97290843  1.0
  Sb  Sb5  1  0.33600310  0.75000000  0.02709157  1.0
  Sb  Sb6  1  0.94796417  0.25000000  0.38077616  1.0
  Sb  Sb7  1  0.05203583  0.75000000  0.61922384  1.0
  Sb  Sb8  1  0.07204942  0.25000000  0.11719320  1.0
  Sb  Sb9  1  0.92795058  0.75000000  0.88280680  1.0
  S  S10  1  0.75851659  0.25000000  0.83491754  1.0
  S  S11  1  0.24148341  0.75000000  0.16508246  1.0
  S  S12  1  0.94573680  0.25000000  0.67890730  1.0
  S  S13  1  0.05426320  0.75000000  0.32109270  1.0
  S  S14  1  0.47460079  0.25000000  0.10183901  1.0
  S  S15  1  0.52539921  0.75000000  0.89816099  1.0
  S  S16  1  0.48384837  0.25000000  0.39549996  1.0
  S  S17  1  0.51615163  0.75000000  0.60450004  1.0
  S  S18  1  0.76962625  0.25000000  0.24729286  1.0
  S  S19  1  0.23037375  0.75000000  0.75270714  1.0
  S  S20  1  0.11256697  0.25000000  0.96253409  1.0
  S  S21  1  0.88743303  0.75000000  0.03746591  1.0
  S  S22  1  0.23448569  0.25000000  0.54196206  1.0
  S  S23  1  0.76551431  0.75000000  0.45803794  1.0
