# generated using pymatgen
data_EuSeClO3
_symmetry_space_group_name_H-M   'P 1'
_cell_length_a   7.50086410
_cell_length_b   7.22661015
_cell_length_c   9.02191445
_cell_angle_alpha   90.00000000
_cell_angle_beta   90.00000000
_cell_angle_gamma   90.00000000
_symmetry_Int_Tables_number   1
_chemical_formula_structural   EuSeClO3
_chemical_formula_sum   'Eu4 Se4 Cl4 O12'
_cell_volume   489.04027613
_cell_formula_units_Z   4
loop_
 _symmetry_equiv_pos_site_id
 _symmetry_equiv_pos_as_xyz
  1  'x, y, z'
loop_
 _atom_site_type_symbol
 _atom_site_label
 _atom_site_symmetry_multiplicity
 _atom_site_fract_x
 _atom_site_fract_y
 _atom_site_fract_z
 _atom_site_occupancy
  Eu  Eu0  1  0.61083989  0.75000000  0.54253718  1.0
  Eu  Eu1  1  0.11083989  0.75000000  0.95746282  1.0
  Eu  Eu2  1  0.38916011  0.25000000  0.45746282  1.0
  Eu  Eu3  1  0.88916011  0.25000000  0.04253718  1.0
  Se  Se4  1  0.71993631  0.75000000  0.13485540  1.0
  Se  Se5  1  0.21993631  0.75000000  0.36514460  1.0
  Se  Se6  1  0.28006369  0.25000000  0.86514460  1.0
  Se  Se7  1  0.78006369  0.25000000  0.63485540  1.0
  Cl  Cl8  1  0.94765946  0.75000000  0.67932527  1.0
  Cl  Cl9  1  0.44765946  0.75000000  0.82067473  1.0
  Cl  Cl10  1  0.05234054  0.25000000  0.32067473  1.0
  Cl  Cl11  1  0.55234054  0.25000000  0.17932527  1.0
  O  O12  1  0.86179975  0.92414263  0.07212236  1.0
  O  O13  1  0.86179975  0.57585737  0.07212236  1.0
  O  O14  1  0.36179975  0.92414263  0.42787764  1.0
  O  O15  1  0.36179975  0.57585737  0.42787764  1.0
  O  O16  1  0.13820025  0.42414263  0.92787764  1.0
  O  O17  1  0.13820025  0.07585737  0.92787764  1.0
  O  O18  1  0.63820025  0.42414263  0.57212236  1.0
  O  O19  1  0.63820025  0.07585737  0.57212236  1.0
  O  O20  1  0.75880028  0.75000000  0.32057609  1.0
  O  O21  1  0.25880028  0.75000000  0.17942391  1.0
  O  O22  1  0.24119972  0.25000000  0.67942391  1.0
  O  O23  1  0.74119972  0.25000000  0.82057609  1.0
