# generated using pymatgen
data_Cd2SO6
_symmetry_space_group_name_H-M   'P 1'
_cell_length_a   7.03256178
_cell_length_b   7.24560483
_cell_length_c   11.95311790
_cell_angle_alpha   90.00000000
_cell_angle_beta   120.83906596
_cell_angle_gamma   90.00000000
_symmetry_Int_Tables_number   1
_chemical_formula_structural   Cd2SO6
_chemical_formula_sum   'Cd8 S4 O24'
_cell_volume   522.95658341
_cell_formula_units_Z   4
loop_
 _symmetry_equiv_pos_site_id
 _symmetry_equiv_pos_as_xyz
  1  'x, y, z'
loop_
 _atom_site_type_symbol
 _atom_site_label
 _atom_site_symmetry_multiplicity
 _atom_site_fract_x
 _atom_site_fract_y
 _atom_site_fract_z
 _atom_site_occupancy
  O  O0  1  0.82752233  0.87062785  0.17920942  1.0
  O  O1  1  0.82752233  0.62937215  0.67920942  1.0
  O  O2  1  0.17247767  0.37062785  0.32079058  1.0
  O  O3  1  0.17247767  0.12937215  0.82079058  1.0
  O  O4  1  0.78777011  0.96874835  0.36242635  1.0
  O  O5  1  0.78777011  0.53125165  0.86242635  1.0
  O  O6  1  0.21222989  0.46874835  0.13757365  1.0
  O  O7  1  0.21222989  0.03125165  0.63757365  1.0
  O  O8  1  0.71342431  0.18642989  0.18828387  1.0
  O  O9  1  0.71342431  0.31357011  0.68828387  1.0
  O  O10  1  0.28657569  0.68642989  0.31171613  1.0
  O  O11  1  0.28657569  0.81357011  0.81171613  1.0
  O  O12  1  0.54001469  0.42668382  0.35578386  1.0
  O  O13  1  0.54001469  0.07331618  0.85578386  1.0
  O  O14  1  0.45998531  0.92668382  0.14421614  1.0
  O  O15  1  0.45998531  0.57331618  0.64421614  1.0
  O  O16  1  0.96788419  0.17638804  0.01973907  1.0
  O  O17  1  0.96788419  0.32361196  0.51973907  1.0
  O  O18  1  0.03211581  0.67638804  0.48026093  1.0
  O  O19  1  0.03211581  0.82361196  0.98026093  1.0
  O  O20  1  0.33781121  0.05850714  0.37734410  1.0
  O  O21  1  0.33781121  0.44149286  0.87734410  1.0
  O  O22  1  0.66218879  0.55850714  0.12265590  1.0
  O  O23  1  0.66218879  0.94149286  0.62265590  1.0
  S  S24  1  0.69675943  -0.01151991  0.21919042  1.0
  S  S25  1  0.69675943  0.51151991  0.71919042  1.0
  S  S26  1  0.30324057  0.48848009  0.28080958  1.0
  S  S27  1  0.30324057  1.01151991  0.78080958  1.0
  Cd  Cd28  1  0.85294883  0.46523870  0.32588161  1.0
  Cd  Cd29  1  0.85294883  0.03476130  0.82588161  1.0
  Cd  Cd30  1  0.14705117  0.96523870  0.17411839  1.0
  Cd  Cd31  1  0.14705117  0.53476130  0.67411839  1.0
  Cd  Cd32  1  0.69472515  0.14823004  0.49427366  1.0
  Cd  Cd33  1  0.69472515  0.35176996  0.99427366  1.0
  Cd  Cd34  1  0.30527485  0.64823004  0.00572634  1.0
  Cd  Cd35  1  0.30527485  0.85176996  0.50572634  1.0
