# generated using pymatgen
data_NiH6C2(NO2)2
_symmetry_space_group_name_H-M   'P 1'
_cell_length_a   7.55178215
_cell_length_b   7.55178215
_cell_length_c   8.84615646
_cell_angle_alpha   55.17161996
_cell_angle_beta   124.82838004
_cell_angle_gamma   126.42943924
_symmetry_Int_Tables_number   1
_chemical_formula_structural   NiH6C2(NO2)2
_chemical_formula_sum   'Ni2 H12 C4 N4 O8'
_cell_volume   311.96849664
_cell_formula_units_Z   2
loop_
 _symmetry_equiv_pos_site_id
 _symmetry_equiv_pos_as_xyz
  1  'x, y, z'
loop_
 _atom_site_type_symbol
 _atom_site_label
 _atom_site_symmetry_multiplicity
 _atom_site_fract_x
 _atom_site_fract_y
 _atom_site_fract_z
 _atom_site_occupancy
  Ni  Ni0  1  0.23950059  0.23950059  0.75000000  1.0
  Ni  Ni1  1  0.76049941  0.76049941  0.25000000  1.0
  H  H2  1  1.44538036  -0.33927974  0.78496003  1.0
  H  H3  1  1.33927974  -0.44538036  0.28496003  1.0
  H  H4  1  0.66072026  0.44538036  0.71503997  1.0
  H  H5  1  0.55461964  0.33927974  0.21503997  1.0
  H  H6  1  0.56268086  0.15740985  0.80697669  1.0
  H  H7  1  0.84259015  -0.56268086  0.30697669  1.0
  H  H8  1  1.15740985  0.56268086  0.69302331  1.0
  H  H9  1  1.43731914  -0.15740985  0.19302331  1.0
  H  H10  1  0.69966352  0.31618330  0.44810463  1.0
  H  H11  1  0.68381670  0.30033648  0.94810463  1.0
  H  H12  1  1.31618330  -0.30033648  0.05189537  1.0
  H  H13  1  1.30033648  -0.31618330  0.55189537  1.0
  C  C14  1  0.88382253  0.00049742  0.91102369  1.0
  C  C15  1  0.99950258  -0.88382253  0.41102369  1.0
  C  C16  1  1.00049742  0.88382253  0.58897631  1.0
  C  C17  1  1.11617747  -0.00049742  0.08897631  1.0
  N  N18  1  0.57331972  0.29844018  0.80834330  1.0
  N  N19  1  0.70155982  0.42668028  0.30834330  1.0
  N  N20  1  1.29844018  -0.42668028  0.69165670  1.0
  N  N21  1  1.42668028  -0.29844018  0.19165670  1.0
  O  O22  1  0.69671201  -0.11582261  0.94964320  1.0
  O  O23  1  1.11582261  -0.69671201  0.44964320  1.0
  O  O24  1  0.88417739  0.69671201  0.55035680  1.0
  O  O25  1  1.30328799  0.11582261  0.05035680  1.0
  O  O26  1  1.89534007  0.11580632  0.74101490  1.0
  O  O27  1  0.88419368  -0.89534007  0.24101490  1.0
  O  O28  1  1.11580632  0.89534007  0.75898510  1.0
  O  O29  1  0.10465993  -0.11580632  0.25898510  1.0
