# generated using pymatgen
data_K2ZrSi2O7
_symmetry_space_group_name_H-M   'P 1'
_cell_length_a   9.64495230
_cell_length_b   5.65658337
_cell_length_c   14.34843249
_cell_angle_alpha   90.00000000
_cell_angle_beta   117.01616487
_cell_angle_gamma   90.00000000
_symmetry_Int_Tables_number   1
_chemical_formula_structural   K2ZrSi2O7
_chemical_formula_sum   'K8 Zr4 Si8 O28'
_cell_volume   697.39233043
_cell_formula_units_Z   4
loop_
 _symmetry_equiv_pos_site_id
 _symmetry_equiv_pos_as_xyz
  1  'x, y, z'
loop_
 _atom_site_type_symbol
 _atom_site_label
 _atom_site_symmetry_multiplicity
 _atom_site_fract_x
 _atom_site_fract_y
 _atom_site_fract_z
 _atom_site_occupancy
  K  K0  1  0.96210844  0.24999104  0.07314586  1.0
  K  K1  1  0.96210844  0.25000896  0.57314586  1.0
  K  K2  1  0.03789156  0.74999104  0.42685414  1.0
  K  K3  1  0.03789156  0.75000896  0.92685414  1.0
  K  K4  1  0.51362881  0.24718417  0.39545055  1.0
  K  K5  1  0.51362881  0.25281583  0.89545055  1.0
  K  K6  1  0.48637119  0.74718417  0.10454945  1.0
  K  K7  1  0.48637119  0.75281583  0.60454945  1.0
  Zr  Zr8  1  0.76682316  0.25058076  0.27271778  1.0
  Zr  Zr9  1  0.76682316  0.24941924  0.77271778  1.0
  Zr  Zr10  1  0.23317684  0.75058076  0.22728222  1.0
  Zr  Zr11  1  0.23317684  0.74941924  0.72728222  1.0
  Si  Si12  1  0.82439899  0.75257147  0.12943508  1.0
  Si  Si13  1  0.82439899  0.74742853  0.62943508  1.0
  Si  Si14  1  0.17560101  0.25257147  0.37056492  1.0
  Si  Si15  1  0.17560101  0.24742853  0.87056492  1.0
  Si  Si16  1  0.33584094  0.24854412  0.11332760  1.0
  Si  Si17  1  0.33584094  0.25145588  0.61332760  1.0
  Si  Si18  1  0.66415906  0.74854412  0.38667240  1.0
  Si  Si19  1  0.66415906  0.75145588  0.88667240  1.0
  O  O20  1  1.00984882  0.24869930  0.37492948  1.0
  O  O21  1  1.00984882  0.25130070  0.87492948  1.0
  O  O22  1  -0.00984882  0.74869930  0.12507052  1.0
  O  O23  1  -0.00984882  0.75130070  0.62507052  1.0
  O  O24  1  0.79514716  -0.00303814  0.17857502  1.0
  O  O25  1  0.79514716  0.50303814  0.67857502  1.0
  O  O26  1  0.20485284  0.49696186  0.32142498  1.0
  O  O27  1  0.20485284  1.00303814  0.82142498  1.0
  O  O28  1  0.74715675  0.50521566  0.37610805  1.0
  O  O29  1  0.74715675  -0.00521566  0.87610805  1.0
  O  O30  1  0.25284325  1.00521566  0.12389195  1.0
  O  O31  1  0.25284325  0.49478434  0.62389195  1.0
  O  O32  1  0.74865551  0.98494143  0.37110350  1.0
  O  O33  1  0.74865551  0.51505857  0.87110350  1.0
  O  O34  1  0.25134449  0.48494143  0.12889650  1.0
  O  O35  1  0.25134449  0.01505857  0.62889650  1.0
  O  O36  1  0.52393597  0.24970859  0.18897480  1.0
  O  O37  1  0.52393597  0.25029141  0.68897480  1.0
  O  O38  1  0.47606403  0.74970859  0.31102520  1.0
  O  O39  1  0.47606403  0.75029141  0.81102520  1.0
  O  O40  1  0.32126513  0.24140955  0.49273947  1.0
  O  O41  1  0.32126513  0.25859045  0.99273947  1.0
  O  O42  1  0.67873487  0.74140955  0.00726053  1.0
  O  O43  1  0.67873487  0.75859045  0.50726053  1.0
  O  O44  1  0.20341356  0.02063643  0.31345852  1.0
  O  O45  1  0.20341356  0.47936357  0.81345852  1.0
  O  O46  1  0.79658644  0.52063643  0.18654148  1.0
  O  O47  1  0.79658644  0.97936357  0.68654148  1.0
