# generated using pymatgen
data_BaS4O13
_symmetry_space_group_name_H-M   'P 1'
_cell_length_a   7.83759391
_cell_length_b   7.83759391
_cell_length_c   9.72767403
_cell_angle_alpha   84.29687481
_cell_angle_beta   95.70312519
_cell_angle_gamma   75.80898015
_symmetry_Int_Tables_number   1
_chemical_formula_structural   BaS4O13
_chemical_formula_sum   'Ba2 S8 O26'
_cell_volume   571.68631667
_cell_formula_units_Z   2
loop_
 _symmetry_equiv_pos_site_id
 _symmetry_equiv_pos_as_xyz
  1  'x, y, z'
loop_
 _atom_site_type_symbol
 _atom_site_label
 _atom_site_symmetry_multiplicity
 _atom_site_fract_x
 _atom_site_fract_y
 _atom_site_fract_z
 _atom_site_occupancy
  Ba  Ba0  1  1.19669578  0.19669578  0.25000000  1.0
  Ba  Ba1  1  0.80330422  -0.19669578  0.75000000  1.0
  S  S2  1  0.75619635  -0.44882438  0.38056943  1.0
  S  S3  1  0.55117562  -0.24380365  0.11943057  1.0
  S  S4  1  1.24380365  0.44882438  0.61943057  1.0
  S  S5  1  1.44882438  0.24380365  0.88056943  1.0
  S  S6  1  1.71293322  0.17758898  0.40458751  1.0
  S  S7  1  1.17758898  0.71293322  0.09541249  1.0
  S  S8  1  0.28706678  -0.17758898  0.59541249  1.0
  S  S9  1  0.82241102  -0.71293322  0.90458751  1.0
  O  O10  1  0.92081702  -0.50340767  0.32341215  1.0
  O  O11  1  0.49659233  -0.07918298  0.17658785  1.0
  O  O12  1  1.07918298  0.50340767  0.67658785  1.0
  O  O13  1  1.50340767  0.07918298  0.82341215  1.0
  O  O14  1  0.73051593  -0.30104499  0.46014977  1.0
  O  O15  1  0.69895501  -0.26948407  0.03985023  1.0
  O  O16  1  1.26948407  0.30104499  0.53985023  1.0
  O  O17  1  1.30104499  0.26948407  0.96014977  1.0
  O  O18  1  0.59318003  -0.40681997  0.25000000  1.0
  O  O19  1  1.40681997  0.40681997  0.75000000  1.0
  O  O20  1  0.70479637  -0.60225643  0.46395032  1.0
  O  O21  1  0.39774357  -0.29520363  0.03604968  1.0
  O  O22  1  1.29520363  0.60225643  0.53604968  1.0
  O  O23  1  1.60225643  0.29520363  0.96395032  1.0
  O  O24  1  1.55164699  0.22013008  0.30740330  1.0
  O  O25  1  1.22013008  0.55164699  0.19259670  1.0
  O  O26  1  0.44835301  -0.22013008  0.69259670  1.0
  O  O27  1  0.77986992  -0.55164699  0.80740330  1.0
  O  O28  1  1.70735643  0.08470785  0.53974809  1.0
  O  O29  1  1.08470785  0.70735643  0.96025191  1.0
  O  O30  1  0.29264357  -0.08470785  0.46025191  1.0
  O  O31  1  0.91529215  -0.70735643  0.03974809  1.0
  O  O32  1  0.87953559  -0.86480158  0.34715388  1.0
  O  O33  1  0.13519842  -0.12046441  0.15284612  1.0
  O  O34  1  1.12046441  0.86480158  0.65284612  1.0
  O  O35  1  1.86480158  0.12046441  0.84715388  1.0
