# generated using pymatgen
data_Zr6GeI14
_symmetry_space_group_name_H-M   'P 1'
_cell_length_a   11.02130989
_cell_length_b   11.02130989
_cell_length_c   13.18744271
_cell_angle_alpha   90.00000000
_cell_angle_beta   90.00000000
_cell_angle_gamma   84.20316665
_symmetry_Int_Tables_number   1
_chemical_formula_structural   Zr6GeI14
_chemical_formula_sum   'Zr12 Ge2 I28'
_cell_volume   1593.67757327
_cell_formula_units_Z   2
loop_
 _symmetry_equiv_pos_site_id
 _symmetry_equiv_pos_as_xyz
  1  'x, y, z'
loop_
 _atom_site_type_symbol
 _atom_site_label
 _atom_site_symmetry_multiplicity
 _atom_site_fract_x
 _atom_site_fract_y
 _atom_site_fract_z
 _atom_site_occupancy
  Zr  Zr0  1  0.45366234  1.31868596  0.38298143  1.0
  Zr  Zr1  1  -0.04633766  0.81868596  0.11701857  1.0
  Zr  Zr2  1  0.31868596  1.45366234  0.61701857  1.0
  Zr  Zr3  1  -0.18131404  0.95366234  0.88298143  1.0
  Zr  Zr4  1  -0.31868596  0.54633766  0.38298143  1.0
  Zr  Zr5  1  0.18131404  1.04633766  0.11701857  1.0
  Zr  Zr6  1  -0.45366234  0.68131404  0.61701857  1.0
  Zr  Zr7  1  0.04633766  1.18131404  0.88298143  1.0
  Zr  Zr8  1  -0.14452450  1.14452450  0.10582319  1.0
  Zr  Zr9  1  0.35547550  0.64452450  0.39417681  1.0
  Zr  Zr10  1  0.14452450  0.85547550  0.89417681  1.0
  Zr  Zr11  1  -0.35547550  1.35547550  0.60582319  1.0
  Ge  Ge12  1  -0.50000000  0.50000000  0.50000000  1.0
  Ge  Ge13  1  0.00000000  1.00000000  0.00000000  1.0
  I  I14  1  -0.38473206  1.13622404  0.49064768  1.0
  I  I15  1  0.11526794  0.63622404  0.00935232  1.0
  I  I16  1  0.13622404  0.61526794  0.50935232  1.0
  I  I17  1  -0.36377596  1.11526794  0.99064768  1.0
  I  I18  1  -0.13622404  1.38473206  0.49064768  1.0
  I  I19  1  0.36377596  0.88473206  0.00935232  1.0
  I  I20  1  0.38473206  0.86377596  0.50935232  1.0
  I  I21  1  -0.11526794  1.36377596  0.99064768  1.0
  I  I22  1  -0.21217603  0.96532474  0.25028738  1.0
  I  I23  1  0.28782397  1.46532474  0.24971262  1.0
  I  I24  1  -0.03467526  0.78782397  0.74971262  1.0
  I  I25  1  0.46532474  1.28782397  0.75028738  1.0
  I  I26  1  0.03467526  1.21217603  0.25028738  1.0
  I  I27  1  -0.46532474  0.71217603  0.24971262  1.0
  I  I28  1  0.21217603  1.03467526  0.74971262  1.0
  I  I29  1  -0.28782397  0.53467526  0.75028738  1.0
  I  I30  1  -0.34556412  1.34556412  0.23512584  1.0
  I  I31  1  0.15443588  0.84556412  0.26487416  1.0
  I  I32  1  0.34556412  0.65443588  0.76487416  1.0
  I  I33  1  -0.15443588  1.15443588  0.73512584  1.0
  I  I34  1  0.40035650  1.09964350  0.25000000  1.0
  I  I35  1  -0.09964350  0.59964350  0.25000000  1.0
  I  I36  1  0.09964350  1.40035650  0.75000000  1.0
  I  I37  1  -0.40035650  0.90035650  0.75000000  1.0
  I  I38  1  0.25042551  1.25042551  0.50000000  1.0
  I  I39  1  -0.24957449  0.75042551  0.00000000  1.0
  I  I40  1  -0.25042551  0.74957449  0.50000000  1.0
  I  I41  1  0.24957449  1.24957449  0.00000000  1.0
