# generated using pymatgen
data_LiV(IO4)2
_symmetry_space_group_name_H-M   'P 1'
_cell_length_a   10.03893195
_cell_length_b   5.27798000
_cell_length_c   13.79061149
_cell_angle_alpha   90.00000000
_cell_angle_beta   117.62280188
_cell_angle_gamma   90.00000000
_symmetry_Int_Tables_number   1
_chemical_formula_structural   LiV(IO4)2
_chemical_formula_sum   'Li4 V4 I8 O32'
_cell_volume   647.41368314
_cell_formula_units_Z   4
loop_
 _symmetry_equiv_pos_site_id
 _symmetry_equiv_pos_as_xyz
  1  'x, y, z'
loop_
 _atom_site_type_symbol
 _atom_site_label
 _atom_site_symmetry_multiplicity
 _atom_site_fract_x
 _atom_site_fract_y
 _atom_site_fract_z
 _atom_site_occupancy
  Li  Li0  1  0.76525914  0.26141696  0.06233190  1.0
  Li  Li1  1  0.76525914  0.23858304  0.56233190  1.0
  Li  Li2  1  0.23474086  0.76141696  0.43766810  1.0
  Li  Li3  1  0.23474086  0.73858304  0.93766810  1.0
  V  V4  1  0.73320524  0.78089816  0.45147051  1.0
  V  V5  1  0.73320524  0.71910184  0.95147051  1.0
  V  V6  1  0.26679476  0.28089816  0.04852949  1.0
  V  V7  1  0.26679476  0.21910184  0.54852949  1.0
  I  I8  1  0.92378252  0.30654050  0.32827545  1.0
  I  I9  1  0.92378252  0.19345950  0.82827545  1.0
  I  I10  1  0.07621748  0.80654050  0.17172455  1.0
  I  I11  1  0.07621748  0.69345950  0.67172455  1.0
  I  I12  1  0.41456418  0.29715203  0.32687174  1.0
  I  I13  1  0.41456418  0.20284797  0.82687174  1.0
  I  I14  1  0.58543582  0.79715203  0.17312826  1.0
  I  I15  1  0.58543582  0.70284797  0.67312826  1.0
  O  O16  1  0.93039157  0.42205809  0.20224783  1.0
  O  O17  1  0.93039157  0.07794191  0.70224783  1.0
  O  O18  1  0.06960843  0.92205809  0.29775217  1.0
  O  O19  1  0.06960843  0.57794191  0.79775217  1.0
  O  O20  1  0.88372694  0.94255287  0.05947337  1.0
  O  O21  1  0.88372694  0.55744713  0.55947337  1.0
  O  O22  1  0.11627306  0.44255287  0.44052663  1.0
  O  O23  1  0.11627306  0.05744713  0.94052663  1.0
  O  O24  1  0.84457743  0.02066137  0.46458346  1.0
  O  O25  1  0.84457743  0.47933863  0.96458346  1.0
  O  O26  1  0.15542257  0.52066137  0.03541654  1.0
  O  O27  1  0.15542257  0.97933863  0.53541654  1.0
  O  O28  1  0.80200051  0.92373588  0.83429748  1.0
  O  O29  1  0.80200051  0.57626412  0.33429748  1.0
  O  O30  1  0.19799949  0.42373588  0.66570252  1.0
  O  O31  1  0.19799949  0.07626412  0.16570252  1.0
  O  O32  1  0.70501236  0.08037771  0.18057689  1.0
  O  O33  1  0.70501236  0.41962229  0.68057689  1.0
  O  O34  1  0.29498764  0.58037771  0.31942311  1.0
  O  O35  1  0.29498764  0.91962229  0.81942311  1.0
  O  O36  1  0.60717763  0.41297690  0.42554501  1.0
  O  O37  1  0.60717763  0.08702310  0.92554501  1.0
  O  O38  1  0.39282237  0.91297690  0.07445499  1.0
  O  O39  1  0.39282237  0.58702310  0.57445499  1.0
  O  O40  1  0.42994411  0.36805087  0.19335849  1.0
  O  O41  1  0.42994411  0.13194913  0.69335849  1.0
  O  O42  1  0.57005589  0.86805087  0.30664151  1.0
  O  O43  1  0.57005589  0.63194913  0.80664151  1.0
  O  O44  1  0.35311901  0.11749824  0.47811903  1.0
  O  O45  1  0.35311901  0.38250176  0.97811903  1.0
  O  O46  1  0.64688099  0.61749824  0.02188097  1.0
  O  O47  1  0.64688099  0.88250176  0.52188097  1.0
