# generated using pymatgen
data_InRu3
_symmetry_space_group_name_H-M   'P 1'
_cell_length_a   5.61949102
_cell_length_b   5.61949102
_cell_length_c   4.54360666
_cell_angle_alpha   90.00000000
_cell_angle_beta   90.00000000
_cell_angle_gamma   120.00000000
_symmetry_Int_Tables_number   1
_chemical_formula_structural   InRu3
_chemical_formula_sum   'In2 Ru6'
_cell_volume   124.25827549
_cell_formula_units_Z   2
loop_
 _symmetry_equiv_pos_site_id
 _symmetry_equiv_pos_as_xyz
  1  'x, y, z'
loop_
 _atom_site_type_symbol
 _atom_site_label
 _atom_site_symmetry_multiplicity
 _atom_site_fract_x
 _atom_site_fract_y
 _atom_site_fract_z
 _atom_site_occupancy
  In  In0  1  0.33333333  0.66666667  0.75000000  1.0
  In  In1  1  0.66666667  0.33333333  0.25000000  1.0
  Ru  Ru2  1  0.16303308  0.83696692  0.25000000  1.0
  Ru  Ru3  1  0.16303308  0.32606617  0.25000000  1.0
  Ru  Ru4  1  0.83696692  0.16303308  0.75000000  1.0
  Ru  Ru5  1  0.83696692  0.67393383  0.75000000  1.0
  Ru  Ru6  1  0.67393383  0.83696692  0.25000000  1.0
  Ru  Ru7  1  0.32606617  0.16303308  0.75000000  1.0
