# generated using pymatgen
data_Na8Zr6BBr20
_symmetry_space_group_name_H-M   'P 1'
_cell_length_a   11.23714383
_cell_length_b   11.23714383
_cell_length_c   11.23714383
_cell_angle_alpha   60.00000000
_cell_angle_beta   60.00000000
_cell_angle_gamma   60.00000000
_symmetry_Int_Tables_number   1
_chemical_formula_structural   Na8Zr6BBr20
_chemical_formula_sum   'Na8 Zr6 B1 Br20'
_cell_volume   1003.35084506
_cell_formula_units_Z   1
loop_
 _symmetry_equiv_pos_site_id
 _symmetry_equiv_pos_as_xyz
  1  'x, y, z'
loop_
 _atom_site_type_symbol
 _atom_site_label
 _atom_site_symmetry_multiplicity
 _atom_site_fract_x
 _atom_site_fract_y
 _atom_site_fract_z
 _atom_site_occupancy
  Na  Na0  1  0.63916988  0.63916988  -0.36083012  1.0
  Na  Na1  1  0.36083012  1.36083012  -0.08249037  1.0
  Na  Na2  1  1.36083012  -0.08249037  0.36083012  1.0
  Na  Na3  1  1.08249037  0.63916988  0.63916988  1.0
  Na  Na4  1  -0.08249037  1.36083012  0.36083012  1.0
  Na  Na5  1  0.63916988  1.08249037  -0.36083012  1.0
  Na  Na6  1  0.63916988  0.63916988  1.08249037  1.0
  Na  Na7  1  1.36083012  0.36083012  0.36083012  1.0
  Zr  Zr8  1  -0.85466535  0.85466535  0.85466535  1.0
  Zr  Zr9  1  -0.14533465  0.14533465  0.85466535  1.0
  Zr  Zr10  1  0.85466535  0.85466535  -0.85466535  1.0
  Zr  Zr11  1  0.14533465  1.14533465  -0.14533465  1.0
  Zr  Zr12  1  0.14533465  -0.14533465  1.14533465  1.0
  Zr  Zr13  1  -0.14533465  0.14533465  0.14533465  1.0
  B  B14  1  0.00000000  0.00000000  0.00000000  1.0
  Br  Br15  1  0.75000000  0.75000000  -0.25000000  1.0
  Br  Br16  1  1.25000000  0.25000000  0.25000000  1.0
  Br  Br17  1  1.66033185  0.00000000  0.00000000  1.0
  Br  Br18  1  1.00000000  0.33966815  -0.33966815  1.0
  Br  Br19  1  1.00000000  0.66033185  -0.66033185  1.0
  Br  Br20  1  1.33966815  0.00000000  -0.00000000  1.0
  Br  Br21  1  0.00000000  1.66033185  0.00000000  1.0
  Br  Br22  1  0.33966815  1.00000000  -0.33966815  1.0
  Br  Br23  1  0.00000000  0.00000000  0.66033185  1.0
  Br  Br24  1  0.33966815  -0.33966815  1.00000000  1.0
  Br  Br25  1  0.66033185  1.00000000  -0.66033185  1.0
  Br  Br26  1  0.00000000  1.33966815  -0.00000000  1.0
  Br  Br27  1  0.66033185  -0.66033185  1.00000000  1.0
  Br  Br28  1  0.00000000  0.00000000  0.33966815  1.0
  Br  Br29  1  -0.67357531  0.67357531  0.67357531  1.0
  Br  Br30  1  -0.32642469  0.32642469  0.67357531  1.0
  Br  Br31  1  0.67357531  0.67357531  -0.67357531  1.0
  Br  Br32  1  0.32642469  1.32642469  -0.32642469  1.0
  Br  Br33  1  0.32642469  -0.32642469  1.32642469  1.0
  Br  Br34  1  -0.32642469  0.32642469  0.32642469  1.0
