# generated using pymatgen
data_BaTl2(MoO4)2
_symmetry_space_group_name_H-M   'P 1'
_cell_length_a   8.21745896
_cell_length_b   8.21745896
_cell_length_c   8.21745896
_cell_angle_alpha   44.36554003
_cell_angle_beta   44.36554003
_cell_angle_gamma   44.36554003
_symmetry_Int_Tables_number   1
_chemical_formula_structural   BaTl2(MoO4)2
_chemical_formula_sum   'Ba1 Tl2 Mo2 O8'
_cell_volume   246.60623146
_cell_formula_units_Z   1
loop_
 _symmetry_equiv_pos_site_id
 _symmetry_equiv_pos_as_xyz
  1  'x, y, z'
loop_
 _atom_site_type_symbol
 _atom_site_label
 _atom_site_symmetry_multiplicity
 _atom_site_fract_x
 _atom_site_fract_y
 _atom_site_fract_z
 _atom_site_occupancy
  Ba  Ba0  1  0.00000000  0.00000000  0.00000000  1.0
  Tl  Tl1  1  0.80454611  0.80454611  0.80454611  1.0
  Tl  Tl2  1  1.19545389  1.19545389  0.19545389  1.0
  Mo  Mo3  1  1.59983272  0.59983272  0.59983272  1.0
  Mo  Mo4  1  1.40016728  0.40016728  0.40016728  1.0
  O  O5  1  1.26743871  0.26743871  0.74126053  1.0
  O  O6  1  1.26743871  0.74126053  0.26743871  1.0
  O  O7  1  1.25873947  0.73256129  0.73256129  1.0
  O  O8  1  1.73256129  0.25873947  0.73256129  1.0
  O  O9  1  1.73256129  0.73256129  0.25873947  1.0
  O  O10  1  1.74126053  0.26743871  0.26743871  1.0
  O  O11  1  0.67954702  0.67954702  0.67954702  1.0
  O  O12  1  1.32045298  1.32045298  0.32045298  1.0
