# generated using pymatgen
data_MnSiNi
_symmetry_space_group_name_H-M   'P 1'
_cell_length_a   5.85697878
_cell_length_b   3.55957580
_cell_length_c   6.90269477
_cell_angle_alpha   90.00000000
_cell_angle_beta   90.00000000
_cell_angle_gamma   90.00000000
_symmetry_Int_Tables_number   1
_chemical_formula_structural   MnSiNi
_chemical_formula_sum   'Mn4 Si4 Ni4'
_cell_volume   143.90986488
_cell_formula_units_Z   4
loop_
 _symmetry_equiv_pos_site_id
 _symmetry_equiv_pos_as_xyz
  1  'x, y, z'
loop_
 _atom_site_type_symbol
 _atom_site_label
 _atom_site_symmetry_multiplicity
 _atom_site_fract_x
 _atom_site_fract_y
 _atom_site_fract_z
 _atom_site_occupancy
  Mn  Mn0  1  0.96830406  0.75000000  0.67260753  1.0
  Mn  Mn1  1  0.46830406  0.75000000  0.82739247  1.0
  Mn  Mn2  1  0.03169594  0.25000000  0.32739247  1.0
  Mn  Mn3  1  0.53169594  0.25000000  0.17260753  1.0
  Si  Si4  1  0.74214771  0.75000000  0.37060016  1.0
  Si  Si5  1  0.24214771  0.75000000  0.12939984  1.0
  Si  Si6  1  0.25785229  0.25000000  0.62939984  1.0
  Si  Si7  1  0.75785229  0.25000000  0.87060016  1.0
  Ni  Ni8  1  0.85695207  0.75000000  0.05877461  1.0
  Ni  Ni9  1  0.35695207  0.75000000  0.44122539  1.0
  Ni  Ni10  1  0.14304793  0.25000000  0.94122539  1.0
  Ni  Ni11  1  0.64304793  0.25000000  0.55877461  1.0
