# generated using pymatgen
data_Ba5Mn3ClO12
_symmetry_space_group_name_H-M   'P 1'
_cell_length_a   10.61482873
_cell_length_b   10.61482873
_cell_length_c   7.80205884
_cell_angle_alpha   90.00000000
_cell_angle_beta   90.00000000
_cell_angle_gamma   120.00000000
_symmetry_Int_Tables_number   1
_chemical_formula_structural   Ba5Mn3ClO12
_chemical_formula_sum   'Ba10 Mn6 Cl2 O24'
_cell_volume   761.31754011
_cell_formula_units_Z   2
loop_
 _symmetry_equiv_pos_site_id
 _symmetry_equiv_pos_as_xyz
  1  'x, y, z'
loop_
 _atom_site_type_symbol
 _atom_site_label
 _atom_site_symmetry_multiplicity
 _atom_site_fract_x
 _atom_site_fract_y
 _atom_site_fract_z
 _atom_site_occupancy
  Ba  Ba0  1  0.99205812  0.74281873  0.25000000  1.0
  Ba  Ba1  1  0.74281873  0.75076061  0.75000000  1.0
  Ba  Ba2  1  0.75076061  0.00794188  0.25000000  1.0
  Ba  Ba3  1  0.25718127  0.24923939  0.25000000  1.0
  Ba  Ba4  1  0.00794188  0.25718127  0.75000000  1.0
  Ba  Ba5  1  0.24923939  0.99205812  0.75000000  1.0
  Ba  Ba6  1  0.33333333  0.66666667  0.49870623  1.0
  Ba  Ba7  1  0.33333333  0.66666667  0.00129377  1.0
  Ba  Ba8  1  0.66666667  0.33333333  0.99870623  1.0
  Ba  Ba9  1  0.66666667  0.33333333  0.50129377  1.0
  Mn  Mn10  1  0.37052140  0.96592152  0.25000000  1.0
  Mn  Mn11  1  0.96592152  0.59540012  0.75000000  1.0
  Mn  Mn12  1  0.59540012  0.62947860  0.25000000  1.0
  Mn  Mn13  1  0.03407848  0.40459988  0.25000000  1.0
  Mn  Mn14  1  0.62947860  0.03407848  0.75000000  1.0
  Mn  Mn15  1  0.40459988  0.37052140  0.75000000  1.0
  Cl  Cl16  1  -0.00000000  -0.00000000  0.50000000  1.0
  Cl  Cl17  1  -0.00000000  -0.00000000  0.00000000  1.0
  O  O18  1  0.26029596  0.90324763  0.42452716  1.0
  O  O19  1  0.26029596  0.90324763  0.07547284  1.0
  O  O20  1  0.90324763  0.64295168  0.92452716  1.0
  O  O21  1  0.90324763  0.64295168  0.57547284  1.0
  O  O22  1  0.64295168  0.73970404  0.42452716  1.0
  O  O23  1  0.64295168  0.73970404  0.07547284  1.0
  O  O24  1  0.09675237  0.35704832  0.42452716  1.0
  O  O25  1  0.09675237  0.35704832  0.07547284  1.0
  O  O26  1  0.73970404  0.09675237  0.92452716  1.0
  O  O27  1  0.73970404  0.09675237  0.57547284  1.0
  O  O28  1  0.35704832  0.26029596  0.92452716  1.0
  O  O29  1  0.35704832  0.26029596  0.57547284  1.0
  O  O30  1  0.46765201  0.87668953  0.25000000  1.0
  O  O31  1  0.87668953  0.40903752  0.75000000  1.0
  O  O32  1  0.40903752  0.53234799  0.25000000  1.0
  O  O33  1  0.12331047  0.59096248  0.25000000  1.0
  O  O34  1  0.53234799  0.12331047  0.75000000  1.0
  O  O35  1  0.59096248  0.46765201  0.75000000  1.0
  O  O36  1  0.67248396  0.52208399  0.25000000  1.0
  O  O37  1  0.52208399  0.84960003  0.75000000  1.0
  O  O38  1  0.84960003  0.32751604  0.25000000  1.0
  O  O39  1  0.47791601  0.15039997  0.25000000  1.0
  O  O40  1  0.32751604  0.47791601  0.75000000  1.0
  O  O41  1  0.15039997  0.67248396  0.75000000  1.0
