# generated using pymatgen
data_Na2In2GeS6
_symmetry_space_group_name_H-M   'P 1'
_cell_length_a   7.34616323
_cell_length_b   7.34616323
_cell_length_c   12.52472871
_cell_angle_alpha   74.01383377
_cell_angle_beta   105.98616623
_cell_angle_gamma   113.43058378
_symmetry_Int_Tables_number   1
_chemical_formula_structural   Na2In2GeS6
_chemical_formula_sum   'Na4 In4 Ge2 S12'
_cell_volume   585.55434079
_cell_formula_units_Z   2
loop_
 _symmetry_equiv_pos_site_id
 _symmetry_equiv_pos_as_xyz
  1  'x, y, z'
loop_
 _atom_site_type_symbol
 _atom_site_label
 _atom_site_symmetry_multiplicity
 _atom_site_fract_x
 _atom_site_fract_y
 _atom_site_fract_z
 _atom_site_occupancy
  Na  Na0  1  0.70881902  0.14720455  0.68591575  1.0
  Na  Na1  1  0.85279545  0.29118098  0.18591575  1.0
  Na  Na2  1  0.29885543  0.29031186  0.86138423  1.0
  Na  Na3  1  0.70968814  0.70114457  0.36138423  1.0
  In  In4  1  1.08567776  -0.19922805  0.69699447  1.0
  In  In5  1  1.19922805  -0.08567776  0.19699447  1.0
  In  In6  1  1.23833450  -0.40881921  0.50202218  1.0
  In  In7  1  1.40881921  -0.23833450  0.00202218  1.0
  Ge  Ge8  1  0.85943403  0.70682724  0.94196525  1.0
  Ge  Ge9  1  0.29317276  0.14056597  0.44196525  1.0
  S  S10  1  0.99990921  0.99890844  0.50145572  1.0
  S  S11  1  0.00109156  0.00009079  0.00145572  1.0
  S  S12  1  0.76600906  0.75678743  0.75429983  1.0
  S  S13  1  0.24321257  0.23399094  0.25429983  1.0
  S  S14  1  0.48278489  0.41470623  0.52109483  1.0
  S  S15  1  0.58529377  0.51721511  0.02109483  1.0
  S  S16  1  1.04983949  -0.48884980  0.99415556  1.0
  S  S17  1  1.48884980  -0.04983949  0.49415556  1.0
  S  S18  1  1.08170565  -0.52571264  0.67157394  1.0
  S  S19  1  1.52571264  -0.08170565  0.17157394  1.0
  S  S20  1  1.39931455  -0.00485245  0.81533824  1.0
  S  S21  1  1.00485245  -0.39931455  0.31533824  1.0
