# generated using pymatgen
data_Cu4Bi5PbS11
_symmetry_space_group_name_H-M   'P 1'
_cell_length_a   9.22739058
_cell_length_b   9.22739058
_cell_length_c   27.39661787
_cell_angle_alpha   87.80983010
_cell_angle_beta   92.19016990
_cell_angle_gamma   155.46085684
_symmetry_Int_Tables_number   1
_chemical_formula_structural   Cu4Bi5PbS11
_chemical_formula_sum   'Cu8 Bi10 Pb2 S22'
_cell_volume   968.05444351
_cell_formula_units_Z   2
loop_
 _symmetry_equiv_pos_site_id
 _symmetry_equiv_pos_as_xyz
  1  'x, y, z'
loop_
 _atom_site_type_symbol
 _atom_site_label
 _atom_site_symmetry_multiplicity
 _atom_site_fract_x
 _atom_site_fract_y
 _atom_site_fract_z
 _atom_site_occupancy
  Cu  Cu0  1  0.20635555  -0.20635555  0.02345973  1.0
  Cu  Cu1  1  0.79364445  0.20635555  0.97654027  1.0
  Cu  Cu2  1  0.29894349  -0.29894349  0.21949779  1.0
  Cu  Cu3  1  0.70105651  0.29894349  0.78050221  1.0
  Cu  Cu4  1  0.48856011  -0.48856011  0.22876555  1.0
  Cu  Cu5  1  0.51143989  0.48856011  0.77123445  1.0
  Cu  Cu6  1  0.63390841  0.36609159  0.42265120  1.0
  Cu  Cu7  1  0.36609159  -0.36609159  0.57734880  1.0
  Bi  Bi8  1  0.87203096  0.12796904  0.10122659  1.0
  Bi  Bi9  1  0.12796904  -0.12796904  0.89877341  1.0
  Bi  Bi10  1  0.62655959  0.37344041  0.14726284  1.0
  Bi  Bi11  1  0.37344041  -0.37344041  0.85273716  1.0
  Bi  Bi12  1  0.16358453  -0.16358453  0.29352276  1.0
  Bi  Bi13  1  0.83641547  0.16358453  0.70647724  1.0
  Bi  Bi14  1  0.94015306  0.05984694  0.34485356  1.0
  Bi  Bi15  1  0.05984694  -0.05984694  0.65514644  1.0
  Bi  Bi16  1  0.31509962  -0.31509962  0.44694767  1.0
  Bi  Bi17  1  0.68490038  0.31509962  0.55305233  1.0
  Pb  Pb18  1  0.50000000  0.50000000  0.00000000  1.0
  Pb  Pb19  1  0.00000000  -0.00000000  0.50000000  1.0
  S  S20  1  0.33838137  -0.33838137  0.01329787  1.0
  S  S21  1  0.66161863  0.33838137  0.98670213  1.0
  S  S22  1  0.01041997  -0.01041997  0.08032061  1.0
  S  S23  1  0.98958003  0.01041997  0.91967939  1.0
  S  S24  1  0.20705827  -0.20705827  0.10721849  1.0
  S  S25  1  0.79294173  0.20705827  0.89278151  1.0
  S  S26  1  0.39638158  -0.39638158  0.16737351  1.0
  S  S27  1  0.60361842  0.39638158  0.83262649  1.0
  S  S28  1  0.73027075  0.26972925  0.22215908  1.0
  S  S29  1  0.26972925  -0.26972925  0.77784092  1.0
  S  S30  1  0.05683128  -0.05683128  0.22583483  1.0
  S  S31  1  0.94316872  0.05683128  0.77416517  1.0
  S  S32  1  0.39232597  -0.39232597  0.28396644  1.0
  S  S33  1  0.60767403  0.39232597  0.71603356  1.0
  S  S34  1  0.59337902  0.40662098  0.34405847  1.0
  S  S35  1  0.40662098  -0.40662098  0.65594153  1.0
  S  S36  1  0.79911798  0.20088202  0.37797929  1.0
  S  S37  1  0.20088202  -0.20088202  0.62202071  1.0
  S  S38  1  0.45866370  -0.45866370  0.42592093  1.0
  S  S39  1  0.54133630  0.45866370  0.57407907  1.0
  S  S40  1  0.15371931  -0.15371931  0.46624574  1.0
  S  S41  1  0.84628069  0.15371931  0.53375426  1.0
