# generated using pymatgen
data_CaSi2O5
_symmetry_space_group_name_H-M   'P 1'
_cell_length_a   7.31287913
_cell_length_b   6.63565885
_cell_length_c   7.63008778
_cell_angle_alpha   81.30087283
_cell_angle_beta   69.45280484
_cell_angle_gamma   84.83921067
_symmetry_Int_Tables_number   1
_chemical_formula_structural   CaSi2O5
_chemical_formula_sum   'Ca4 Si8 O20'
_cell_volume   342.44113477
_cell_formula_units_Z   4
loop_
 _symmetry_equiv_pos_site_id
 _symmetry_equiv_pos_as_xyz
  1  'x, y, z'
loop_
 _atom_site_type_symbol
 _atom_site_label
 _atom_site_symmetry_multiplicity
 _atom_site_fract_x
 _atom_site_fract_y
 _atom_site_fract_z
 _atom_site_occupancy
  Ca  Ca0  1  -0.45746041  -0.81486722  -0.32174122  1.0
  Ca  Ca1  1  -0.54253959  -0.18513278  -0.67825878  1.0
  Ca  Ca2  1  -0.97123464  -0.39154995  -0.78645759  1.0
  Ca  Ca3  1  -0.02876536  -0.60845005  -0.21354241  1.0
  Si  Si4  1  -0.80095101  -0.87393887  -0.92994826  1.0
  Si  Si5  1  -0.19904899  -0.12606113  -0.07005174  1.0
  Si  Si6  1  -0.24747922  -0.80297960  -0.77976236  1.0
  Si  Si7  1  -0.75252078  -0.19702040  -0.22023764  1.0
  Si  Si8  1  -0.68418090  -0.66166890  -0.57933057  1.0
  Si  Si9  1  -0.31581910  -0.33833110  -0.42066943  1.0
  Si  Si10  1  -0.50000000  -0.50000000  0.00000000  1.0
  Si  Si11  1  -0.00000000  0.00000000  -0.50000000  1.0
  O  O12  1  -0.77240622  -0.97793629  -0.12266300  1.0
  O  O13  1  -0.22759378  -0.02206371  -0.87733700  1.0
  O  O14  1  -0.19028044  -0.88474672  -0.58169554  1.0
  O  O15  1  -0.80971956  -0.11525328  -0.41830446  1.0
  O  O16  1  -0.49874748  -0.82842861  -0.63462028  1.0
  O  O17  1  -0.50125252  -0.17157139  -0.36537972  1.0
  O  O18  1  -0.60062370  -0.75154650  -0.98702416  1.0
  O  O19  1  -0.39937630  -0.24845350  -0.01297584  1.0
  O  O20  1  -0.90072848  -0.75107021  -0.53985116  1.0
  O  O21  1  -0.09927152  -0.24892979  -0.46014884  1.0
  O  O22  1  -0.99608169  -0.71910001  -0.90310532  1.0
  O  O23  1  -0.00391831  -0.28089999  -0.09689468  1.0
  O  O24  1  -0.30457241  -0.62078767  -0.93464100  1.0
  O  O25  1  -0.69542759  -0.37921233  -0.06535900  1.0
  O  O26  1  -0.69959460  -0.57529297  -0.38770223  1.0
  O  O27  1  -0.30040540  -0.42470703  -0.61229777  1.0
  O  O28  1  -0.65281898  -0.47651944  -0.75813311  1.0
  O  O29  1  -0.34718102  -0.52348056  -0.24186689  1.0
  O  O30  1  -0.84183818  -0.04987048  -0.74411106  1.0
  O  O31  1  -0.15816182  -0.95012952  -0.25588894  1.0
