# generated using pymatgen
data_Zr6Ni20P13
_symmetry_space_group_name_H-M   'P 1'
_cell_length_a   12.50106654
_cell_length_b   12.50106654
_cell_length_c   3.64139296
_cell_angle_alpha   90.00000000
_cell_angle_beta   90.00000000
_cell_angle_gamma   120.00000000
_symmetry_Int_Tables_number   1
_chemical_formula_structural   Zr6Ni20P13
_chemical_formula_sum   'Zr6 Ni20 P13'
_cell_volume   492.82452669
_cell_formula_units_Z   1
loop_
 _symmetry_equiv_pos_site_id
 _symmetry_equiv_pos_as_xyz
  1  'x, y, z'
loop_
 _atom_site_type_symbol
 _atom_site_label
 _atom_site_symmetry_multiplicity
 _atom_site_fract_x
 _atom_site_fract_y
 _atom_site_fract_z
 _atom_site_occupancy
  Zr  Zr0  1  0.28261427  0.80857649  0.50000000  1.0
  Zr  Zr1  1  0.52596221  0.71738573  0.50000000  1.0
  Zr  Zr2  1  0.19142351  0.47403779  0.50000000  1.0
  Zr  Zr3  1  0.80860293  0.52656180  0.00000000  1.0
  Zr  Zr4  1  0.71795887  0.19139707  0.00000000  1.0
  Zr  Zr5  1  0.47343820  0.28204113  0.00000000  1.0
  Ni  Ni6  1  0.56414556  0.97897516  0.50000000  1.0
  Ni  Ni7  1  0.41482960  0.43585444  0.50000000  1.0
  Ni  Ni8  1  0.02102484  0.58517040  0.50000000  1.0
  Ni  Ni9  1  0.08147863  0.92107775  0.50000000  1.0
  Ni  Ni10  1  0.83959912  0.91852137  0.50000000  1.0
  Ni  Ni11  1  0.07892225  0.16040088  0.50000000  1.0
  Ni  Ni12  1  0.74835855  0.67660774  0.50000000  1.0
  Ni  Ni13  1  0.92824919  0.25164145  0.50000000  1.0
  Ni  Ni14  1  0.32339226  0.07175081  0.50000000  1.0
  Ni  Ni15  1  0.90577082  0.80126390  0.00000000  1.0
  Ni  Ni16  1  0.89549308  0.09422918  0.00000000  1.0
  Ni  Ni17  1  0.19873610  0.10450692  0.00000000  1.0
  Ni  Ni18  1  0.07933854  0.75503338  0.00000000  1.0
  Ni  Ni19  1  0.67569484  0.92066146  0.00000000  1.0
  Ni  Ni20  1  0.24496662  0.32430516  0.00000000  1.0
  Ni  Ni21  1  0.58194722  0.56146938  0.00000000  1.0
  Ni  Ni22  1  0.97952216  0.41805278  0.00000000  1.0
  Ni  Ni23  1  0.43853062  0.02047784  0.00000000  1.0
  Ni  Ni24  1  0.66666667  0.33333333  0.50000000  1.0
  Ni  Ni25  1  0.33333333  0.66666667  0.00000000  1.0
  P  P26  1  0.94693394  0.71432232  0.50000000  1.0
  P  P27  1  0.76738837  0.05306606  0.50000000  1.0
  P  P28  1  0.28567768  0.23261163  0.50000000  1.0
  P  P29  1  0.61322575  0.47275170  0.50000000  1.0
  P  P30  1  0.85952595  0.38677425  0.50000000  1.0
  P  P31  1  0.52724830  0.14047405  0.50000000  1.0
  P  P32  1  0.23387159  0.94663688  0.00000000  1.0
  P  P33  1  0.71276529  0.76612841  0.00000000  1.0
  P  P34  1  0.05336312  0.28723471  0.00000000  1.0
  P  P35  1  0.47352943  0.85995095  0.00000000  1.0
  P  P36  1  0.38642153  0.52647057  0.00000000  1.0
  P  P37  1  0.14004905  0.61357847  0.00000000  1.0
  P  P38  1  0.00000000  0.00000000  0.00000000  1.0
