# generated using pymatgen
data_MnPO3
_symmetry_space_group_name_H-M   'P 1'
_cell_length_a   7.60395693
_cell_length_b   8.19562634
_cell_length_c   10.18601891
_cell_angle_alpha   90.00000000
_cell_angle_beta   127.01278350
_cell_angle_gamma   90.00000000
_symmetry_Int_Tables_number   1
_chemical_formula_structural   MnPO3
_chemical_formula_sum   'Mn8 P8 O24'
_cell_volume   506.87615103
_cell_formula_units_Z   8
loop_
 _symmetry_equiv_pos_site_id
 _symmetry_equiv_pos_as_xyz
  1  'x, y, z'
loop_
 _atom_site_type_symbol
 _atom_site_label
 _atom_site_symmetry_multiplicity
 _atom_site_fract_x
 _atom_site_fract_y
 _atom_site_fract_z
 _atom_site_occupancy
  P  P0  1  0.92249071  0.37171164  0.20275957  1.0
  P  P1  1  0.92249071  0.12828836  0.70275957  1.0
  P  P2  1  0.07750929  0.87171164  0.29724043  1.0
  P  P3  1  0.07750929  0.62828836  0.79724043  1.0
  P  P4  1  0.65049986  0.97899912  0.34709906  1.0
  P  P5  1  0.65049986  0.52100088  0.84709906  1.0
  P  P6  1  0.34950014  0.47899912  0.15290094  1.0
  P  P7  1  0.34950014  0.02100088  0.65290094  1.0
  Mn  Mn8  1  0.45708344  0.29026632  0.46393242  1.0
  Mn  Mn9  1  0.45708344  0.20973368  0.96393242  1.0
  Mn  Mn10  1  0.54291656  0.79026632  0.03606758  1.0
  Mn  Mn11  1  0.54291656  0.70973368  0.53606758  1.0
  Mn  Mn12  1  0.79456958  0.89401889  0.88171543  1.0
  Mn  Mn13  1  0.79456958  0.60598111  0.38171543  1.0
  Mn  Mn14  1  0.20543042  0.39401889  0.61828457  1.0
  Mn  Mn15  1  0.20543042  0.10598111  0.11828457  1.0
  O  O16  1  0.97718806  0.42999558  0.38054310  1.0
  O  O17  1  0.97718806  0.07000442  0.88054310  1.0
  O  O18  1  0.02281194  0.92999558  0.11945690  1.0
  O  O19  1  0.02281194  0.57000442  0.61945690  1.0
  O  O20  1  0.84697820  0.78781498  0.23809891  1.0
  O  O21  1  0.84697820  0.71218502  0.73809891  1.0
  O  O22  1  0.15302180  0.28781498  0.26190109  1.0
  O  O23  1  0.15302180  0.21218502  0.76190109  1.0
  O  O24  1  0.75885002  0.22210861  0.14419267  1.0
  O  O25  1  0.75885002  0.27789139  0.64419267  1.0
  O  O26  1  0.24114998  0.72210861  0.35580733  1.0
  O  O27  1  0.24114998  0.77789139  0.85580733  1.0
  O  O28  1  0.52130873  0.45056453  0.35734076  1.0
  O  O29  1  0.52130873  0.04943547  0.85734075  1.0
  O  O30  1  0.47869127  0.95056453  0.14265925  1.0
  O  O31  1  0.47869127  0.54943547  0.64265924  1.0
  O  O32  1  0.46416672  0.07147966  0.35124117  1.0
  O  O33  1  0.46416672  0.42852034  0.85124117  1.0
  O  O34  1  0.53583328  0.57147966  0.14875883  1.0
  O  O35  1  0.53583328  0.92852034  0.64875883  1.0
  O  O36  1  0.34755321  0.29183127  0.08611514  1.0
  O  O37  1  0.34755321  0.20816873  0.58611514  1.0
  O  O38  1  0.65244679  0.79183127  0.41388486  1.0
  O  O39  1  0.65244679  0.70816873  0.91388486  1.0
