# generated using pymatgen
data_LaCuSe2
_symmetry_space_group_name_H-M   'P 1'
_cell_length_a   6.84565607
_cell_length_b   7.62008751
_cell_length_c   7.28516243
_cell_angle_alpha   90.00000000
_cell_angle_beta   96.95528488
_cell_angle_gamma   90.00000000
_symmetry_Int_Tables_number   1
_chemical_formula_structural   LaCuSe2
_chemical_formula_sum   'La4 Cu4 Se8'
_cell_volume   377.23021034
_cell_formula_units_Z   4
loop_
 _symmetry_equiv_pos_site_id
 _symmetry_equiv_pos_as_xyz
  1  'x, y, z'
loop_
 _atom_site_type_symbol
 _atom_site_label
 _atom_site_symmetry_multiplicity
 _atom_site_fract_x
 _atom_site_fract_y
 _atom_site_fract_z
 _atom_site_occupancy
  La  La0  1  0.69135059  0.45115163  0.29800755  1.0
  La  La1  1  0.69135059  0.04884837  0.79800755  1.0
  La  La2  1  0.30864941  0.95115163  0.20199245  1.0
  La  La3  1  0.30864941  0.54884837  0.70199245  1.0
  Cu  Cu4  1  0.93480466  0.83705522  0.45791843  1.0
  Cu  Cu5  1  0.93480466  0.66294478  0.95791843  1.0
  Cu  Cu6  1  0.06519534  0.33705522  0.04208157  1.0
  Cu  Cu7  1  0.06519534  0.16294478  0.54208157  1.0
  Se  Se8  1  0.90503484  0.11287341  0.22079247  1.0
  Se  Se9  1  0.90503484  0.38712659  0.72079247  1.0
  Se  Se10  1  0.09496516  0.61287341  0.27920753  1.0
  Se  Se11  1  0.09496516  0.88712659  0.77920753  1.0
  Se  Se12  1  0.41116814  0.22542299  0.50116395  1.0
  Se  Se13  1  0.41116814  0.27457701  1.00116395  1.0
  Se  Se14  1  0.58883186  0.72542299  -0.00116395  1.0
  Se  Se15  1  0.58883186  0.77457701  0.49883605  1.0
