# generated using pymatgen
data_ZrFeGe2
_symmetry_space_group_name_H-M   'P 1'
_cell_length_a   9.27415752
_cell_length_b   10.14081811
_cell_length_c   8.02037076
_cell_angle_alpha   90.00000000
_cell_angle_beta   90.00000000
_cell_angle_gamma   90.00000000
_symmetry_Int_Tables_number   1
_chemical_formula_structural   ZrFeGe2
_chemical_formula_sum   'Zr12 Fe12 Ge24'
_cell_volume   754.29617561
_cell_formula_units_Z   12
loop_
 _symmetry_equiv_pos_site_id
 _symmetry_equiv_pos_as_xyz
  1  'x, y, z'
loop_
 _atom_site_type_symbol
 _atom_site_label
 _atom_site_symmetry_multiplicity
 _atom_site_fract_x
 _atom_site_fract_y
 _atom_site_fract_z
 _atom_site_occupancy
  Zr  Zr0  1  0.17228366  0.54749812  0.75439433  1.0
  Zr  Zr1  1  0.17228366  0.54749812  0.24560567  1.0
  Zr  Zr2  1  0.67228366  0.95250188  0.75439433  1.0
  Zr  Zr3  1  0.67228366  0.95250188  0.24560567  1.0
  Zr  Zr4  1  0.82771634  0.45250188  0.75439433  1.0
  Zr  Zr5  1  0.82771634  0.45250188  0.24560567  1.0
  Zr  Zr6  1  0.32771634  0.04749812  0.75439433  1.0
  Zr  Zr7  1  0.32771634  0.04749812  0.24560567  1.0
  Zr  Zr8  1  0.16770229  0.81947448  0.00000000  1.0
  Zr  Zr9  1  0.66770229  0.68052552  0.00000000  1.0
  Zr  Zr10  1  0.83229771  0.18052552  0.00000000  1.0
  Zr  Zr11  1  0.33229771  0.31947448  0.00000000  1.0
  Fe  Fe12  1  0.41492186  0.74627439  0.75055934  1.0
  Fe  Fe13  1  0.41492186  0.74627439  0.24944066  1.0
  Fe  Fe14  1  0.91492186  0.75372561  0.75055934  1.0
  Fe  Fe15  1  0.91492186  0.75372561  0.24944066  1.0
  Fe  Fe16  1  0.58507814  0.25372561  0.75055934  1.0
  Fe  Fe17  1  0.58507814  0.25372561  0.24944066  1.0
  Fe  Fe18  1  0.08507814  0.24627439  0.75055934  1.0
  Fe  Fe19  1  0.08507814  0.24627439  0.24944066  1.0
  Fe  Fe20  1  0.50000000  0.50000000  0.75381715  1.0
  Fe  Fe21  1  0.50000000  0.50000000  0.24618285  1.0
  Fe  Fe22  1  0.00000000  0.00000000  0.75381715  1.0
  Fe  Fe23  1  0.00000000  0.00000000  0.24618285  1.0
  Ge  Ge24  1  0.16496578  0.81860472  0.65538369  1.0
  Ge  Ge25  1  0.16496578  0.81860472  0.34461631  1.0
  Ge  Ge26  1  0.66496578  0.68139528  0.65538369  1.0
  Ge  Ge27  1  0.66496578  0.68139528  0.34461631  1.0
  Ge  Ge28  1  0.83503422  0.18139528  0.65538369  1.0
  Ge  Ge29  1  0.83503422  0.18139528  0.34461631  1.0
  Ge  Ge30  1  0.33503422  0.31860472  0.65538369  1.0
  Ge  Ge31  1  0.33503422  0.31860472  0.34461631  1.0
  Ge  Ge32  1  0.45791751  0.87713157  0.50000000  1.0
  Ge  Ge33  1  0.95791751  0.62286843  0.50000000  1.0
  Ge  Ge34  1  0.54208249  0.12286843  0.50000000  1.0
  Ge  Ge35  1  0.04208249  0.37713157  0.50000000  1.0
  Ge  Ge36  1  0.37510081  0.59636985  0.50000000  1.0
  Ge  Ge37  1  0.87510081  0.90363015  0.50000000  1.0
  Ge  Ge38  1  0.62489919  0.40363015  0.50000000  1.0
  Ge  Ge39  1  0.12489919  0.09636985  0.50000000  1.0
  Ge  Ge40  1  0.45988289  0.87904398  0.00000000  1.0
  Ge  Ge41  1  0.95988289  0.62095602  0.00000000  1.0
  Ge  Ge42  1  0.54011711  0.12095602  0.00000000  1.0
  Ge  Ge43  1  0.04011711  0.37904398  0.00000000  1.0
  Ge  Ge44  1  0.37287638  0.60080043  0.00000000  1.0
  Ge  Ge45  1  0.87287638  0.89919957  0.00000000  1.0
  Ge  Ge46  1  0.62712362  0.39919957  0.00000000  1.0
  Ge  Ge47  1  0.12712362  0.10080043  0.00000000  1.0
