# generated using pymatgen
data_Sr11In7
_symmetry_space_group_name_H-M   'P 1'
_cell_length_a   12.63962027
_cell_length_b   12.63962027
_cell_length_c   12.63962027
_cell_angle_alpha   60.00000000
_cell_angle_beta   60.00000000
_cell_angle_gamma   60.00000000
_symmetry_Int_Tables_number   1
_chemical_formula_structural   Sr11In7
_chemical_formula_sum   'Sr22 In14'
_cell_volume   1427.86478258
_cell_formula_units_Z   2
loop_
 _symmetry_equiv_pos_site_id
 _symmetry_equiv_pos_as_xyz
  1  'x, y, z'
loop_
 _atom_site_type_symbol
 _atom_site_label
 _atom_site_symmetry_multiplicity
 _atom_site_fract_x
 _atom_site_fract_y
 _atom_site_fract_z
 _atom_site_occupancy
  Sr  Sr0  1  1.66533215  0.00000000  -0.00000000  1.0
  Sr  Sr1  1  1.00000000  0.33466785  -0.33466785  1.0
  Sr  Sr2  1  1.00000000  0.66533215  -0.66533215  1.0
  Sr  Sr3  1  1.33466785  -0.00000000  0.00000000  1.0
  Sr  Sr4  1  0.00000000  1.66533215  -0.00000000  1.0
  Sr  Sr5  1  0.33466785  1.00000000  -0.33466785  1.0
  Sr  Sr6  1  0.00000000  0.00000000  0.66533215  1.0
  Sr  Sr7  1  0.33466785  -0.33466785  1.00000000  1.0
  Sr  Sr8  1  0.66533215  1.00000000  -0.66533215  1.0
  Sr  Sr9  1  -0.00000000  1.33466785  0.00000000  1.0
  Sr  Sr10  1  0.66533215  -0.66533215  1.00000000  1.0
  Sr  Sr11  1  0.00000000  0.00000000  0.33466785  1.0
  Sr  Sr12  1  0.62941778  0.62941778  -0.37058222  1.0
  Sr  Sr13  1  0.37058222  1.37058222  -0.11174666  1.0
  Sr  Sr14  1  1.37058222  -0.11174666  0.37058222  1.0
  Sr  Sr15  1  1.11174666  0.62941778  0.62941778  1.0
  Sr  Sr16  1  -0.11174666  1.37058222  0.37058222  1.0
  Sr  Sr17  1  0.62941778  1.11174666  -0.37058222  1.0
  Sr  Sr18  1  0.62941778  0.62941778  1.11174666  1.0
  Sr  Sr19  1  1.37058222  0.37058222  0.37058222  1.0
  Sr  Sr20  1  -0.50000000  0.50000000  0.50000000  1.0
  Sr  Sr21  1  0.00000000  0.00000000  0.00000000  1.0
  In  In22  1  0.81070025  0.81070025  -0.18929975  1.0
  In  In23  1  1.18929975  0.18929975  0.43210076  1.0
  In  In24  1  1.18929975  0.43210076  0.18929975  1.0
  In  In25  1  0.56789924  0.81070025  -0.18929975  1.0
  In  In26  1  1.43210076  0.18929975  0.18929975  1.0
  In  In27  1  0.81070025  0.56789924  -0.18929975  1.0
  In  In28  1  0.81070025  0.81070025  -0.43210076  1.0
  In  In29  1  1.18929975  0.18929975  0.18929975  1.0
  In  In30  1  -0.71959460  0.71959460  0.71959460  1.0
  In  In31  1  -0.28040540  0.28040540  0.71959460  1.0
  In  In32  1  0.71959460  0.71959460  -0.71959460  1.0
  In  In33  1  0.28040540  1.28040540  -0.28040540  1.0
  In  In34  1  0.28040540  -0.28040540  1.28040540  1.0
  In  In35  1  -0.28040540  0.28040540  0.28040540  1.0
