# generated using pymatgen
data_LaPPt3
_symmetry_space_group_name_H-M   'P 1'
_cell_length_a   5.81292104
_cell_length_b   5.81292104
_cell_length_c   5.53197591
_cell_angle_alpha   90.00000000
_cell_angle_beta   90.00000000
_cell_angle_gamma   90.00000000
_symmetry_Int_Tables_number   1
_chemical_formula_structural   LaPPt3
_chemical_formula_sum   'La2 P2 Pt6'
_cell_volume   186.92574838
_cell_formula_units_Z   2
loop_
 _symmetry_equiv_pos_site_id
 _symmetry_equiv_pos_as_xyz
  1  'x, y, z'
loop_
 _atom_site_type_symbol
 _atom_site_label
 _atom_site_symmetry_multiplicity
 _atom_site_fract_x
 _atom_site_fract_y
 _atom_site_fract_z
 _atom_site_occupancy
  La  La0  1  0.00000000  0.00000000  0.50000000  1.0
  La  La1  1  0.50000000  0.50000000  0.50000000  1.0
  P  P2  1  0.50000000  0.00000000  0.22849973  1.0
  P  P3  1  0.00000000  0.50000000  0.77150027  1.0
  Pt  Pt4  1  0.75000000  0.25000000  0.00000000  1.0
  Pt  Pt5  1  0.75000000  0.75000000  0.00000000  1.0
  Pt  Pt6  1  0.25000000  0.75000000  0.00000000  1.0
  Pt  Pt7  1  0.25000000  0.25000000  0.00000000  1.0
  Pt  Pt8  1  0.50000000  0.00000000  0.64364226  1.0
  Pt  Pt9  1  0.00000000  0.50000000  0.35635774  1.0
