# generated using pymatgen
data_NbFe2
_symmetry_space_group_name_H-M   'P 1'
_cell_length_a   4.81280656
_cell_length_b   4.81280656
_cell_length_c   15.69111316
_cell_angle_alpha   90.00000000
_cell_angle_beta   90.00000000
_cell_angle_gamma   120.00000000
_symmetry_Int_Tables_number   1
_chemical_formula_structural   NbFe2
_chemical_formula_sum   'Nb8 Fe16'
_cell_volume   314.76120430
_cell_formula_units_Z   8
loop_
 _symmetry_equiv_pos_site_id
 _symmetry_equiv_pos_as_xyz
  1  'x, y, z'
loop_
 _atom_site_type_symbol
 _atom_site_label
 _atom_site_symmetry_multiplicity
 _atom_site_fract_x
 _atom_site_fract_y
 _atom_site_fract_z
 _atom_site_occupancy
  Nb  Nb0  1  0.00000000  0.00000000  0.40627393  1.0
  Nb  Nb1  1  0.00000000  0.00000000  0.59372607  1.0
  Nb  Nb2  1  0.00000000  0.00000000  0.90627393  1.0
  Nb  Nb3  1  0.00000000  0.00000000  0.09372607  1.0
  Nb  Nb4  1  0.33333333  0.66666667  0.65580053  1.0
  Nb  Nb5  1  0.66666667  0.33333333  0.34419947  1.0
  Nb  Nb6  1  0.66666667  0.33333333  0.15580053  1.0
  Nb  Nb7  1  0.33333333  0.66666667  0.84419947  1.0
  Fe  Fe8  1  0.33333333  0.66666667  0.37475282  1.0
  Fe  Fe9  1  0.66666667  0.33333333  0.62524718  1.0
  Fe  Fe10  1  0.66666667  0.33333333  0.87475282  1.0
  Fe  Fe11  1  0.33333333  0.66666667  0.12524718  1.0
  Fe  Fe12  1  0.50000000  0.50000000  0.50000000  1.0
  Fe  Fe13  1  0.50000000  0.00000000  0.50000000  1.0
  Fe  Fe14  1  0.00000000  0.50000000  0.50000000  1.0
  Fe  Fe15  1  0.50000000  0.50000000  0.00000000  1.0
  Fe  Fe16  1  0.50000000  0.00000000  0.00000000  1.0
  Fe  Fe17  1  0.00000000  0.50000000  0.00000000  1.0
  Fe  Fe18  1  0.16493003  0.83506997  0.25000000  1.0
  Fe  Fe19  1  0.16493003  0.32986007  0.25000000  1.0
  Fe  Fe20  1  0.67013993  0.83506997  0.25000000  1.0
  Fe  Fe21  1  0.83506997  0.16493003  0.75000000  1.0
  Fe  Fe22  1  0.83506997  0.67013993  0.75000000  1.0
  Fe  Fe23  1  0.32986007  0.16493003  0.75000000  1.0
