# generated using pymatgen
data_Cs2MgN4
_symmetry_space_group_name_H-M   'P 1'
_cell_length_a   7.26287081
_cell_length_b   9.00394005
_cell_length_c   14.86833038
_cell_angle_alpha   90.00000000
_cell_angle_beta   125.37787564
_cell_angle_gamma   90.00000000
_symmetry_Int_Tables_number   1
_chemical_formula_structural   Cs2MgN4
_chemical_formula_sum   'Cs8 Mg4 N16'
_cell_volume   792.77135231
_cell_formula_units_Z   4
loop_
 _symmetry_equiv_pos_site_id
 _symmetry_equiv_pos_as_xyz
  1  'x, y, z'
loop_
 _atom_site_type_symbol
 _atom_site_label
 _atom_site_symmetry_multiplicity
 _atom_site_fract_x
 _atom_site_fract_y
 _atom_site_fract_z
 _atom_site_occupancy
  Cs  Cs0  1  0.90343527  0.49974681  0.20156409  1.0
  Cs  Cs1  1  0.90343527  1.00025319  0.70156409  1.0
  Cs  Cs2  1  0.09656473  -0.00025319  0.29843591  1.0
  Cs  Cs3  1  0.09656473  0.50025319  0.79843591  1.0
  Cs  Cs4  1  0.35111871  0.14597727  0.06772682  1.0
  Cs  Cs5  1  0.35111871  0.35402273  0.56772682  1.0
  Cs  Cs6  1  0.64888129  0.64597727  0.43227318  1.0
  Cs  Cs7  1  0.64888129  0.85402273  0.93227318  1.0
  Mg  Mg8  1  0.69139889  0.21649282  0.41784557  1.0
  Mg  Mg9  1  0.69139889  0.28350718  0.91784557  1.0
  Mg  Mg10  1  0.30860111  0.71649282  0.08215443  1.0
  Mg  Mg11  1  0.30860111  0.78350718  0.58215443  1.0
  N  N12  1  0.77696086  0.23847972  0.30520579  1.0
  N  N13  1  0.77696086  0.26152028  0.80520579  1.0
  N  N14  1  0.22303914  0.73847972  0.19479421  1.0
  N  N15  1  0.22303914  0.76152028  0.69479421  1.0
  N  N16  1  0.92300758  0.16711942  0.06568864  1.0
  N  N17  1  0.92300758  0.33288058  0.56568864  1.0
  N  N18  1  0.07699242  0.66711942  0.43431136  1.0
  N  N19  1  0.07699242  0.83288058  0.93431136  1.0
  N  N20  1  0.65436123  -0.00745941  0.44420490  1.0
  N  N21  1  0.65436123  0.50745941  0.94420490  1.0
  N  N22  1  0.34563877  0.49254059  0.05579510  1.0
  N  N23  1  0.34563877  1.00745941  0.55579510  1.0
  N  N24  1  0.38711467  0.32772564  0.36411068  1.0
  N  N25  1  0.38711467  0.17227436  0.86411068  1.0
  N  N26  1  0.61288533  0.82772564  0.13588932  1.0
  N  N27  1  0.61288533  0.67227436  0.63588932  1.0
