# generated using pymatgen
data_MoO4
_symmetry_space_group_name_H-M   'P 1'
_cell_length_a   3.77077587
_cell_length_b   8.32963053
_cell_length_c   6.14483698
_cell_angle_alpha   106.25152355
_cell_angle_beta   117.01110799
_cell_angle_gamma   88.86196278
_symmetry_Int_Tables_number   1
_chemical_formula_structural   MoO4
_chemical_formula_sum   'Mo2 O8'
_cell_volume   163.77764128
_cell_formula_units_Z   2
loop_
 _symmetry_equiv_pos_site_id
 _symmetry_equiv_pos_as_xyz
  1  'x, y, z'
loop_
 _atom_site_type_symbol
 _atom_site_label
 _atom_site_symmetry_multiplicity
 _atom_site_fract_x
 _atom_site_fract_y
 _atom_site_fract_z
 _atom_site_occupancy
  Mo  Mo0  1  0.74780611  0.67390612  -1.01017849  1.0
  Mo  Mo1  1  0.25219389  0.32609388  0.01017849  1.0
  O  O2  1  0.46653949  0.65355601  -0.33064449  1.0
  O  O3  1  0.53346051  0.34644399  -0.66935551  1.0
  O  O4  1  0.25514296  0.60360988  -0.98239013  1.0
  O  O5  1  0.74485704  0.39639012  -0.01760987  1.0
  O  O6  1  0.89427805  0.72062767  -0.60738888  1.0
  O  O7  1  0.10572195  0.27937233  -0.39261112  1.0
  O  O8  1  0.85641039  0.88797959  -0.87008979  1.0
  O  O9  1  0.14358961  0.11202041  -0.12991021  1.0
