# generated using pymatgen
data_Ba2CoSi2O7
_symmetry_space_group_name_H-M   'P 1'
_cell_length_a   8.29683288
_cell_length_b   8.29683288
_cell_length_c   5.46604984
_cell_angle_alpha   90.00000000
_cell_angle_beta   90.00000000
_cell_angle_gamma   90.00000000
_symmetry_Int_Tables_number   1
_chemical_formula_structural   Ba2CoSi2O7
_chemical_formula_sum   'Ba4 Co2 Si4 O14'
_cell_volume   376.26885471
_cell_formula_units_Z   2
loop_
 _symmetry_equiv_pos_site_id
 _symmetry_equiv_pos_as_xyz
  1  'x, y, z'
loop_
 _atom_site_type_symbol
 _atom_site_label
 _atom_site_symmetry_multiplicity
 _atom_site_fract_x
 _atom_site_fract_y
 _atom_site_fract_z
 _atom_site_occupancy
  Ba  Ba0  1  0.83376065  0.33376065  0.49077239  1.0
  Ba  Ba1  1  0.66623935  0.83376065  0.50922761  1.0
  Ba  Ba2  1  0.16623935  0.66623935  0.49077239  1.0
  Ba  Ba3  1  0.33376065  0.16623935  0.50922761  1.0
  Co  Co4  1  0.50000000  0.50000000  0.00000000  1.0
  Co  Co5  1  0.00000000  0.00000000  0.00000000  1.0
  Si  Si6  1  0.36359075  0.86359075  0.03957321  1.0
  Si  Si7  1  0.13640925  0.36359075  0.96042679  1.0
  Si  Si8  1  0.63640925  0.13640925  0.03957321  1.0
  Si  Si9  1  0.86359075  0.63640925  0.96042679  1.0
  O  O10  1  0.30498514  0.42152063  0.82428534  1.0
  O  O11  1  0.19501486  0.92152063  0.17571466  1.0
  O  O12  1  0.57847937  0.30498514  0.17571466  1.0
  O  O13  1  0.92152063  0.80498514  0.82428534  1.0
  O  O14  1  0.69501486  0.57847937  0.82428534  1.0
  O  O15  1  0.80498514  0.07847937  0.17571466  1.0
  O  O16  1  0.42152063  0.69501486  0.17571466  1.0
  O  O17  1  0.07847937  0.19501486  0.82428534  1.0
  O  O18  1  0.36139909  0.86139909  0.74356228  1.0
  O  O19  1  0.13860091  0.36139909  0.25643772  1.0
  O  O20  1  0.63860091  0.13860091  0.74356228  1.0
  O  O21  1  0.86139909  0.63860091  0.25643772  1.0
  O  O22  1  0.00000000  0.50000000  0.86059405  1.0
  O  O23  1  0.50000000  0.00000000  0.13940595  1.0
