# generated using pymatgen
data_Bi2Rh3S2
_symmetry_space_group_name_H-M   'P 1'
_cell_length_a   7.22745975
_cell_length_b   7.22745975
_cell_length_c   18.14092547
_cell_angle_alpha   75.46531577
_cell_angle_beta   104.53468423
_cell_angle_gamma   108.67031334
_symmetry_Int_Tables_number   1
_chemical_formula_structural   Bi2Rh3S2
_chemical_formula_sum   'Bi12 Rh18 S12'
_cell_volume   853.83993102
_cell_formula_units_Z   6
loop_
 _symmetry_equiv_pos_site_id
 _symmetry_equiv_pos_as_xyz
  1  'x, y, z'
loop_
 _atom_site_type_symbol
 _atom_site_label
 _atom_site_symmetry_multiplicity
 _atom_site_fract_x
 _atom_site_fract_y
 _atom_site_fract_z
 _atom_site_occupancy
  Bi  Bi0  1  0.92925670  0.07074330  0.58267853  1.0
  Bi  Bi1  1  0.07074330  -0.07074330  0.41732147  1.0
  Bi  Bi2  1  0.75750948  0.24249052  0.74121879  1.0
  Bi  Bi3  1  0.24249052  -0.24249052  0.25878121  1.0
  Bi  Bi4  1  0.59618552  -0.59618552  0.91650146  1.0
  Bi  Bi5  1  1.40381448  -0.40381448  0.08349854  1.0
  Bi  Bi6  1  0.42159647  -0.42159647  0.58510835  1.0
  Bi  Bi7  1  0.57840353  0.42159647  0.41489165  1.0
  Bi  Bi8  1  0.26072216  -0.26072216  0.75350238  1.0
  Bi  Bi9  1  0.73927784  0.26072216  0.24649762  1.0
  Bi  Bi10  1  0.09479042  -0.09479042  0.91579646  1.0
  Bi  Bi11  1  0.90520958  0.09479042  0.08420354  1.0
  Rh  Rh12  1  1.43665996  0.07849429  0.83262841  1.0
  Rh  Rh13  1  0.92150571  0.56334004  0.83262841  1.0
  Rh  Rh14  1  1.07849429  0.43665996  0.16737159  1.0
  Rh  Rh15  1  1.56334004  -0.07849429  0.16737159  1.0
  Rh  Rh16  1  1.33866370  0.15766419  0.66522680  1.0
  Rh  Rh17  1  0.84233581  0.66133630  0.66522680  1.0
  Rh  Rh18  1  1.15766419  0.33866370  0.33477320  1.0
  Rh  Rh19  1  1.66133630  -0.15766419  0.33477320  1.0
  Rh  Rh20  1  0.84444002  -0.84444002  0.90167427  1.0
  Rh  Rh21  1  1.15555998  -0.15555998  0.09832573  1.0
  Rh  Rh22  1  0.82339670  0.17660330  0.40698846  1.0
  Rh  Rh23  1  0.17660330  -0.17660330  0.59301154  1.0
  Rh  Rh24  1  0.51802649  -0.51802649  0.75058467  1.0
  Rh  Rh25  1  1.48197351  -0.48197351  0.24941533  1.0
  Rh  Rh26  1  0.73545718  0.73545718  0.50000000  1.0
  Rh  Rh27  1  1.26454282  0.26454282  0.50000000  1.0
  Rh  Rh28  1  1.50000000  -0.00000000  0.00000000  1.0
  Rh  Rh29  1  1.00000000  0.50000000  0.00000000  1.0
  S  S30  1  1.75512851  -0.21339794  0.75216236  1.0
  S  S31  1  1.21339794  0.24487149  0.75216236  1.0
  S  S32  1  0.78660206  0.75512851  0.24783764  1.0
  S  S33  1  1.24487149  0.21339794  0.24783764  1.0
  S  S34  1  0.60038675  -0.13675605  0.91948508  1.0
  S  S35  1  1.13675605  0.39961325  0.91948508  1.0
  S  S36  1  0.86324395  0.60038675  0.08051492  1.0
  S  S37  1  0.39961325  0.13675605  0.08051492  1.0
  S  S38  1  1.46608678  0.07096468  0.57774209  1.0
  S  S39  1  0.92903532  0.53391322  0.57774209  1.0
  S  S40  1  1.07096468  0.46608678  0.42225791  1.0
  S  S41  1  1.53391322  -0.07096468  0.42225791  1.0
