# generated using pymatgen
data_As3Pb5ClO9
_symmetry_space_group_name_H-M   'P 1'
_cell_length_a   10.67699620
_cell_length_b   10.67699620
_cell_length_c   7.05097797
_cell_angle_alpha   90.00000000
_cell_angle_beta   90.00000000
_cell_angle_gamma   120.00000000
_symmetry_Int_Tables_number   1
_chemical_formula_structural   As3Pb5ClO9
_chemical_formula_sum   'As6 Pb10 Cl2 O18'
_cell_volume   696.11046933
_cell_formula_units_Z   2
loop_
 _symmetry_equiv_pos_site_id
 _symmetry_equiv_pos_as_xyz
  1  'x, y, z'
loop_
 _atom_site_type_symbol
 _atom_site_label
 _atom_site_symmetry_multiplicity
 _atom_site_fract_x
 _atom_site_fract_y
 _atom_site_fract_z
 _atom_site_occupancy
  As  As0  1  0.39951102  0.98258217  0.25000000  1.0
  As  As1  1  0.98258217  0.58307114  0.75000000  1.0
  As  As2  1  0.58307114  0.60048898  0.25000000  1.0
  As  As3  1  0.01741783  0.41692886  0.25000000  1.0
  As  As4  1  0.60048898  0.01741783  0.75000000  1.0
  As  As5  1  0.41692886  0.39951102  0.75000000  1.0
  Pb  Pb6  1  0.04382768  0.77478602  0.25000000  1.0
  Pb  Pb7  1  0.77478602  0.73095834  0.75000000  1.0
  Pb  Pb8  1  0.73095834  0.95617232  0.25000000  1.0
  Pb  Pb9  1  0.22521398  0.26904166  0.25000000  1.0
  Pb  Pb10  1  0.95617232  0.22521398  0.75000000  1.0
  Pb  Pb11  1  0.26904166  0.04382768  0.75000000  1.0
  Pb  Pb12  1  0.33333333  0.66666667  0.49005349  1.0
  Pb  Pb13  1  0.33333333  0.66666667  0.00994651  1.0
  Pb  Pb14  1  0.66666667  0.33333333  0.99005349  1.0
  Pb  Pb15  1  0.66666667  0.33333333  0.50994651  1.0
  Cl  Cl16  1  0.00000000  0.00000000  0.50000000  1.0
  Cl  Cl17  1  0.00000000  0.00000000  0.00000000  1.0
  O  O18  1  0.27643610  0.90308216  0.44643338  1.0
  O  O19  1  0.27643610  0.90308216  0.05356662  1.0
  O  O20  1  0.90308216  0.62664606  0.94643338  1.0
  O  O21  1  0.90308216  0.62664606  0.55356662  1.0
  O  O22  1  0.62664606  0.72356390  0.44643338  1.0
  O  O23  1  0.62664606  0.72356390  0.05356662  1.0
  O  O24  1  0.09691784  0.37335394  0.44643338  1.0
  O  O25  1  0.09691784  0.37335394  0.05356662  1.0
  O  O26  1  0.72356390  0.09691784  0.94643338  1.0
  O  O27  1  0.72356390  0.09691784  0.55356662  1.0
  O  O28  1  0.37335394  0.27643610  0.94643338  1.0
  O  O29  1  0.37335394  0.27643610  0.55356662  1.0
  O  O30  1  0.46366953  0.84874978  0.25000000  1.0
  O  O31  1  0.84874978  0.38508026  0.75000000  1.0
  O  O32  1  0.38508026  0.53633047  0.25000000  1.0
  O  O33  1  0.15125022  0.61491974  0.25000000  1.0
  O  O34  1  0.53633047  0.15125022  0.75000000  1.0
  O  O35  1  0.61491974  0.46366953  0.75000000  1.0
