# generated using pymatgen
data_H6S2N2O3
_symmetry_space_group_name_H-M   'P 1'
_cell_length_a   6.11934987
_cell_length_b   6.11934987
_cell_length_c   9.32735853
_cell_angle_alpha   92.52527945
_cell_angle_beta   87.47472055
_cell_angle_gamma   114.58295366
_symmetry_Int_Tables_number   1
_chemical_formula_structural   H6S2N2O3
_chemical_formula_sum   'H12 S4 N4 O6'
_cell_volume   317.18221563
_cell_formula_units_Z   2
loop_
 _symmetry_equiv_pos_site_id
 _symmetry_equiv_pos_as_xyz
  1  'x, y, z'
loop_
 _atom_site_type_symbol
 _atom_site_label
 _atom_site_symmetry_multiplicity
 _atom_site_fract_x
 _atom_site_fract_y
 _atom_site_fract_z
 _atom_site_occupancy
  N  N0  1  0.70149720  -0.65468214  0.85983904  1.0
  N  N1  1  0.34531786  -0.29850280  0.14016096  1.0
  N  N2  1  1.12020330  0.12020330  0.50000000  1.0
  N  N3  1  0.05036563  0.05036563  -0.00000000  1.0
  O  O4  1  1.31245468  0.41579156  0.74701924  1.0
  O  O5  1  1.41579156  0.31245468  0.25298076  1.0
  O  O6  1  0.52091688  -0.17764035  0.84798454  1.0
  O  O7  1  0.82235965  -0.47908312  0.15201546  1.0
  O  O8  1  1.12754432  0.70334684  0.73764200  1.0
  O  O9  1  1.70334684  0.12754432  0.26235800  1.0
  S  S10  1  0.35640036  -0.32577132  0.73311243  1.0
  S  S11  1  0.67422868  -0.64359964  0.26688757  1.0
  S  S12  1  0.78534675  -0.48587695  0.46447799  1.0
  S  S13  1  0.51412305  -0.21465325  0.53552201  1.0
  H  H14  1  0.94861302  0.10704408  0.48722302  1.0
  H  H15  1  1.10704408  -0.05138698  0.51277698  1.0
  H  H16  1  1.19422390  0.22767809  0.59097143  1.0
  H  H17  1  1.22767809  0.19422390  0.40902857  1.0
  H  H18  1  1.37449107  0.55762181  0.17761713  1.0
  H  H19  1  1.55762181  0.37449107  0.82238287  1.0
  H  H20  1  1.16337058  0.66246094  0.15279771  1.0
  H  H21  1  1.66246094  0.16337058  0.84720229  1.0
  H  H22  1  0.72864956  -0.60187073  0.96770288  1.0
  H  H23  1  0.39812927  -0.27135044  0.03229712  1.0
  H  H24  1  0.85731604  -0.54799509  0.80279783  1.0
  H  H25  1  0.45200491  -0.14268396  0.19720217  1.0
