# generated using pymatgen
data_CdI2
_symmetry_space_group_name_H-M   'P 1'
_cell_length_a   4.32810756
_cell_length_b   4.32810756
_cell_length_c   60.68740689
_cell_angle_alpha   90.00000000
_cell_angle_beta   90.00000000
_cell_angle_gamma   120.00000000
_symmetry_Int_Tables_number   1
_chemical_formula_structural   CdI2
_chemical_formula_sum   'Cd8 I16'
_cell_volume   984.52172188
_cell_formula_units_Z   8
loop_
 _symmetry_equiv_pos_site_id
 _symmetry_equiv_pos_as_xyz
  1  'x, y, z'
loop_
 _atom_site_type_symbol
 _atom_site_label
 _atom_site_symmetry_multiplicity
 _atom_site_fract_x
 _atom_site_fract_y
 _atom_site_fract_z
 _atom_site_occupancy
  Cd  Cd0  1  -0.00000000  -0.00000000  0.03124687  1.0
  Cd  Cd1  1  -0.00000000  -0.00000000  0.15620775  1.0
  Cd  Cd2  1  -0.00000000  -0.00000000  0.40624421  1.0
  Cd  Cd3  1  -0.00000000  -0.00000000  0.53120952  1.0
  Cd  Cd4  1  -0.00000000  -0.00000000  0.78123086  1.0
  Cd  Cd5  1  0.66666667  0.33333333  0.28123523  1.0
  Cd  Cd6  1  0.66666667  0.33333333  0.65623522  1.0
  Cd  Cd7  1  0.66666667  0.33333333  0.90623285  1.0
  I  I8  1  0.00000000  0.00000000  0.30956940  1.0
  I  I9  1  0.00000000  0.00000000  0.68456993  1.0
  I  I10  1  0.00000000  0.00000000  0.93456570  1.0
  I  I11  1  0.66666667  0.33333333  0.05957918  1.0
  I  I12  1  0.66666667  0.33333333  0.18454161  1.0
  I  I13  1  0.66666667  0.33333333  0.43457536  1.0
  I  I14  1  0.66666667  0.33333333  0.55954345  1.0
  I  I15  1  0.66666667  0.33333333  0.80956346  1.0
  I  I16  1  0.33333333  0.66666667  0.00292390  1.0
  I  I17  1  0.33333333  0.66666667  0.12788073  1.0
  I  I18  1  0.33333333  0.66666667  0.25291265  1.0
  I  I19  1  0.33333333  0.66666667  0.37792016  1.0
  I  I20  1  0.33333333  0.66666667  0.50288234  1.0
  I  I21  1  0.33333333  0.66666667  0.62791316  1.0
  I  I22  1  0.33333333  0.66666667  0.75290730  1.0
  I  I23  1  0.33333333  0.66666667  0.87790914  1.0
