# generated using pymatgen
data_Os2C3
_symmetry_space_group_name_H-M   'P 1'
_cell_length_a   10.05355749
_cell_length_b   7.61762694
_cell_length_c   5.11606910
_cell_angle_alpha   90.00000000
_cell_angle_beta   90.00000000
_cell_angle_gamma   90.00000000
_symmetry_Int_Tables_number   1
_chemical_formula_structural   Os2C3
_chemical_formula_sum   'Os16 C24'
_cell_volume   391.81031669
_cell_formula_units_Z   8
loop_
 _symmetry_equiv_pos_site_id
 _symmetry_equiv_pos_as_xyz
  1  'x, y, z'
loop_
 _atom_site_type_symbol
 _atom_site_label
 _atom_site_symmetry_multiplicity
 _atom_site_fract_x
 _atom_site_fract_y
 _atom_site_fract_z
 _atom_site_occupancy
  Os  Os0  1  0.76639296  0.31390762  0.75042809  1.0
  Os  Os1  1  0.73360704  0.18609238  0.25042809  1.0
  Os  Os2  1  0.26639296  0.18609238  0.24957191  1.0
  Os  Os3  1  0.23360704  0.31390762  0.74957191  1.0
  Os  Os4  1  0.23360704  0.68609238  0.24957191  1.0
  Os  Os5  1  0.26639296  0.81390762  0.74957191  1.0
  Os  Os6  1  0.73360704  0.81390762  0.75042809  1.0
  Os  Os7  1  0.76639296  0.68609238  0.25042809  1.0
  Os  Os8  1  0.50000000  0.42457156  0.75000000  1.0
  Os  Os9  1  0.00000000  0.07542844  0.25000000  1.0
  Os  Os10  1  0.50000000  0.57542844  0.25000000  1.0
  Os  Os11  1  0.00000000  0.92457156  0.75000000  1.0
  Os  Os12  1  0.50000000  0.01681541  0.25000000  1.0
  Os  Os13  1  0.00000000  0.48318459  0.75000000  1.0
  Os  Os14  1  0.50000000  0.98318459  0.75000000  1.0
  Os  Os15  1  0.00000000  0.51681541  0.25000000  1.0
  C  C16  1  0.57535039  0.20122835  0.53934660  1.0
  C  C17  1  0.92464961  0.29877165  0.03934660  1.0
  C  C18  1  0.07535039  0.29877165  0.46065340  1.0
  C  C19  1  0.42464961  0.20122835  0.96065340  1.0
  C  C20  1  0.42464961  0.79877165  0.46065340  1.0
  C  C21  1  0.07535039  0.70122835  0.96065340  1.0
  C  C22  1  0.92464961  0.70122835  0.53934660  1.0
  C  C23  1  0.57535039  0.79877165  0.03934660  1.0
  C  C24  1  0.11789820  0.11903702  0.91519872  1.0
  C  C25  1  0.38210180  0.38096298  0.41519872  1.0
  C  C26  1  0.61789820  0.38096298  0.08480128  1.0
  C  C27  1  0.88210180  0.11903702  0.58480128  1.0
  C  C28  1  0.88210180  0.88096298  0.08480128  1.0
  C  C29  1  0.61789820  0.61903702  0.58480128  1.0
  C  C30  1  0.38210180  0.61903702  0.91519872  1.0
  C  C31  1  0.11789820  0.88096298  0.41519872  1.0
  C  C32  1  0.18831905  0.57133906  0.61087473  1.0
  C  C33  1  0.31168095  0.92866094  0.11087473  1.0
  C  C34  1  0.68831905  0.92866094  0.38912527  1.0
  C  C35  1  0.81168095  0.57133906  0.88912527  1.0
  C  C36  1  0.81168095  0.42866094  0.38912527  1.0
  C  C37  1  0.68831905  0.07133906  0.88912527  1.0
  C  C38  1  0.31168095  0.07133906  0.61087473  1.0
  C  C39  1  0.18831905  0.42866094  0.11087473  1.0
