# generated using pymatgen
data_Sr2MnGaO5
_symmetry_space_group_name_H-M   'P 1'
_cell_length_a   8.91636454
_cell_length_b   8.91636454
_cell_length_c   8.91636454
_cell_angle_alpha   52.21614208
_cell_angle_beta   143.11349111
_cell_angle_gamma   144.37615272
_symmetry_Int_Tables_number   1
_chemical_formula_structural   Sr2MnGaO5
_chemical_formula_sum   'Sr4 Mn2 Ga2 O10'
_cell_volume   246.40080616
_cell_formula_units_Z   2
loop_
 _symmetry_equiv_pos_site_id
 _symmetry_equiv_pos_as_xyz
  1  'x, y, z'
loop_
 _atom_site_type_symbol
 _atom_site_label
 _atom_site_symmetry_multiplicity
 _atom_site_fract_x
 _atom_site_fract_y
 _atom_site_fract_z
 _atom_site_occupancy
  Sr  Sr0  1  1.48465918  1.39144290  1.87209159  1.0
  Sr  Sr1  1  0.51935131  0.89144290  1.40678372  1.0
  Sr  Sr2  1  1.48465918  1.11256759  1.59321628  1.0
  Sr  Sr3  1  0.51935131  0.61256759  1.12790841  1.0
  Mn  Mn4  1  0.00597278  0.00597278  0.00000000  1.0
  Mn  Mn5  1  1.00597278  0.50597278  0.50000000  1.0
  Ga  Ga6  1  0.89557922  1.21618291  1.17939631  1.0
  Ga  Ga7  1  0.03678660  0.71618291  0.82060369  1.0
  O  O8  1  1.00226397  1.26120252  0.75402580  1.0
  O  O9  1  0.50717672  0.76120252  0.75893855  1.0
  O  O10  1  1.00226397  1.74823817  1.24106145  1.0
  O  O11  1  0.50717672  1.24823817  1.24597420  1.0
  O  O12  1  0.97639299  0.88236268  1.80659397  1.0
  O  O13  1  1.07576871  1.38236268  1.40596970  1.0
  O  O14  1  0.97639299  0.66979901  1.59403030  1.0
  O  O15  1  1.07576871  1.16979901  1.19340603  1.0
  O  O16  1  0.49336222  0.87063143  1.12273079  1.0
  O  O17  1  0.74790063  1.37063143  0.87726921  1.0
