# generated using pymatgen
data_K(SnAu2)2
_symmetry_space_group_name_H-M   'P 1'
_cell_length_a   7.65759122
_cell_length_b   7.65759122
_cell_length_c   7.65759122
_cell_angle_alpha   107.35103728
_cell_angle_beta   107.35103728
_cell_angle_gamma   113.80026612
_symmetry_Int_Tables_number   1
_chemical_formula_structural   K(SnAu2)2
_chemical_formula_sum   'K2 Sn4 Au8'
_cell_volume   344.17274365
_cell_formula_units_Z   2
loop_
 _symmetry_equiv_pos_site_id
 _symmetry_equiv_pos_as_xyz
  1  'x, y, z'
loop_
 _atom_site_type_symbol
 _atom_site_label
 _atom_site_symmetry_multiplicity
 _atom_site_fract_x
 _atom_site_fract_y
 _atom_site_fract_z
 _atom_site_occupancy
  K  K0  1  0.50000000  0.00000000  0.50000000  1.0
  K  K1  1  0.00000000  0.50000000  0.50000000  1.0
  Sn  Sn2  1  0.39124958  1.10875042  1.00000000  1.0
  Sn  Sn3  1  1.60875042  1.60875042  1.71750085  1.0
  Sn  Sn4  1  0.89124958  0.89124958  0.28249915  1.0
  Sn  Sn5  1  1.10875042  1.39124958  1.00000000  1.0
  Au  Au6  1  0.76384802  1.06754514  1.00014808  1.0
  Au  Au7  1  0.56739706  0.56754514  0.30369712  1.0
  Au  Au8  1  0.43245486  0.73615198  0.99985192  1.0
  Au  Au9  1  0.23630006  0.23615198  0.30369712  1.0
  Au  Au10  1  1.26384802  1.26369994  0.69630288  1.0
  Au  Au11  1  1.06739706  1.76369994  0.99985192  1.0
  Au  Au12  1  0.93245486  0.93260294  0.69630288  1.0
  Au  Au13  1  0.73630006  1.43260294  1.00014808  1.0
