# generated using pymatgen
data_NaZn2HSe2O7
_symmetry_space_group_name_H-M   'P 1'
_cell_length_a   13.51520138
_cell_length_b   6.16606357
_cell_length_c   8.49478604
_cell_angle_alpha   90.00000000
_cell_angle_beta   90.00000000
_cell_angle_gamma   90.00000000
_symmetry_Int_Tables_number   1
_chemical_formula_structural   NaZn2HSe2O7
_chemical_formula_sum   'Na4 Zn8 H4 Se8 O28'
_cell_volume   707.91801406
_cell_formula_units_Z   4
loop_
 _symmetry_equiv_pos_site_id
 _symmetry_equiv_pos_as_xyz
  1  'x, y, z'
loop_
 _atom_site_type_symbol
 _atom_site_label
 _atom_site_symmetry_multiplicity
 _atom_site_fract_x
 _atom_site_fract_y
 _atom_site_fract_z
 _atom_site_occupancy
  Na  Na0  1  0.74950353  0.25000000  0.36962811  1.0
  Na  Na1  1  0.24950353  0.25000000  0.13037189  1.0
  Na  Na2  1  0.25049647  0.75000000  0.63037189  1.0
  Na  Na3  1  0.75049647  0.75000000  0.86962811  1.0
  Zn  Zn4  1  0.50000000  0.00000000  0.50000000  1.0
  Zn  Zn5  1  0.00000000  0.50000000  0.00000000  1.0
  Zn  Zn6  1  0.50000000  0.50000000  0.50000000  1.0
  Zn  Zn7  1  0.00000000  0.00000000  0.00000000  1.0
  Zn  Zn8  1  0.61240785  0.75000000  0.21038226  1.0
  Zn  Zn9  1  0.11240785  0.75000000  0.28961774  1.0
  Zn  Zn10  1  0.38759215  0.25000000  0.78961774  1.0
  Zn  Zn11  1  0.88759215  0.25000000  0.71038226  1.0
  H  H12  1  0.34430679  0.25000000  0.47574947  1.0
  H  H13  1  0.84430679  0.25000000  0.02425053  1.0
  H  H14  1  0.65569321  0.75000000  0.52425053  1.0
  H  H15  1  0.15569321  0.75000000  0.97574947  1.0
  Se  Se16  1  0.52528895  0.25000000  0.11831225  1.0
  Se  Se17  1  0.02528895  0.25000000  0.38168775  1.0
  Se  Se18  1  0.47471105  0.75000000  0.88168775  1.0
  Se  Se19  1  0.97471105  0.75000000  0.61831225  1.0
  Se  Se20  1  0.82920067  0.75000000  0.22409612  1.0
  Se  Se21  1  0.32920067  0.75000000  0.27590388  1.0
  Se  Se22  1  0.17079933  0.25000000  0.77590388  1.0
  Se  Se23  1  0.67079933  0.25000000  0.72409612  1.0
  O  O24  1  0.61089760  0.25000000  0.54029309  1.0
  O  O25  1  0.11089760  0.25000000  0.95970691  1.0
  O  O26  1  0.38910240  0.75000000  0.45970691  1.0
  O  O27  1  0.88910240  0.75000000  0.04029309  1.0
  O  O28  1  0.58979886  0.75000000  0.96806232  1.0
  O  O29  1  0.08979886  0.75000000  0.53193768  1.0
  O  O30  1  0.41020114  0.25000000  0.03193768  1.0
  O  O31  1  0.91020114  0.25000000  0.46806232  1.0
  O  O32  1  0.40395606  0.25000000  0.54013219  1.0
  O  O33  1  0.90395606  0.25000000  0.95986781  1.0
  O  O34  1  0.59604394  0.75000000  0.45986781  1.0
  O  O35  1  0.09604394  0.75000000  0.04013219  1.0
  O  O36  1  0.74498960  0.95695841  0.19901905  1.0
  O  O37  1  0.24498960  0.54304159  0.30098095  1.0
  O  O38  1  0.25501040  0.45695841  0.80098095  1.0
  O  O39  1  0.75501040  0.04304159  0.69901905  1.0
  O  O40  1  0.25501040  0.04304159  0.80098095  1.0
  O  O41  1  0.75501040  0.45695841  0.69901905  1.0
  O  O42  1  0.74498960  0.54304159  0.19901905  1.0
  O  O43  1  0.24498960  0.95695841  0.30098095  1.0
  O  O44  1  0.51661185  0.03068647  0.24607523  1.0
  O  O45  1  0.01661185  0.46931353  0.25392477  1.0
  O  O46  1  0.48338815  0.53068647  0.75392477  1.0
  O  O47  1  0.98338815  0.96931353  0.74607523  1.0
  O  O48  1  0.48338815  0.96931353  0.75392477  1.0
  O  O49  1  0.98338815  0.53068647  0.74607523  1.0
  O  O50  1  0.51661185  0.46931353  0.24607523  1.0
  O  O51  1  0.01661185  0.03068647  0.25392477  1.0
