# generated using pymatgen
data_Cs2H2C2O5
_symmetry_space_group_name_H-M   'P 1'
_cell_length_a   5.98142871
_cell_length_b   5.98142871
_cell_length_c   11.41190134
_cell_angle_alpha   79.02212581
_cell_angle_beta   100.97787419
_cell_angle_gamma   107.35534470
_symmetry_Int_Tables_number   1
_chemical_formula_structural   Cs2H2C2O5
_chemical_formula_sum   'Cs4 H4 C4 O10'
_cell_volume   378.65963754
_cell_formula_units_Z   2
loop_
 _symmetry_equiv_pos_site_id
 _symmetry_equiv_pos_as_xyz
  1  'x, y, z'
loop_
 _atom_site_type_symbol
 _atom_site_label
 _atom_site_symmetry_multiplicity
 _atom_site_fract_x
 _atom_site_fract_y
 _atom_site_fract_z
 _atom_site_occupancy
  Cs  Cs0  1  0.45736960  0.18952849  0.63022815  1.0
  Cs  Cs1  1  0.81047151  0.54263040  0.13022815  1.0
  Cs  Cs2  1  1.18952849  -0.54263040  0.86977185  1.0
  Cs  Cs3  1  1.54263040  -0.18952849  0.36977185  1.0
  H  H4  1  1.84118852  -0.07685610  0.80342897  1.0
  H  H5  1  1.07685610  -0.84118852  0.30342897  1.0
  H  H6  1  0.92314390  0.84118852  0.69657103  1.0
  H  H7  1  0.15881148  0.07685610  0.19657103  1.0
  C  C8  1  0.58107210  0.04177088  0.94767190  1.0
  C  C9  1  0.95822912  0.41892790  0.44767190  1.0
  C  C10  1  1.04177088  -0.41892790  0.55232810  1.0
  C  C11  1  1.41892790  -0.04177088  0.05232810  1.0
  O  O12  1  1.63358068  -0.11960823  0.90942289  1.0
  O  O13  1  1.11960823  -0.63358068  0.40942289  1.0
  O  O14  1  0.88039177  0.63358068  0.59057711  1.0
  O  O15  1  0.36641932  0.11960823  0.09057711  1.0
  O  O16  1  0.64378405  0.26080866  0.90959445  1.0
  O  O17  1  0.73919134  0.35621595  0.40959445  1.0
  O  O18  1  1.26080866  -0.35621595  0.59040555  1.0
  O  O19  1  1.35621595  -0.26080866  0.09040555  1.0
  O  O20  1  0.96476710  0.96476710  0.75000000  1.0
  O  O21  1  0.03523290  0.03523290  0.25000000  1.0
