# generated using pymatgen
data_Ba2Ca5Cu7O16
_symmetry_space_group_name_H-M   'P 1'
_cell_length_a   3.88469665
_cell_length_b   3.88469665
_cell_length_c   24.53417155
_cell_angle_alpha   90.00000000
_cell_angle_beta   90.00000000
_cell_angle_gamma   90.00000000
_symmetry_Int_Tables_number   1
_chemical_formula_structural   Ba2Ca5Cu7O16
_chemical_formula_sum   'Ba2 Ca5 Cu7 O16'
_cell_volume   370.24194598
_cell_formula_units_Z   1
loop_
 _symmetry_equiv_pos_site_id
 _symmetry_equiv_pos_as_xyz
  1  'x, y, z'
loop_
 _atom_site_type_symbol
 _atom_site_label
 _atom_site_symmetry_multiplicity
 _atom_site_fract_x
 _atom_site_fract_y
 _atom_site_fract_z
 _atom_site_occupancy
  Ba  Ba0  1  0.50000000  0.50000000  0.91806789  1.0
  Ba  Ba1  1  0.50000000  0.50000000  0.08193211  1.0
  O  O2  1  0.00000000  0.50000000  0.82255715  1.0
  O  O3  1  0.00000000  0.50000000  0.17744285  1.0
  O  O4  1  0.50000000  0.00000000  0.82255715  1.0
  O  O5  1  0.50000000  0.00000000  0.17744285  1.0
  O  O6  1  0.00000000  0.50000000  0.69440803  1.0
  O  O7  1  0.00000000  0.50000000  0.30559197  1.0
  O  O8  1  0.50000000  0.00000000  0.69440803  1.0
  O  O9  1  0.50000000  0.00000000  0.30559197  1.0
  O  O10  1  0.00000000  0.50000000  0.56484440  1.0
  O  O11  1  0.00000000  0.50000000  0.43515560  1.0
  O  O12  1  0.50000000  0.00000000  0.56484440  1.0
  O  O13  1  0.50000000  0.00000000  0.43515560  1.0
  O  O14  1  0.00000000  0.50000000  0.00000000  1.0
  O  O15  1  0.50000000  0.00000000  0.00000000  1.0
  O  O16  1  0.00000000  0.00000000  0.91827655  1.0
  O  O17  1  0.00000000  0.00000000  0.08172345  1.0
  Cu  Cu18  1  0.00000000  0.00000000  0.83622863  1.0
  Cu  Cu19  1  0.00000000  0.00000000  0.16377137  1.0
  Cu  Cu20  1  0.00000000  0.00000000  0.69556217  1.0
  Cu  Cu21  1  0.00000000  0.00000000  0.30443783  1.0
  Cu  Cu22  1  0.00000000  0.00000000  0.56540281  1.0
  Cu  Cu23  1  0.00000000  0.00000000  0.43459719  1.0
  Cu  Cu24  1  0.00000000  0.00000000  0.00000000  1.0
  Ca  Ca25  1  0.50000000  0.50000000  0.76625012  1.0
  Ca  Ca26  1  0.50000000  0.50000000  0.23374988  1.0
  Ca  Ca27  1  0.50000000  0.50000000  0.63225839  1.0
  Ca  Ca28  1  0.50000000  0.50000000  0.36774161  1.0
  Ca  Ca29  1  0.50000000  0.50000000  0.50000000  1.0
