# generated using pymatgen
data_Sr6AlBi(BO3)6
_symmetry_space_group_name_H-M   'P 1'
_cell_length_a   7.79384546
_cell_length_b   7.79384546
_cell_length_c   7.79384546
_cell_angle_alpha   105.47580732
_cell_angle_beta   105.47580732
_cell_angle_gamma   105.47580732
_symmetry_Int_Tables_number   1
_chemical_formula_structural   Sr6AlBi(BO3)6
_chemical_formula_sum   'Sr6 Al1 Bi1 B6 O18'
_cell_volume   409.56626849
_cell_formula_units_Z   1
loop_
 _symmetry_equiv_pos_site_id
 _symmetry_equiv_pos_as_xyz
  1  'x, y, z'
loop_
 _atom_site_type_symbol
 _atom_site_label
 _atom_site_symmetry_multiplicity
 _atom_site_fract_x
 _atom_site_fract_y
 _atom_site_fract_z
 _atom_site_occupancy
  Sr  Sr0  1  0.76850990  0.66271289  0.15069282  1.0
  Sr  Sr1  1  1.33728711  -0.15069282  0.23149010  1.0
  Sr  Sr2  1  0.84930718  0.23149010  0.33728711  1.0
  Sr  Sr3  1  1.23149010  0.33728711  -0.15069282  1.0
  Sr  Sr4  1  0.66271289  1.15069282  -0.23149010  1.0
  Sr  Sr5  1  1.15069282  0.76850990  -0.33728711  1.0
  Al  Al6  1  0.00000000  0.00000000  0.00000000  1.0
  Bi  Bi7  1  0.50000000  0.50000000  0.50000000  1.0
  B  B8  1  1.55669414  0.80049062  -0.11393799  1.0
  B  B9  1  1.19950938  0.11393799  -0.55669414  1.0
  B  B10  1  1.11393799  -0.55669414  0.19950938  1.0
  B  B11  1  0.44330586  0.19950938  0.11393799  1.0
  B  B12  1  0.80049062  0.88606201  0.55669414  1.0
  B  B13  1  0.88606201  1.55669414  -0.19950938  1.0
  O  O14  1  0.74221522  0.92557296  0.00150207  1.0
  O  O15  1  1.07442704  -0.00150207  -0.74221522  1.0
  O  O16  1  0.99849793  -0.74221522  0.07442704  1.0
  O  O17  1  0.25778478  0.07442704  -0.00150207  1.0
  O  O18  1  0.92557296  1.00150207  -0.25778478  1.0
  O  O19  1  1.00150207  0.74221522  -0.07442704  1.0
  O  O20  1  1.48655812  0.78585344  -0.30465406  1.0
  O  O21  1  1.21414656  0.30465406  -0.48655812  1.0
  O  O22  1  1.30465406  -0.48655812  0.21414656  1.0
  O  O23  1  0.51344188  0.21414656  0.30465406  1.0
  O  O24  1  0.78585344  0.69534594  0.48655812  1.0
  O  O25  1  0.69534594  1.48655812  -0.21414656  1.0
  O  O26  1  0.55796933  0.29981322  0.04020289  1.0
  O  O27  1  0.70018678  0.95979711  0.44203067  1.0
  O  O28  1  0.95979711  1.44203067  -0.29981322  1.0
  O  O29  1  1.44203067  0.70018678  -0.04020289  1.0
  O  O30  1  1.29981322  0.04020289  -0.44203067  1.0
  O  O31  1  1.04020289  -0.44203067  0.29981322  1.0
