# generated using pymatgen
data_Mn2Te3O8
_symmetry_space_group_name_H-M   'P 1'
_cell_length_a   7.04602473
_cell_length_b   7.04602473
_cell_length_c   11.94301664
_cell_angle_alpha   82.53665437
_cell_angle_beta   97.46334563
_cell_angle_gamma   134.35035036
_symmetry_Int_Tables_number   1
_chemical_formula_structural   Mn2Te3O8
_chemical_formula_sum   'Mn4 Te6 O16'
_cell_volume   419.75913956
_cell_formula_units_Z   2
loop_
 _symmetry_equiv_pos_site_id
 _symmetry_equiv_pos_as_xyz
  1  'x, y, z'
loop_
 _atom_site_type_symbol
 _atom_site_label
 _atom_site_symmetry_multiplicity
 _atom_site_fract_x
 _atom_site_fract_y
 _atom_site_fract_z
 _atom_site_occupancy
  Mn  Mn0  1  0.43075799  -0.03279060  0.84967157  1.0
  Mn  Mn1  1  1.03279060  0.56924201  0.34967157  1.0
  Mn  Mn2  1  0.96720940  0.43075799  0.65032843  1.0
  Mn  Mn3  1  0.56924201  0.03279060  0.15032843  1.0
  Te  Te4  1  0.67256259  -0.05532789  0.44686353  1.0
  Te  Te5  1  1.05532789  0.32743741  0.94686353  1.0
  Te  Te6  1  0.94467211  0.67256259  0.05313647  1.0
  Te  Te7  1  0.32743741  0.05532789  0.55313647  1.0
  Te  Te8  1  0.84807490  0.84807490  0.75000000  1.0
  Te  Te9  1  0.15192510  0.15192510  0.25000000  1.0
  O  O10  1  0.75778198  -0.01122597  0.86236591  1.0
  O  O11  1  1.01122597  0.24221802  0.36236591  1.0
  O  O12  1  0.98877403  0.75778198  0.63763409  1.0
  O  O13  1  0.24221802  0.01122597  0.13763409  1.0
  O  O14  1  0.72028391  0.25377129  0.47050380  1.0
  O  O15  1  0.74622871  0.27971609  0.97050380  1.0
  O  O16  1  1.25377129  0.72028391  0.02949620  1.0
  O  O17  1  0.27971609  -0.25377129  0.52949620  1.0
  O  O18  1  0.56115627  0.17412267  0.69159392  1.0
  O  O19  1  0.82587733  0.43884373  0.19159392  1.0
  O  O20  1  1.17412267  0.56115627  0.80840608  1.0
  O  O21  1  0.43884373  -0.17412267  0.30840608  1.0
  O  O22  1  0.14521638  -0.02151572  0.85927795  1.0
  O  O23  1  1.02151572  0.85478362  0.35927795  1.0
  O  O24  1  0.97848428  0.14521638  0.64072205  1.0
  O  O25  1  0.85478362  0.02151572  0.14072205  1.0
