# generated using pymatgen
data_KBiC2(NCl3)2
_symmetry_space_group_name_H-M   'P 1'
_cell_length_a   7.33683080
_cell_length_b   7.33683080
_cell_length_c   7.33683080
_cell_angle_alpha   83.11107055
_cell_angle_beta   83.11107055
_cell_angle_gamma   83.11107055
_symmetry_Int_Tables_number   1
_chemical_formula_structural   KBiC2(NCl3)2
_chemical_formula_sum   'K1 Bi1 C2 N2 Cl6'
_cell_volume   387.01420201
_cell_formula_units_Z   1
loop_
 _symmetry_equiv_pos_site_id
 _symmetry_equiv_pos_as_xyz
  1  'x, y, z'
loop_
 _atom_site_type_symbol
 _atom_site_label
 _atom_site_symmetry_multiplicity
 _atom_site_fract_x
 _atom_site_fract_y
 _atom_site_fract_z
 _atom_site_occupancy
  K  K0  1  1.50000000  0.50000000  0.50000000  1.0
  Bi  Bi1  1  1.00000000  1.00000000  -0.00000000  1.0
  C  C2  1  0.77362502  0.77362502  0.77362502  1.0
  C  C3  1  1.22637498  1.22637498  0.22637498  1.0
  N  N4  1  0.69054383  0.69054383  0.69054383  1.0
  N  N5  1  1.30945617  1.30945617  0.30945617  1.0
  Cl  Cl6  1  1.74967664  0.08442597  0.74967664  1.0
  Cl  Cl7  1  1.74967664  0.74967664  0.08442597  1.0
  Cl  Cl8  1  1.08442597  0.74967664  0.74967664  1.0
  Cl  Cl9  1  1.25032336  0.91557403  0.25032336  1.0
  Cl  Cl10  1  0.91557403  1.25032336  0.25032336  1.0
  Cl  Cl11  1  1.25032336  1.25032336  -0.08442597  1.0
