# generated using pymatgen
data_Tb2Ni2Sn
_symmetry_space_group_name_H-M   'P 1'
_cell_length_a   5.45923990
_cell_length_b   5.45923990
_cell_length_c   5.45923990
_cell_angle_alpha   133.44423678
_cell_angle_beta   117.48375535
_cell_angle_gamma   81.42259638
_symmetry_Int_Tables_number   1
_chemical_formula_structural   Tb2Ni2Sn
_chemical_formula_sum   'Tb2 Ni2 Sn1'
_cell_volume   101.16143875
_cell_formula_units_Z   1
loop_
 _symmetry_equiv_pos_site_id
 _symmetry_equiv_pos_as_xyz
  1  'x, y, z'
loop_
 _atom_site_type_symbol
 _atom_site_label
 _atom_site_symmetry_multiplicity
 _atom_site_fract_x
 _atom_site_fract_y
 _atom_site_fract_z
 _atom_site_occupancy
  Tb  Tb0  1  0.70303815  0.20303815  0.50000000  1.0
  Tb  Tb1  1  1.29696185  0.79696185  0.50000000  1.0
  Ni  Ni2  1  0.28805343  0.50000000  0.78805343  1.0
  Ni  Ni3  1  0.71194657  0.50000000  1.21194657  1.0
  Sn  Sn4  1  0.00000000  0.00000000  0.00000000  1.0
