# generated using pymatgen
data_EuF3
_symmetry_space_group_name_H-M   'P 1'
_cell_length_a   7.06110149
_cell_length_b   7.06110149
_cell_length_c   7.12534547
_cell_angle_alpha   90.00000000
_cell_angle_beta   90.00000000
_cell_angle_gamma   120.00000000
_symmetry_Int_Tables_number   1
_chemical_formula_structural   EuF3
_chemical_formula_sum   'Eu6 F18'
_cell_volume   307.66738845
_cell_formula_units_Z   6
loop_
 _symmetry_equiv_pos_site_id
 _symmetry_equiv_pos_as_xyz
  1  'x, y, z'
loop_
 _atom_site_type_symbol
 _atom_site_label
 _atom_site_symmetry_multiplicity
 _atom_site_fract_x
 _atom_site_fract_y
 _atom_site_fract_z
 _atom_site_occupancy
  Eu  Eu0  1  0.65764426  0.65764426  0.25000000  1.0
  Eu  Eu1  1  0.65764426  0.00000000  0.75000000  1.0
  Eu  Eu2  1  0.00000000  0.65764426  0.75000000  1.0
  Eu  Eu3  1  0.00000000  0.34235574  0.25000000  1.0
  Eu  Eu4  1  0.34235574  0.34235574  0.75000000  1.0
  Eu  Eu5  1  0.34235574  0.00000000  0.25000000  1.0
  F  F6  1  0.93950453  0.63062165  0.07686251  1.0
  F  F7  1  0.93950453  0.30888288  0.57686251  1.0
  F  F8  1  0.63062165  0.93950453  0.42313749  1.0
  F  F9  1  0.63062165  0.69111712  0.92313749  1.0
  F  F10  1  0.69111712  0.63062165  0.57686251  1.0
  F  F11  1  0.69111712  0.06049547  0.07686251  1.0
  F  F12  1  0.36937835  0.06049547  0.57686251  1.0
  F  F13  1  0.36937835  0.30888288  0.07686251  1.0
  F  F14  1  0.06049547  0.69111712  0.42313749  1.0
  F  F15  1  0.06049547  0.36937835  0.92313749  1.0
  F  F16  1  0.30888288  0.93950453  0.92313749  1.0
  F  F17  1  0.30888288  0.36937835  0.42313749  1.0
  F  F18  1  0.33333333  0.66666667  0.19073578  1.0
  F  F19  1  0.33333333  0.66666667  0.69073578  1.0
  F  F20  1  0.66666667  0.33333333  0.30926422  1.0
  F  F21  1  0.66666667  0.33333333  0.80926422  1.0
  F  F22  1  0.00000000  0.00000000  0.25000000  1.0
  F  F23  1  0.00000000  0.00000000  0.75000000  1.0
