# generated using pymatgen
data_EuAl3(PbO4)2
_symmetry_space_group_name_H-M   'P 1'
_cell_length_a   9.61022664
_cell_length_b   9.61022664
_cell_length_c   9.61022664
_cell_angle_alpha   90.00000000
_cell_angle_beta   90.00000000
_cell_angle_gamma   90.00000000
_symmetry_Int_Tables_number   1
_chemical_formula_structural   EuAl3(PbO4)2
_chemical_formula_sum   'Eu4 Al12 Pb8 O32'
_cell_volume   887.56647322
_cell_formula_units_Z   4
loop_
 _symmetry_equiv_pos_site_id
 _symmetry_equiv_pos_as_xyz
  1  'x, y, z'
loop_
 _atom_site_type_symbol
 _atom_site_label
 _atom_site_symmetry_multiplicity
 _atom_site_fract_x
 _atom_site_fract_y
 _atom_site_fract_z
 _atom_site_occupancy
  Eu  Eu0  1  0.25000000  0.75000000  0.25000000  1.0
  Eu  Eu1  1  0.75000000  0.75000000  0.75000000  1.0
  Eu  Eu2  1  0.75000000  0.25000000  0.25000000  1.0
  Eu  Eu3  1  0.25000000  0.25000000  0.75000000  1.0
  Al  Al4  1  0.00000000  0.50000000  0.25000000  1.0
  Al  Al5  1  0.00000000  0.50000000  0.75000000  1.0
  Al  Al6  1  0.75000000  0.50000000  0.00000000  1.0
  Al  Al7  1  0.25000000  0.50000000  0.00000000  1.0
  Al  Al8  1  0.25000000  0.00000000  0.50000000  1.0
  Al  Al9  1  0.75000000  0.00000000  0.50000000  1.0
  Al  Al10  1  0.00000000  0.75000000  0.50000000  1.0
  Al  Al11  1  0.00000000  0.25000000  0.50000000  1.0
  Al  Al12  1  0.50000000  0.25000000  0.00000000  1.0
  Al  Al13  1  0.50000000  0.75000000  0.00000000  1.0
  Al  Al14  1  0.50000000  0.00000000  0.75000000  1.0
  Al  Al15  1  0.50000000  0.00000000  0.25000000  1.0
  Pb  Pb16  1  0.36604289  0.63395711  0.63395711  1.0
  Pb  Pb17  1  0.63395711  0.63395711  0.36604289  1.0
  Pb  Pb18  1  0.63395711  0.36604289  0.63395711  1.0
  Pb  Pb19  1  0.36604289  0.36604289  0.36604289  1.0
  Pb  Pb20  1  0.13395711  0.86604289  0.86604289  1.0
  Pb  Pb21  1  0.86604289  0.86604289  0.13395711  1.0
  Pb  Pb22  1  0.86604289  0.13395711  0.86604289  1.0
  Pb  Pb23  1  0.13395711  0.13395711  0.13395711  1.0
  O  O24  1  0.88926107  0.11073893  0.11073893  1.0
  O  O25  1  0.11073893  0.11073893  0.88926107  1.0
  O  O26  1  0.11073893  0.88926107  0.11073893  1.0
  O  O27  1  0.88926107  0.88926107  0.88926107  1.0
  O  O28  1  0.61073893  0.38926107  0.38926107  1.0
  O  O29  1  0.38926107  0.38926107  0.61073893  1.0
  O  O30  1  0.38926107  0.61073893  0.38926107  1.0
  O  O31  1  0.61073893  0.61073893  0.61073893  1.0
  O  O32  1  0.15743412  0.48761991  0.84256588  1.0
  O  O33  1  0.84256588  0.48761991  0.15743412  1.0
  O  O34  1  0.84256588  0.51238009  0.84256588  1.0
  O  O35  1  0.15743412  0.51238009  0.15743412  1.0
  O  O36  1  0.84256588  0.15743412  0.48761991  1.0
  O  O37  1  0.15743412  0.84256588  0.48761991  1.0
  O  O38  1  0.84256588  0.84256588  0.51238009  1.0
  O  O39  1  0.15743412  0.15743412  0.51238009  1.0
  O  O40  1  0.48761991  0.84256588  0.15743412  1.0
  O  O41  1  0.48761991  0.15743412  0.84256588  1.0
  O  O42  1  0.51238009  0.84256588  0.84256588  1.0
  O  O43  1  0.51238009  0.15743412  0.15743412  1.0
  O  O44  1  0.34256588  0.01238009  0.65743412  1.0
  O  O45  1  0.65743412  0.01238009  0.34256588  1.0
  O  O46  1  0.65743412  0.98761991  0.65743412  1.0
  O  O47  1  0.34256588  0.98761991  0.34256588  1.0
  O  O48  1  0.65743412  0.34256588  0.01238009  1.0
  O  O49  1  0.34256588  0.65743412  0.01238009  1.0
  O  O50  1  0.65743412  0.65743412  0.98761991  1.0
  O  O51  1  0.34256588  0.34256588  0.98761991  1.0
  O  O52  1  0.01238009  0.65743412  0.34256588  1.0
  O  O53  1  0.01238009  0.34256588  0.65743412  1.0
  O  O54  1  0.98761991  0.65743412  0.65743412  1.0
  O  O55  1  0.98761991  0.34256588  0.34256588  1.0
