# generated using pymatgen
data_BiTeCl
_symmetry_space_group_name_H-M   'P 1'
_cell_length_a   4.30007422
_cell_length_b   4.30007422
_cell_length_c   13.69137402
_cell_angle_alpha   90.00000000
_cell_angle_beta   90.00000000
_cell_angle_gamma   120.00000000
_symmetry_Int_Tables_number   1
_chemical_formula_structural   BiTeCl
_chemical_formula_sum   'Bi2 Te2 Cl2'
_cell_volume   219.24493564
_cell_formula_units_Z   2
loop_
 _symmetry_equiv_pos_site_id
 _symmetry_equiv_pos_as_xyz
  1  'x, y, z'
loop_
 _atom_site_type_symbol
 _atom_site_label
 _atom_site_symmetry_multiplicity
 _atom_site_fract_x
 _atom_site_fract_y
 _atom_site_fract_z
 _atom_site_occupancy
  Bi  Bi0  1  0.33333333  0.66666667  0.63363790  1.0
  Bi  Bi1  1  0.66666667  0.33333333  0.13363790  1.0
  Te  Te2  1  0.33333333  0.66666667  0.26222675  1.0
  Te  Te3  1  0.66666667  0.33333333  0.76222675  1.0
  Cl  Cl4  1  0.00000000  0.00000000  0.01233535  1.0
  Cl  Cl5  1  0.00000000  0.00000000  0.51233535  1.0
