# generated using pymatgen
data_Sr2Bi2O5
_symmetry_space_group_name_H-M   'P 1'
_cell_length_a   14.69896511
_cell_length_b   6.23076835
_cell_length_c   7.74272673
_cell_angle_alpha   90.00000000
_cell_angle_beta   90.00000000
_cell_angle_gamma   90.00000000
_symmetry_Int_Tables_number   1
_chemical_formula_structural   Sr2Bi2O5
_chemical_formula_sum   'Sr8 Bi8 O20'
_cell_volume   709.12418228
_cell_formula_units_Z   4
loop_
 _symmetry_equiv_pos_site_id
 _symmetry_equiv_pos_as_xyz
  1  'x, y, z'
loop_
 _atom_site_type_symbol
 _atom_site_label
 _atom_site_symmetry_multiplicity
 _atom_site_fract_x
 _atom_site_fract_y
 _atom_site_fract_z
 _atom_site_occupancy
  Sr  Sr0  1  0.06632191  0.75000000  0.87348748  1.0
  Sr  Sr1  1  0.56632191  0.75000000  0.62651252  1.0
  Sr  Sr2  1  0.93367809  0.25000000  0.12651252  1.0
  Sr  Sr3  1  0.43367809  0.25000000  0.37348748  1.0
  Sr  Sr4  1  0.05186080  0.75000000  0.37651141  1.0
  Sr  Sr5  1  0.55186080  0.75000000  0.12348859  1.0
  Sr  Sr6  1  0.94813920  0.25000000  0.62348859  1.0
  Sr  Sr7  1  0.44813920  0.25000000  0.87651141  1.0
  Bi  Bi8  1  0.31865777  0.75000000  0.61772225  1.0
  Bi  Bi9  1  0.81865777  0.75000000  0.88227775  1.0
  Bi  Bi10  1  0.68134223  0.25000000  0.38227775  1.0
  Bi  Bi11  1  0.18134223  0.25000000  0.11772225  1.0
  Bi  Bi12  1  0.31116088  0.75000000  0.12989485  1.0
  Bi  Bi13  1  0.81116088  0.75000000  0.37010515  1.0
  Bi  Bi14  1  0.68883912  0.25000000  0.87010515  1.0
  Bi  Bi15  1  0.18883912  0.25000000  0.62989485  1.0
  O  O16  1  0.41500789  0.99126951  0.63276686  1.0
  O  O17  1  0.41500789  0.50873049  0.63276686  1.0
  O  O18  1  0.91500789  0.99126951  0.86723314  1.0
  O  O19  1  0.91500789  0.50873049  0.86723314  1.0
  O  O20  1  0.58499211  0.49126951  0.36723314  1.0
  O  O21  1  0.58499211  0.00873049  0.36723314  1.0
  O  O22  1  0.08499211  0.49126951  0.13276686  1.0
  O  O23  1  0.08499211  0.00873049  0.13276686  1.0
  O  O24  1  0.40836531  0.99038775  0.11781911  1.0
  O  O25  1  0.40836531  0.50961225  0.11781911  1.0
  O  O26  1  0.90836531  0.99038775  0.38218089  1.0
  O  O27  1  0.90836531  0.50961225  0.38218089  1.0
  O  O28  1  0.59163469  0.49038775  0.88218089  1.0
  O  O29  1  0.59163469  0.00961225  0.88218089  1.0
  O  O30  1  0.09163469  0.49038775  0.61781911  1.0
  O  O31  1  0.09163469  0.00961225  0.61781911  1.0
  O  O32  1  0.25822281  0.75000000  0.87176271  1.0
  O  O33  1  0.75822281  0.75000000  0.62823729  1.0
  O  O34  1  0.74177719  0.25000000  0.12823729  1.0
  O  O35  1  0.24177719  0.25000000  0.37176271  1.0
