# generated using pymatgen
data_Sm3CuSiS7
_symmetry_space_group_name_H-M   'P 1'
_cell_length_a   10.13604991
_cell_length_b   10.13604991
_cell_length_c   5.80770504
_cell_angle_alpha   90.00000000
_cell_angle_beta   90.00000000
_cell_angle_gamma   120.00000000
_symmetry_Int_Tables_number   1
_chemical_formula_structural   Sm3CuSiS7
_chemical_formula_sum   'Sm6 Si2 Cu2 S14'
_cell_volume   516.74069328
_cell_formula_units_Z   2
loop_
 _symmetry_equiv_pos_site_id
 _symmetry_equiv_pos_as_xyz
  1  'x, y, z'
loop_
 _atom_site_type_symbol
 _atom_site_label
 _atom_site_symmetry_multiplicity
 _atom_site_fract_x
 _atom_site_fract_y
 _atom_site_fract_z
 _atom_site_occupancy
  S  S0  1  0.33333333  0.66666667  0.24886603  1.0
  S  S1  1  0.66666667  0.33333333  0.74886603  1.0
  S  S2  1  0.91266432  0.74934077  0.01490156  1.0
  S  S3  1  0.74934077  0.83667644  0.51490156  1.0
  S  S4  1  0.83667644  0.08733568  0.01490156  1.0
  S  S5  1  0.25065923  0.16332356  0.01490156  1.0
  S  S6  1  0.08733568  0.25065923  0.51490156  1.0
  S  S7  1  0.16332356  0.91266432  0.51490156  1.0
  S  S8  1  0.58726617  0.47610562  0.25738100  1.0
  S  S9  1  0.47610562  0.88883945  0.75738100  1.0
  S  S10  1  0.88883945  0.41273383  0.25738100  1.0
  S  S11  1  0.52389438  0.11116055  0.25738100  1.0
  S  S12  1  0.41273383  0.52389438  0.75738100  1.0
  S  S13  1  0.11116055  0.58726617  0.75738100  1.0
  Si  Si14  1  0.33333333  0.66666667  0.61320676  1.0
  Si  Si15  1  0.66666667  0.33333333  0.11320676  1.0
  Cu  Cu16  1  0.00000000  0.00000000  0.00178235  1.0
  Cu  Cu17  1  0.00000000  0.00000000  0.50178235  1.0
  Sm  Sm18  1  0.23268201  0.87397013  0.03076573  1.0
  Sm  Sm19  1  0.87397013  0.64128813  0.53076573  1.0
  Sm  Sm20  1  0.64128813  0.76731799  0.03076573  1.0
  Sm  Sm21  1  0.12602987  0.35871187  0.03076573  1.0
  Sm  Sm22  1  0.76731799  0.12602987  0.53076573  1.0
  Sm  Sm23  1  0.35871187  0.23268201  0.53076573  1.0
