# generated using pymatgen
data_K2NiP2WO10
_symmetry_space_group_name_H-M   'P 1'
_cell_length_a   9.28554472
_cell_length_b   9.28554472
_cell_length_c   10.76954419
_cell_angle_alpha   90.00000000
_cell_angle_beta   90.00000000
_cell_angle_gamma   90.00000000
_symmetry_Int_Tables_number   1
_chemical_formula_structural   K2NiP2WO10
_chemical_formula_sum   'K8 Ni4 P8 W4 O40'
_cell_volume   928.56454054
_cell_formula_units_Z   4
loop_
 _symmetry_equiv_pos_site_id
 _symmetry_equiv_pos_as_xyz
  1  'x, y, z'
loop_
 _atom_site_type_symbol
 _atom_site_label
 _atom_site_symmetry_multiplicity
 _atom_site_fract_x
 _atom_site_fract_y
 _atom_site_fract_z
 _atom_site_occupancy
  K  K0  1  0.21219378  0.49794027  0.95893653  1.0
  K  K1  1  0.71219378  1.00205973  0.79106347  1.0
  K  K2  1  0.50205973  0.78780622  0.54106347  1.0
  K  K3  1  1.00205973  0.71219378  0.20893653  1.0
  K  K4  1  0.78780622  0.50205973  0.45893653  1.0
  K  K5  1  0.28780622  -0.00205973  0.29106347  1.0
  K  K6  1  0.49794027  0.21219378  0.04106347  1.0
  K  K7  1  -0.00205973  0.28780622  0.70893653  1.0
  Ni  Ni8  1  0.36613128  0.63386872  0.25000000  1.0
  Ni  Ni9  1  0.86613128  0.86613128  0.50000000  1.0
  Ni  Ni10  1  0.63386872  0.36613128  0.75000000  1.0
  Ni  Ni11  1  0.13386872  0.13386872  0.00000000  1.0
  P  P12  1  0.32255861  0.82889863  0.99780678  1.0
  P  P13  1  0.82255861  0.67110137  0.75219322  1.0
  P  P14  1  0.17110137  0.67744139  0.50219322  1.0
  P  P15  1  0.67110137  0.82255861  0.24780678  1.0
  P  P16  1  0.67744139  0.17110137  0.49780678  1.0
  P  P17  1  0.17744139  0.32889863  0.25219322  1.0
  P  P18  1  0.82889863  0.32255861  0.00219322  1.0
  P  P19  1  0.32889863  0.17744139  0.74780678  1.0
  W  W20  1  0.88928028  0.11071972  0.25000000  1.0
  W  W21  1  0.38928028  0.38928028  0.50000000  1.0
  W  W22  1  0.11071972  0.88928028  0.75000000  1.0
  W  W23  1  0.61071972  0.61071972  0.00000000  1.0
  O  O24  1  0.49158267  0.54718041  0.11864584  1.0
  O  O25  1  0.99158267  0.95281959  0.63135416  1.0
  O  O26  1  0.45281959  0.50841733  0.38135416  1.0
  O  O27  1  0.95281959  0.99158267  0.36864584  1.0
  O  O28  1  0.50841733  0.45281959  0.61864584  1.0
  O  O29  1  0.00841733  0.04718041  0.13135416  1.0
  O  O30  1  0.54718041  0.49158267  0.88135416  1.0
  O  O31  1  0.04718041  0.00841733  0.86864584  1.0
  O  O32  1  0.48456807  0.78150713  0.97056676  1.0
  O  O33  1  0.98456807  0.71849287  0.77943324  1.0
  O  O34  1  0.21849287  0.51543193  0.52943324  1.0
  O  O35  1  0.71849287  0.98456807  0.22056676  1.0
  O  O36  1  0.51543193  0.21849287  0.47056676  1.0
  O  O37  1  0.01543193  0.28150713  0.27943324  1.0
  O  O38  1  0.78150713  0.48456807  0.02943324  1.0
  O  O39  1  0.28150713  0.01543193  0.72056676  1.0
  O  O40  1  0.31673360  0.99210039  0.01836789  1.0
  O  O41  1  0.81673360  0.50789961  0.73163211  1.0
  O  O42  1  0.00789961  0.68326640  0.48163211  1.0
  O  O43  1  0.50789961  0.81673360  0.26836789  1.0
  O  O44  1  0.68326640  0.00789961  0.51836789  1.0
  O  O45  1  0.18326640  0.49210039  0.23163211  1.0
  O  O46  1  0.99210039  0.31673360  0.98163211  1.0
  O  O47  1  0.49210039  0.18326640  0.76836789  1.0
  O  O48  1  0.26181878  0.74380592  0.10941129  1.0
  O  O49  1  0.76181878  0.75619408  0.64058871  1.0
  O  O50  1  0.25619408  0.73818122  0.39058871  1.0
  O  O51  1  0.75619408  0.76181878  0.35941129  1.0
  O  O52  1  0.73818122  0.25619408  0.60941129  1.0
  O  O53  1  0.23818122  0.24380592  0.14058871  1.0
  O  O54  1  0.74380592  0.26181878  0.89058871  1.0
  O  O55  1  0.24380592  0.23818122  0.85941129  1.0
  O  O56  1  0.23774327  0.78016962  0.87880255  1.0
  O  O57  1  0.73774327  0.71983038  0.87119745  1.0
  O  O58  1  0.21983038  0.76225673  0.62119745  1.0
  O  O59  1  0.71983038  0.73774327  0.12880255  1.0
  O  O60  1  0.76225673  0.21983038  0.37880255  1.0
  O  O61  1  0.26225673  0.28016962  0.37119745  1.0
  O  O62  1  0.78016962  0.23774327  0.12119745  1.0
  O  O63  1  0.28016962  0.26225673  0.62880255  1.0
