# generated using pymatgen
data_H2W
_symmetry_space_group_name_H-M   'P 1'
_cell_length_a   5.06662664
_cell_length_b   3.11096355
_cell_length_c   5.34135296
_cell_angle_alpha   90.00000000
_cell_angle_beta   90.00000000
_cell_angle_gamma   90.00000000
_symmetry_Int_Tables_number   1
_chemical_formula_structural   H2W
_chemical_formula_sum   'H8 W4'
_cell_volume   84.19089045
_cell_formula_units_Z   4
loop_
 _symmetry_equiv_pos_site_id
 _symmetry_equiv_pos_as_xyz
  1  'x, y, z'
loop_
 _atom_site_type_symbol
 _atom_site_label
 _atom_site_symmetry_multiplicity
 _atom_site_fract_x
 _atom_site_fract_y
 _atom_site_fract_z
 _atom_site_occupancy
  H  H0  1  0.88946875  0.25000000  0.07460219  1.0
  H  H1  1  0.38946875  0.25000000  0.42539781  1.0
  H  H2  1  0.11053125  0.75000000  0.92539781  1.0
  H  H3  1  0.61053125  0.75000000  0.57460219  1.0
  H  H4  1  1.02816910  0.25000000  0.66575993  1.0
  H  H5  1  0.52816910  0.25000000  0.83424007  1.0
  H  H6  1  -0.02816910  0.75000000  0.33424007  1.0
  H  H7  1  0.47183090  0.75000000  0.16575993  1.0
  W  W8  1  0.72837345  0.75000000  0.91468247  1.0
  W  W9  1  0.22837345  0.75000000  0.58531753  1.0
  W  W10  1  0.27162655  0.25000000  0.08531753  1.0
  W  W11  1  0.77162655  0.25000000  0.41468247  1.0
