# generated using pymatgen
data_ZnS
_symmetry_space_group_name_H-M   'P 1'
_cell_length_a   3.84963553
_cell_length_b   3.84963553
_cell_length_c   75.51942280
_cell_angle_alpha   90.00000000
_cell_angle_beta   90.00000000
_cell_angle_gamma   120.00000000
_symmetry_Int_Tables_number   1
_chemical_formula_structural   ZnS
_chemical_formula_sum   'Zn24 S24'
_cell_volume   969.23373402
_cell_formula_units_Z   24
loop_
 _symmetry_equiv_pos_site_id
 _symmetry_equiv_pos_as_xyz
  1  'x, y, z'
loop_
 _atom_site_type_symbol
 _atom_site_label
 _atom_site_symmetry_multiplicity
 _atom_site_fract_x
 _atom_site_fract_y
 _atom_site_fract_z
 _atom_site_occupancy
  Zn  Zn0  1  0.00000000  0.00000000  0.01042949  1.0
  Zn  Zn1  1  -0.00000000  -0.00000000  0.13542549  1.0
  Zn  Zn2  1  -0.00000000  -0.00000000  0.30209980  1.0
  Zn  Zn3  1  -0.00000000  -0.00000000  0.42707002  1.0
  Zn  Zn4  1  -0.00000000  -0.00000000  0.51045991  1.0
  Zn  Zn5  1  0.00000000  0.00000000  0.63542916  1.0
  Zn  Zn6  1  -0.00000000  -0.00000000  0.76042973  1.0
  Zn  Zn7  1  -0.00000000  -0.00000000  0.88542975  1.0
  Zn  Zn8  1  0.66666667  0.33333333  0.09376619  1.0
  Zn  Zn9  1  0.66666667  0.33333333  0.21876218  1.0
  Zn  Zn10  1  0.66666667  0.33333333  0.34376156  1.0
  Zn  Zn11  1  0.66666667  0.33333333  0.46876193  1.0
  Zn  Zn12  1  0.66666667  0.33333333  0.59373604  1.0
  Zn  Zn13  1  0.66666667  0.33333333  0.67712159  1.0
  Zn  Zn14  1  0.66666667  0.33333333  0.84373820  1.0
  Zn  Zn15  1  0.66666667  0.33333333  0.92712326  1.0
  Zn  Zn16  1  0.33333333  0.66666667  0.05212751  1.0
  Zn  Zn17  1  0.33333333  0.66666667  0.17706922  1.0
  Zn  Zn18  1  0.33333333  0.66666667  0.26046117  1.0
  Zn  Zn19  1  0.33333333  0.66666667  0.38542562  1.0
  Zn  Zn20  1  0.33333333  0.66666667  0.55209559  1.0
  Zn  Zn21  1  0.33333333  0.66666667  0.71873854  1.0
  Zn  Zn22  1  0.33333333  0.66666667  0.80212200  1.0
  Zn  Zn23  1  0.33333333  0.66666667  0.96873890  1.0
  S  S24  1  -0.00000000  -0.00000000  0.04170981  1.0
  S  S25  1  -0.00000000  -0.00000000  0.16665819  1.0
  S  S26  1  0.00000000  0.00000000  0.33333805  1.0
  S  S27  1  -0.00000000  -0.00000000  0.45829598  1.0
  S  S28  1  -0.00000000  -0.00000000  0.54168058  1.0
  S  S29  1  -0.00000000  -0.00000000  0.66670807  1.0
  S  S30  1  -0.00000000  -0.00000000  0.79170874  1.0
  S  S31  1  0.00000000  0.00000000  0.91670864  1.0
  S  S32  1  0.66666667  0.33333333  0.12500359  1.0
  S  S33  1  0.66666667  0.33333333  0.25004354  1.0
  S  S34  1  0.66666667  0.33333333  0.37500104  1.0
  S  S35  1  0.66666667  0.33333333  0.50004335  1.0
  S  S36  1  0.66666667  0.33333333  0.62496177  1.0
  S  S37  1  0.66666667  0.33333333  0.70833752  1.0
  S  S38  1  0.66666667  0.33333333  0.87496188  1.0
  S  S39  1  0.66666667  0.33333333  0.95833913  1.0
  S  S40  1  0.33333333  0.66666667  -0.00003752  1.0
  S  S41  1  0.33333333  0.66666667  0.08335043  1.0
  S  S42  1  0.33333333  0.66666667  0.20829485  1.0
  S  S43  1  0.33333333  0.66666667  0.29168316  1.0
  S  S44  1  0.33333333  0.66666667  0.41665870  1.0
  S  S45  1  0.33333333  0.66666667  0.58332709  1.0
  S  S46  1  0.33333333  0.66666667  0.74996252  1.0
  S  S47  1  0.33333333  0.66666667  0.83333802  1.0
