# generated using pymatgen
data_La2TeI2
_symmetry_space_group_name_H-M   'P 1'
_cell_length_a   11.97916025
_cell_length_b   11.97916025
_cell_length_c   11.97916025
_cell_angle_alpha   21.93127280
_cell_angle_beta   21.93127280
_cell_angle_gamma   21.93127280
_symmetry_Int_Tables_number   1
_chemical_formula_structural   La2TeI2
_chemical_formula_sum   'La2 Te1 I2'
_cell_volume   210.20628944
_cell_formula_units_Z   1
loop_
 _symmetry_equiv_pos_site_id
 _symmetry_equiv_pos_as_xyz
  1  'x, y, z'
loop_
 _atom_site_type_symbol
 _atom_site_label
 _atom_site_symmetry_multiplicity
 _atom_site_fract_x
 _atom_site_fract_y
 _atom_site_fract_z
 _atom_site_occupancy
  La  La0  1  1.61626054  0.61626054  0.61626054  1.0
  La  La1  1  1.38373946  0.38373946  0.38373946  1.0
  Te  Te2  1  0.00000000  0.00000000  0.00000000  1.0
  I  I3  1  0.77476903  0.77476903  0.77476903  1.0
  I  I4  1  1.22523097  1.22523097  0.22523097  1.0
