# generated using pymatgen
data_Mg8BPt4
_symmetry_space_group_name_H-M   'P 1'
_cell_length_a   8.70865169
_cell_length_b   8.70865169
_cell_length_c   8.70865169
_cell_angle_alpha   60.00000000
_cell_angle_beta   60.00000000
_cell_angle_gamma   60.00000000
_symmetry_Int_Tables_number   1
_chemical_formula_structural   Mg8BPt4
_chemical_formula_sum   'Mg16 B2 Pt8'
_cell_volume   467.02245776
_cell_formula_units_Z   2
loop_
 _symmetry_equiv_pos_site_id
 _symmetry_equiv_pos_as_xyz
  1  'x, y, z'
loop_
 _atom_site_type_symbol
 _atom_site_label
 _atom_site_symmetry_multiplicity
 _atom_site_fract_x
 _atom_site_fract_y
 _atom_site_fract_z
 _atom_site_occupancy
  Mg  Mg0  1  0.62500000  0.12500000  0.12500000  1.0
  Mg  Mg1  1  0.12500000  0.62500000  0.12500000  1.0
  Mg  Mg2  1  1.12500000  0.12500000  0.62500000  1.0
  Mg  Mg3  1  0.12500000  0.12500000  0.12500000  1.0
  Mg  Mg4  1  -0.30059960  0.69940040  0.30059960  1.0
  Mg  Mg5  1  0.30059960  1.30059960  -0.30059960  1.0
  Mg  Mg6  1  0.69940040  0.30059960  0.69940040  1.0
  Mg  Mg7  1  0.30059960  0.69940040  0.30059960  1.0
  Mg  Mg8  1  0.30059960  0.69940040  -0.30059960  1.0
  Mg  Mg9  1  -0.30059960  0.30059960  0.30059960  1.0
  Mg  Mg10  1  0.55059960  0.55059960  -0.05059960  1.0
  Mg  Mg11  1  0.94940040  0.94940040  -0.44940040  1.0
  Mg  Mg12  1  0.55059960  -0.05059960  0.55059960  1.0
  Mg  Mg13  1  0.94940040  -0.44940040  0.94940040  1.0
  Mg  Mg14  1  -0.05059960  0.55059960  0.55059960  1.0
  Mg  Mg15  1  0.55059960  0.94940040  -0.05059960  1.0
  B  B16  1  0.25000000  0.25000000  0.25000000  1.0
  B  B17  1  0.00000000  1.00000000  -0.00000000  1.0
  Pt  Pt18  1  -0.04732997  0.34910999  0.34910999  1.0
  Pt  Pt19  1  0.34910999  -0.04732997  0.34910999  1.0
  Pt  Pt20  1  0.34910999  0.34910999  -0.04732997  1.0
  Pt  Pt21  1  0.34910999  0.34910999  0.34910999  1.0
  Pt  Pt22  1  0.29732997  0.90089001  -0.09910999  1.0
  Pt  Pt23  1  0.90089001  0.29732997  0.90089001  1.0
  Pt  Pt24  1  -0.09910999  0.90089001  0.29732997  1.0
  Pt  Pt25  1  0.90089001  -0.09910999  0.90089001  1.0
