# generated using pymatgen
data_KC2IN2
_symmetry_space_group_name_H-M   'P 1'
_cell_length_a   4.46217592
_cell_length_b   4.46217592
_cell_length_c   9.37267744
_cell_angle_alpha   92.71131352
_cell_angle_beta   87.28868648
_cell_angle_gamma   117.91032261
_symmetry_Int_Tables_number   1
_chemical_formula_structural   KC2IN2
_chemical_formula_sum   'K1 C2 I1 N2'
_cell_volume   164.66062617
_cell_formula_units_Z   1
loop_
 _symmetry_equiv_pos_site_id
 _symmetry_equiv_pos_as_xyz
  1  'x, y, z'
loop_
 _atom_site_type_symbol
 _atom_site_label
 _atom_site_symmetry_multiplicity
 _atom_site_fract_x
 _atom_site_fract_y
 _atom_site_fract_z
 _atom_site_occupancy
  K  K0  1  0.50000000  -0.50000000  0.00000000  1.0
  C  C1  1  0.89436941  -0.89436941  0.73228307  1.0
  C  C2  1  0.10563059  -0.10563059  0.26771693  1.0
  I  I3  1  -0.00000000  0.00000000  0.50000000  1.0
  N  N4  1  0.84364558  -0.84364558  0.85276919  1.0
  N  N5  1  0.15635442  -0.15635442  0.14723081  1.0
