# generated using pymatgen
data_YBO3
_symmetry_space_group_name_H-M   'P 1'
_cell_length_a   7.07255959
_cell_length_b   7.07255959
_cell_length_c   9.35412879
_cell_angle_alpha   68.32162718
_cell_angle_beta   111.67837282
_cell_angle_gamma   119.54880574
_symmetry_Int_Tables_number   1
_chemical_formula_structural   YBO3
_chemical_formula_sum   'Y6 B6 O18'
_cell_volume   367.97286479
_cell_formula_units_Z   6
loop_
 _symmetry_equiv_pos_site_id
 _symmetry_equiv_pos_as_xyz
  1  'x, y, z'
loop_
 _atom_site_type_symbol
 _atom_site_label
 _atom_site_symmetry_multiplicity
 _atom_site_fract_x
 _atom_site_fract_y
 _atom_site_fract_z
 _atom_site_occupancy
  Y  Y0  1  0.70071715  -0.15187651  0.50147421  1.0
  Y  Y1  1  1.15187651  0.29928285  0.00147421  1.0
  Y  Y2  1  0.84812349  -0.29928285  0.99852579  1.0
  Y  Y3  1  1.29928285  0.15187651  0.49852579  1.0
  Y  Y4  1  1.50000000  -0.00000000  -0.00000000  1.0
  Y  Y5  1  1.00000000  -0.50000000  0.50000000  1.0
  B  B6  1  1.70429280  0.08980085  0.73332046  1.0
  B  B7  1  0.91019915  -0.70429280  0.23332046  1.0
  B  B8  1  1.08980085  0.70429280  0.76667954  1.0
  B  B9  1  0.29570720  -0.08980085  0.26667954  1.0
  B  B10  1  1.45171124  0.45171124  0.75000000  1.0
  B  B11  1  0.54828876  -0.45171124  0.25000000  1.0
  O  O12  1  1.84940235  0.04135409  0.87283517  1.0
  O  O13  1  0.95864591  -0.84940235  0.37283517  1.0
  O  O14  1  1.04135409  0.84940235  0.62716483  1.0
  O  O15  1  0.15059765  -0.04135409  0.12716483  1.0
  O  O16  1  1.73961443  0.14355341  0.58424933  1.0
  O  O17  1  0.85644659  -0.73961443  0.08424933  1.0
  O  O18  1  1.14355341  0.73961443  0.91575067  1.0
  O  O19  1  0.26038557  -0.14355341  0.41575067  1.0
  O  O20  1  1.51187574  0.08364729  0.74363236  1.0
  O  O21  1  0.91635271  -0.51187574  0.24363236  1.0
  O  O22  1  1.08364729  0.51187574  0.75636764  1.0
  O  O23  1  0.48812426  -0.08364729  0.25636764  1.0
  O  O24  1  1.41083415  0.31112478  0.89630136  1.0
  O  O25  1  0.68887522  -0.41083415  0.39630136  1.0
  O  O26  1  1.31112478  0.41083415  0.60369864  1.0
  O  O27  1  0.58916585  -0.31112478  0.10369864  1.0
  O  O28  1  0.64608109  -0.35391891  0.75000000  1.0
  O  O29  1  1.35391891  0.35391891  0.25000000  1.0
