# generated using pymatgen
data_Si3W5
_symmetry_space_group_name_H-M   'P 1'
_cell_length_a   7.27628419
_cell_length_b   7.27628419
_cell_length_c   7.27628419
_cell_angle_alpha   96.71559126
_cell_angle_beta   96.71559126
_cell_angle_gamma   140.00655824
_symmetry_Int_Tables_number   1
_chemical_formula_structural   Si3W5
_chemical_formula_sum   'Si6 W10'
_cell_volume   232.66554155
_cell_formula_units_Z   2
loop_
 _symmetry_equiv_pos_site_id
 _symmetry_equiv_pos_as_xyz
  1  'x, y, z'
loop_
 _atom_site_type_symbol
 _atom_site_label
 _atom_site_symmetry_multiplicity
 _atom_site_fract_x
 _atom_site_fract_y
 _atom_site_fract_z
 _atom_site_occupancy
  Si  Si0  1  0.83195648  0.33195648  1.16391296  1.0
  Si  Si1  1  0.66804352  0.83195648  0.50000000  1.0
  Si  Si2  1  1.33195648  1.16804352  1.50000000  1.0
  Si  Si3  1  0.16804352  0.66804352  0.83608704  1.0
  Si  Si4  1  0.25000000  0.25000000  0.00000000  1.0
  Si  Si5  1  0.75000000  0.75000000  0.00000000  1.0
  W  W6  1  0.27605220  0.42471522  0.70076741  1.0
  W  W7  1  1.22394780  0.92471522  1.14866302  1.0
  W  W8  1  0.92471522  0.77605220  1.70076741  1.0
  W  W9  1  0.57528478  1.27605220  0.85133698  1.0
  W  W10  1  0.77605220  1.07528478  0.85133698  1.0
  W  W11  1  0.72394780  0.57528478  1.29923259  1.0
  W  W12  1  1.42471522  0.72394780  1.14866302  1.0
  W  W13  1  0.07528478  0.22394780  0.29923259  1.0
  W  W14  1  0.75000000  1.25000000  0.50000000  1.0
  W  W15  1  0.25000000  0.75000000  0.50000000  1.0
