# generated using pymatgen
data_Y5CoBi2
_symmetry_space_group_name_H-M   'P 1'
_cell_length_a   12.40390445
_cell_length_b   8.88162481
_cell_length_c   8.02586868
_cell_angle_alpha   90.00000000
_cell_angle_beta   90.00000000
_cell_angle_gamma   90.00000000
_symmetry_Int_Tables_number   1
_chemical_formula_structural   Y5CoBi2
_chemical_formula_sum   'Y20 Co4 Bi8'
_cell_volume   884.18447489
_cell_formula_units_Z   4
loop_
 _symmetry_equiv_pos_site_id
 _symmetry_equiv_pos_as_xyz
  1  'x, y, z'
loop_
 _atom_site_type_symbol
 _atom_site_label
 _atom_site_symmetry_multiplicity
 _atom_site_fract_x
 _atom_site_fract_y
 _atom_site_fract_z
 _atom_site_occupancy
  Y  Y0  1  0.93620985  0.96386969  0.17551396  1.0
  Y  Y1  1  0.93620985  0.53613031  0.17551396  1.0
  Y  Y2  1  0.43620985  0.96386969  0.32448604  1.0
  Y  Y3  1  0.43620985  0.53613031  0.32448604  1.0
  Y  Y4  1  0.06379015  0.46386969  0.82448604  1.0
  Y  Y5  1  0.06379015  0.03613031  0.82448604  1.0
  Y  Y6  1  0.56379015  0.46386969  0.67551396  1.0
  Y  Y7  1  0.56379015  0.03613031  0.67551396  1.0
  Y  Y8  1  0.99753172  0.25000000  0.45107090  1.0
  Y  Y9  1  0.49753172  0.25000000  0.04892910  1.0
  Y  Y10  1  0.00246828  0.75000000  0.54892910  1.0
  Y  Y11  1  0.50246828  0.75000000  0.95107090  1.0
  Y  Y12  1  0.81046595  0.25000000  0.88105660  1.0
  Y  Y13  1  0.31046595  0.25000000  0.61894340  1.0
  Y  Y14  1  0.18953405  0.75000000  0.11894340  1.0
  Y  Y15  1  0.68953405  0.75000000  0.38105660  1.0
  Y  Y16  1  0.69960517  0.25000000  0.34704524  1.0
  Y  Y17  1  0.19960517  0.25000000  0.15295476  1.0
  Y  Y18  1  0.30039483  0.75000000  0.65295476  1.0
  Y  Y19  1  0.80039483  0.75000000  0.84704524  1.0
  Co  Co20  1  0.99119824  0.25000000  0.06539465  1.0
  Co  Co21  1  0.49119824  0.25000000  0.43460535  1.0
  Co  Co22  1  0.00880176  0.75000000  0.93460535  1.0
  Co  Co23  1  0.50880176  0.75000000  0.56539465  1.0
  Bi  Bi24  1  0.67342792  0.50840011  0.07002275  1.0
  Bi  Bi25  1  0.67342792  -0.00840011  0.07002275  1.0
  Bi  Bi26  1  0.17342792  0.50840011  0.42997725  1.0
  Bi  Bi27  1  0.17342792  -0.00840011  0.42997725  1.0
  Bi  Bi28  1  0.32657208  1.00840011  0.92997725  1.0
  Bi  Bi29  1  0.32657208  0.49159989  0.92997725  1.0
  Bi  Bi30  1  0.82657208  1.00840011  0.57002275  1.0
  Bi  Bi31  1  0.82657208  0.49159989  0.57002275  1.0
