# generated using pymatgen
data_Ag2Te2O7
_symmetry_space_group_name_H-M   'P 1'
_cell_length_a   7.57631012
_cell_length_b   7.57631012
_cell_length_c   7.57631012
_cell_angle_alpha   120.27814560
_cell_angle_beta   89.83368750
_cell_angle_gamma   119.91432310
_symmetry_Int_Tables_number   1
_chemical_formula_structural   Ag2Te2O7
_chemical_formula_sum   'Ag4 Te4 O14'
_cell_volume   307.05670193
_cell_formula_units_Z   2
loop_
 _symmetry_equiv_pos_site_id
 _symmetry_equiv_pos_as_xyz
  1  'x, y, z'
loop_
 _atom_site_type_symbol
 _atom_site_label
 _atom_site_symmetry_multiplicity
 _atom_site_fract_x
 _atom_site_fract_y
 _atom_site_fract_z
 _atom_site_occupancy
  Ag  Ag0  1  0.50000000  1.00000000  1.00000000  1.0
  Ag  Ag1  1  0.50000000  0.50000000  0.50000000  1.0
  Ag  Ag2  1  0.50000000  0.00000000  0.50000000  1.0
  Ag  Ag3  1  0.00000000  -0.00000000  -0.00000000  1.0
  Te  Te4  1  1.00000000  1.50000000  1.00000000  1.0
  Te  Te5  1  1.00000000  1.00000000  0.50000000  1.0
  Te  Te6  1  -0.00000000  0.50000000  0.50000000  1.0
  Te  Te7  1  0.50000000  0.50000000  1.00000000  1.0
  O  O8  1  1.31950044  1.64679543  1.08578065  1.0
  O  O9  1  0.93898522  0.76628021  1.58578065  1.0
  O  O10  1  0.68049956  0.76628021  1.32729499  1.0
  O  O11  1  1.06101478  1.64679543  0.82729499  1.0
  O  O12  1  1.31950044  1.23371979  0.67270501  1.0
  O  O13  1  0.93898522  0.35320457  1.17270501  1.0
  O  O14  1  0.68049956  0.35320457  0.91421935  1.0
  O  O15  1  1.06101478  1.23371979  0.41421935  1.0
  O  O16  1  1.65420966  0.73468908  0.91952058  1.0
  O  O17  1  1.68483150  1.26531092  1.41952058  1.0
  O  O18  1  0.34579034  0.26531092  0.08047942  1.0
  O  O19  1  0.31516850  0.73468908  0.58047942  1.0
  O  O20  1  1.09910969  0.84910969  0.25000000  1.0
  O  O21  1  0.90089031  0.15089031  0.75000000  1.0
