# generated using pymatgen
data_KBe2BO3F2
_symmetry_space_group_name_H-M   'P 1'
_cell_length_a   6.99409128
_cell_length_b   6.99409128
_cell_length_c   6.99409128
_cell_angle_alpha   37.14034592
_cell_angle_beta   37.14034592
_cell_angle_gamma   37.14034592
_symmetry_Int_Tables_number   1
_chemical_formula_structural   KBe2BO3F2
_chemical_formula_sum   'K1 Be2 B1 O3 F2'
_cell_volume   111.77927621
_cell_formula_units_Z   1
loop_
 _symmetry_equiv_pos_site_id
 _symmetry_equiv_pos_as_xyz
  1  'x, y, z'
loop_
 _atom_site_type_symbol
 _atom_site_label
 _atom_site_symmetry_multiplicity
 _atom_site_fract_x
 _atom_site_fract_y
 _atom_site_fract_z
 _atom_site_occupancy
  K  K0  1  1.50000000  0.50000000  0.50000000  1.0
  Be  Be1  1  0.69632104  0.69632104  0.69632104  1.0
  Be  Be2  1  1.30367896  1.30367896  0.30367896  1.0
  B  B3  1  0.00000000  0.00000000  0.00000000  1.0
  O  O4  1  0.69092794  -0.00000000  -0.69092794  1.0
  O  O5  1  -0.00000000  0.30907206  -0.30907206  1.0
  O  O6  1  0.30907206  -0.30907206  -0.00000000  1.0
  F  F7  1  0.77555362  0.77555362  0.77555362  1.0
  F  F8  1  1.22444638  1.22444638  0.22444638  1.0
