# generated using pymatgen
data_Li10B14Cl2O25
_symmetry_space_group_name_H-M   'P 1'
_cell_length_a   8.63350634
_cell_length_b   8.63350634
_cell_length_c   8.63350634
_cell_angle_alpha   60.00000000
_cell_angle_beta   60.00000000
_cell_angle_gamma   60.00000000
_symmetry_Int_Tables_number   1
_chemical_formula_structural   Li10B14Cl2O25
_chemical_formula_sum   'Li10 B14 Cl2 O25'
_cell_volume   455.03692394
_cell_formula_units_Z   1
loop_
 _symmetry_equiv_pos_site_id
 _symmetry_equiv_pos_as_xyz
  1  'x, y, z'
loop_
 _atom_site_type_symbol
 _atom_site_label
 _atom_site_symmetry_multiplicity
 _atom_site_fract_x
 _atom_site_fract_y
 _atom_site_fract_z
 _atom_site_occupancy
  Li  Li0  1  -0.79300060  0.79300060  0.79300060  1.0
  Li  Li1  1  -0.20699940  0.20699940  0.79300060  1.0
  Li  Li2  1  0.20699940  -0.20699940  0.20699940  1.0
  Li  Li3  1  -0.20699940  0.79300060  0.20699940  1.0
  Li  Li4  1  0.20699940  1.20699940  -0.20699940  1.0
  Li  Li5  1  -0.20699940  0.20699940  0.20699940  1.0
  Li  Li6  1  -0.38435292  0.61564708  0.61564708  1.0
  Li  Li7  1  1.15305875  0.61564708  -0.38435292  1.0
  Li  Li8  1  -0.38435292  0.61564708  1.15305875  1.0
  Li  Li9  1  0.61564708  1.15305875  -0.38435292  1.0
  B  B10  1  0.00061345  0.49938655  0.49938655  1.0
  B  B11  1  0.49938655  0.00061345  0.49938655  1.0
  B  B12  1  0.00061345  0.49938655  0.00061345  1.0
  B  B13  1  0.49938655  0.49938655  0.00061345  1.0
  B  B14  1  0.00061345  0.00061345  0.49938655  1.0
  B  B15  1  0.49938655  0.00061345  0.00061345  1.0
  B  B16  1  0.83102409  0.83102409  -0.16897591  1.0
  B  B17  1  0.50692772  0.83102409  -0.16897591  1.0
  B  B18  1  0.83102409  0.83102409  -0.49307228  1.0
  B  B19  1  0.83102409  0.50692772  -0.16897591  1.0
  B  B20  1  0.35090217  1.35090217  0.35090217  1.0
  B  B21  1  -0.05270651  0.35090217  0.35090217  1.0
  B  B22  1  0.35090217  1.35090217  -0.05270651  1.0
  B  B23  1  0.35090217  -0.05270651  0.35090217  1.0
  Cl  Cl24  1  0.00000000  0.00000000  0.00000000  1.0
  Cl  Cl25  1  -0.50000000  0.50000000  0.50000000  1.0
  O  O26  1  0.75000000  0.75000000  -0.25000000  1.0
  O  O27  1  -0.31358646  0.85175645  1.00817474  1.0
  O  O28  1  0.45365528  1.00817474  -0.14824355  1.0
  O  O29  1  1.00817474  0.68641354  -0.14824355  1.0
  O  O30  1  -0.54634472  0.85175645  0.68641354  1.0
  O  O31  1  0.85175645  1.00817474  -0.31358646  1.0
  O  O32  1  -0.54634472  0.68641354  1.00817474  1.0
  O  O33  1  -0.14824355  0.68641354  0.45365528  1.0
  O  O34  1  1.00817474  0.45365528  -0.31358646  1.0
  O  O35  1  0.68641354  1.00817474  -0.54634472  1.0
  O  O36  1  -0.14824355  0.45365528  1.00817474  1.0
  O  O37  1  1.00817474  0.85175645  -0.54634472  1.0
  O  O38  1  -0.31358646  0.45365528  0.85175645  1.0
  O  O39  1  0.35665292  1.18880444  0.50871085  1.0
  O  O40  1  -0.05416821  0.50871085  0.18880444  1.0
  O  O41  1  0.50871085  1.35665292  0.18880444  1.0
  O  O42  1  -0.05416821  0.18880444  0.35665292  1.0
  O  O43  1  0.18880444  1.50871085  0.35665292  1.0
  O  O44  1  -0.05416821  0.35665292  0.50871085  1.0
  O  O45  1  0.18880444  1.35665292  -0.05416821  1.0
  O  O46  1  0.50871085  -0.05416821  0.35665292  1.0
  O  O47  1  0.35665292  1.50871085  -0.05416821  1.0
  O  O48  1  0.18880444  -0.05416821  0.50871085  1.0
  O  O49  1  0.50871085  1.18880444  -0.05416821  1.0
  O  O50  1  0.35665292  -0.05416821  0.18880444  1.0
