# generated using pymatgen
data_Mg3Si(O2F)2
_symmetry_space_group_name_H-M   'P 1'
_cell_length_a   10.38023203
_cell_length_b   8.82925328
_cell_length_c   4.75716684
_cell_angle_alpha   90.00000000
_cell_angle_beta   90.00000000
_cell_angle_gamma   90.00000000
_symmetry_Int_Tables_number   1
_chemical_formula_structural   Mg3Si(O2F)2
_chemical_formula_sum   'Mg12 Si4 O16 F8'
_cell_volume   435.99290311
_cell_formula_units_Z   4
loop_
 _symmetry_equiv_pos_site_id
 _symmetry_equiv_pos_as_xyz
  1  'x, y, z'
loop_
 _atom_site_type_symbol
 _atom_site_label
 _atom_site_symmetry_multiplicity
 _atom_site_fract_x
 _atom_site_fract_y
 _atom_site_fract_z
 _atom_site_occupancy
  Mg  Mg0  1  0.63329200  0.43040353  0.01081490  1.0
  Mg  Mg1  1  0.63329200  0.06959647  0.01081490  1.0
  Mg  Mg2  1  0.13329200  0.43040353  0.48918510  1.0
  Mg  Mg3  1  0.13329200  0.06959647  0.48918510  1.0
  Mg  Mg4  1  0.36670800  0.93040353  0.98918510  1.0
  Mg  Mg5  1  0.36670800  0.56959647  0.98918510  1.0
  Mg  Mg6  1  0.86670800  0.93040353  0.51081490  1.0
  Mg  Mg7  1  0.86670800  0.56959647  0.51081490  1.0
  Mg  Mg8  1  0.90731096  0.25000000  0.00658382  1.0
  Mg  Mg9  1  0.40731096  0.25000000  0.49341618  1.0
  Mg  Mg10  1  0.09268904  0.75000000  0.99341618  1.0
  Mg  Mg11  1  0.59268904  0.75000000  0.50658382  1.0
  Si  Si12  1  0.71982429  0.25000000  0.58119263  1.0
  Si  Si13  1  0.21982429  0.25000000  0.91880737  1.0
  Si  Si14  1  0.28017571  0.75000000  0.41880737  1.0
  Si  Si15  1  0.78017571  0.75000000  0.08119263  1.0
  O  O16  1  0.70863357  0.89668301  0.23332807  1.0
  O  O17  1  0.70863357  0.60331699  0.23332807  1.0
  O  O18  1  0.20863357  0.89668301  0.26667193  1.0
  O  O19  1  0.20863357  0.60331699  0.26667193  1.0
  O  O20  1  0.29136643  0.39668301  0.76667193  1.0
  O  O21  1  0.29136643  0.10331699  0.76667193  1.0
  O  O22  1  0.79136643  0.39668301  0.73332807  1.0
  O  O23  1  0.79136643  0.10331699  0.73332807  1.0
  O  O24  1  0.57423278  0.25000000  0.72259809  1.0
  O  O25  1  0.07423278  0.25000000  0.77740191  1.0
  O  O26  1  0.42576722  0.75000000  0.27740191  1.0
  O  O27  1  0.92576722  0.75000000  0.22259809  1.0
  O  O28  1  0.72121357  0.25000000  0.23823866  1.0
  O  O29  1  0.22121357  0.25000000  0.26176134  1.0
  O  O30  1  0.27878643  0.75000000  0.76176134  1.0
  O  O31  1  0.77878643  0.75000000  0.73823866  1.0
  F  F32  1  0.96703711  0.41517218  0.27431625  1.0
  F  F33  1  0.96703711  0.08482782  0.27431625  1.0
  F  F34  1  0.46703711  0.41517218  0.22568375  1.0
  F  F35  1  0.46703711  0.08482782  0.22568375  1.0
  F  F36  1  0.03296289  0.91517218  0.72568375  1.0
  F  F37  1  0.03296289  0.58482782  0.72568375  1.0
  F  F38  1  0.53296289  0.91517218  0.77431625  1.0
  F  F39  1  0.53296289  0.58482782  0.77431625  1.0
