# generated using pymatgen
data_V2CuH6(NO3)2
_symmetry_space_group_name_H-M   'P 1'
_cell_length_a   5.53219240
_cell_length_b   5.74449782
_cell_length_c   12.38686969
_cell_angle_alpha   90.00000000
_cell_angle_beta   91.04507094
_cell_angle_gamma   90.00000000
_symmetry_Int_Tables_number   1
_chemical_formula_structural   V2CuH6(NO3)2
_chemical_formula_sum   'V4 Cu2 H12 N4 O12'
_cell_volume   393.58511570
_cell_formula_units_Z   2
loop_
 _symmetry_equiv_pos_site_id
 _symmetry_equiv_pos_as_xyz
  1  'x, y, z'
loop_
 _atom_site_type_symbol
 _atom_site_label
 _atom_site_symmetry_multiplicity
 _atom_site_fract_x
 _atom_site_fract_y
 _atom_site_fract_z
 _atom_site_occupancy
  V  V0  1  0.97584760  0.94471033  0.27756289  1.0
  V  V1  1  0.97584760  0.05528967  0.77756289  1.0
  V  V2  1  0.50706365  0.94459495  0.44485428  1.0
  V  V3  1  0.50706365  0.05540505  0.94485428  1.0
  Cu  Cu4  1  0.74136683  0.50008760  0.11119436  1.0
  Cu  Cu5  1  0.74136683  0.49991240  0.61119436  1.0
  H  H6  1  0.41228231  0.56492279  0.24751290  1.0
  H  H7  1  0.41228231  0.43507721  0.74751290  1.0
  H  H8  1  0.13964387  0.68161387  0.03836997  1.0
  H  H9  1  0.13964387  0.31838613  0.53836997  1.0
  H  H10  1  0.07065941  0.56484393  0.47499909  1.0
  H  H11  1  0.07065941  0.43515607  0.97499909  1.0
  H  H12  1  0.91674725  0.32400166  0.44694086  1.0
  H  H13  1  0.91674725  0.67599834  0.94694086  1.0
  H  H14  1  0.56574016  0.32372399  0.27531720  1.0
  H  H15  1  0.56574016  0.67627601  0.77531720  1.0
  H  H16  1  0.34296155  0.31889216  0.18384772  1.0
  H  H17  1  0.34296155  0.68110784  0.68384772  1.0
  N  N18  1  -0.00088771  0.41753756  0.50805065  1.0
  N  N19  1  -0.00088771  0.58246244  0.00805065  1.0
  N  N20  1  0.48360769  0.41769286  0.21429574  1.0
  N  N21  1  0.48360769  0.58230714  0.71429574  1.0
  O  O22  1  0.59378996  0.68611445  0.49558131  1.0
  O  O23  1  0.59378996  0.31388555  0.99558131  1.0
  O  O24  1  1.02718482  0.86907518  0.68114798  1.0
  O  O25  1  1.02718482  0.13092482  0.18114798  1.0
  O  O26  1  0.88889777  0.68632638  0.22681540  1.0
  O  O27  1  0.88889777  0.31367362  0.72681540  1.0
  O  O28  1  0.74149636  0.93126071  0.86124859  1.0
  O  O29  1  0.74149636  0.06873929  0.36124859  1.0
  O  O30  1  0.45566679  0.86929579  0.04130340  1.0
  O  O31  1  0.45566679  0.13070421  0.54130340  1.0
  O  O32  1  0.24153169  0.90101689  0.36115767  1.0
  O  O33  1  0.24153169  0.09898311  0.86115767  1.0
