# generated using pymatgen
data_LuCrB4
_symmetry_space_group_name_H-M   'P 1'
_cell_length_a   5.86624459
_cell_length_b   11.32856585
_cell_length_c   3.38179672
_cell_angle_alpha   90.00000000
_cell_angle_beta   90.00000000
_cell_angle_gamma   90.00000000
_symmetry_Int_Tables_number   1
_chemical_formula_structural   LuCrB4
_chemical_formula_sum   'Lu4 Cr4 B16'
_cell_volume   224.74114975
_cell_formula_units_Z   4
loop_
 _symmetry_equiv_pos_site_id
 _symmetry_equiv_pos_as_xyz
  1  'x, y, z'
loop_
 _atom_site_type_symbol
 _atom_site_label
 _atom_site_symmetry_multiplicity
 _atom_site_fract_x
 _atom_site_fract_y
 _atom_site_fract_z
 _atom_site_occupancy
  Lu  Lu0  1  0.12521067  0.65052798  0.50000000  1.0
  Lu  Lu1  1  0.62521067  0.84947202  0.50000000  1.0
  Lu  Lu2  1  0.87478933  0.34947202  0.50000000  1.0
  Lu  Lu3  1  0.37478933  0.15052798  0.50000000  1.0
  Cr  Cr4  1  0.12349756  0.91988554  0.50000000  1.0
  Cr  Cr5  1  0.62349756  0.58011446  0.50000000  1.0
  Cr  Cr6  1  0.87650244  0.08011446  0.50000000  1.0
  Cr  Cr7  1  0.37650244  0.41988554  0.50000000  1.0
  B  B8  1  0.47560774  0.69298974  0.00000000  1.0
  B  B9  1  0.97560774  0.80701026  0.00000000  1.0
  B  B10  1  0.52439226  0.30701026  0.00000000  1.0
  B  B11  1  0.02439226  0.19298974  0.00000000  1.0
  B  B12  1  0.38593759  0.54744684  0.00000000  1.0
  B  B13  1  0.88593759  0.95255316  0.00000000  1.0
  B  B14  1  0.61406241  0.45255316  0.00000000  1.0
  B  B15  1  0.11406241  0.04744684  0.00000000  1.0
  B  B16  1  0.36460861  0.96758742  0.00000000  1.0
  B  B17  1  0.86460861  0.53241258  0.00000000  1.0
  B  B18  1  0.63539139  0.03241258  0.00000000  1.0
  B  B19  1  0.13539139  0.46758742  0.00000000  1.0
  B  B20  1  0.28286071  0.81517295  0.00000000  1.0
  B  B21  1  0.78286071  0.68482705  0.00000000  1.0
  B  B22  1  0.71713929  0.18482705  0.00000000  1.0
  B  B23  1  0.21713929  0.31517295  0.00000000  1.0
