# generated using pymatgen
data_BiO
_symmetry_space_group_name_H-M   'P 1'
_cell_length_a   3.93102575
_cell_length_b   3.93102575
_cell_length_c   3.93102575
_cell_angle_alpha   60.59939813
_cell_angle_beta   60.59939813
_cell_angle_gamma   60.59939813
_symmetry_Int_Tables_number   1
_chemical_formula_structural   BiO
_chemical_formula_sum   'Bi1 O1'
_cell_volume   43.53539538
_cell_formula_units_Z   1
loop_
 _symmetry_equiv_pos_site_id
 _symmetry_equiv_pos_as_xyz
  1  'x, y, z'
loop_
 _atom_site_type_symbol
 _atom_site_label
 _atom_site_symmetry_multiplicity
 _atom_site_fract_x
 _atom_site_fract_y
 _atom_site_fract_z
 _atom_site_occupancy
  Bi  Bi0  1  -0.01082417  -0.01082417  -0.01082417  1.0
  O  O1  1  0.73582417  -0.26417583  -0.26417583  1.0
