# generated using pymatgen
data_TiFeGe
_symmetry_space_group_name_H-M   'P 1'
_cell_length_a   7.72152895
_cell_length_b   7.72152895
_cell_length_c   7.72152895
_cell_angle_alpha   134.67360651
_cell_angle_beta   73.95124886
_cell_angle_gamma   124.98681851
_symmetry_Int_Tables_number   1
_chemical_formula_structural   TiFeGe
_chemical_formula_sum   'Ti6 Fe6 Ge6'
_cell_volume   261.80222446
_cell_formula_units_Z   6
loop_
 _symmetry_equiv_pos_site_id
 _symmetry_equiv_pos_as_xyz
  1  'x, y, z'
loop_
 _atom_site_type_symbol
 _atom_site_label
 _atom_site_symmetry_multiplicity
 _atom_site_fract_x
 _atom_site_fract_y
 _atom_site_fract_z
 _atom_site_occupancy
  Ti  Ti0  1  0.49436768  1.35356144  1.13639413  1.0
  Ti  Ti1  1  1.21716731  1.35797355  0.86360587  1.0
  Ti  Ti2  1  0.49436768  0.85797355  0.64080623  1.0
  Ti  Ti3  1  1.21716731  1.85356144  1.35919377  1.0
  Ti  Ti4  1  0.80010485  1.30010485  0.50000000  1.0
  Ti  Ti5  1  0.80010485  0.80010485  -0.00000000  1.0
  Fe  Fe6  1  0.51065467  0.94685645  1.06379821  1.0
  Fe  Fe7  1  0.88305824  1.44685645  0.93620179  1.0
  Fe  Fe8  1  0.85997397  0.91912477  0.44084919  1.0
  Fe  Fe9  1  0.47827558  0.41912477  0.55915081  1.0
  Fe  Fe10  1  0.15752751  0.38938490  0.26814261  1.0
  Fe  Fe11  1  1.12124229  0.88938490  0.73185739  1.0
  Ge  Ge12  1  0.82731169  1.49577912  1.32621159  1.0
  Ge  Ge13  1  0.16956753  0.50110010  0.67378841  1.0
  Ge  Ge14  1  0.82731169  1.00110010  0.83153257  1.0
  Ge  Ge15  1  0.16956753  0.99577912  1.16846743  1.0
  Ge  Ge16  1  0.51534450  0.76511482  0.25022968  1.0
  Ge  Ge17  1  1.51488514  1.26511482  0.74977032  1.0
