# generated using pymatgen
data_Cs5P5Se12
_symmetry_space_group_name_H-M   'P 1'
_cell_length_a   14.32257717
_cell_length_b   14.32257717
_cell_length_c   7.73411556
_cell_angle_alpha   90.00000000
_cell_angle_beta   90.00000000
_cell_angle_gamma   90.00000000
_symmetry_Int_Tables_number   1
_chemical_formula_structural   Cs5P5Se12
_chemical_formula_sum   'Cs10 P10 Se24'
_cell_volume   1586.54720555
_cell_formula_units_Z   2
loop_
 _symmetry_equiv_pos_site_id
 _symmetry_equiv_pos_as_xyz
  1  'x, y, z'
loop_
 _atom_site_type_symbol
 _atom_site_label
 _atom_site_symmetry_multiplicity
 _atom_site_fract_x
 _atom_site_fract_y
 _atom_site_fract_z
 _atom_site_occupancy
  Cs  Cs0  1  0.65544662  0.69087818  0.27744329  1.0
  Cs  Cs1  1  0.69087818  0.34455338  0.72255671  1.0
  Cs  Cs2  1  0.34455338  0.30912182  0.27744329  1.0
  Cs  Cs3  1  0.30912182  0.65544662  0.72255671  1.0
  Cs  Cs4  1  0.03042225  0.68092993  0.25380765  1.0
  Cs  Cs5  1  0.68092993  0.96957775  0.74619235  1.0
  Cs  Cs6  1  0.96957775  0.31907007  0.25380765  1.0
  Cs  Cs7  1  0.31907007  0.03042225  0.74619235  1.0
  Cs  Cs8  1  0.00000000  0.00000000  0.24830793  1.0
  Cs  Cs9  1  0.00000000  0.00000000  0.75169207  1.0
  P  P10  1  0.25725746  0.88755687  0.25301565  1.0
  P  P11  1  0.88755687  0.74274254  0.74698435  1.0
  P  P12  1  0.74274254  0.11244313  0.25301565  1.0
  P  P13  1  0.11244313  0.25725746  0.74698435  1.0
  P  P14  1  0.39383428  0.80207940  0.26620359  1.0
  P  P15  1  0.80207940  0.60616572  0.73379641  1.0
  P  P16  1  0.60616572  0.19792060  0.26620359  1.0
  P  P17  1  0.19792060  0.39383428  0.73379641  1.0
  P  P18  1  0.50000000  -0.00000000  0.25425627  1.0
  P  P19  1  0.00000000  0.50000000  0.74574373  1.0
  Se  Se20  1  0.68323923  0.96743312  0.25296153  1.0
  Se  Se21  1  0.96743312  0.31676077  0.74703847  1.0
  Se  Se22  1  0.31676077  0.03256688  0.25296153  1.0
  Se  Se23  1  0.03256688  0.68323923  0.74703847  1.0
  Se  Se24  1  0.48040998  0.87557733  0.05370757  1.0
  Se  Se25  1  0.87557733  0.51959002  0.94629243  1.0
  Se  Se26  1  0.51959002  0.12442267  0.05370757  1.0
  Se  Se27  1  0.12442267  0.48040998  0.94629243  1.0
  Se  Se28  1  0.17788723  0.85247121  0.48637571  1.0
  Se  Se29  1  0.85247121  0.82211277  0.51362429  1.0
  Se  Se30  1  0.82211277  0.14752879  0.48637571  1.0
  Se  Se31  1  0.14752879  0.17788723  0.51362429  1.0
  Se  Se32  1  0.18566388  0.85230253  0.01200467  1.0
  Se  Se33  1  0.85230253  0.81433612  0.98799533  1.0
  Se  Se34  1  0.81433612  0.14769747  0.01200467  1.0
  Se  Se35  1  0.14769747  0.18566388  0.98799533  1.0
  Se  Se36  1  0.46227648  0.83710400  0.51015140  1.0
  Se  Se37  1  0.83710400  0.53772352  0.48984860  1.0
  Se  Se38  1  0.53772352  0.16289600  0.51015140  1.0
  Se  Se39  1  0.16289600  0.46227648  0.48984860  1.0
  Se  Se40  1  0.37606295  0.65678718  0.20662695  1.0
  Se  Se41  1  0.65678718  0.62393705  0.79337305  1.0
  Se  Se42  1  0.62393705  0.34321282  0.20662695  1.0
  Se  Se43  1  0.34321282  0.37606295  0.79337305  1.0
