# generated using pymatgen
data_RbHS
_symmetry_space_group_name_H-M   'P 1'
_cell_length_a   4.66096019
_cell_length_b   5.19632237
_cell_length_c   6.99941342
_cell_angle_alpha   90.00000000
_cell_angle_beta   100.89577753
_cell_angle_gamma   90.00000000
_symmetry_Int_Tables_number   1
_chemical_formula_structural   RbHS
_chemical_formula_sum   'Rb2 H2 S2'
_cell_volume   166.46867220
_cell_formula_units_Z   2
loop_
 _symmetry_equiv_pos_site_id
 _symmetry_equiv_pos_as_xyz
  1  'x, y, z'
loop_
 _atom_site_type_symbol
 _atom_site_label
 _atom_site_symmetry_multiplicity
 _atom_site_fract_x
 _atom_site_fract_y
 _atom_site_fract_z
 _atom_site_occupancy
  Rb  Rb0  1  0.72956811  0.75000000  0.26216814  1.0
  Rb  Rb1  1  0.27043189  0.25000000  0.73783186  1.0
  H  H2  1  0.01238213  0.75000000  0.89128016  1.0
  H  H3  1  0.98761787  0.25000000  0.10871984  1.0
  S  S4  1  0.76109170  0.75000000  0.75759849  1.0
  S  S5  1  0.23890830  0.25000000  0.24240151  1.0
