# generated using pymatgen
data_MnVGaCo
_symmetry_space_group_name_H-M   'P 1'
_cell_length_a   5.74560026
_cell_length_b   5.74560026
_cell_length_c   5.74560026
_cell_angle_alpha   90.00000000
_cell_angle_beta   90.00000000
_cell_angle_gamma   90.00000000
_symmetry_Int_Tables_number   1
_chemical_formula_structural   MnVGaCo
_chemical_formula_sum   'Mn4 V4 Ga4 Co4'
_cell_volume   189.67330995
_cell_formula_units_Z   4
loop_
 _symmetry_equiv_pos_site_id
 _symmetry_equiv_pos_as_xyz
  1  'x, y, z'
loop_
 _atom_site_type_symbol
 _atom_site_label
 _atom_site_symmetry_multiplicity
 _atom_site_fract_x
 _atom_site_fract_y
 _atom_site_fract_z
 _atom_site_occupancy
  Co  Co0  1  0.50000000  0.00000000  0.00000000  1.0
  Co  Co1  1  0.00000000  0.50000000  0.00000000  1.0
  Co  Co2  1  0.00000000  0.00000000  0.50000000  1.0
  Co  Co3  1  0.00000000  0.00000000  0.00000000  1.0
  Mn  Mn4  1  0.50000000  0.50000000  0.50000000  1.0
  Mn  Mn5  1  0.50000000  0.50000000  0.00000000  1.0
  Mn  Mn6  1  0.50000000  0.00000000  0.50000000  1.0
  Mn  Mn7  1  0.00000000  0.50000000  0.50000000  1.0
  V  V8  1  0.25735700  0.25735700  0.25735700  1.0
  V  V9  1  0.74264300  0.74264300  0.25735700  1.0
  V  V10  1  0.25735700  0.74264300  0.74264300  1.0
  V  V11  1  0.74264300  0.25735700  0.74264300  1.0
  Ga  Ga12  1  0.75365709  0.75365709  0.75365709  1.0
  Ga  Ga13  1  0.24634291  0.24634291  0.75365709  1.0
  Ga  Ga14  1  0.24634291  0.75365709  0.24634291  1.0
  Ga  Ga15  1  0.75365709  0.24634291  0.24634291  1.0
