# generated using pymatgen
data_NaCoPO4
_symmetry_space_group_name_H-M   'P 1'
_cell_length_a   8.98351025
_cell_length_b   6.88737710
_cell_length_c   5.07641199
_cell_angle_alpha   90.00000000
_cell_angle_beta   90.00000000
_cell_angle_gamma   90.00000000
_symmetry_Int_Tables_number   1
_chemical_formula_structural   NaCoPO4
_chemical_formula_sum   'Na4 Co4 P4 O16'
_cell_volume   314.09193985
_cell_formula_units_Z   4
loop_
 _symmetry_equiv_pos_site_id
 _symmetry_equiv_pos_as_xyz
  1  'x, y, z'
loop_
 _atom_site_type_symbol
 _atom_site_label
 _atom_site_symmetry_multiplicity
 _atom_site_fract_x
 _atom_site_fract_y
 _atom_site_fract_z
 _atom_site_occupancy
  Na  Na0  1  0.85026087  0.25000000  0.53652769  1.0
  Na  Na1  1  0.35026087  0.25000000  0.96347231  1.0
  Na  Na2  1  0.14973913  0.75000000  0.46347231  1.0
  Na  Na3  1  0.64973913  0.75000000  0.03652769  1.0
  Co  Co4  1  0.00000000  0.50000000  0.00000000  1.0
  Co  Co5  1  0.00000000  0.00000000  0.00000000  1.0
  Co  Co6  1  0.50000000  0.50000000  0.50000000  1.0
  Co  Co7  1  0.50000000  0.00000000  0.50000000  1.0
  P  P8  1  0.67561643  0.25000000  0.04255669  1.0
  P  P9  1  0.17561643  0.25000000  0.45744331  1.0
  P  P10  1  0.32438357  0.75000000  0.95744331  1.0
  P  P11  1  0.82438357  0.75000000  0.54255669  1.0
  O  O12  1  0.62071911  0.43475485  0.18916000  1.0
  O  O13  1  0.62071911  0.06524515  0.18916000  1.0
  O  O14  1  0.12071911  0.43475485  0.31084000  1.0
  O  O15  1  0.12071911  0.06524515  0.31084000  1.0
  O  O16  1  0.37928089  0.93475485  0.81084000  1.0
  O  O17  1  0.37928089  0.56524515  0.81084000  1.0
  O  O18  1  0.87928089  0.93475485  0.68916000  1.0
  O  O19  1  0.87928089  0.56524515  0.68916000  1.0
  O  O20  1  0.85152094  0.25000000  0.05336326  1.0
  O  O21  1  0.35152094  0.25000000  0.44663674  1.0
  O  O22  1  0.14847906  0.75000000  0.94663674  1.0
  O  O23  1  0.64847906  0.75000000  0.55336326  1.0
  O  O24  1  0.61477139  0.25000000  0.75420225  1.0
  O  O25  1  0.11477139  0.25000000  0.74579775  1.0
  O  O26  1  0.38522861  0.75000000  0.24579775  1.0
  O  O27  1  0.88522861  0.75000000  0.25420225  1.0
