# generated using pymatgen
data_KZr6MnCl14
_symmetry_space_group_name_H-M   'P 1'
_cell_length_a   9.96788405
_cell_length_b   9.96788405
_cell_length_c   11.84236270
_cell_angle_alpha   90.00000000
_cell_angle_beta   90.00000000
_cell_angle_gamma   84.30504757
_symmetry_Int_Tables_number   1
_chemical_formula_structural   KZr6MnCl14
_chemical_formula_sum   'K2 Zr12 Mn2 Cl28'
_cell_volume   1170.83437665
_cell_formula_units_Z   2
loop_
 _symmetry_equiv_pos_site_id
 _symmetry_equiv_pos_as_xyz
  1  'x, y, z'
loop_
 _atom_site_type_symbol
 _atom_site_label
 _atom_site_symmetry_multiplicity
 _atom_site_fract_x
 _atom_site_fract_y
 _atom_site_fract_z
 _atom_site_occupancy
  K  K0  1  0.00000000  1.00000000  0.50000000  1.0
  K  K1  1  -0.50000000  0.50000000  0.00000000  1.0
  Zr  Zr2  1  0.45357626  1.30871048  0.38108900  1.0
  Zr  Zr3  1  -0.04642374  0.80871048  0.11891100  1.0
  Zr  Zr4  1  0.30871048  1.45357626  0.61891100  1.0
  Zr  Zr5  1  -0.19128952  0.95357626  0.88108900  1.0
  Zr  Zr6  1  -0.30871048  0.54642374  0.38108900  1.0
  Zr  Zr7  1  0.19128952  1.04642374  0.11891100  1.0
  Zr  Zr8  1  -0.45357626  0.69128952  0.61891100  1.0
  Zr  Zr9  1  0.04642374  1.19128952  0.88108900  1.0
  Zr  Zr10  1  -0.14680902  1.14680902  0.11316663  1.0
  Zr  Zr11  1  0.35319098  0.64680902  0.38683337  1.0
  Zr  Zr12  1  0.14680902  0.85319098  0.88683337  1.0
  Zr  Zr13  1  -0.35319098  1.35319098  0.61316663  1.0
  Mn  Mn14  1  -0.50000000  0.50000000  0.50000000  1.0
  Mn  Mn15  1  0.00000000  1.00000000  0.00000000  1.0
  Cl  Cl16  1  -0.20049481  0.96149808  0.25314444  1.0
  Cl  Cl17  1  0.29950519  1.46149808  0.24685556  1.0
  Cl  Cl18  1  -0.03850192  0.79950519  0.74685556  1.0
  Cl  Cl19  1  0.46149808  1.29950519  0.75314444  1.0
  Cl  Cl20  1  0.03850192  1.20049481  0.25314444  1.0
  Cl  Cl21  1  -0.46149808  0.70049481  0.24685556  1.0
  Cl  Cl22  1  0.20049481  1.03850192  0.74685556  1.0
  Cl  Cl23  1  -0.29950519  0.53850192  0.75314444  1.0
  Cl  Cl24  1  -0.38383792  1.14222628  0.49479644  1.0
  Cl  Cl25  1  0.11616208  0.64222628  0.00520356  1.0
  Cl  Cl26  1  0.14222628  0.61616208  0.50520356  1.0
  Cl  Cl27  1  -0.35777372  1.11616208  0.99479644  1.0
  Cl  Cl28  1  -0.14222628  1.38383792  0.49479644  1.0
  Cl  Cl29  1  0.35777372  0.88383792  0.00520356  1.0
  Cl  Cl30  1  0.38383792  0.85777372  0.50520356  1.0
  Cl  Cl31  1  -0.11616208  1.35777372  0.99479644  1.0
  Cl  Cl32  1  -0.34388275  1.34388275  0.23990456  1.0
  Cl  Cl33  1  0.15611725  0.84388275  0.26009544  1.0
  Cl  Cl34  1  0.34388275  0.65611725  0.76009544  1.0
  Cl  Cl35  1  -0.15611725  1.15611725  0.73990456  1.0
  Cl  Cl36  1  0.39897370  1.10102630  0.25000000  1.0
  Cl  Cl37  1  -0.10102630  0.60102630  0.25000000  1.0
  Cl  Cl38  1  0.10102630  1.39897370  0.75000000  1.0
  Cl  Cl39  1  -0.39897370  0.89897370  0.75000000  1.0
  Cl  Cl40  1  0.25232374  1.25232374  0.50000000  1.0
  Cl  Cl41  1  -0.24767626  0.75232374  0.00000000  1.0
  Cl  Cl42  1  -0.25232374  0.74767626  0.50000000  1.0
  Cl  Cl43  1  0.24767626  1.24767626  0.00000000  1.0
