# generated using pymatgen
data_Zr54Os17
_symmetry_space_group_name_H-M   'P 1'
_cell_length_a   12.41920878
_cell_length_b   12.41920878
_cell_length_c   12.41920878
_cell_angle_alpha   111.34936914
_cell_angle_beta   109.92207022
_cell_angle_gamma   107.16979371
_symmetry_Int_Tables_number   1
_chemical_formula_structural   Zr54Os17
_chemical_formula_sum   'Zr54 Os17'
_cell_volume   1472.53739030
_cell_formula_units_Z   1
loop_
 _symmetry_equiv_pos_site_id
 _symmetry_equiv_pos_as_xyz
  1  'x, y, z'
loop_
 _atom_site_type_symbol
 _atom_site_label
 _atom_site_symmetry_multiplicity
 _atom_site_fract_x
 _atom_site_fract_y
 _atom_site_fract_z
 _atom_site_occupancy
  Zr  Zr0  1  0.53240841  0.59857508  0.70003275  1.0
  Zr  Zr1  1  1.10145767  1.16762434  0.70003275  1.0
  Zr  Zr2  1  0.89854233  1.59857508  1.06616667  1.0
  Zr  Zr3  1  0.46759159  1.16762434  1.06616667  1.0
  Zr  Zr4  1  0.53240841  0.83237566  0.93383333  1.0
  Zr  Zr5  1  1.10145767  1.40142492  0.93383333  1.0
  Zr  Zr6  1  0.89854233  0.83237566  0.29996725  1.0
  Zr  Zr7  1  0.46759159  0.40142492  0.29996725  1.0
  Zr  Zr8  1  0.57539003  0.70004640  0.48971429  1.0
  Zr  Zr9  1  0.78966789  0.91432426  0.48971429  1.0
  Zr  Zr10  1  1.21033211  0.70004640  1.12465637  1.0
  Zr  Zr11  1  1.42460997  0.91432426  1.12465637  1.0
  Zr  Zr12  1  1.57539003  1.08567574  0.87534363  1.0
  Zr  Zr13  1  0.78966789  0.29995360  0.87534363  1.0
  Zr  Zr14  1  1.21033211  1.08567574  0.51028571  1.0
  Zr  Zr15  1  0.42460997  0.29995360  0.51028571  1.0
  Zr  Zr16  1  1.70809627  1.51348444  1.57996134  1.0
  Zr  Zr17  1  1.06647690  0.87186507  0.57996134  1.0
  Zr  Zr18  1  0.93352310  1.51348444  0.80538817  1.0
  Zr  Zr19  1  1.29190373  0.87186507  0.80538817  1.0
  Zr  Zr20  1  1.70809627  1.12813493  1.19461183  1.0
  Zr  Zr21  1  1.06647690  1.48651556  1.19461183  1.0
  Zr  Zr22  1  0.93352310  1.12813493  0.42003866  1.0
  Zr  Zr23  1  1.29190373  1.48651556  1.42003866  1.0
  Zr  Zr24  1  0.89116359  0.82144083  0.71260442  1.0
  Zr  Zr25  1  0.10883641  0.82144083  0.93027724  1.0
  Zr  Zr26  1  0.89116359  1.17855917  1.06972276  1.0
  Zr  Zr27  1  0.10883641  0.17855917  0.28739558  1.0
  Zr  Zr28  1  0.60947429  0.62415072  0.23362501  1.0
  Zr  Zr29  1  1.39052571  0.62415072  1.01467644  1.0
  Zr  Zr30  1  0.60947429  0.37584928  0.98532356  1.0
  Zr  Zr31  1  0.39052571  0.37584928  0.76637499  1.0
  Zr  Zr32  1  0.82921530  0.72075447  0.89153918  1.0
  Zr  Zr33  1  1.17078470  1.06232388  0.89153918  1.0
  Zr  Zr34  1  0.82921530  0.93767612  0.10846082  1.0
  Zr  Zr35  1  0.17078470  0.27924553  0.10846082  1.0
  Zr  Zr36  1  0.66545410  1.26613102  0.60067692  1.0
  Zr  Zr37  1  1.33454590  0.93522281  0.60067692  1.0
  Zr  Zr38  1  0.66545410  1.06477719  0.39932308  1.0
  Zr  Zr39  1  1.33454590  1.73386898  1.39932308  1.0
  Zr  Zr40  1  1.70922457  0.89950239  0.80972218  1.0
  Zr  Zr41  1  0.91021978  1.10049761  0.80972218  1.0
  Zr  Zr42  1  1.08978022  0.89950239  0.19027782  1.0
  Zr  Zr43  1  1.29077543  1.10049761  1.19027782  1.0
  Zr  Zr44  1  0.27399323  0.59447901  0.67951422  1.0
  Zr  Zr45  1  1.08503521  1.40552099  0.67951422  1.0
  Zr  Zr46  1  0.91496479  0.59447901  0.32048578  1.0
  Zr  Zr47  1  0.72600677  0.40552099  0.32048578  1.0
  Zr  Zr48  1  0.64371875  0.64371875  -0.00000000  1.0
  Zr  Zr49  1  0.35628125  0.35628125  -0.00000000  1.0
  Zr  Zr50  1  0.60752346  0.00000000  0.60752346  1.0
  Zr  Zr51  1  0.39247654  -0.00000000  0.39247654  1.0
  Zr  Zr52  1  0.00000000  0.60985727  0.60985727  1.0
  Zr  Zr53  1  0.00000000  0.39014273  0.39014273  1.0
  Os  Os54  1  0.78717519  0.67293854  0.46011374  1.0
  Os  Os55  1  0.21282481  0.67293854  0.88576335  1.0
  Os  Os56  1  0.78717519  1.32706146  1.11423665  1.0
  Os  Os57  1  0.21282481  0.32706146  0.53988626  1.0
  Os  Os58  1  0.66304780  0.46232073  0.79927293  1.0
  Os  Os59  1  1.33695220  1.13622514  0.79927293  1.0
  Os  Os60  1  0.66304780  0.86377486  0.20072707  1.0
  Os  Os61  1  0.33695220  0.53767927  0.20072707  1.0
  Os  Os62  1  1.44847462  0.78243148  0.66604314  1.0
  Os  Os63  1  0.88361165  1.21756852  0.66604314  1.0
  Os  Os64  1  1.11638835  0.78243148  0.33395686  1.0
  Os  Os65  1  1.55152538  1.21756852  1.33395686  1.0
  Os  Os66  1  0.83579389  1.33579389  0.50000000  1.0
  Os  Os67  1  1.16420611  0.66420611  0.50000000  1.0
  Os  Os68  1  0.50000000  0.80658581  0.30658581  1.0
  Os  Os69  1  0.50000000  0.19341419  0.69341419  1.0
  Os  Os70  1  0.00000000  0.00000000  0.00000000  1.0
