# generated using pymatgen
data_Y5Mg8Cu5
_symmetry_space_group_name_H-M   'P 1'
_cell_length_a   26.26041270
_cell_length_b   4.03249682
_cell_length_c   7.38691749
_cell_angle_alpha   90.00000000
_cell_angle_beta   90.00000000
_cell_angle_gamma   90.00000000
_symmetry_Int_Tables_number   1
_chemical_formula_structural   Y5Mg8Cu5
_chemical_formula_sum   'Y10 Mg16 Cu10'
_cell_volume   782.23785494
_cell_formula_units_Z   2
loop_
 _symmetry_equiv_pos_site_id
 _symmetry_equiv_pos_as_xyz
  1  'x, y, z'
loop_
 _atom_site_type_symbol
 _atom_site_label
 _atom_site_symmetry_multiplicity
 _atom_site_fract_x
 _atom_site_fract_y
 _atom_site_fract_z
 _atom_site_occupancy
  Y  Y0  1  0.35016967  0.50000000  0.42706592  1.0
  Y  Y1  1  0.85016967  0.50000000  0.57293408  1.0
  Y  Y2  1  0.64983033  0.50000000  0.57293408  1.0
  Y  Y3  1  0.14983033  0.50000000  0.42706592  1.0
  Y  Y4  1  0.89448180  0.50000000  0.07529422  1.0
  Y  Y5  1  0.39448180  0.50000000  0.92470578  1.0
  Y  Y6  1  0.10551820  0.50000000  0.92470578  1.0
  Y  Y7  1  0.60551820  0.50000000  0.07529422  1.0
  Y  Y8  1  0.25000000  0.50000000  0.80109384  1.0
  Y  Y9  1  0.75000000  0.50000000  0.19890616  1.0
  Mg  Mg10  1  0.47668837  0.50000000  0.29988674  1.0
  Mg  Mg11  1  0.97668837  0.50000000  0.70011326  1.0
  Mg  Mg12  1  0.52331163  0.50000000  0.70011326  1.0
  Mg  Mg13  1  0.02331163  0.50000000  0.29988674  1.0
  Mg  Mg14  1  0.43915787  0.00000000  0.59619795  1.0
  Mg  Mg15  1  0.93915787  0.00000000  0.40380205  1.0
  Mg  Mg16  1  0.56084213  0.00000000  0.40380205  1.0
  Mg  Mg17  1  0.06084213  0.00000000  0.59619795  1.0
  Mg  Mg18  1  0.30971932  0.00000000  0.09429026  1.0
  Mg  Mg19  1  0.80971932  0.00000000  0.90570974  1.0
  Mg  Mg20  1  0.69028068  0.00000000  0.90570974  1.0
  Mg  Mg21  1  0.19028068  0.00000000  0.09429026  1.0
  Mg  Mg22  1  0.25000000  0.00000000  0.46057774  1.0
  Mg  Mg23  1  0.75000000  0.00000000  0.53942226  1.0
  Mg  Mg24  1  0.50000000  0.00000000  0.00000000  1.0
  Mg  Mg25  1  0.00000000  0.00000000  0.00000000  1.0
  Cu  Cu26  1  0.41154325  0.00000000  0.21572847  1.0
  Cu  Cu27  1  0.91154325  0.00000000  0.78427153  1.0
  Cu  Cu28  1  0.58845675  0.00000000  0.78427153  1.0
  Cu  Cu29  1  0.08845675  0.00000000  0.21572847  1.0
  Cu  Cu30  1  0.83317382  0.00000000  0.28251426  1.0
  Cu  Cu31  1  0.33317382  0.00000000  0.71748574  1.0
  Cu  Cu32  1  0.16682618  0.00000000  0.71748574  1.0
  Cu  Cu33  1  0.66682618  0.00000000  0.28251426  1.0
  Cu  Cu34  1  0.25000000  0.50000000  0.21879707  1.0
  Cu  Cu35  1  0.75000000  0.50000000  0.78120293  1.0
