# generated using pymatgen
data_H2CO
_symmetry_space_group_name_H-M   'P 1'
_cell_length_a   6.30198389
_cell_length_b   6.30198389
_cell_length_c   6.30198389
_cell_angle_alpha   101.30948384
_cell_angle_beta   101.30948384
_cell_angle_gamma   101.30948383
_symmetry_Int_Tables_number   1
_chemical_formula_structural   H2CO
_chemical_formula_sum   'H12 C6 O6'
_cell_volume   233.38703829
_cell_formula_units_Z   6
loop_
 _symmetry_equiv_pos_site_id
 _symmetry_equiv_pos_as_xyz
  1  'x, y, z'
loop_
 _atom_site_type_symbol
 _atom_site_label
 _atom_site_symmetry_multiplicity
 _atom_site_fract_x
 _atom_site_fract_y
 _atom_site_fract_z
 _atom_site_occupancy
  H  H0  1  0.35539590  0.46955647  0.19345427  1.0
  H  H1  1  0.46955647  1.19345427  -0.64460410  1.0
  H  H2  1  1.19345427  0.35539590  -0.53044353  1.0
  H  H3  1  0.85539590  1.69345427  -0.03044353  1.0
  H  H4  1  1.69345427  0.96955647  -0.14460410  1.0
  H  H5  1  0.96955647  0.85539590  0.69345427  1.0
  H  H6  1  0.54664762  0.74449122  0.26498801  1.0
  H  H7  1  0.74449122  1.26498801  -0.45335238  1.0
  H  H8  1  1.26498801  0.54664762  -0.25550878  1.0
  H  H9  1  1.04664762  -0.23501199  0.24449122  1.0
  H  H10  1  0.76498801  0.24449122  0.04664762  1.0
  H  H11  1  1.24449122  0.04664762  -0.23501199  1.0
  C  C12  1  0.48556477  0.59814729  0.32515306  1.0
  C  C13  1  0.59814729  1.32515306  -0.51443523  1.0
  C  C14  1  1.32515306  0.48556477  -0.40185271  1.0
  C  C15  1  0.98556477  0.82515306  0.09814729  1.0
  C  C16  1  0.82515306  1.09814729  -0.01443523  1.0
  C  C17  1  1.09814729  0.98556477  -0.17484694  1.0
  O  O18  1  1.39431908  -0.32921800  0.50840031  1.0
  O  O19  1  0.67078200  0.50840031  0.39431908  1.0
  O  O20  1  1.50840031  0.39431908  -0.32921800  1.0
  O  O21  1  0.89431908  0.00840031  0.17078200  1.0
  O  O22  1  1.00840031  0.17078200  -0.10568092  1.0
  O  O23  1  1.17078200  -0.10568092  0.00840031  1.0
