# generated using pymatgen
data_SrWO4
_symmetry_space_group_name_H-M   'P 1'
_cell_length_a   7.19403006
_cell_length_b   7.19403006
_cell_length_c   7.19403006
_cell_angle_alpha   135.18641796
_cell_angle_beta   135.18641796
_cell_angle_gamma   65.24068572
_symmetry_Int_Tables_number   1
_chemical_formula_structural   SrWO4
_chemical_formula_sum   'Sr2 W2 O8'
_cell_volume   182.25672700
_cell_formula_units_Z   2
loop_
 _symmetry_equiv_pos_site_id
 _symmetry_equiv_pos_as_xyz
  1  'x, y, z'
loop_
 _atom_site_type_symbol
 _atom_site_label
 _atom_site_symmetry_multiplicity
 _atom_site_fract_x
 _atom_site_fract_y
 _atom_site_fract_z
 _atom_site_occupancy
  Sr  Sr0  1  0.25000000  0.75000000  0.50000000  1.0
  Sr  Sr1  1  0.50000000  0.50000000  0.00000000  1.0
  W  W2  1  0.75000000  0.25000000  0.50000000  1.0
  W  W3  1  1.00000000  1.00000000  1.00000000  1.0
  O  O4  1  0.22037021  0.84534687  0.90132501  1.0
  O  O5  1  0.94402186  0.31904520  1.09867499  1.0
  O  O6  1  1.06904520  0.47037021  0.87502334  1.0
  O  O7  1  0.59534687  1.19402186  1.12497666  1.0
  O  O8  1  1.52962979  1.40465313  1.59867499  1.0
  O  O9  1  0.80597814  0.93095480  0.40132501  1.0
  O  O10  1  0.68095480  0.77962979  0.62497666  1.0
  O  O11  1  1.15465313  1.05597814  1.37502334  1.0
