# generated using pymatgen
data_K3Cr2Cl9
_symmetry_space_group_name_H-M   'P 1'
_cell_length_a   7.02188899
_cell_length_b   7.02188899
_cell_length_c   17.97810889
_cell_angle_alpha   90.00000000
_cell_angle_beta   90.00000000
_cell_angle_gamma   120.00000000
_symmetry_Int_Tables_number   1
_chemical_formula_structural   K3Cr2Cl9
_chemical_formula_sum   'K6 Cr4 Cl18'
_cell_volume   767.68411981
_cell_formula_units_Z   2
loop_
 _symmetry_equiv_pos_site_id
 _symmetry_equiv_pos_as_xyz
  1  'x, y, z'
loop_
 _atom_site_type_symbol
 _atom_site_label
 _atom_site_symmetry_multiplicity
 _atom_site_fract_x
 _atom_site_fract_y
 _atom_site_fract_z
 _atom_site_occupancy
  K  K0  1  0.33333333  0.66666667  0.44078140  1.0
  K  K1  1  0.33333333  0.66666667  0.05921860  1.0
  K  K2  1  0.66666667  0.33333333  0.94078140  1.0
  K  K3  1  0.66666667  0.33333333  0.55921860  1.0
  K  K4  1  -0.00000000  -0.00000000  0.25000000  1.0
  K  K5  1  0.00000000  0.00000000  0.75000000  1.0
  Cr  Cr6  1  0.33333333  0.66666667  0.83799384  1.0
  Cr  Cr7  1  0.33333333  0.66666667  0.66200616  1.0
  Cr  Cr8  1  0.66666667  0.33333333  0.33799384  1.0
  Cr  Cr9  1  0.66666667  0.33333333  0.16200616  1.0
  Cl  Cl10  1  0.17518626  0.82481374  0.90733534  1.0
  Cl  Cl11  1  0.17518626  0.82481374  0.59266466  1.0
  Cl  Cl12  1  0.17518626  0.35037253  0.90733534  1.0
  Cl  Cl13  1  0.17518626  0.35037253  0.59266466  1.0
  Cl  Cl14  1  0.82481374  0.17518626  0.40733534  1.0
  Cl  Cl15  1  0.82481374  0.17518626  0.09266466  1.0
  Cl  Cl16  1  0.82481374  0.64962747  0.40733534  1.0
  Cl  Cl17  1  0.82481374  0.64962747  0.09266466  1.0
  Cl  Cl18  1  0.64962747  0.82481374  0.90733534  1.0
  Cl  Cl19  1  0.64962747  0.82481374  0.59266466  1.0
  Cl  Cl20  1  0.35037253  0.17518626  0.40733534  1.0
  Cl  Cl21  1  0.35037253  0.17518626  0.09266466  1.0
  Cl  Cl22  1  0.51441104  0.48558896  0.25000000  1.0
  Cl  Cl23  1  0.51441104  0.02882208  0.25000000  1.0
  Cl  Cl24  1  0.48558896  0.51441104  0.75000000  1.0
  Cl  Cl25  1  0.48558896  0.97117792  0.75000000  1.0
  Cl  Cl26  1  0.97117792  0.48558896  0.25000000  1.0
  Cl  Cl27  1  0.02882208  0.51441104  0.75000000  1.0
