# generated using pymatgen
data_SrAl2SiN2O3
_symmetry_space_group_name_H-M   'P 1'
_cell_length_a   4.97504336
_cell_length_b   8.12781797
_cell_length_c   11.43753035
_cell_angle_alpha   90.00000000
_cell_angle_beta   90.00000000
_cell_angle_gamma   90.00000000
_symmetry_Int_Tables_number   1
_chemical_formula_structural   SrAl2SiN2O3
_chemical_formula_sum   'Sr4 Al8 Si4 N8 O12'
_cell_volume   462.49080046
_cell_formula_units_Z   4
loop_
 _symmetry_equiv_pos_site_id
 _symmetry_equiv_pos_as_xyz
  1  'x, y, z'
loop_
 _atom_site_type_symbol
 _atom_site_label
 _atom_site_symmetry_multiplicity
 _atom_site_fract_x
 _atom_site_fract_y
 _atom_site_fract_z
 _atom_site_occupancy
  Sr  Sr0  1  -0.01311632  0.96045760  0.66344454  1.0
  Sr  Sr1  1  0.48688368  0.53954240  0.33655546  1.0
  Sr  Sr2  1  1.01311632  0.46045760  0.83655546  1.0
  Sr  Sr3  1  0.51311632  0.03954240  0.16344454  1.0
  Al  Al4  1  0.49710146  0.66359588  0.66152498  1.0
  Al  Al5  1  0.99710146  0.83640412  0.33847502  1.0
  Al  Al6  1  0.50289854  0.16359588  0.83847502  1.0
  Al  Al7  1  0.00289854  0.33640412  0.16152498  1.0
  Al  Al8  1  0.98558207  0.52848901  0.54251077  1.0
  Al  Al9  1  0.48558207  0.97151099  0.45748923  1.0
  Al  Al10  1  0.01441793  0.02848901  0.95748923  1.0
  Al  Al11  1  0.51441793  0.47151099  0.04251077  1.0
  Si  Si12  1  0.49749925  0.79796090  0.92533213  1.0
  Si  Si13  1  -0.00250075  0.70203910  0.07466787  1.0
  Si  Si14  1  0.50250075  0.29796090  0.57466787  1.0
  Si  Si15  1  1.00250075  0.20203910  0.42533213  1.0
  N  N16  1  0.33156525  0.48111503  0.59482479  1.0
  N  N17  1  0.83156525  0.01888497  0.40517521  1.0
  N  N18  1  0.66843475  0.98111503  0.90517521  1.0
  N  N19  1  0.16843475  0.51888497  0.09482479  1.0
  N  N20  1  0.21048433  0.84311957  1.00745729  1.0
  N  N21  1  0.71048433  0.65688043  -0.00745729  1.0
  N  N22  1  0.78951567  0.34311957  0.49254271  1.0
  N  N23  1  0.28951567  0.15688043  0.50745729  1.0
  O  O24  1  0.45126551  0.84808380  0.58403510  1.0
  O  O25  1  -0.04873449  0.65191620  0.41596490  1.0
  O  O26  1  0.54873449  0.34808380  0.91596490  1.0
  O  O27  1  1.04873449  0.15191620  0.08403510  1.0
  O  O28  1  0.37411818  0.70753214  0.80473598  1.0
  O  O29  1  0.87411818  0.79246786  0.19526402  1.0
  O  O30  1  0.62588182  0.20753214  0.69526402  1.0
  O  O31  1  0.12588182  0.29246786  0.30473598  1.0
  O  O32  1  0.84975793  0.63195535  0.66784310  1.0
  O  O33  1  0.34975793  0.86804465  0.33215690  1.0
  O  O34  1  0.15024207  0.13195535  0.83215690  1.0
  O  O35  1  0.65024207  0.36804465  0.16784310  1.0
