# generated using pymatgen
data_NaH5CO4
_symmetry_space_group_name_H-M   'P 1'
_cell_length_a   7.75215766
_cell_length_b   3.78117490
_cell_length_c   8.05072437
_cell_angle_alpha   90.00000000
_cell_angle_beta   110.06613402
_cell_angle_gamma   90.00000000
_symmetry_Int_Tables_number   1
_chemical_formula_structural   NaH5CO4
_chemical_formula_sum   'Na2 H10 C2 O8'
_cell_volume   221.66001428
_cell_formula_units_Z   2
loop_
 _symmetry_equiv_pos_site_id
 _symmetry_equiv_pos_as_xyz
  1  'x, y, z'
loop_
 _atom_site_type_symbol
 _atom_site_label
 _atom_site_symmetry_multiplicity
 _atom_site_fract_x
 _atom_site_fract_y
 _atom_site_fract_z
 _atom_site_occupancy
  Na  Na0  1  0.81189634  0.31226164  0.34237785  1.0
  Na  Na1  1  0.18810366  0.81226164  0.65762215  1.0
  H  H2  1  0.67223280  0.90583243  0.53732626  1.0
  H  H3  1  0.32776720  0.40583243  0.46267374  1.0
  H  H4  1  0.50788863  0.79380164  0.36760111  1.0
  H  H5  1  0.49211137  0.29380164  0.63239889  1.0
  H  H6  1  0.67307455  0.22941031  0.93250278  1.0
  H  H7  1  0.32692545  0.72941031  0.06749722  1.0
  H  H8  1  0.53792322  0.46693893  -0.00201663  1.0
  H  H9  1  0.46207678  0.96693893  1.00201663  1.0
  H  H10  1  0.94311205  0.48269112  0.88981748  1.0
  H  H11  1  0.05688795  -0.01730888  0.11018252  1.0
  C  C12  1  0.88903734  0.31918696  0.76770652  1.0
  C  C13  1  0.11096266  0.81918696  0.23229348  1.0
  O  O14  1  0.97975209  0.31446191  0.66466124  1.0
  O  O15  1  0.02024791  0.81446191  0.33533876  1.0
  O  O16  1  0.74011092  0.15234482  0.74717072  1.0
  O  O17  1  0.25988908  0.65234482  0.25282928  1.0
  O  O18  1  0.63040561  0.27110926  0.03428203  1.0
  O  O19  1  0.36959439  0.77110926  0.96571797  1.0
  O  O20  1  0.64201726  0.81726098  0.41466682  1.0
  O  O21  1  0.35798274  0.31726098  0.58533318  1.0
