# generated using pymatgen
data_Sc(BRu)4
_symmetry_space_group_name_H-M   'P 1'
_cell_length_a   9.11261343
_cell_length_b   9.11261343
_cell_length_c   9.11261343
_cell_angle_alpha   132.25012603
_cell_angle_beta   132.25012603
_cell_angle_gamma   69.83426576
_symmetry_Int_Tables_number   1
_chemical_formula_structural   Sc(BRu)4
_chemical_formula_sum   'Sc4 B16 Ru16'
_cell_volume   406.58207791
_cell_formula_units_Z   4
loop_
 _symmetry_equiv_pos_site_id
 _symmetry_equiv_pos_as_xyz
  1  'x, y, z'
loop_
 _atom_site_type_symbol
 _atom_site_label
 _atom_site_symmetry_multiplicity
 _atom_site_fract_x
 _atom_site_fract_y
 _atom_site_fract_z
 _atom_site_occupancy
  Sc  Sc0  1  0.75000000  0.75000000  -0.00000000  1.0
  Sc  Sc1  1  1.25000000  1.25000000  1.00000000  1.0
  Sc  Sc2  1  0.00000000  0.50000000  0.50000000  1.0
  Sc  Sc3  1  0.50000000  0.00000000  0.50000000  1.0
  B  B4  1  0.71703261  0.41185783  0.96635261  1.0
  B  B5  1  0.21703261  0.25068001  0.30517479  1.0
  B  B6  1  1.66185783  1.46703261  1.46635261  1.0
  B  B7  1  1.16185783  1.69550522  1.19482521  1.0
  B  B8  1  1.03296739  0.83814217  0.53364739  1.0
  B  B9  1  1.53296739  0.99931999  1.19482521  1.0
  B  B10  1  1.08814217  1.78296739  1.03364739  1.0
  B  B11  1  1.58814217  1.55449478  1.30517479  1.0
  B  B12  1  0.94550522  0.91185783  1.69482521  1.0
  B  B13  1  0.44550522  0.75068001  1.03364739  1.0
  B  B14  1  1.50068001  0.96703261  0.80517479  1.0
  B  B15  1  1.00068001  1.19550522  0.53364739  1.0
  B  B16  1  0.80449478  1.33814217  0.80517479  1.0
  B  B17  1  1.30449478  1.49931999  1.46635261  1.0
  B  B18  1  1.24931999  1.28296739  0.69482521  1.0
  B  B19  1  1.74931999  1.05449478  0.96635261  1.0
  Ru  Ru20  1  1.03466394  1.57377481  1.23162430  1.0
  Ru  Ru21  1  1.53466394  1.30303964  1.46088913  1.0
  Ru  Ru22  1  1.82377481  1.78466394  1.73162430  1.0
  Ru  Ru23  1  1.32377481  1.59215051  1.03911087  1.0
  Ru  Ru24  1  0.71533606  0.67622519  1.26837570  1.0
  Ru  Ru25  1  0.21533606  0.94696036  1.03911087  1.0
  Ru  Ru26  1  0.92622519  1.46533606  0.76837570  1.0
  Ru  Ru27  1  1.42622519  1.65784949  1.46088913  1.0
  Ru  Ru28  1  0.84215051  1.07377481  0.53911087  1.0
  Ru  Ru29  1  1.34215051  0.80303964  0.76837570  1.0
  Ru  Ru30  1  1.55303964  1.28466394  0.96088913  1.0
  Ru  Ru31  1  1.05303964  1.09215051  0.26837570  1.0
  Ru  Ru32  1  0.90784949  0.17622519  0.96088913  1.0
  Ru  Ru33  1  0.40784949  0.44696036  0.73162430  1.0
  Ru  Ru34  1  1.19696036  0.96533606  0.53911087  1.0
  Ru  Ru35  1  1.69696036  1.15784949  1.23162430  1.0
