# generated using pymatgen
data_TaTlS3
_symmetry_space_group_name_H-M   'P 1'
_cell_length_a   9.41946877
_cell_length_b   3.52566840
_cell_length_c   14.68107876
_cell_angle_alpha   90.00000000
_cell_angle_beta   90.00000000
_cell_angle_gamma   90.00000000
_symmetry_Int_Tables_number   1
_chemical_formula_structural   TaTlS3
_chemical_formula_sum   'Ta4 Tl4 S12'
_cell_volume   487.55750147
_cell_formula_units_Z   4
loop_
 _symmetry_equiv_pos_site_id
 _symmetry_equiv_pos_as_xyz
  1  'x, y, z'
loop_
 _atom_site_type_symbol
 _atom_site_label
 _atom_site_symmetry_multiplicity
 _atom_site_fract_x
 _atom_site_fract_y
 _atom_site_fract_z
 _atom_site_occupancy
  Ta  Ta0  1  0.84098794  0.75000000  0.06902956  1.0
  Ta  Ta1  1  0.34098794  0.75000000  0.43097044  1.0
  Ta  Ta2  1  0.15901206  0.25000000  0.93097044  1.0
  Ta  Ta3  1  0.65901206  0.25000000  0.56902956  1.0
  Tl  Tl4  1  0.01565935  0.75000000  0.67368860  1.0
  Tl  Tl5  1  0.51565935  0.75000000  0.82631140  1.0
  Tl  Tl6  1  0.98434065  0.25000000  0.32631140  1.0
  Tl  Tl7  1  0.48434065  0.25000000  0.17368860  1.0
  S  S8  1  0.80684603  0.75000000  0.50121819  1.0
  S  S9  1  0.30684603  0.75000000  -0.00121819  1.0
  S  S10  1  0.19315397  0.25000000  0.49878181  1.0
  S  S11  1  0.69315397  0.25000000  1.00121819  1.0
  S  S12  1  0.75180777  0.75000000  0.21206475  1.0
  S  S13  1  0.25180777  0.75000000  0.28793525  1.0
  S  S14  1  0.24819223  0.25000000  0.78793525  1.0
  S  S15  1  0.74819223  0.25000000  0.71206475  1.0
  S  S16  1  0.47720981  0.75000000  0.59623137  1.0
  S  S17  1  0.97720981  0.75000000  0.90376863  1.0
  S  S18  1  0.52279019  0.25000000  0.40376863  1.0
  S  S19  1  0.02279019  0.25000000  0.09623137  1.0
