# generated using pymatgen
data_Al(HO)3
_symmetry_space_group_name_H-M   'P 1'
_cell_length_a   4.86646758
_cell_length_b   8.76322631
_cell_length_c   5.12031179
_cell_angle_alpha   90.00000000
_cell_angle_beta   76.18372241
_cell_angle_gamma   90.00000000
_symmetry_Int_Tables_number   1
_chemical_formula_structural   Al(HO)3
_chemical_formula_sum   'Al4 H12 O12'
_cell_volume   212.04265311
_cell_formula_units_Z   4
loop_
 _symmetry_equiv_pos_site_id
 _symmetry_equiv_pos_as_xyz
  1  'x, y, z'
loop_
 _atom_site_type_symbol
 _atom_site_label
 _atom_site_symmetry_multiplicity
 _atom_site_fract_x
 _atom_site_fract_y
 _atom_site_fract_z
 _atom_site_occupancy
  Al  Al0  1  0.52956666  0.33451869  0.45275698  1.0
  Al  Al1  1  0.52956666  0.16548131  0.95275698  1.0
  Al  Al2  1  0.47043334  0.83451869  0.04724302  1.0
  Al  Al3  1  0.47043334  0.66548131  0.54724302  1.0
  H  H4  1  0.87859588  0.81710692  0.27629928  1.0
  H  H5  1  0.87859588  0.68289308  0.77629928  1.0
  H  H6  1  0.12140412  0.31710692  0.22370072  1.0
  H  H7  1  0.12140412  0.18289308  0.72370072  1.0
  H  H8  1  0.88549513  0.12008805  0.22940140  1.0
  H  H9  1  0.88549513  0.37991195  0.72940140  1.0
  H  H10  1  0.11450487  0.62008805  0.27059860  1.0
  H  H11  1  0.11450487  0.87991195  0.77059860  1.0
  H  H12  1  0.29087333  0.04312334  0.36679956  1.0
  H  H13  1  0.29087333  0.45687666  0.86679956  1.0
  H  H14  1  0.70912667  0.54312334  0.13320044  1.0
  H  H15  1  0.70912667  0.95687666  0.63320044  1.0
  O  O16  1  0.67335360  0.83021687  0.32766074  1.0
  O  O17  1  0.67335360  0.66978313  0.82766074  1.0
  O  O18  1  0.32664640  0.33021687  0.17233926  1.0
  O  O19  1  0.32664640  0.16978313  0.67233926  1.0
  O  O20  1  0.75954127  0.20065977  0.19572628  1.0
  O  O21  1  0.75954127  0.29934023  0.69572628  1.0
  O  O22  1  0.24045873  0.70065977  0.30427372  1.0
  O  O23  1  0.24045873  0.79934023  0.80427372  1.0
  O  O24  1  0.72147513  0.51937887  0.31781750  1.0
  O  O25  1  0.72147513  -0.01937887  0.81781750  1.0
  O  O26  1  0.27852487  1.01937887  0.18218250  1.0
  O  O27  1  0.27852487  0.48062113  0.68218250  1.0
