# generated using pymatgen
data_TbMn2SiC
_symmetry_space_group_name_H-M   'P 1'
_cell_length_a   5.59863033
_cell_length_b   5.59863033
_cell_length_c   6.98574107
_cell_angle_alpha   90.00000000
_cell_angle_beta   90.00000000
_cell_angle_gamma   141.41475946
_symmetry_Int_Tables_number   1
_chemical_formula_structural   TbMn2SiC
_chemical_formula_sum   'Tb2 Mn4 Si2 C2'
_cell_volume   136.56413922
_cell_formula_units_Z   2
loop_
 _symmetry_equiv_pos_site_id
 _symmetry_equiv_pos_as_xyz
  1  'x, y, z'
loop_
 _atom_site_type_symbol
 _atom_site_label
 _atom_site_symmetry_multiplicity
 _atom_site_fract_x
 _atom_site_fract_y
 _atom_site_fract_z
 _atom_site_occupancy
  Tb  Tb0  1  0.45566102  0.54433898  0.75000000  1.0
  Tb  Tb1  1  -0.45566102  0.45566102  0.25000000  1.0
  Mn  Mn2  1  0.16779402  0.83220598  0.93904899  1.0
  Mn  Mn3  1  0.16779402  0.83220598  0.56095101  1.0
  Mn  Mn4  1  -0.16779402  0.16779402  0.43904899  1.0
  Mn  Mn5  1  -0.16779402  0.16779402  0.06095101  1.0
  Si  Si6  1  -0.26478922  0.26478922  0.75000000  1.0
  Si  Si7  1  0.26478922  0.73521078  0.25000000  1.0
  C  C8  1  0.00000000  0.00000000  0.00000000  1.0
  C  C9  1  0.00000000  0.00000000  0.50000000  1.0
