# generated using pymatgen
data_CrCdO4
_symmetry_space_group_name_H-M   'P 1'
_cell_length_a   5.29316558
_cell_length_b   5.29316558
_cell_length_c   7.08689390
_cell_angle_alpha   90.00000000
_cell_angle_beta   90.00000000
_cell_angle_gamma   114.55469963
_symmetry_Int_Tables_number   1
_chemical_formula_structural   CrCdO4
_chemical_formula_sum   'Cr2 Cd2 O8'
_cell_volume   180.60119026
_cell_formula_units_Z   2
loop_
 _symmetry_equiv_pos_site_id
 _symmetry_equiv_pos_as_xyz
  1  'x, y, z'
loop_
 _atom_site_type_symbol
 _atom_site_label
 _atom_site_symmetry_multiplicity
 _atom_site_fract_x
 _atom_site_fract_y
 _atom_site_fract_z
 _atom_site_occupancy
  Cr  Cr0  1  0.35687076  0.64312924  0.25000000  1.0
  Cr  Cr1  1  -0.35687076  1.35687076  0.75000000  1.0
  Cd  Cd2  1  0.00000000  0.00000000  0.50000000  1.0
  Cd  Cd3  1  0.00000000  0.00000000  0.00000000  1.0
  O  O4  1  0.22248010  0.29200423  0.25000000  1.0
  O  O5  1  -0.70799577  1.22248010  0.75000000  1.0
  O  O6  1  0.70799577  0.77751990  0.25000000  1.0
  O  O7  1  -0.22248010  1.70799577  0.75000000  1.0
  O  O8  1  0.25228807  0.74771193  0.43791887  1.0
  O  O9  1  0.25228807  0.74771193  0.06208113  1.0
  O  O10  1  -0.25228807  1.25228807  0.93791887  1.0
  O  O11  1  -0.25228807  1.25228807  0.56208113  1.0
