# generated using pymatgen
data_WCl3O
_symmetry_space_group_name_H-M   'P 1'
_cell_length_a   11.73099022
_cell_length_b   11.73099022
_cell_length_c   3.78693855
_cell_angle_alpha   90.00000000
_cell_angle_beta   90.00000000
_cell_angle_gamma   90.00000000
_symmetry_Int_Tables_number   1
_chemical_formula_structural   WCl3O
_chemical_formula_sum   'W4 Cl12 O4'
_cell_volume   521.14383375
_cell_formula_units_Z   4
loop_
 _symmetry_equiv_pos_site_id
 _symmetry_equiv_pos_as_xyz
  1  'x, y, z'
loop_
 _atom_site_type_symbol
 _atom_site_label
 _atom_site_symmetry_multiplicity
 _atom_site_fract_x
 _atom_site_fract_y
 _atom_site_fract_z
 _atom_site_occupancy
  W  W0  1  0.09086600  0.09086600  0.50000000  1.0
  W  W1  1  0.59086600  0.40913400  0.00000000  1.0
  W  W2  1  0.90913400  0.90913400  0.50000000  1.0
  W  W3  1  0.40913400  0.59086600  0.00000000  1.0
  Cl  Cl4  1  0.28799132  0.09477354  0.50000000  1.0
  Cl  Cl5  1  0.78799132  0.40522646  0.00000000  1.0
  Cl  Cl6  1  0.90522646  0.71200868  0.50000000  1.0
  Cl  Cl7  1  0.40522646  0.78799132  0.00000000  1.0
  Cl  Cl8  1  0.71200868  0.90522646  0.50000000  1.0
  Cl  Cl9  1  0.21200868  0.59477354  0.00000000  1.0
  Cl  Cl10  1  0.09477354  0.28799132  0.50000000  1.0
  Cl  Cl11  1  0.59477354  0.21200868  0.00000000  1.0
  Cl  Cl12  1  0.11634827  0.88365173  0.50000000  1.0
  Cl  Cl13  1  0.61634827  0.61634827  0.00000000  1.0
  Cl  Cl14  1  0.88365173  0.11634827  0.50000000  1.0
  Cl  Cl15  1  0.38365173  0.38365173  0.00000000  1.0
  O  O16  1  0.41645824  0.58354176  0.50000000  1.0
  O  O17  1  0.91645824  0.91645824  0.00000000  1.0
  O  O18  1  0.58354176  0.41645824  0.50000000  1.0
  O  O19  1  0.08354176  0.08354176  0.00000000  1.0
