# generated using pymatgen
data_NaH4CNO2
_symmetry_space_group_name_H-M   'P 1'
_cell_length_a   5.96673879
_cell_length_b   10.02205231
_cell_length_c   7.12410539
_cell_angle_alpha   90.00000000
_cell_angle_beta   103.54107161
_cell_angle_gamma   90.00000000
_symmetry_Int_Tables_number   1
_chemical_formula_structural   NaH4CNO2
_chemical_formula_sum   'Na4 H16 C4 N4 O8'
_cell_volume   414.17195113
_cell_formula_units_Z   4
loop_
 _symmetry_equiv_pos_site_id
 _symmetry_equiv_pos_as_xyz
  1  'x, y, z'
loop_
 _atom_site_type_symbol
 _atom_site_label
 _atom_site_symmetry_multiplicity
 _atom_site_fract_x
 _atom_site_fract_y
 _atom_site_fract_z
 _atom_site_occupancy
  Na  Na0  1  -0.01673547  0.33353865  0.08350859  1.0
  Na  Na1  1  -0.01673547  0.16646135  0.58350859  1.0
  Na  Na2  1  0.01673547  0.83353865  0.41649141  1.0
  Na  Na3  1  0.01673547  0.66646135  0.91649141  1.0
  H  H4  1  0.78206303  0.06957475  0.18832837  1.0
  H  H5  1  0.78206303  0.43042525  0.68832837  1.0
  H  H6  1  0.21793697  0.56957475  0.31167163  1.0
  H  H7  1  0.21793697  0.93042525  0.81167163  1.0
  H  H8  1  0.62229954  1.00100265  0.30192393  1.0
  H  H9  1  0.62229954  0.49899735  0.80192393  1.0
  H  H10  1  0.37770046  0.50100265  0.19807607  1.0
  H  H11  1  0.37770046  -0.00100265  0.69807607  1.0
  H  H12  1  0.37863239  0.24940422  0.38735821  1.0
  H  H13  1  0.37863239  0.25059578  0.88735821  1.0
  H  H14  1  0.62136761  0.74940422  0.11264179  1.0
  H  H15  1  0.62136761  0.75059578  0.61264179  1.0
  H  H16  1  0.26616848  0.11407380  0.30779086  1.0
  H  H17  1  0.26616848  0.38592620  0.80779086  1.0
  H  H18  1  0.73383152  0.61407380  0.19220914  1.0
  H  H19  1  0.73383152  0.88592620  0.69220914  1.0
  C  C20  1  0.74055643  0.37501865  0.41513142  1.0
  C  C21  1  0.74055643  0.12498135  0.91513142  1.0
  C  C22  1  0.25944357  0.87501865  0.08486858  1.0
  C  C23  1  0.25944357  0.62498135  0.58486858  1.0
  N  N24  1  0.68875119  0.44240124  0.27643843  1.0
  N  N25  1  0.68875119  0.05759876  0.77643843  1.0
  N  N26  1  0.31124881  0.94240124  0.22356157  1.0
  N  N27  1  0.31124881  0.55759876  0.72356157  1.0
  O  O28  1  0.78293338  0.03061343  0.31610133  1.0
  O  O29  1  0.78293338  0.46938657  0.81610133  1.0
  O  O30  1  0.21706662  0.53061343  0.18389867  1.0
  O  O31  1  0.21706662  0.96938657  0.68389867  1.0
  O  O32  1  0.22954540  0.20498799  0.34674729  1.0
  O  O33  1  0.22954540  0.29501201  0.84674729  1.0
  O  O34  1  0.77045460  0.70498799  0.15325271  1.0
  O  O35  1  0.77045460  0.79501201  0.65325271  1.0
