# generated using pymatgen
data_Hg3(SeBr)2
_symmetry_space_group_name_H-M   'P 1'
_cell_length_a   10.63845626
_cell_length_b   10.63845626
_cell_length_c   9.79346036
_cell_angle_alpha   89.53601627
_cell_angle_beta   90.46398373
_cell_angle_gamma   125.99186110
_symmetry_Int_Tables_number   1
_chemical_formula_structural   Hg3(SeBr)2
_chemical_formula_sum   'Hg12 Se8 Br8'
_cell_volume   896.76348224
_cell_formula_units_Z   4
loop_
 _symmetry_equiv_pos_site_id
 _symmetry_equiv_pos_as_xyz
  1  'x, y, z'
loop_
 _atom_site_type_symbol
 _atom_site_label
 _atom_site_symmetry_multiplicity
 _atom_site_fract_x
 _atom_site_fract_y
 _atom_site_fract_z
 _atom_site_occupancy
  Hg  Hg0  1  1.36843422  0.12357352  0.69991316  1.0
  Hg  Hg1  1  0.87642648  -0.36843422  0.69991316  1.0
  Hg  Hg2  1  1.12357352  -0.63156578  0.30008684  1.0
  Hg  Hg3  1  1.63156578  -0.12357352  0.30008684  1.0
  Hg  Hg4  1  0.77434251  -0.77434251  0.70465720  1.0
  Hg  Hg5  1  1.22565749  -0.22565749  0.29534280  1.0
  Hg  Hg6  1  1.46843836  -0.46843836  0.74952409  1.0
  Hg  Hg7  1  0.53156164  -0.53156164  0.25047591  1.0
  Hg  Hg8  1  0.78653786  0.78653786  -0.00000000  1.0
  Hg  Hg9  1  0.21346214  0.21346214  -0.00000000  1.0
  Hg  Hg10  1  1.50000000  -0.00000000  0.00000000  1.0
  Hg  Hg11  1  1.00000000  -0.50000000  0.00000000  1.0
  Se  Se12  1  1.75129625  -0.22740014  0.74149450  1.0
  Se  Se13  1  1.22740014  -0.75129625  0.74149450  1.0
  Se  Se14  1  0.77259986  -0.24870375  0.25850550  1.0
  Se  Se15  1  1.24870375  0.22740014  0.25850550  1.0
  Se  Se16  1  1.49593588  -0.01656640  0.74139640  1.0
  Se  Se17  1  1.01656640  -0.49593588  0.74139640  1.0
  Se  Se18  1  0.98343360  -0.50406412  0.25860360  1.0
  Se  Se19  1  1.50406412  0.01656640  0.25860360  1.0
  Br  Br20  1  0.87704262  -0.87704262  0.49201020  1.0
  Br  Br21  1  1.12295738  -0.12295738  0.50798980  1.0
  Br  Br22  1  0.62548893  -0.62548893  0.51266270  1.0
  Br  Br23  1  1.37451107  -0.37451107  0.48733730  1.0
  Br  Br24  1  0.62554307  -0.62554307  1.00633927  1.0
  Br  Br25  1  1.37445693  -0.37445693  -0.00633927  1.0
  Br  Br26  1  1.12472119  -0.12472119  0.99554134  1.0
  Br  Br27  1  0.87527881  -0.87527881  0.00445866  1.0
