# generated using pymatgen
data_RbH2O2F
_symmetry_space_group_name_H-M   'P 1'
_cell_length_a   12.20650978
_cell_length_b   12.20650978
_cell_length_c   4.54585095
_cell_angle_alpha   90.00000000
_cell_angle_beta   90.00000000
_cell_angle_gamma   90.00000000
_symmetry_Int_Tables_number   1
_chemical_formula_structural   RbH2O2F
_chemical_formula_sum   'Rb8 H16 O16 F8'
_cell_volume   677.32670475
_cell_formula_units_Z   8
loop_
 _symmetry_equiv_pos_site_id
 _symmetry_equiv_pos_as_xyz
  1  'x, y, z'
loop_
 _atom_site_type_symbol
 _atom_site_label
 _atom_site_symmetry_multiplicity
 _atom_site_fract_x
 _atom_site_fract_y
 _atom_site_fract_z
 _atom_site_occupancy
  Rb  Rb0  1  0.26148698  0.76148698  0.24120462  1.0
  Rb  Rb1  1  0.23851302  0.26148698  0.75879538  1.0
  Rb  Rb2  1  0.73851302  0.23851302  0.24120462  1.0
  Rb  Rb3  1  0.76148698  0.73851302  0.75879538  1.0
  Rb  Rb4  1  0.00000000  0.50000000  0.74763190  1.0
  Rb  Rb5  1  0.50000000  0.00000000  0.25236810  1.0
  Rb  Rb6  1  0.50000000  0.50000000  0.00000000  1.0
  Rb  Rb7  1  0.00000000  0.00000000  0.00000000  1.0
  H  H8  1  0.93181088  0.25970238  0.68973634  1.0
  H  H9  1  0.56818912  0.75970238  0.31026366  1.0
  H  H10  1  0.74029762  0.93181088  0.31026366  1.0
  H  H11  1  0.75970238  0.43181088  0.68973634  1.0
  H  H12  1  0.06818912  0.74029762  0.68973634  1.0
  H  H13  1  0.43181088  0.24029762  0.31026366  1.0
  H  H14  1  0.25970238  0.06818912  0.31026366  1.0
  H  H15  1  0.24029762  0.56818912  0.68973634  1.0
  H  H16  1  0.28551646  0.95803291  0.72564768  1.0
  H  H17  1  0.21448354  0.45803291  0.27435232  1.0
  H  H18  1  0.04196709  0.28551646  0.27435232  1.0
  H  H19  1  0.45803291  0.78551646  0.72564768  1.0
  H  H20  1  0.71448354  0.04196709  0.72564768  1.0
  H  H21  1  0.78551646  0.54196709  0.27435232  1.0
  H  H22  1  0.95803291  0.71448354  0.27435232  1.0
  H  H23  1  0.54196709  0.21448354  0.72564768  1.0
  O  O24  1  0.49621581  0.28247358  0.68318422  1.0
  O  O25  1  0.00378419  0.78247358  0.31681578  1.0
  O  O26  1  0.71752642  0.49621581  0.31681578  1.0
  O  O27  1  0.78247358  0.99621581  0.68318422  1.0
  O  O28  1  0.50378419  0.71752642  0.68318422  1.0
  O  O29  1  0.99621581  0.21752642  0.31681578  1.0
  O  O30  1  0.28247358  0.50378419  0.31681578  1.0
  O  O31  1  0.21752642  0.00378419  0.68318422  1.0
  O  O32  1  0.99952766  0.21476080  0.63957749  1.0
  O  O33  1  0.50047234  0.71476080  0.36042251  1.0
  O  O34  1  0.78523920  0.99952766  0.36042251  1.0
  O  O35  1  0.71476080  0.49952766  0.63957749  1.0
  O  O36  1  0.00047234  0.78523920  0.63957749  1.0
  O  O37  1  0.49952766  0.28523920  0.36042251  1.0
  O  O38  1  0.21476080  0.00047234  0.36042251  1.0
  O  O39  1  0.28523920  0.50047234  0.63957749  1.0
  F  F40  1  0.83288228  0.33288228  0.75051748  1.0
  F  F41  1  0.66711772  0.83288228  0.24948252  1.0
  F  F42  1  0.16711772  0.66711772  0.75051748  1.0
  F  F43  1  0.33288228  0.16711772  0.24948252  1.0
  F  F44  1  0.38785297  0.88785297  0.77912360  1.0
  F  F45  1  0.11214703  0.38785297  0.22087640  1.0
  F  F46  1  0.61214703  0.11214703  0.77912360  1.0
  F  F47  1  0.88785297  0.61214703  0.22087640  1.0
