# generated using pymatgen
data_KAg(CN)2
_symmetry_space_group_name_H-M   'P 1'
_cell_length_a   7.55214444
_cell_length_b   7.55214444
_cell_length_c   17.73122727
_cell_angle_alpha   90.00000000
_cell_angle_beta   90.00000000
_cell_angle_gamma   120.00000000
_symmetry_Int_Tables_number   1
_chemical_formula_structural   KAg(CN)2
_chemical_formula_sum   'K6 Ag6 C12 N12'
_cell_volume   875.81020930
_cell_formula_units_Z   6
loop_
 _symmetry_equiv_pos_site_id
 _symmetry_equiv_pos_as_xyz
  1  'x, y, z'
loop_
 _atom_site_type_symbol
 _atom_site_label
 _atom_site_symmetry_multiplicity
 _atom_site_fract_x
 _atom_site_fract_y
 _atom_site_fract_z
 _atom_site_occupancy
  K  K0  1  0.33333333  0.66666667  0.00953709  1.0
  K  K1  1  0.33333333  0.66666667  0.49046291  1.0
  K  K2  1  0.66666667  0.33333333  0.50953709  1.0
  K  K3  1  0.66666667  0.33333333  0.99046291  1.0
  K  K4  1  0.00000000  0.00000000  0.00000000  1.0
  K  K5  1  0.00000000  0.00000000  0.50000000  1.0
  Ag  Ag6  1  0.35790103  0.17895052  0.25000000  1.0
  Ag  Ag7  1  0.17895052  0.35790103  0.75000000  1.0
  Ag  Ag8  1  0.17895052  0.82104948  0.75000000  1.0
  Ag  Ag9  1  0.82104948  0.17895052  0.25000000  1.0
  Ag  Ag10  1  0.82104948  0.64209897  0.25000000  1.0
  Ag  Ag11  1  0.64209897  0.82104948  0.75000000  1.0
  C  C12  1  0.72109513  0.65308160  0.14388457  1.0
  C  C13  1  0.72109513  0.06801353  0.35611543  1.0
  C  C14  1  0.65308160  0.72109513  0.64388457  1.0
  C  C15  1  0.65308160  0.93198647  0.85611543  1.0
  C  C16  1  0.93198647  0.65308160  0.35611543  1.0
  C  C17  1  0.93198647  0.27890487  0.14388457  1.0
  C  C18  1  0.34691840  0.27890487  0.35611543  1.0
  C  C19  1  0.34691840  0.06801353  0.14388457  1.0
  C  C20  1  0.27890487  0.93198647  0.64388457  1.0
  C  C21  1  0.27890487  0.34691840  0.85611543  1.0
  C  C22  1  0.06801353  0.72109513  0.85611543  1.0
  C  C23  1  0.06801353  0.34691840  0.64388457  1.0
  N  N24  1  0.33786993  1.00781824  0.08226654  1.0
  N  N25  1  0.33786993  0.33005170  0.41773346  1.0
  N  N26  1  1.00781824  0.33786993  0.58226654  1.0
  N  N27  1  1.00781824  0.66994830  0.91773346  1.0
  N  N28  1  0.66994830  1.00781824  0.41773346  1.0
  N  N29  1  0.66994830  0.66213007  0.08226654  1.0
  N  N30  1  -0.00781824  0.66213007  0.41773346  1.0
  N  N31  1  -0.00781824  0.33005170  0.08226654  1.0
  N  N32  1  0.66213007  0.66994830  0.58226654  1.0
  N  N33  1  0.66213007  -0.00781824  0.91773346  1.0
  N  N34  1  0.33005170  0.33786993  0.91773346  1.0
  N  N35  1  0.33005170  -0.00781824  0.58226654  1.0
