# generated using pymatgen
data_Bi2Te4Pb
_symmetry_space_group_name_H-M   'P 1'
_cell_length_a   14.55478604
_cell_length_b   14.55478604
_cell_length_c   14.55478604
_cell_angle_alpha   17.77182708
_cell_angle_beta   17.77182708
_cell_angle_gamma   17.77182708
_symmetry_Int_Tables_number   1
_chemical_formula_structural   Bi2Te4Pb
_chemical_formula_sum   'Bi2 Te4 Pb1'
_cell_volume   250.76201321
_cell_formula_units_Z   1
loop_
 _symmetry_equiv_pos_site_id
 _symmetry_equiv_pos_as_xyz
  1  'x, y, z'
loop_
 _atom_site_type_symbol
 _atom_site_label
 _atom_site_symmetry_multiplicity
 _atom_site_fract_x
 _atom_site_fract_y
 _atom_site_fract_z
 _atom_site_occupancy
  Bi  Bi0  1  1.57357789  0.57357789  0.57357789  1.0
  Bi  Bi1  1  1.42642211  0.42642211  0.42642211  1.0
  Te  Te2  1  0.86768572  0.86768572  0.86768572  1.0
  Te  Te3  1  1.13231428  1.13231428  0.13231428  1.0
  Te  Te4  1  0.71252997  0.71252997  0.71252997  1.0
  Te  Te5  1  1.28747003  1.28747003  0.28747003  1.0
  Pb  Pb6  1  -0.00000000  0.00000000  -0.00000000  1.0
