# generated using pymatgen
data_LiYF2
_symmetry_space_group_name_H-M   'P 1'
_cell_length_a   5.22047386
_cell_length_b   11.24350094
_cell_length_c   4.98338159
_cell_angle_alpha   90.00000000
_cell_angle_beta   80.86797716
_cell_angle_gamma   90.00000000
_symmetry_Int_Tables_number   1
_chemical_formula_structural   LiYF2
_chemical_formula_sum   'Li4 Y4 F8'
_cell_volume   288.79912781
_cell_formula_units_Z   4
loop_
 _symmetry_equiv_pos_site_id
 _symmetry_equiv_pos_as_xyz
  1  'x, y, z'
loop_
 _atom_site_type_symbol
 _atom_site_label
 _atom_site_symmetry_multiplicity
 _atom_site_fract_x
 _atom_site_fract_y
 _atom_site_fract_z
 _atom_site_occupancy
  F  F0  1  0.86139085  0.78738374  0.54477772  1.0
  F  F1  1  0.86139085  0.21261626  0.04477772  1.0
  F  F2  1  0.76848123  0.53387892  0.46321592  1.0
  F  F3  1  0.76848123  0.46612108  0.96321592  1.0
  F  F4  1  0.13860915  0.21261626  0.45522228  1.0
  F  F5  1  0.13860915  0.78738374  -0.04477772  1.0
  F  F6  1  0.23151877  0.53387892  0.03678408  1.0
  F  F7  1  0.23151877  0.46612108  0.53678408  1.0
  Y  Y8  1  -0.00000000  0.36836348  0.25000000  1.0
  Y  Y9  1  -0.00000000  0.63163652  0.75000000  1.0
  Y  Y10  1  0.50000000  0.12404580  0.25000000  1.0
  Y  Y11  1  0.50000000  0.87595420  0.75000000  1.0
  Li  Li12  1  -0.00000000  0.88474059  0.25000000  1.0
  Li  Li13  1  -0.00000000  0.11525941  0.75000000  1.0
  Li  Li14  1  0.50000000  0.56458600  0.25000000  1.0
  Li  Li15  1  0.50000000  0.43541400  0.75000000  1.0
