# generated using pymatgen
data_AlPO4
_symmetry_space_group_name_H-M   'P 1'
_cell_length_a   8.89282745
_cell_length_b   8.90372637
_cell_length_c   13.00760108
_cell_angle_alpha   70.73036521
_cell_angle_beta   70.09101970
_cell_angle_gamma   74.88710786
_symmetry_Int_Tables_number   1
_chemical_formula_structural   AlPO4
_chemical_formula_sum   'Al8 P8 O32'
_cell_volume   901.26791477
_cell_formula_units_Z   8
loop_
 _symmetry_equiv_pos_site_id
 _symmetry_equiv_pos_as_xyz
  1  'x, y, z'
loop_
 _atom_site_type_symbol
 _atom_site_label
 _atom_site_symmetry_multiplicity
 _atom_site_fract_x
 _atom_site_fract_y
 _atom_site_fract_z
 _atom_site_occupancy
  Al  Al0  1  -0.58675445  -0.30208912  -0.63135900  1.0
  Al  Al1  1  -0.41324555  -0.69791088  -0.36864100  1.0
  Al  Al2  1  -0.38897240  -0.67941132  -0.81199812  1.0
  Al  Al3  1  -0.61102760  -0.32058868  -0.18800188  1.0
  Al  Al4  1  -0.73885299  -0.01991082  -0.94472769  1.0
  Al  Al5  1  -0.26114701  -0.98008918  -0.05527231  1.0
  Al  Al6  1  -0.02643028  -0.48737619  -0.17461323  1.0
  Al  Al7  1  -0.97356972  -0.51262381  -0.82538677  1.0
  P  P8  1  -0.32363883  -0.60448643  -0.18855488  1.0
  P  P9  1  -0.67636117  -0.39551357  -0.81144512  1.0
  P  P10  1  -0.29451401  -0.59873982  -0.62871957  1.0
  P  P11  1  -0.70548599  -0.40126018  -0.37128043  1.0
  P  P12  1  -0.00933038  -0.73947700  -0.95326956  1.0
  P  P13  1  -0.99066962  -0.26052300  -0.04673044  1.0
  P  P14  1  -0.51085577  -0.97861114  -0.82174463  1.0
  P  P15  1  -0.48914423  -0.02138886  -0.17825537  1.0
  O  O16  1  -0.29356861  -0.70046873  -0.50709953  1.0
  O  O17  1  -0.70643139  -0.29953127  -0.49290047  1.0
  O  O18  1  -0.12010388  -0.57073969  -0.69690798  1.0
  O  O19  1  -0.87989612  -0.42926031  -0.30309202  1.0
  O  O20  1  -0.53845506  -0.11062852  -0.70865100  1.0
  O  O21  1  -0.46154494  -0.88937148  -0.29134900  1.0
  O  O22  1  -0.35874830  -0.69217057  -0.68209568  1.0
  O  O23  1  -0.64125170  -0.30782943  -0.31790432  1.0
  O  O24  1  -0.19697681  -0.50173625  -0.20696088  1.0
  O  O25  1  -0.80302319  -0.49826375  -0.79303912  1.0
  O  O26  1  -0.49630071  -0.51337564  -0.14315937  1.0
  O  O27  1  -0.50369929  -0.48662436  -0.85684063  1.0
  O  O28  1  -0.40280824  -0.43276650  -0.62607837  1.0
  O  O29  1  -0.59719176  -0.56723350  -0.37392163  1.0
  O  O30  1  -0.30633466  -0.63341584  -0.30335054  1.0
  O  O31  1  -0.69366534  -0.36658416  -0.69664946  1.0
  O  O32  1  -0.65559521  -0.94300534  -0.87135784  1.0
  O  O33  1  -0.34440479  -0.05699466  -0.12864216  1.0
  O  O34  1  -0.29508117  -0.76795567  -0.10098457  1.0
  O  O35  1  -0.70491883  -0.23204433  -0.89901543  1.0
  O  O36  1  -0.49926984  -0.82496243  -0.79716225  1.0
  O  O37  1  -0.50073016  -0.17503757  -0.20283775  1.0
  O  O38  1  -0.93169365  -0.65684880  -0.90111655  1.0
  O  O39  1  -0.06830635  -0.34315120  -0.09888345  1.0
  O  O40  1  -0.94348068  -0.92302131  -0.92322453  1.0
  O  O41  1  -0.05651932  -0.07697869  -0.07677547  1.0
  O  O42  1  -0.19629857  -0.70873915  -0.90791752  1.0
  O  O43  1  -0.80370143  -0.29126085  -0.09208248  1.0
  O  O44  1  -0.96109436  -0.67273019  -0.08417727  1.0
  O  O45  1  -0.03890564  -0.32726981  -0.91582273  1.0
  O  O46  1  -0.35296530  -0.03462719  -0.90763446  1.0
  O  O47  1  -0.64703470  -0.96537281  -0.09236554  1.0
