# generated using pymatgen
data_TiGePt
_symmetry_space_group_name_H-M   'P 1'
_cell_length_a   6.41284599
_cell_length_b   3.91164877
_cell_length_c   7.57196715
_cell_angle_alpha   90.00000000
_cell_angle_beta   90.00000000
_cell_angle_gamma   90.00000000
_symmetry_Int_Tables_number   1
_chemical_formula_structural   TiGePt
_chemical_formula_sum   'Ti4 Ge4 Pt4'
_cell_volume   189.94129017
_cell_formula_units_Z   4
loop_
 _symmetry_equiv_pos_site_id
 _symmetry_equiv_pos_as_xyz
  1  'x, y, z'
loop_
 _atom_site_type_symbol
 _atom_site_label
 _atom_site_symmetry_multiplicity
 _atom_site_fract_x
 _atom_site_fract_y
 _atom_site_fract_z
 _atom_site_occupancy
  Ti  Ti0  1  0.96750242  0.75000000  0.68319125  1.0
  Ti  Ti1  1  0.46750242  0.75000000  0.81680875  1.0
  Ti  Ti2  1  0.03249758  0.25000000  0.31680875  1.0
  Ti  Ti3  1  0.53249758  0.25000000  0.18319125  1.0
  Ge  Ge4  1  0.75662812  0.75000000  0.37879859  1.0
  Ge  Ge5  1  0.25662812  0.75000000  0.12120141  1.0
  Ge  Ge6  1  0.24337188  0.25000000  0.62120141  1.0
  Ge  Ge7  1  0.74337188  0.25000000  0.87879859  1.0
  Pt  Pt8  1  0.85336496  0.75000000  0.06380050  1.0
  Pt  Pt9  1  0.35336496  0.75000000  0.43619950  1.0
  Pt  Pt10  1  0.14663504  0.25000000  0.93619950  1.0
  Pt  Pt11  1  0.64663504  0.25000000  0.56380050  1.0
