# generated using pymatgen
data_CsMn2V2ClO7
_symmetry_space_group_name_H-M   'P 1'
_cell_length_a   14.94500896
_cell_length_b   5.56693453
_cell_length_c   5.34493001
_cell_angle_alpha   90.00000000
_cell_angle_beta   90.00000000
_cell_angle_gamma   90.00000000
_symmetry_Int_Tables_number   1
_chemical_formula_structural   CsMn2V2ClO7
_chemical_formula_sum   'Cs2 Mn4 V4 Cl2 O14'
_cell_volume   444.68688003
_cell_formula_units_Z   2
loop_
 _symmetry_equiv_pos_site_id
 _symmetry_equiv_pos_as_xyz
  1  'x, y, z'
loop_
 _atom_site_type_symbol
 _atom_site_label
 _atom_site_symmetry_multiplicity
 _atom_site_fract_x
 _atom_site_fract_y
 _atom_site_fract_z
 _atom_site_occupancy
  Cs  Cs0  1  0.25000000  0.95557006  0.88878466  1.0
  Cs  Cs1  1  0.75000000  0.04442994  0.88878466  1.0
  Mn  Mn2  1  0.50000000  0.50000000  0.86527554  1.0
  Mn  Mn3  1  0.00000000  0.50000000  0.86527554  1.0
  Mn  Mn4  1  0.50000000  0.00000000  0.48829251  1.0
  Mn  Mn5  1  0.00000000  0.00000000  0.48829251  1.0
  V  V6  1  0.36496809  0.47926791  0.38929281  1.0
  V  V7  1  0.86496809  0.52073209  0.38929281  1.0
  V  V8  1  0.63503191  0.52073209  0.38929281  1.0
  V  V9  1  0.13503191  0.47926791  0.38929281  1.0
  Cl  Cl10  1  0.50000000  0.00000000  0.00449537  1.0
  Cl  Cl11  1  0.00000000  0.00000000  0.00449537  1.0
  O  O12  1  0.43166211  0.67433048  0.56254815  1.0
  O  O13  1  0.93166211  0.32566952  0.56254815  1.0
  O  O14  1  0.56833789  0.32566952  0.56254815  1.0
  O  O15  1  0.06833789  0.67433048  0.56254815  1.0
  O  O16  1  0.38977278  0.49624511  0.08039932  1.0
  O  O17  1  0.88977278  0.50375489  0.08039932  1.0
  O  O18  1  0.61022722  0.50375489  0.08039932  1.0
  O  O19  1  0.11022722  0.49624511  0.08039932  1.0
  O  O20  1  0.88242442  0.80616898  0.48976044  1.0
  O  O21  1  0.38242442  0.19383102  0.48976044  1.0
  O  O22  1  0.11757558  0.19383102  0.48976044  1.0
  O  O23  1  0.61757558  0.80616898  0.48976044  1.0
  O  O24  1  0.25000000  0.56636142  0.43595050  1.0
  O  O25  1  0.75000000  0.43363858  0.43595050  1.0
