# generated using pymatgen
data_Cs3FeBr5
_symmetry_space_group_name_H-M   'P 1'
_cell_length_a   10.41810417
_cell_length_b   10.41810417
_cell_length_c   10.41810417
_cell_angle_alpha   123.44266892
_cell_angle_beta   123.44266892
_cell_angle_gamma   84.13386356
_symmetry_Int_Tables_number   1
_chemical_formula_structural   Cs3FeBr5
_chemical_formula_sum   'Cs6 Fe2 Br10'
_cell_volume   753.63241351
_cell_formula_units_Z   2
loop_
 _symmetry_equiv_pos_site_id
 _symmetry_equiv_pos_as_xyz
  1  'x, y, z'
loop_
 _atom_site_type_symbol
 _atom_site_label
 _atom_site_symmetry_multiplicity
 _atom_site_fract_x
 _atom_site_fract_y
 _atom_site_fract_z
 _atom_site_occupancy
  Cs  Cs0  1  0.83566127  0.33566127  1.17132254  1.0
  Cs  Cs1  1  0.66433873  0.83566127  1.50000000  1.0
  Cs  Cs2  1  0.33566127  0.16433873  0.50000000  1.0
  Cs  Cs3  1  0.16433873  0.66433873  0.82867746  1.0
  Cs  Cs4  1  0.75000000  0.75000000  1.00000000  1.0
  Cs  Cs5  1  0.25000000  0.25000000  -0.00000000  1.0
  Fe  Fe6  1  0.25000000  0.75000000  0.50000000  1.0
  Fe  Fe7  1  0.75000000  0.25000000  0.50000000  1.0
  Br  Br8  1  1.20480446  0.70480446  1.22045445  1.0
  Br  Br9  1  0.51564999  1.01564999  1.22045445  1.0
  Br  Br10  1  0.98435001  1.20480446  1.50000000  1.0
  Br  Br11  1  0.29519554  0.51564999  0.50000000  1.0
  Br  Br12  1  0.70480446  0.48435001  0.50000000  1.0
  Br  Br13  1  1.01564999  0.79519554  1.50000000  1.0
  Br  Br14  1  0.48435001  0.98435001  0.77954555  1.0
  Br  Br15  1  0.79519554  0.29519554  0.77954555  1.0
  Br  Br16  1  0.00000000  0.00000000  0.00000000  1.0
  Br  Br17  1  0.50000000  0.50000000  1.00000000  1.0
