# generated using pymatgen
data_YbSBr
_symmetry_space_group_name_H-M   'P 1'
_cell_length_a   4.05654166
_cell_length_b   5.29412856
_cell_length_c   9.20544904
_cell_angle_alpha   90.00000000
_cell_angle_beta   90.00000000
_cell_angle_gamma   90.00000000
_symmetry_Int_Tables_number   1
_chemical_formula_structural   YbSBr
_chemical_formula_sum   'Yb2 S2 Br2'
_cell_volume   197.69487057
_cell_formula_units_Z   2
loop_
 _symmetry_equiv_pos_site_id
 _symmetry_equiv_pos_as_xyz
  1  'x, y, z'
loop_
 _atom_site_type_symbol
 _atom_site_label
 _atom_site_symmetry_multiplicity
 _atom_site_fract_x
 _atom_site_fract_y
 _atom_site_fract_z
 _atom_site_occupancy
  Yb  Yb0  1  0.00000000  0.50000000  0.12711634  1.0
  Yb  Yb1  1  0.50000000  0.00000000  0.87288366  1.0
  S  S2  1  0.00000000  0.00000000  0.07206550  1.0
  S  S3  1  0.50000000  0.50000000  0.92793450  1.0
  Br  Br4  1  0.00000000  0.00000000  0.66380274  1.0
  Br  Br5  1  0.50000000  0.50000000  0.33619726  1.0
