# generated using pymatgen
data_Te4Pt3
_symmetry_space_group_name_H-M   'P 1'
_cell_length_a   4.05654097
_cell_length_b   4.05654097
_cell_length_c   12.33581853
_cell_angle_alpha   80.54026998
_cell_angle_beta   99.45973002
_cell_angle_gamma   120.00184846
_symmetry_Int_Tables_number   1
_chemical_formula_structural   Te4Pt3
_chemical_formula_sum   'Te4 Pt3'
_cell_volume   172.59857438
_cell_formula_units_Z   1
loop_
 _symmetry_equiv_pos_site_id
 _symmetry_equiv_pos_as_xyz
  1  'x, y, z'
loop_
 _atom_site_type_symbol
 _atom_site_label
 _atom_site_symmetry_multiplicity
 _atom_site_fract_x
 _atom_site_fract_y
 _atom_site_fract_z
 _atom_site_occupancy
  Te  Te0  1  1.29514464  -0.29514464  0.88529882  1.0
  Te  Te1  1  0.70485536  0.29514464  0.11470118  1.0
  Te  Te2  1  0.55397028  0.44602972  0.66207983  1.0
  Te  Te3  1  1.44602972  -0.44602972  0.33792017  1.0
  Pt  Pt4  1  0.85310646  0.14689354  0.55954788  1.0
  Pt  Pt5  1  1.14689354  -0.14689354  0.44045212  1.0
  Pt  Pt6  1  0.00000000  0.00000000  0.00000000  1.0
