# generated using pymatgen
data_CsH4CN3
_symmetry_space_group_name_H-M   'P 1'
_cell_length_a   7.31640929
_cell_length_b   7.29725525
_cell_length_c   7.92540664
_cell_angle_alpha   90.00000000
_cell_angle_beta   90.00000000
_cell_angle_gamma   90.00000000
_symmetry_Int_Tables_number   1
_chemical_formula_structural   CsH4CN3
_chemical_formula_sum   'Cs4 H16 C4 N12'
_cell_volume   423.13513123
_cell_formula_units_Z   4
loop_
 _symmetry_equiv_pos_site_id
 _symmetry_equiv_pos_as_xyz
  1  'x, y, z'
loop_
 _atom_site_type_symbol
 _atom_site_label
 _atom_site_symmetry_multiplicity
 _atom_site_fract_x
 _atom_site_fract_y
 _atom_site_fract_z
 _atom_site_occupancy
  Cs  Cs0  1  0.48605118  0.75000000  0.08063892  1.0
  Cs  Cs1  1  0.98605118  0.75000000  0.41936108  1.0
  Cs  Cs2  1  0.51394882  0.25000000  0.91936108  1.0
  Cs  Cs3  1  0.01394882  0.25000000  0.58063892  1.0
  H  H4  1  0.43445292  0.37095227  0.54590310  1.0
  H  H5  1  0.43445292  0.12904773  0.54590310  1.0
  H  H6  1  0.93445292  0.37095227  0.95409690  1.0
  H  H7  1  0.93445292  0.12904773  0.95409690  1.0
  H  H8  1  0.56554708  0.87095227  0.45409690  1.0
  H  H9  1  0.56554708  0.62904773  0.45409690  1.0
  H  H10  1  0.06554708  0.87095227  0.04590310  1.0
  H  H11  1  0.06554708  0.62904773  0.04590310  1.0
  H  H12  1  0.22349727  0.89686601  0.76421128  1.0
  H  H13  1  0.22349727  0.60313399  0.76421128  1.0
  H  H14  1  0.72349727  0.89686601  0.73578872  1.0
  H  H15  1  0.72349727  0.60313399  0.73578872  1.0
  H  H16  1  0.77650273  0.39686601  0.23578872  1.0
  H  H17  1  0.77650273  0.10313399  0.23578872  1.0
  H  H18  1  0.27650273  0.39686601  0.26421128  1.0
  H  H19  1  0.27650273  0.10313399  0.26421128  1.0
  C  C20  1  0.38489357  0.75000000  0.62707181  1.0
  C  C21  1  0.88489357  0.75000000  0.87292819  1.0
  C  C22  1  0.61510643  0.25000000  0.37292819  1.0
  C  C23  1  0.11510643  0.25000000  0.12707181  1.0
  N  N24  1  0.32546407  0.91649954  0.67706993  1.0
  N  N25  1  0.32546407  0.58350046  0.67706993  1.0
  N  N26  1  0.82546407  0.91649954  0.82293007  1.0
  N  N27  1  0.82546407  0.58350046  0.82293007  1.0
  N  N28  1  0.67453593  0.41649954  0.32293007  1.0
  N  N29  1  0.67453593  0.08350046  0.32293007  1.0
  N  N30  1  0.17453593  0.41649954  0.17706993  1.0
  N  N31  1  0.17453593  0.08350046  0.17706993  1.0
  N  N32  1  1.02453771  0.75000000  -0.00948747  1.0
  N  N33  1  0.52453771  0.75000000  0.50948747  1.0
  N  N34  1  -0.02453771  0.25000000  1.00948747  1.0
  N  N35  1  0.47546229  0.25000000  0.49051253  1.0
