# generated using pymatgen
data_Bi2S2O
_symmetry_space_group_name_H-M   'P 1'
_cell_length_a   3.98028374
_cell_length_b   3.98028374
_cell_length_c   14.21631526
_cell_angle_alpha   90.00000000
_cell_angle_beta   90.00000000
_cell_angle_gamma   90.00000000
_symmetry_Int_Tables_number   1
_chemical_formula_structural   Bi2S2O
_chemical_formula_sum   'Bi4 S4 O2'
_cell_volume   225.22422969
_cell_formula_units_Z   2
loop_
 _symmetry_equiv_pos_site_id
 _symmetry_equiv_pos_as_xyz
  1  'x, y, z'
loop_
 _atom_site_type_symbol
 _atom_site_label
 _atom_site_symmetry_multiplicity
 _atom_site_fract_x
 _atom_site_fract_y
 _atom_site_fract_z
 _atom_site_occupancy
  Bi  Bi0  1  0.50000000  0.00000000  0.08942612  1.0
  Bi  Bi1  1  0.00000000  0.50000000  0.91057388  1.0
  Bi  Bi2  1  0.50000000  0.00000000  0.63437214  1.0
  Bi  Bi3  1  0.00000000  0.50000000  0.36562786  1.0
  S  S4  1  0.50000000  0.00000000  0.39534379  1.0
  S  S5  1  0.00000000  0.50000000  0.60465621  1.0
  S  S6  1  0.50000000  0.00000000  0.81248920  1.0
  S  S7  1  0.00000000  0.50000000  0.18751080  1.0
  O  O8  1  0.00000000  0.00000000  0.00000000  1.0
  O  O9  1  0.50000000  0.50000000  0.00000000  1.0
