# generated using pymatgen
data_CuSi(HO2)2
_symmetry_space_group_name_H-M   'P 1'
_cell_length_a   8.91939648
_cell_length_b   8.91939648
_cell_length_c   8.91939648
_cell_angle_alpha   111.82337462
_cell_angle_beta   111.82337462
_cell_angle_gamma   111.82337462
_symmetry_Int_Tables_number   1
_chemical_formula_structural   CuSi(HO2)2
_chemical_formula_sum   'Si6 Cu6 H12 O24'
_cell_volume   492.98051143
_cell_formula_units_Z   6
loop_
 _symmetry_equiv_pos_site_id
 _symmetry_equiv_pos_as_xyz
  1  'x, y, z'
loop_
 _atom_site_type_symbol
 _atom_site_label
 _atom_site_symmetry_multiplicity
 _atom_site_fract_x
 _atom_site_fract_y
 _atom_site_fract_z
 _atom_site_occupancy
  H  H0  1  1.31216818  0.58534231  0.48763691  1.0
  H  H1  1  0.51236309  0.68783182  -0.58534231  1.0
  H  H2  1  1.41465769  0.51236309  0.68783182  1.0
  H  H3  1  0.68783182  0.41465769  0.51236309  1.0
  H  H4  1  0.48763691  0.31216818  -0.41465769  1.0
  H  H5  1  0.58534231  0.48763691  0.31216818  1.0
  H  H6  1  1.24872374  1.19714759  0.48164204  1.0
  H  H7  1  0.51835796  -0.24872374  -0.19714759  1.0
  H  H8  1  0.80285241  1.51835796  -0.24872374  1.0
  H  H9  1  0.75127626  0.80285241  -0.48164204  1.0
  H  H10  1  0.48164204  0.24872374  0.19714759  1.0
  H  H11  1  1.19714759  0.48164204  0.24872374  1.0
  O  O12  1  0.38331579  0.29741488  -0.39039710  1.0
  O  O13  1  1.39039710  0.61668421  0.70258512  1.0
  O  O14  1  0.70258512  1.39039710  -0.38331579  1.0
  O  O15  1  0.61668421  0.70258512  -0.60960290  1.0
  O  O16  1  0.60960290  0.38331579  0.29741488  1.0
  O  O17  1  1.29741489  0.60960290  0.38331579  1.0
  O  O18  1  0.97496754  0.01118443  0.26361397  1.0
  O  O19  1  0.73638603  0.02503246  -0.01118443  1.0
  O  O20  1  0.98881557  0.73638603  0.02503246  1.0
  O  O21  1  1.02503246  0.98881557  0.73638603  1.0
  O  O22  1  0.26361397  -0.02503246  0.01118443  1.0
  O  O23  1  1.01118443  1.26361397  -0.02503246  1.0
  O  O24  1  1.04432966  0.78302889  0.36336032  1.0
  O  O25  1  0.63663968  -0.04432966  0.21697111  1.0
  O  O26  1  1.21697111  1.63663968  -0.04432966  1.0
  O  O27  1  0.95567034  1.21697111  -0.36336032  1.0
  O  O28  1  0.36336032  0.04432966  -0.21697111  1.0
  O  O29  1  0.78302889  0.36336032  0.04432966  1.0
  O  O30  1  0.95064425  0.32365775  0.37570909  1.0
  O  O31  1  0.62429091  0.04935575  -0.32365775  1.0
  O  O32  1  0.67634225  0.62429091  0.04935575  1.0
  O  O33  1  1.04935575  0.67634225  0.62429091  1.0
  O  O34  1  0.37570909  0.95064425  -0.67634225  1.0
  O  O35  1  1.32365775  1.37570909  -0.04935575  1.0
  Si  Si36  1  0.82539432  0.08245676  0.21767589  1.0
  Si  Si37  1  0.78232411  0.17460568  -0.08245676  1.0
  Si  Si38  1  0.91754324  0.78232411  0.17460568  1.0
  Si  Si39  1  1.17460568  0.91754324  0.78232411  1.0
  Si  Si40  1  0.21767589  0.82539432  -0.91754324  1.0
  Si  Si41  1  1.08245676  1.21767589  -0.17460568  1.0
  Cu  Cu42  1  0.93572869  0.52772755  0.33750991  1.0
  Cu  Cu43  1  0.66249009  1.06427131  -0.52772755  1.0
  Cu  Cu44  1  0.47227245  -0.33750991  0.06427131  1.0
  Cu  Cu45  1  1.06427131  0.47227245  0.66249009  1.0
  Cu  Cu46  1  1.33750991  0.93572869  0.52772755  1.0
  Cu  Cu47  1  0.52772755  0.33750991  -0.06427131  1.0
