# generated using pymatgen
data_RbVOF3
_symmetry_space_group_name_H-M   'P 1'
_cell_length_a   6.95278972
_cell_length_b   15.10633015
_cell_length_c   3.91860936
_cell_angle_alpha   90.00000000
_cell_angle_beta   90.00000000
_cell_angle_gamma   90.00000000
_symmetry_Int_Tables_number   1
_chemical_formula_structural   RbVOF3
_chemical_formula_sum   'Rb4 V4 O4 F12'
_cell_volume   411.57599637
_cell_formula_units_Z   4
loop_
 _symmetry_equiv_pos_site_id
 _symmetry_equiv_pos_as_xyz
  1  'x, y, z'
loop_
 _atom_site_type_symbol
 _atom_site_label
 _atom_site_symmetry_multiplicity
 _atom_site_fract_x
 _atom_site_fract_y
 _atom_site_fract_z
 _atom_site_occupancy
  Rb  Rb0  1  0.68894533  0.83554180  0.00000000  1.0
  Rb  Rb1  1  0.31105467  0.16445820  0.00000000  1.0
  Rb  Rb2  1  0.18894533  0.66445820  0.00000000  1.0
  Rb  Rb3  1  0.81105467  0.33554180  0.00000000  1.0
  V  V4  1  0.65705800  0.58715252  0.50000000  1.0
  V  V5  1  0.34294200  0.41284748  0.50000000  1.0
  V  V6  1  0.15705800  0.91284748  0.50000000  1.0
  V  V7  1  0.84294200  0.08715252  0.50000000  1.0
  O  O8  1  0.88323087  0.60860341  0.50000000  1.0
  O  O9  1  0.11676913  0.39139659  0.50000000  1.0
  O  O10  1  0.38323087  0.89139659  0.50000000  1.0
  O  O11  1  0.61676913  0.10860341  0.50000000  1.0
  F  F12  1  0.65502637  0.45758096  0.50000000  1.0
  F  F13  1  0.34497363  0.54241904  0.50000000  1.0
  F  F14  1  0.15502637  0.04241904  0.50000000  1.0
  F  F15  1  0.84497363  0.95758096  0.50000000  1.0
  F  F16  1  0.53548017  0.70000803  0.50000000  1.0
  F  F17  1  0.46451983  0.29999197  0.50000000  1.0
  F  F18  1  0.03548017  0.79999197  0.50000000  1.0
  F  F19  1  0.96451983  0.20000803  0.50000000  1.0
  F  F20  1  0.61211584  0.58584125  0.00000000  1.0
  F  F21  1  0.38788416  0.41415875  0.00000000  1.0
  F  F22  1  0.11211584  0.91415875  0.00000000  1.0
  F  F23  1  0.88788416  0.08584125  0.00000000  1.0
