# generated using pymatgen
data_YbBPt2
_symmetry_space_group_name_H-M   'P 1'
_cell_length_a   5.40632671
_cell_length_b   5.40632671
_cell_length_c   7.71607685
_cell_angle_alpha   90.00000000
_cell_angle_beta   90.00000000
_cell_angle_gamma   120.00000000
_symmetry_Int_Tables_number   1
_chemical_formula_structural   YbBPt2
_chemical_formula_sum   'Yb3 B3 Pt6'
_cell_volume   195.31326947
_cell_formula_units_Z   3
loop_
 _symmetry_equiv_pos_site_id
 _symmetry_equiv_pos_as_xyz
  1  'x, y, z'
loop_
 _atom_site_type_symbol
 _atom_site_label
 _atom_site_symmetry_multiplicity
 _atom_site_fract_x
 _atom_site_fract_y
 _atom_site_fract_z
 _atom_site_occupancy
  Yb  Yb0  1  0.50000000  0.50000000  0.33333333  1.0
  Yb  Yb1  1  0.50000000  0.00000000  0.00000000  1.0
  Yb  Yb2  1  -0.00000000  0.50000000  0.66666667  1.0
  B  B3  1  0.50000000  0.50000000  0.83333333  1.0
  B  B4  1  0.50000000  0.00000000  0.50000000  1.0
  B  B5  1  -0.00000000  0.50000000  0.16666667  1.0
  Pt  Pt6  1  0.14832474  0.85167526  0.33333333  1.0
  Pt  Pt7  1  0.14832474  0.29664948  0.00000000  1.0
  Pt  Pt8  1  0.85167526  0.14832474  0.33333333  1.0
  Pt  Pt9  1  0.85167526  0.70335052  0.00000000  1.0
  Pt  Pt10  1  0.70335052  0.85167526  0.66666667  1.0
  Pt  Pt11  1  0.29664948  0.14832474  0.66666667  1.0
