# generated using pymatgen
data_Na5Co2S5
_symmetry_space_group_name_H-M   'P 1'
_cell_length_a   7.25550165
_cell_length_b   7.25550165
_cell_length_c   7.25550165
_cell_angle_alpha   99.18993161
_cell_angle_beta   99.18993161
_cell_angle_gamma   132.88933965
_symmetry_Int_Tables_number   1
_chemical_formula_structural   Na5Co2S5
_chemical_formula_sum   'Na5 Co2 S5'
_cell_volume   256.52261490
_cell_formula_units_Z   1
loop_
 _symmetry_equiv_pos_site_id
 _symmetry_equiv_pos_as_xyz
  1  'x, y, z'
loop_
 _atom_site_type_symbol
 _atom_site_label
 _atom_site_symmetry_multiplicity
 _atom_site_fract_x
 _atom_site_fract_y
 _atom_site_fract_z
 _atom_site_occupancy
  Na  Na0  1  0.42847687  0.42847687  0.61140384  1.0
  Na  Na1  1  0.42847687  0.81707303  1.00000000  1.0
  Na  Na2  1  0.81707303  1.42847687  1.00000000  1.0
  Na  Na3  1  0.81707303  0.81707303  0.38859616  1.0
  Na  Na4  1  0.04244718  0.04244718  -0.00000000  1.0
  Co  Co5  1  0.73497912  0.23497912  0.50000000  1.0
  Co  Co6  1  1.23497912  0.73497912  0.50000000  1.0
  S  S7  1  1.67160668  0.98560142  0.68600526  1.0
  S  S8  1  0.98560142  0.67160668  0.68600526  1.0
  S  S9  1  0.98560142  1.29959616  1.31399474  1.0
  S  S10  1  1.29959616  0.98560142  0.31399474  1.0
  S  S11  1  0.51508911  0.51508911  0.00000000  1.0
