# generated using pymatgen
data_Sr3FeN3
_symmetry_space_group_name_H-M   'P 1'
_cell_length_a   7.65172566
_cell_length_b   7.65172566
_cell_length_c   5.30214276
_cell_angle_alpha   90.00000000
_cell_angle_beta   90.00000000
_cell_angle_gamma   120.00000000
_symmetry_Int_Tables_number   1
_chemical_formula_structural   Sr3FeN3
_chemical_formula_sum   'Sr6 Fe2 N6'
_cell_volume   268.84429797
_cell_formula_units_Z   2
loop_
 _symmetry_equiv_pos_site_id
 _symmetry_equiv_pos_as_xyz
  1  'x, y, z'
loop_
 _atom_site_type_symbol
 _atom_site_label
 _atom_site_symmetry_multiplicity
 _atom_site_fract_x
 _atom_site_fract_y
 _atom_site_fract_z
 _atom_site_occupancy
  Sr  Sr0  1  0.91490664  0.63960157  0.25000000  1.0
  Sr  Sr1  1  0.63960157  0.72469494  0.75000000  1.0
  Sr  Sr2  1  0.72469494  0.08509336  0.25000000  1.0
  Sr  Sr3  1  0.36039843  0.27530506  0.25000000  1.0
  Sr  Sr4  1  0.08509336  0.36039843  0.75000000  1.0
  Sr  Sr5  1  0.27530506  0.91490664  0.75000000  1.0
  Fe  Fe6  1  0.33333333  0.66666667  0.25000000  1.0
  Fe  Fe7  1  0.66666667  0.33333333  0.75000000  1.0
  N  N8  1  0.31192952  0.88298955  0.25000000  1.0
  N  N9  1  0.88298955  0.57106003  0.75000000  1.0
  N  N10  1  0.57106003  0.68807048  0.25000000  1.0
  N  N11  1  0.11701045  0.42893997  0.25000000  1.0
  N  N12  1  0.68807048  0.11701045  0.75000000  1.0
  N  N13  1  0.42893997  0.31192952  0.75000000  1.0
