# generated using pymatgen
data_PrI2
_symmetry_space_group_name_H-M   'P 1'
_cell_length_a   8.23003269
_cell_length_b   8.23003269
_cell_length_c   8.23003269
_cell_angle_alpha   152.17613293
_cell_angle_beta   152.17613293
_cell_angle_gamma   39.75614551
_symmetry_Int_Tables_number   1
_chemical_formula_structural   PrI2
_chemical_formula_sum   'Pr1 I2'
_cell_volume   121.21708966
_cell_formula_units_Z   1
loop_
 _symmetry_equiv_pos_site_id
 _symmetry_equiv_pos_as_xyz
  1  'x, y, z'
loop_
 _atom_site_type_symbol
 _atom_site_label
 _atom_site_symmetry_multiplicity
 _atom_site_fract_x
 _atom_site_fract_y
 _atom_site_fract_z
 _atom_site_occupancy
  Pr  Pr0  1  0.00000000  0.00000000  0.00000000  1.0
  I  I1  1  0.62236859  0.62236859  1.00000000  1.0
  I  I2  1  0.37763141  0.37763141  0.00000000  1.0
