# generated using pymatgen
data_Y4MgCo
_symmetry_space_group_name_H-M   'P 1'
_cell_length_a   9.61451911
_cell_length_b   9.61451911
_cell_length_c   9.61451911
_cell_angle_alpha   60.00000000
_cell_angle_beta   60.00000000
_cell_angle_gamma   60.00000000
_symmetry_Int_Tables_number   1
_chemical_formula_structural   Y4MgCo
_chemical_formula_sum   'Y16 Mg4 Co4'
_cell_volume   628.44561974
_cell_formula_units_Z   4
loop_
 _symmetry_equiv_pos_site_id
 _symmetry_equiv_pos_as_xyz
  1  'x, y, z'
loop_
 _atom_site_type_symbol
 _atom_site_label
 _atom_site_symmetry_multiplicity
 _atom_site_fract_x
 _atom_site_fract_y
 _atom_site_fract_z
 _atom_site_occupancy
  Y  Y0  1  0.06251158  0.43748842  0.43748842  1.0
  Y  Y1  1  0.43748842  0.43748842  0.06251158  1.0
  Y  Y2  1  0.43748842  0.06251158  0.43748842  1.0
  Y  Y3  1  0.06251158  0.06251158  0.43748842  1.0
  Y  Y4  1  0.06251158  0.43748842  0.06251158  1.0
  Y  Y5  1  0.43748842  0.06251158  0.06251158  1.0
  Y  Y6  1  -0.81311471  0.81311471  0.81311471  1.0
  Y  Y7  1  -0.18688529  0.81311471  0.18688529  1.0
  Y  Y8  1  -0.18688529  0.18688529  0.81311471  1.0
  Y  Y9  1  0.18688529  1.18688529  -0.18688529  1.0
  Y  Y10  1  0.18688529  -0.18688529  0.18688529  1.0
  Y  Y11  1  -0.18688529  0.18688529  0.18688529  1.0
  Y  Y12  1  -0.34412510  0.65587490  0.65587490  1.0
  Y  Y13  1  1.03237531  0.65587490  -0.34412510  1.0
  Y  Y14  1  -0.34412510  0.65587490  1.03237531  1.0
  Y  Y15  1  0.65587490  1.03237531  -0.34412510  1.0
  Mg  Mg16  1  0.42098624  1.42098624  0.42098624  1.0
  Mg  Mg17  1  -0.26295871  0.42098624  0.42098624  1.0
  Mg  Mg18  1  0.42098624  1.42098624  -0.26295871  1.0
  Mg  Mg19  1  0.42098624  -0.26295871  0.42098624  1.0
  Co  Co20  1  0.85940410  0.85940410  -0.14059590  1.0
  Co  Co21  1  0.42178770  0.85940410  -0.14059590  1.0
  Co  Co22  1  0.85940410  0.85940410  -0.57821230  1.0
  Co  Co23  1  0.85940410  0.42178770  -0.14059590  1.0
