# generated using pymatgen
data_CdWO4
_symmetry_space_group_name_H-M   'P 1'
_cell_length_a   6.76352122
_cell_length_b   6.76352122
_cell_length_c   6.76352122
_cell_angle_alpha   134.22799351
_cell_angle_beta   134.22799351
_cell_angle_gamma   66.73211910
_symmetry_Int_Tables_number   1
_chemical_formula_structural   CdWO4
_chemical_formula_sum   'Cd2 W2 O8'
_cell_volume   156.32515304
_cell_formula_units_Z   2
loop_
 _symmetry_equiv_pos_site_id
 _symmetry_equiv_pos_as_xyz
  1  'x, y, z'
loop_
 _atom_site_type_symbol
 _atom_site_label
 _atom_site_symmetry_multiplicity
 _atom_site_fract_x
 _atom_site_fract_y
 _atom_site_fract_z
 _atom_site_occupancy
  Cd  Cd0  1  0.75000000  0.25000000  0.50000000  1.0
  Cd  Cd1  1  1.00000000  1.00000000  1.00000000  1.0
  W  W2  1  0.25000000  0.75000000  0.50000000  1.0
  W  W3  1  0.50000000  0.50000000  0.00000000  1.0
  O  O4  1  0.31739844  0.41985670  0.41298593  1.0
  O  O5  1  1.16985670  1.25687078  1.60245826  1.0
  O  O6  1  1.00687078  0.90441251  1.58701407  1.0
  O  O7  1  0.65441251  0.56739844  0.39754173  1.0
  O  O8  1  1.43260156  0.83014330  1.08701407  1.0
  O  O9  1  0.58014330  0.99312922  0.89754173  1.0
  O  O10  1  0.74312922  1.34558749  0.91298593  1.0
  O  O11  1  1.09558749  0.68260156  1.10245826  1.0
