# generated using pymatgen
data_Ba(LuTe2)2
_symmetry_space_group_name_H-M   'P 1'
_cell_length_a   13.67963355
_cell_length_b   4.42967787
_cell_length_c   16.09723352
_cell_angle_alpha   90.00000000
_cell_angle_beta   90.00000000
_cell_angle_gamma   90.00000000
_symmetry_Int_Tables_number   1
_chemical_formula_structural   Ba(LuTe2)2
_chemical_formula_sum   'Ba4 Lu8 Te16'
_cell_volume   975.43391935
_cell_formula_units_Z   4
loop_
 _symmetry_equiv_pos_site_id
 _symmetry_equiv_pos_as_xyz
  1  'x, y, z'
loop_
 _atom_site_type_symbol
 _atom_site_label
 _atom_site_symmetry_multiplicity
 _atom_site_fract_x
 _atom_site_fract_y
 _atom_site_fract_z
 _atom_site_occupancy
  Ba  Ba0  1  0.76209559  0.75000000  0.67060710  1.0
  Ba  Ba1  1  0.26209559  0.75000000  0.82939290  1.0
  Ba  Ba2  1  0.23790441  0.25000000  0.32939290  1.0
  Ba  Ba3  1  0.73790441  0.25000000  0.17060710  1.0
  Lu  Lu4  1  0.91904563  0.75000000  0.40388035  1.0
  Lu  Lu5  1  0.41904563  0.75000000  0.09611965  1.0
  Lu  Lu6  1  0.08095437  0.25000000  0.59611965  1.0
  Lu  Lu7  1  0.58095437  0.25000000  0.90388035  1.0
  Lu  Lu8  1  0.44257800  0.75000000  0.60991987  1.0
  Lu  Lu9  1  0.94257800  0.75000000  0.89008013  1.0
  Lu  Lu10  1  0.55742200  0.25000000  0.39008013  1.0
  Lu  Lu11  1  0.05742200  0.25000000  0.10991987  1.0
  Te  Te12  1  0.90979205  0.75000000  0.07498820  1.0
  Te  Te13  1  0.40979205  0.75000000  0.42501180  1.0
  Te  Te14  1  0.09020795  0.25000000  0.92501180  1.0
  Te  Te15  1  0.59020795  0.25000000  0.57498820  1.0
  Te  Te16  1  0.70383083  0.75000000  0.34322102  1.0
  Te  Te17  1  0.20383083  0.75000000  0.15677898  1.0
  Te  Te18  1  0.29616917  0.25000000  0.65677898  1.0
  Te  Te19  1  0.79616917  0.25000000  0.84322102  1.0
  Te  Te20  1  0.62539068  0.75000000  0.02827361  1.0
  Te  Te21  1  0.12539068  0.75000000  0.47172639  1.0
  Te  Te22  1  0.37460932  0.25000000  0.97172639  1.0
  Te  Te23  1  0.87460932  0.25000000  0.52827361  1.0
  Te  Te24  1  0.52877538  0.75000000  0.78455100  1.0
  Te  Te25  1  0.02877538  0.75000000  0.71544900  1.0
  Te  Te26  1  0.47122462  0.25000000  0.21544900  1.0
  Te  Te27  1  0.97122462  0.25000000  0.28455100  1.0
