# generated using pymatgen
data_Sr2Cu(BiO3)2
_symmetry_space_group_name_H-M   'P 1'
_cell_length_a   13.02212144
_cell_length_b   13.02212144
_cell_length_c   13.02212144
_cell_angle_alpha   163.73712935
_cell_angle_beta   163.73712935
_cell_angle_gamma   23.07772735
_symmetry_Int_Tables_number   1
_chemical_formula_structural   Sr2Cu(BiO3)2
_chemical_formula_sum   'Sr2 Cu1 Bi2 O6'
_cell_volume   173.14474694
_cell_formula_units_Z   1
loop_
 _symmetry_equiv_pos_site_id
 _symmetry_equiv_pos_as_xyz
  1  'x, y, z'
loop_
 _atom_site_type_symbol
 _atom_site_label
 _atom_site_symmetry_multiplicity
 _atom_site_fract_x
 _atom_site_fract_y
 _atom_site_fract_z
 _atom_site_occupancy
  Sr  Sr0  1  0.57228364  0.57228364  1.00000000  1.0
  Sr  Sr1  1  0.42771636  0.42771636  0.00000000  1.0
  Cu  Cu2  1  0.00000000  0.00000000  0.00000000  1.0
  Bi  Bi3  1  0.81424744  0.81424744  1.00000000  1.0
  Bi  Bi4  1  0.18575256  0.18575256  0.00000000  1.0
  O  O5  1  0.89495498  0.89495498  1.00000000  1.0
  O  O6  1  0.10504502  0.10504502  0.00000000  1.0
  O  O7  1  0.68422878  0.68422878  1.00000000  1.0
  O  O8  1  0.31577122  0.31577122  0.00000000  1.0
  O  O9  1  0.50000000  0.00000000  0.50000000  1.0
  O  O10  1  0.00000000  0.50000000  0.50000000  1.0
