# generated using pymatgen
data_TlAg(PO3)2
_symmetry_space_group_name_H-M   'P 1'
_cell_length_a   6.37277518
_cell_length_b   13.57533385
_cell_length_c   7.63425036
_cell_angle_alpha   90.00000000
_cell_angle_beta   96.53282118
_cell_angle_gamma   90.00000000
_symmetry_Int_Tables_number   1
_chemical_formula_structural   TlAg(PO3)2
_chemical_formula_sum   'Tl4 Ag4 P8 O24'
_cell_volume   656.17001262
_cell_formula_units_Z   4
loop_
 _symmetry_equiv_pos_site_id
 _symmetry_equiv_pos_as_xyz
  1  'x, y, z'
loop_
 _atom_site_type_symbol
 _atom_site_label
 _atom_site_symmetry_multiplicity
 _atom_site_fract_x
 _atom_site_fract_y
 _atom_site_fract_z
 _atom_site_occupancy
  Tl  Tl0  1  0.28854626  0.15972171  0.23608447  1.0
  Tl  Tl1  1  0.28854626  0.34027829  0.73608447  1.0
  Tl  Tl2  1  0.71145374  0.65972171  0.26391553  1.0
  Tl  Tl3  1  0.71145374  0.84027829  0.76391553  1.0
  Ag  Ag4  1  0.82904501  0.97311388  0.19342720  1.0
  Ag  Ag5  1  0.82904501  0.52688612  0.69342720  1.0
  Ag  Ag6  1  0.17095499  0.47311388  0.30657280  1.0
  Ag  Ag7  1  0.17095499  0.02688612  0.80657280  1.0
  P  P8  1  0.67594354  0.36162200  0.36382263  1.0
  P  P9  1  0.67594354  0.13837800  0.86382263  1.0
  P  P10  1  0.32405646  0.86162200  0.13617737  1.0
  P  P11  1  0.32405646  0.63837800  0.63617737  1.0
  P  P12  1  0.82075926  0.16438216  0.50403226  1.0
  P  P13  1  0.82075926  0.33561784  1.00403226  1.0
  P  P14  1  0.17924074  0.66438216  -0.00403226  1.0
  P  P15  1  0.17924074  0.83561784  0.49596774  1.0
  O  O16  1  0.45615133  0.34458710  0.41376925  1.0
  O  O17  1  0.45615133  0.15541290  0.91376925  1.0
  O  O18  1  0.54384867  0.84458710  0.08623075  1.0
  O  O19  1  0.54384867  0.65541290  0.58623075  1.0
  O  O20  1  0.66091869  0.33259550  0.15623067  1.0
  O  O21  1  0.66091869  0.16740450  0.65623067  1.0
  O  O22  1  0.33908131  0.83259550  0.34376933  1.0
  O  O23  1  0.33908131  0.66740450  0.84376933  1.0
  O  O24  1  0.70272471  0.11303131  0.34688412  1.0
  O  O25  1  0.70272471  0.38696869  0.84688412  1.0
  O  O26  1  0.29727529  0.61303131  0.15311588  1.0
  O  O27  1  0.29727529  0.88696869  0.65311588  1.0
  O  O28  1  0.78203594  0.46092578  0.39493183  1.0
  O  O29  1  0.78203594  0.03907422  0.89493183  1.0
  O  O30  1  0.21796406  0.96092578  0.10506817  1.0
  O  O31  1  0.21796406  0.53907422  0.60506817  1.0
  O  O32  1  0.84205651  0.28188851  0.46028227  1.0
  O  O33  1  0.84205651  0.21811149  0.96028227  1.0
  O  O34  1  0.15794349  0.78188851  0.03971773  1.0
  O  O35  1  0.15794349  0.71811149  0.53971773  1.0
  O  O36  1  0.95950362  0.86687448  0.42460614  1.0
  O  O37  1  0.95950362  0.63312552  0.92460614  1.0
  O  O38  1  0.04049638  0.36687448  0.07539386  1.0
  O  O39  1  0.04049638  0.13312552  0.57539386  1.0
