# generated using pymatgen
data_SbCNCl4O
_symmetry_space_group_name_H-M   'P 1'
_cell_length_a   12.14671706
_cell_length_b   12.14671706
_cell_length_c   11.18400151
_cell_angle_alpha   90.00000000
_cell_angle_beta   90.00000000
_cell_angle_gamma   120.00000000
_symmetry_Int_Tables_number   1
_chemical_formula_structural   SbCNCl4O
_chemical_formula_sum   'Sb6 C6 N6 Cl24 O6'
_cell_volume   1429.04425899
_cell_formula_units_Z   6
loop_
 _symmetry_equiv_pos_site_id
 _symmetry_equiv_pos_as_xyz
  1  'x, y, z'
loop_
 _atom_site_type_symbol
 _atom_site_label
 _atom_site_symmetry_multiplicity
 _atom_site_fract_x
 _atom_site_fract_y
 _atom_site_fract_z
 _atom_site_occupancy
  Sb  Sb0  1  0.32408164  0.95299426  0.25000000  1.0
  Sb  Sb1  1  0.95299426  0.62891262  0.75000000  1.0
  Sb  Sb2  1  0.62891262  0.67591836  0.25000000  1.0
  Sb  Sb3  1  0.04700574  0.37108738  0.25000000  1.0
  Sb  Sb4  1  0.67591836  0.04700574  0.75000000  1.0
  Sb  Sb5  1  0.37108738  0.32408164  0.75000000  1.0
  C  C6  1  0.24509724  0.70374610  0.25000000  1.0
  C  C7  1  0.70374610  0.45864885  0.75000000  1.0
  C  C8  1  0.45864885  0.75490276  0.25000000  1.0
  C  C9  1  0.29625390  0.54135115  0.25000000  1.0
  C  C10  1  0.75490276  0.29625390  0.75000000  1.0
  C  C11  1  0.54135115  0.24509724  0.75000000  1.0
  N  N12  1  0.37198351  0.79286588  0.25000000  1.0
  N  N13  1  0.79286588  0.42088238  0.75000000  1.0
  N  N14  1  0.42088238  0.62801649  0.25000000  1.0
  N  N15  1  0.20713412  0.57911762  0.25000000  1.0
  N  N16  1  0.62801649  0.20713412  0.75000000  1.0
  N  N17  1  0.57911762  0.37198351  0.75000000  1.0
  Cl  Cl18  1  0.31610838  0.93098271  0.46041209  1.0
  Cl  Cl19  1  0.31610838  0.93098271  0.03958791  1.0
  Cl  Cl20  1  0.93098271  0.61487433  0.96041209  1.0
  Cl  Cl21  1  0.93098271  0.61487433  0.53958791  1.0
  Cl  Cl22  1  0.61487433  0.68389162  0.46041209  1.0
  Cl  Cl23  1  0.61487433  0.68389162  0.03958791  1.0
  Cl  Cl24  1  0.06901729  0.38512567  0.46041209  1.0
  Cl  Cl25  1  0.06901729  0.38512567  0.03958791  1.0
  Cl  Cl26  1  0.68389162  0.06901729  0.96041209  1.0
  Cl  Cl27  1  0.68389162  0.06901729  0.53958791  1.0
  Cl  Cl28  1  0.38512567  0.31610838  0.96041209  1.0
  Cl  Cl29  1  0.38512567  0.31610838  0.53958791  1.0
  Cl  Cl30  1  0.84978288  0.80915118  0.25000000  1.0
  Cl  Cl31  1  0.80915118  0.95936830  0.75000000  1.0
  Cl  Cl32  1  0.95936830  0.15021712  0.25000000  1.0
  Cl  Cl33  1  0.19084882  0.04063170  0.25000000  1.0
  Cl  Cl34  1  0.15021712  0.19084882  0.75000000  1.0
  Cl  Cl35  1  0.04063170  0.84978288  0.75000000  1.0
  Cl  Cl36  1  0.59565590  0.46880747  0.25000000  1.0
  Cl  Cl37  1  0.46880747  0.87315157  0.75000000  1.0
  Cl  Cl38  1  0.87315157  0.40434410  0.25000000  1.0
  Cl  Cl39  1  0.53119253  0.12684843  0.25000000  1.0
  Cl  Cl40  1  0.40434410  0.53119253  0.75000000  1.0
  Cl  Cl41  1  0.12684843  0.59565590  0.75000000  1.0
  O  O42  1  0.17077897  0.74943240  0.25000000  1.0
  O  O43  1  0.74943240  0.57865343  0.75000000  1.0
  O  O44  1  0.57865343  0.82922103  0.25000000  1.0
  O  O45  1  0.25056760  0.42134657  0.25000000  1.0
  O  O46  1  0.82922103  0.25056760  0.75000000  1.0
  O  O47  1  0.42134657  0.17077897  0.75000000  1.0
