# generated using pymatgen
data_CaSnAu
_symmetry_space_group_name_H-M   'P 1'
_cell_length_a   6.05300910
_cell_length_b   6.05300910
_cell_length_c   6.05300910
_cell_angle_alpha   133.34190479
_cell_angle_beta   104.93852879
_cell_angle_gamma   93.20260937
_symmetry_Int_Tables_number   1
_chemical_formula_structural   CaSnAu
_chemical_formula_sum   'Ca2 Sn2 Au2'
_cell_volume   147.03931875
_cell_formula_units_Z   2
loop_
 _symmetry_equiv_pos_site_id
 _symmetry_equiv_pos_as_xyz
  1  'x, y, z'
loop_
 _atom_site_type_symbol
 _atom_site_label
 _atom_site_symmetry_multiplicity
 _atom_site_fract_x
 _atom_site_fract_y
 _atom_site_fract_z
 _atom_site_occupancy
  Ca  Ca0  1  0.56962521  0.06962521  0.50000000  1.0
  Ca  Ca1  1  0.01247226  0.01247226  -0.00000000  1.0
  Sn  Sn2  1  1.16553450  1.37405535  0.79147915  1.0
  Sn  Sn3  1  1.58257620  1.37405535  1.20852085  1.0
  Au  Au4  1  0.43465962  0.70539592  0.72926370  1.0
  Au  Au5  1  0.97613222  0.70539592  1.27073630  1.0
