# generated using pymatgen
data_LuHg3
_symmetry_space_group_name_H-M   'P 1'
_cell_length_a   6.57614932
_cell_length_b   6.57614932
_cell_length_c   4.98709092
_cell_angle_alpha   90.00000000
_cell_angle_beta   90.00000000
_cell_angle_gamma   120.00000000
_symmetry_Int_Tables_number   1
_chemical_formula_structural   LuHg3
_chemical_formula_sum   'Lu2 Hg6'
_cell_volume   186.77607662
_cell_formula_units_Z   2
loop_
 _symmetry_equiv_pos_site_id
 _symmetry_equiv_pos_as_xyz
  1  'x, y, z'
loop_
 _atom_site_type_symbol
 _atom_site_label
 _atom_site_symmetry_multiplicity
 _atom_site_fract_x
 _atom_site_fract_y
 _atom_site_fract_z
 _atom_site_occupancy
  Lu  Lu0  1  0.33333333  0.66666667  0.75000000  1.0
  Lu  Lu1  1  0.66666667  0.33333333  0.25000000  1.0
  Hg  Hg2  1  0.16781497  0.83218503  0.25000000  1.0
  Hg  Hg3  1  0.16781497  0.33562995  0.25000000  1.0
  Hg  Hg4  1  0.83218503  0.16781497  0.75000000  1.0
  Hg  Hg5  1  0.83218503  0.66437005  0.75000000  1.0
  Hg  Hg6  1  0.66437005  0.83218503  0.25000000  1.0
  Hg  Hg7  1  0.33562995  0.16781497  0.75000000  1.0
