# generated using pymatgen
data_KCd(BO2)3
_symmetry_space_group_name_H-M   'P 1'
_cell_length_a   7.60976195
_cell_length_b   7.60976195
_cell_length_c   12.92819142
_cell_angle_alpha   81.71050158
_cell_angle_beta   98.28949842
_cell_angle_gamma   57.30670987
_symmetry_Int_Tables_number   1
_chemical_formula_structural   KCd(BO2)3
_chemical_formula_sum   'K4 Cd4 B12 O24'
_cell_volume   600.89232141
_cell_formula_units_Z   4
loop_
 _symmetry_equiv_pos_site_id
 _symmetry_equiv_pos_as_xyz
  1  'x, y, z'
loop_
 _atom_site_type_symbol
 _atom_site_label
 _atom_site_symmetry_multiplicity
 _atom_site_fract_x
 _atom_site_fract_y
 _atom_site_fract_z
 _atom_site_occupancy
  K  K0  1  0.31588082  0.16529261  0.63020118  1.0
  K  K1  1  0.83470739  -0.31588082  0.13020118  1.0
  K  K2  1  1.16529261  -0.68411918  0.86979882  1.0
  K  K3  1  0.68411918  -0.16529261  0.36979882  1.0
  Cd  Cd4  1  0.52196043  -0.37711716  0.87685877  1.0
  Cd  Cd5  1  1.37711716  -0.52196043  0.37685877  1.0
  Cd  Cd6  1  0.62288284  -0.47803957  0.62314123  1.0
  Cd  Cd7  1  0.47803957  0.37711716  0.12314123  1.0
  B  B8  1  0.68382865  -0.07178797  0.87351769  1.0
  B  B9  1  1.07178797  -0.68382865  0.37351769  1.0
  B  B10  1  0.92821203  -0.31617135  0.62648231  1.0
  B  B11  1  0.31617135  0.07178797  0.12648231  1.0
  B  B12  1  0.76662978  0.07526791  0.58935127  1.0
  B  B13  1  0.92473209  -0.76662978  0.08935127  1.0
  B  B14  1  1.07526791  -0.23337022  0.91064873  1.0
  B  B15  1  0.23337022  -0.07526791  0.41064873  1.0
  B  B16  1  0.81374260  0.16056052  0.84494199  1.0
  B  B17  1  0.83943948  -0.81374260  0.34494199  1.0
  B  B18  1  1.16056052  -0.18625740  0.65505801  1.0
  B  B19  1  0.18625740  -0.16056052  0.15505801  1.0
  O  O20  1  0.74660618  -0.09809514  0.58858126  1.0
  O  O21  1  1.09809514  -0.74660618  0.08858126  1.0
  O  O22  1  0.90190486  -0.25339382  0.91141874  1.0
  O  O23  1  0.25339382  0.09809514  0.41141874  1.0
  O  O24  1  0.51688833  -0.08620596  0.87031859  1.0
  O  O25  1  1.08620596  -0.51688833  0.37031859  1.0
  O  O26  1  0.91379404  -0.48311167  0.62968141  1.0
  O  O27  1  0.48311167  0.08620596  0.12968141  1.0
  O  O28  1  0.35765816  -0.22458885  0.68180351  1.0
  O  O29  1  1.22458885  -0.35765816  0.18180351  1.0
  O  O30  1  0.77541115  -0.64234184  0.81819649  1.0
  O  O31  1  0.64234184  0.22458885  0.31819649  1.0
  O  O32  1  0.64545018  0.13258149  0.83895790  1.0
  O  O33  1  0.86741851  -0.64545018  0.33895790  1.0
  O  O34  1  1.13258149  -0.35454982  0.66104210  1.0
  O  O35  1  0.35454982  -0.13258149  0.16104210  1.0
  O  O36  1  0.58810281  0.27901415  0.56297104  1.0
  O  O37  1  0.72098585  -0.58810281  0.06297104  1.0
  O  O38  1  1.27901415  -0.41189719  0.93702896  1.0
  O  O39  1  0.41189719  -0.27901415  0.43702896  1.0
  O  O40  1  0.02769601  -0.02557243  0.87905139  1.0
  O  O41  1  1.02557243  -0.02769601  0.37905139  1.0
  O  O42  1  0.97442757  -0.97230399  0.62094861  1.0
  O  O43  1  0.97230399  0.02557243  0.12094861  1.0
