# generated using pymatgen
data_CsAlH4
_symmetry_space_group_name_H-M   'P 1'
_cell_length_a   8.36027711
_cell_length_b   8.36027711
_cell_length_c   8.36027711
_cell_angle_alpha   140.24999411
_cell_angle_beta   140.24999411
_cell_angle_gamma   57.47391433
_symmetry_Int_Tables_number   1
_chemical_formula_structural   CsAlH4
_chemical_formula_sum   'Cs2 Al2 H8'
_cell_volume   236.87534811
_cell_formula_units_Z   2
loop_
 _symmetry_equiv_pos_site_id
 _symmetry_equiv_pos_as_xyz
  1  'x, y, z'
loop_
 _atom_site_type_symbol
 _atom_site_label
 _atom_site_symmetry_multiplicity
 _atom_site_fract_x
 _atom_site_fract_y
 _atom_site_fract_z
 _atom_site_occupancy
  Cs  Cs0  1  0.25000000  0.75000000  0.50000000  1.0
  Cs  Cs1  1  0.50000000  0.50000000  -0.00000000  1.0
  Al  Al2  1  1.00000000  1.00000000  1.00000000  1.0
  Al  Al3  1  0.75000000  0.25000000  0.50000000  1.0
  H  H4  1  1.17596144  0.93733940  1.23862203  1.0
  H  H5  1  0.69871737  0.93733940  0.76137797  1.0
  H  H6  1  0.68733940  0.42596144  0.73862203  1.0
  H  H7  1  0.68733940  0.94871737  1.26137797  1.0
  H  H8  1  0.57403856  0.31266060  0.26137797  1.0
  H  H9  1  1.05128263  0.31266060  0.73862203  1.0
  H  H10  1  1.06266060  0.82403856  0.76137797  1.0
  H  H11  1  1.06266060  1.30128263  1.23862203  1.0
