# generated using pymatgen
data_Ca(H2N)2
_symmetry_space_group_name_H-M   'P 1'
_cell_length_a   6.39434146
_cell_length_b   7.31632115
_cell_length_c   6.34231611
_cell_angle_alpha   90.00000000
_cell_angle_beta   110.17758155
_cell_angle_gamma   90.00000000
_symmetry_Int_Tables_number   1
_chemical_formula_structural   Ca(H2N)2
_chemical_formula_sum   'Ca4 H16 N8'
_cell_volume   278.50307931
_cell_formula_units_Z   4
loop_
 _symmetry_equiv_pos_site_id
 _symmetry_equiv_pos_as_xyz
  1  'x, y, z'
loop_
 _atom_site_type_symbol
 _atom_site_label
 _atom_site_symmetry_multiplicity
 _atom_site_fract_x
 _atom_site_fract_y
 _atom_site_fract_z
 _atom_site_occupancy
  Ca  Ca0  1  0.74967942  0.87748956  0.99898005  1.0
  Ca  Ca1  1  0.74967942  0.62251044  0.49898005  1.0
  Ca  Ca2  1  0.25032058  0.37748956  0.50101995  1.0
  Ca  Ca3  1  0.25032058  0.12251044  0.00101995  1.0
  H  H4  1  0.98546916  0.42004600  0.86397443  1.0
  H  H5  1  0.98546916  0.07995400  0.36397443  1.0
  H  H6  1  0.01453084  0.92004600  0.63602557  1.0
  H  H7  1  0.01453084  0.57995400  0.13602557  1.0
  H  H8  1  0.87156958  0.26952703  0.67218813  1.0
  H  H9  1  0.87156958  0.23047297  0.17218813  1.0
  H  H10  1  0.12843042  0.76952703  0.82781187  1.0
  H  H11  1  0.12843042  0.73047297  0.32781187  1.0
  H  H12  1  0.55926157  0.53522341  0.88289952  1.0
  H  H13  1  0.55926157  0.96477659  0.38289952  1.0
  H  H14  1  0.44073843  0.03522341  0.61710048  1.0
  H  H15  1  0.44073843  0.46477659  0.11710048  1.0
  H  H16  1  0.38544952  0.69063072  0.74301515  1.0
  H  H17  1  0.38544952  0.80936928  0.24301515  1.0
  H  H18  1  0.61455048  0.19063072  0.75698485  1.0
  H  H19  1  0.61455048  0.30936928  0.25698485  1.0
  N  N20  1  0.99855975  0.86108745  0.77672519  1.0
  N  N21  1  0.99855975  0.63891255  0.27672519  1.0
  N  N22  1  0.00144025  0.36108745  0.72327481  1.0
  N  N23  1  0.00144025  0.13891255  0.22327481  1.0
  N  N24  1  0.52342257  0.61804464  0.74395458  1.0
  N  N25  1  0.52342257  0.88195536  0.24395458  1.0
  N  N26  1  0.47657743  0.11804464  0.75604542  1.0
  N  N27  1  0.47657743  0.38195536  0.25604542  1.0
