# generated using pymatgen
data_Sb3ClO4
_symmetry_space_group_name_H-M   'P 1'
_cell_length_a   9.66830093
_cell_length_b   5.53937158
_cell_length_c   5.74686760
_cell_angle_alpha   90.00000000
_cell_angle_beta   94.67839088
_cell_angle_gamma   90.00000000
_symmetry_Int_Tables_number   1
_chemical_formula_structural   Sb3ClO4
_chemical_formula_sum   'Sb6 Cl2 O8'
_cell_volume   306.75557190
_cell_formula_units_Z   2
loop_
 _symmetry_equiv_pos_site_id
 _symmetry_equiv_pos_as_xyz
  1  'x, y, z'
loop_
 _atom_site_type_symbol
 _atom_site_label
 _atom_site_symmetry_multiplicity
 _atom_site_fract_x
 _atom_site_fract_y
 _atom_site_fract_z
 _atom_site_occupancy
  Sb  Sb0  1  0.70704261  0.80538691  0.80333910  1.0
  Sb  Sb1  1  0.70704261  0.19461309  0.30333910  1.0
  Sb  Sb2  1  0.29295739  0.80538691  0.69666090  1.0
  Sb  Sb3  1  0.29295739  0.19461309  0.19666090  1.0
  Sb  Sb4  1  0.00000000  0.32681146  0.75000000  1.0
  Sb  Sb5  1  0.00000000  0.67318854  0.25000000  1.0
  Cl  Cl6  1  0.50000000  0.21266242  0.75000000  1.0
  Cl  Cl7  1  0.50000000  0.78733758  0.25000000  1.0
  O  O8  1  0.87979695  0.58417023  0.90048423  1.0
  O  O9  1  0.87979695  0.41582977  0.40048423  1.0
  O  O10  1  0.12020305  0.58417023  0.59951577  1.0
  O  O11  1  0.12020305  0.41582977  0.09951577  1.0
  O  O12  1  0.79834136  0.97263051  0.54714289  1.0
  O  O13  1  0.79834136  0.02736949  0.04714289  1.0
  O  O14  1  0.20165864  0.97263051  0.95285711  1.0
  O  O15  1  0.20165864  0.02736949  0.45285711  1.0
