# generated using pymatgen
data_Na3H6Rh
_symmetry_space_group_name_H-M   'P 1'
_cell_length_a   9.36129299
_cell_length_b   5.24927502
_cell_length_c   9.62184001
_cell_angle_alpha   90.00000000
_cell_angle_beta   90.00000000
_cell_angle_gamma   90.00000000
_symmetry_Int_Tables_number   1
_chemical_formula_structural   Na3H6Rh
_chemical_formula_sum   'Na12 H24 Rh4'
_cell_volume   472.81723267
_cell_formula_units_Z   4
loop_
 _symmetry_equiv_pos_site_id
 _symmetry_equiv_pos_as_xyz
  1  'x, y, z'
loop_
 _atom_site_type_symbol
 _atom_site_label
 _atom_site_symmetry_multiplicity
 _atom_site_fract_x
 _atom_site_fract_y
 _atom_site_fract_z
 _atom_site_occupancy
  Na  Na0  1  0.95522643  0.75000000  0.12701249  1.0
  Na  Na1  1  0.45522643  0.75000000  0.37298751  1.0
  Na  Na2  1  0.04477357  0.25000000  0.87298751  1.0
  Na  Na3  1  0.54477357  0.25000000  0.62701249  1.0
  Na  Na4  1  0.77994255  0.75000000  0.75091302  1.0
  Na  Na5  1  0.27994255  0.75000000  0.74908698  1.0
  Na  Na6  1  0.22005745  0.25000000  0.24908698  1.0
  Na  Na7  1  0.72005745  0.25000000  0.25091302  1.0
  Na  Na8  1  0.60226785  0.75000000  0.03348688  1.0
  Na  Na9  1  0.10226785  0.75000000  0.46651312  1.0
  Na  Na10  1  0.39773215  0.25000000  0.96651312  1.0
  Na  Na11  1  0.89773215  0.25000000  0.53348688  1.0
  H  H12  1  0.89003138  0.96531215  0.33753925  1.0
  H  H13  1  0.89003138  0.53468785  0.33753925  1.0
  H  H14  1  0.39003138  0.96531215  0.16246075  1.0
  H  H15  1  0.39003138  0.53468785  0.16246075  1.0
  H  H16  1  0.10996862  0.46531215  0.66246075  1.0
  H  H17  1  0.10996862  0.03468785  0.66246075  1.0
  H  H18  1  0.60996862  0.46531215  0.83753925  1.0
  H  H19  1  0.60996862  0.03468785  0.83753925  1.0
  H  H20  1  0.66960143  0.98114519  0.46199382  1.0
  H  H21  1  0.66960143  0.51885481  0.46199382  1.0
  H  H22  1  0.16960143  0.98114519  0.03800618  1.0
  H  H23  1  0.16960143  0.51885481  0.03800618  1.0
  H  H24  1  0.33039857  0.48114519  0.53800618  1.0
  H  H25  1  0.33039857  0.01885481  0.53800618  1.0
  H  H26  1  0.83039857  0.48114519  0.96199382  1.0
  H  H27  1  0.83039857  0.01885481  0.96199382  1.0
  H  H28  1  0.87253565  0.75000000  0.54615963  1.0
  H  H29  1  0.37253565  0.75000000  0.95384037  1.0
  H  H30  1  0.12746435  0.25000000  0.45384037  1.0
  H  H31  1  0.62746435  0.25000000  0.04615963  1.0
  H  H32  1  0.68506776  0.75000000  0.25345699  1.0
  H  H33  1  0.18506776  0.75000000  0.24654301  1.0
  H  H34  1  0.31493224  0.25000000  0.74654301  1.0
  H  H35  1  0.81493224  0.25000000  0.75345699  1.0
  Rh  Rh36  1  0.77709789  0.75000000  0.40119432  1.0
  Rh  Rh37  1  0.27709789  0.75000000  0.09880568  1.0
  Rh  Rh38  1  0.22290211  0.25000000  0.59880568  1.0
  Rh  Rh39  1  0.72290211  0.25000000  0.90119432  1.0
