# generated using pymatgen
data_Ba(AuO2)2
_symmetry_space_group_name_H-M   'P 1'
_cell_length_a   6.94178654
_cell_length_b   6.94178654
_cell_length_c   6.94178654
_cell_angle_alpha   123.67358808
_cell_angle_beta   123.67358808
_cell_angle_gamma   83.74683897
_symmetry_Int_Tables_number   1
_chemical_formula_structural   Ba(AuO2)2
_chemical_formula_sum   'Ba2 Au4 O8'
_cell_volume   221.95507010
_cell_formula_units_Z   2
loop_
 _symmetry_equiv_pos_site_id
 _symmetry_equiv_pos_as_xyz
  1  'x, y, z'
loop_
 _atom_site_type_symbol
 _atom_site_label
 _atom_site_symmetry_multiplicity
 _atom_site_fract_x
 _atom_site_fract_y
 _atom_site_fract_z
 _atom_site_occupancy
  Ba  Ba0  1  0.75000000  0.25000000  0.50000000  1.0
  Ba  Ba1  1  1.00000000  1.00000000  1.00000000  1.0
  Au  Au2  1  0.37500000  1.12500000  0.75000000  1.0
  Au  Au3  1  0.37500000  0.62500000  0.25000000  1.0
  Au  Au4  1  0.37500000  0.62500000  0.75000000  1.0
  Au  Au5  1  0.87500000  0.62500000  1.25000000  1.0
  O  O6  1  0.69690309  1.28051282  0.88646487  1.0
  O  O7  1  1.39404795  0.81043823  1.11353513  1.0
  O  O8  1  0.56043823  0.94690309  0.91639027  1.0
  O  O9  1  1.03051282  0.64404795  1.08360973  1.0
  O  O10  1  1.05309691  0.96948718  1.61353513  1.0
  O  O11  1  0.35595205  0.43956177  0.38646487  1.0
  O  O12  1  1.18956177  1.30309691  1.58360973  1.0
  O  O13  1  0.71948718  0.60595205  0.41639027  1.0
