# generated using pymatgen
data_Sr(Si3N4)2
_symmetry_space_group_name_H-M   'P 1'
_cell_length_a   6.59502586
_cell_length_b   6.59502586
_cell_length_c   6.59502586
_cell_angle_alpha   105.92146966
_cell_angle_beta   89.74545539
_cell_angle_gamma   136.89671053
_symmetry_Int_Tables_number   1
_chemical_formula_structural   Sr(Si3N4)2
_chemical_formula_sum   'Sr1 Si6 N8'
_cell_volume   179.92133940
_cell_formula_units_Z   1
loop_
 _symmetry_equiv_pos_site_id
 _symmetry_equiv_pos_as_xyz
  1  'x, y, z'
loop_
 _atom_site_type_symbol
 _atom_site_label
 _atom_site_symmetry_multiplicity
 _atom_site_fract_x
 _atom_site_fract_y
 _atom_site_fract_z
 _atom_site_occupancy
  Sr  Sr0  1  -0.01243341  -0.01243341  0.00000000  1.0
  Si  Si1  1  1.32911382  1.19249284  1.54260505  1.0
  Si  Si2  1  0.64988779  1.19249284  0.86337902  1.0
  Si  Si3  1  1.32911382  0.78650877  1.13662098  1.0
  Si  Si4  1  0.64988779  0.78650877  0.45739495  1.0
  Si  Si5  1  1.10879038  1.48159886  0.62719153  1.0
  Si  Si6  1  1.85440733  1.48159886  1.37280847  1.0
  N  N7  1  0.93734207  0.81688108  1.48362721  1.0
  N  N8  1  0.33325387  0.81688108  0.87953901  1.0
  N  N9  1  0.93734207  0.45371486  1.12046099  1.0
  N  N10  1  0.33325387  0.45371486  0.51637279  1.0
  N  N11  1  0.82015716  1.13603915  0.68411801  1.0
  N  N12  1  1.45192114  1.13603915  1.31588199  1.0
  N  N13  1  0.55738116  1.34823692  0.79085577  1.0
  N  N14  1  0.55738116  0.76652539  0.20914423  1.0
