# generated using pymatgen
data_InAg(WO4)2
_symmetry_space_group_name_H-M   'P 1'
_cell_length_a   10.36795662
_cell_length_b   5.95545239
_cell_length_c   5.10054442
_cell_angle_alpha   90.00000000
_cell_angle_beta   91.54512944
_cell_angle_gamma   90.00000000
_symmetry_Int_Tables_number   1
_chemical_formula_structural   InAg(WO4)2
_chemical_formula_sum   'In2 Ag2 W4 O16'
_cell_volume   314.82305080
_cell_formula_units_Z   2
loop_
 _symmetry_equiv_pos_site_id
 _symmetry_equiv_pos_as_xyz
  1  'x, y, z'
loop_
 _atom_site_type_symbol
 _atom_site_label
 _atom_site_symmetry_multiplicity
 _atom_site_fract_x
 _atom_site_fract_y
 _atom_site_fract_z
 _atom_site_occupancy
  In  In0  1  -0.00000000  0.68425764  0.25000000  1.0
  In  In1  1  0.00000000  0.31574236  0.75000000  1.0
  Ag  Ag2  1  0.50000000  0.68404243  0.25000000  1.0
  Ag  Ag3  1  0.50000000  0.31595757  0.75000000  1.0
  W  W4  1  0.76064271  0.82632682  0.75046973  1.0
  W  W5  1  0.76064271  0.17367318  0.25046973  1.0
  W  W6  1  0.23935729  0.82632682  0.74953027  1.0
  W  W7  1  0.23935729  0.17367318  0.24953027  1.0
  O  O8  1  0.88464596  0.37446082  0.39240477  1.0
  O  O9  1  0.88464596  0.62553918  0.89240477  1.0
  O  O10  1  0.11535404  0.37446082  0.10759523  1.0
  O  O11  1  0.11535404  0.62553918  0.60759523  1.0
  O  O12  1  0.86903393  0.89598964  0.44675841  1.0
  O  O13  1  0.86903393  0.10401036  0.94675841  1.0
  O  O14  1  0.13096607  0.89598964  0.05324159  1.0
  O  O15  1  0.13096607  0.10401036  0.55324159  1.0
  O  O16  1  0.67303027  0.90432925  0.05686435  1.0
  O  O17  1  0.67303027  0.09567075  0.55686435  1.0
  O  O18  1  0.32696973  0.90432925  0.44313565  1.0
  O  O19  1  0.32696973  0.09567075  0.94313565  1.0
  O  O20  1  0.64653909  0.36037829  0.11307010  1.0
  O  O21  1  0.64653909  0.63962171  0.61307010  1.0
  O  O22  1  0.35346091  0.36037829  0.38692990  1.0
  O  O23  1  0.35346091  0.63962171  0.88692990  1.0
