# generated using pymatgen
data_ZnS
_symmetry_space_group_name_H-M   'P 1'
_cell_length_a   3.84977860
_cell_length_b   3.84977860
_cell_length_c   37.74895253
_cell_angle_alpha   90.00000000
_cell_angle_beta   90.00000000
_cell_angle_gamma   120.00000000
_symmetry_Int_Tables_number   1
_chemical_formula_structural   ZnS
_chemical_formula_sum   'Zn12 S12'
_cell_volume   484.51479701
_cell_formula_units_Z   12
loop_
 _symmetry_equiv_pos_site_id
 _symmetry_equiv_pos_as_xyz
  1  'x, y, z'
loop_
 _atom_site_type_symbol
 _atom_site_label
 _atom_site_symmetry_multiplicity
 _atom_site_fract_x
 _atom_site_fract_y
 _atom_site_fract_z
 _atom_site_occupancy
  Zn  Zn0  1  0.33333333  0.66666667  0.16666721  1.0
  Zn  Zn1  1  0.66666667  0.33333333  0.66666721  1.0
  Zn  Zn2  1  0.33333333  0.66666667  0.41659797  1.0
  Zn  Zn3  1  0.66666667  0.33333333  0.91659797  1.0
  Zn  Zn4  1  0.33333333  0.66666667  0.58338123  1.0
  Zn  Zn5  1  0.66666667  0.33333333  0.08338123  1.0
  Zn  Zn6  1  0.33333333  0.66666667  0.83332112  1.0
  Zn  Zn7  1  0.66666667  0.33333333  0.33332112  1.0
  Zn  Zn8  1  0.00000000  0.00000000  -0.00000583  1.0
  Zn  Zn9  1  0.00000000  0.00000000  0.49999417  1.0
  Zn  Zn10  1  0.00000000  0.00000000  0.24999371  1.0
  Zn  Zn11  1  0.00000000  0.00000000  0.74999371  1.0
  S  S12  1  0.33333333  0.66666667  0.10419532  1.0
  S  S13  1  0.66666667  0.33333333  0.60419532  1.0
  S  S14  1  0.33333333  0.66666667  0.35414782  1.0
  S  S15  1  0.66666667  0.33333333  0.85414782  1.0
  S  S16  1  0.33333333  0.66666667  0.52092533  1.0
  S  S17  1  0.66666667  0.33333333  0.02092533  1.0
  S  S18  1  0.33333333  0.66666667  0.77083957  1.0
  S  S19  1  0.66666667  0.33333333  0.27083957  1.0
  S  S20  1  0.00000000  0.00000000  0.18750987  1.0
  S  S21  1  0.00000000  0.00000000  0.68750987  1.0
  S  S22  1  0.00000000  0.00000000  0.43742669  1.0
  S  S23  1  0.00000000  0.00000000  0.93742669  1.0
