# generated using pymatgen
data_VPbClO3
_symmetry_space_group_name_H-M   'P 1'
_cell_length_a   10.56452976
_cell_length_b   5.32793409
_cell_length_c   7.38022603
_cell_angle_alpha   90.00000000
_cell_angle_beta   90.00000000
_cell_angle_gamma   90.00000000
_symmetry_Int_Tables_number   1
_chemical_formula_structural   VPbClO3
_chemical_formula_sum   'V4 Pb4 Cl4 O12'
_cell_volume   415.41165544
_cell_formula_units_Z   4
loop_
 _symmetry_equiv_pos_site_id
 _symmetry_equiv_pos_as_xyz
  1  'x, y, z'
loop_
 _atom_site_type_symbol
 _atom_site_label
 _atom_site_symmetry_multiplicity
 _atom_site_fract_x
 _atom_site_fract_y
 _atom_site_fract_z
 _atom_site_occupancy
  V  V0  1  0.47486661  0.75000000  0.56947704  1.0
  V  V1  1  0.97486661  0.75000000  0.93052296  1.0
  V  V2  1  0.52513339  0.25000000  0.43052296  1.0
  V  V3  1  0.02513339  0.25000000  0.06947704  1.0
  Pb  Pb4  1  0.34487231  0.75000000  0.11569860  1.0
  Pb  Pb5  1  0.84487231  0.75000000  0.38430140  1.0
  Pb  Pb6  1  0.65512769  0.25000000  0.88430140  1.0
  Pb  Pb7  1  0.15512769  0.25000000  0.61569860  1.0
  Cl  Cl8  1  0.10649834  0.75000000  0.44943136  1.0
  Cl  Cl9  1  0.60649834  0.75000000  0.05056864  1.0
  Cl  Cl10  1  0.89350166  0.25000000  0.55056864  1.0
  Cl  Cl11  1  0.39350166  0.25000000  0.94943136  1.0
  O  O12  1  0.08236729  0.00918020  0.88659188  1.0
  O  O13  1  0.08236729  0.49081980  0.88659188  1.0
  O  O14  1  0.58236729  0.00918020  0.61340812  1.0
  O  O15  1  0.58236729  0.49081980  0.61340812  1.0
  O  O16  1  0.91763271  0.50918020  0.11340812  1.0
  O  O17  1  0.91763271  0.99081980  0.11340812  1.0
  O  O18  1  0.41763271  0.50918020  0.38659188  1.0
  O  O19  1  0.41763271  0.99081980  0.38659188  1.0
  O  O20  1  0.36764335  0.75000000  0.72581870  1.0
  O  O21  1  0.86764335  0.75000000  0.77418130  1.0
  O  O22  1  0.63235665  0.25000000  0.27418130  1.0
  O  O23  1  0.13235665  0.25000000  0.22581870  1.0
