# generated using pymatgen
data_C8S3N4
_symmetry_space_group_name_H-M   'P 1'
_cell_length_a   11.50201741
_cell_length_b   7.33395705
_cell_length_c   7.32889288
_cell_angle_alpha   78.08320506
_cell_angle_beta   79.75358801
_cell_angle_gamma   84.57623651
_symmetry_Int_Tables_number   1
_chemical_formula_structural   C8S3N4
_chemical_formula_sum   'C16 S6 N8'
_cell_volume   594.18684659
_cell_formula_units_Z   2
loop_
 _symmetry_equiv_pos_site_id
 _symmetry_equiv_pos_as_xyz
  1  'x, y, z'
loop_
 _atom_site_type_symbol
 _atom_site_label
 _atom_site_symmetry_multiplicity
 _atom_site_fract_x
 _atom_site_fract_y
 _atom_site_fract_z
 _atom_site_occupancy
  C  C0  1  -0.29282898  -0.94147778  -0.83860902  1.0
  C  C1  1  -0.70717102  -0.05852222  -0.16139098  1.0
  C  C2  1  -0.26631775  -0.98046697  -0.65197586  1.0
  C  C3  1  -0.73368225  -0.01953303  -0.34802414  1.0
  C  C4  1  -0.14880648  -0.30095276  -0.72135677  1.0
  C  C5  1  -0.85119352  -0.69904724  -0.27864323  1.0
  C  C6  1  -0.17498608  -0.26224288  -0.90125088  1.0
  C  C7  1  -0.82501392  -0.73775712  -0.09874912  1.0
  C  C8  1  -0.38889222  -0.81174222  -0.85027579  1.0
  C  C9  1  -0.61110778  -0.18825778  -0.14972421  1.0
  C  C10  1  -0.11939413  -0.48771663  -0.63621274  1.0
  C  C11  1  -0.88060587  -0.51228337  -0.36378726  1.0
  C  C12  1  -0.17305595  -0.40757944  -0.00297845  1.0
  C  C13  1  -0.82694405  -0.59242056  -0.99702155  1.0
  C  C14  1  -0.44576010  -0.74109653  -0.00746295  1.0
  C  C15  1  -0.55423990  -0.25890347  -0.99253705  1.0
  S  S16  1  -0.21249420  -0.03735906  -0.02628177  1.0
  S  S17  1  -0.78750580  -0.96264094  -0.97371823  1.0
  S  S18  1  -0.43216880  -0.74868481  -0.63121232  1.0
  S  S19  1  -0.56783120  -0.25131519  -0.36878768  1.0
  S  S20  1  -0.14722119  -0.13304456  -0.58035081  1.0
  S  S21  1  -0.85277881  -0.86695544  -0.41964919  1.0
  N  N22  1  -0.33404379  -0.89193182  -0.52828106  1.0
  N  N23  1  -0.66595621  -0.10806818  -0.47171894  1.0
  N  N24  1  -0.09417453  -0.64113484  -0.56720625  1.0
  N  N25  1  -0.90582547  -0.35886516  -0.43279375  1.0
  N  N26  1  -0.17093724  -0.52616626  -0.08832315  1.0
  N  N27  1  -0.82906276  -0.47383374  -0.91167685  1.0
  N  N28  1  -0.49515059  -0.68495588  -0.13577416  1.0
  N  N29  1  -0.50484941  -0.31504412  -0.86422584  1.0
