# generated using pymatgen
data_Ca5Al6O14
_symmetry_space_group_name_H-M   'P 1'
_cell_length_a   7.94806779
_cell_length_b   7.94806779
_cell_length_c   10.39015334
_cell_angle_alpha   90.00000000
_cell_angle_beta   90.00000000
_cell_angle_gamma   88.50308803
_symmetry_Int_Tables_number   1
_chemical_formula_structural   Ca5Al6O14
_chemical_formula_sum   'Ca10 Al12 O28'
_cell_volume   656.14050355
_cell_formula_units_Z   2
loop_
 _symmetry_equiv_pos_site_id
 _symmetry_equiv_pos_as_xyz
  1  'x, y, z'
loop_
 _atom_site_type_symbol
 _atom_site_label
 _atom_site_symmetry_multiplicity
 _atom_site_fract_x
 _atom_site_fract_y
 _atom_site_fract_z
 _atom_site_occupancy
  Ca  Ca0  1  -0.05307060  1.73621886  0.38246139  1.0
  Ca  Ca1  1  0.73621886  0.94692940  0.88246139  1.0
  Ca  Ca2  1  -0.73621886  1.05307060  0.38246139  1.0
  Ca  Ca3  1  0.05307060  0.26378114  0.88246139  1.0
  Ca  Ca4  1  -0.04088990  1.32496650  0.43286741  1.0
  Ca  Ca5  1  0.32496650  0.95911010  0.93286741  1.0
  Ca  Ca6  1  -0.32496650  1.04088990  0.43286741  1.0
  Ca  Ca7  1  0.04088990  0.67503350  0.93286741  1.0
  Ca  Ca8  1  -0.47443910  1.47443910  0.38963788  1.0
  Ca  Ca9  1  0.47443910  0.52556090  0.88963788  1.0
  Al  Al10  1  0.15689980  0.35331972  0.15602323  1.0
  Al  Al11  1  -0.64668028  1.15689980  0.65602323  1.0
  Al  Al12  1  0.64668028  0.84310020  0.15602323  1.0
  Al  Al13  1  -0.15689980  1.64668028  0.65602323  1.0
  Al  Al14  1  -0.21088901  1.49790934  0.12348497  1.0
  Al  Al15  1  0.49790934  0.78911099  0.62348497  1.0
  Al  Al16  1  -0.49790934  1.21088901  0.12348497  1.0
  Al  Al17  1  0.21088901  0.50209066  0.62348497  1.0
  Al  Al18  1  0.00082079  0.99917921  0.66961183  1.0
  Al  Al19  1  -0.00082079  1.00082079  0.16961183  1.0
  Al  Al20  1  0.29912432  0.70087568  0.19113296  1.0
  Al  Al21  1  -0.29912432  1.29912432  0.69113296  1.0
  O  O22  1  0.24382792  0.50470140  0.25900268  1.0
  O  O23  1  -0.49529860  1.24382792  0.75900268  1.0
  O  O24  1  0.49529860  0.75617208  0.25900268  1.0
  O  O25  1  -0.24382792  1.49529860  0.75900268  1.0
  O  O26  1  -0.24686978  1.70181575  0.04724244  1.0
  O  O27  1  0.70181575  0.75313022  0.54724244  1.0
  O  O28  1  -0.70181575  1.24686978  0.04724244  1.0
  O  O29  1  0.24686978  0.29818425  0.54724244  1.0
  O  O30  1  -0.00899075  1.43702819  0.05534426  1.0
  O  O31  1  0.43702819  0.99100925  0.55534426  1.0
  O  O32  1  -0.43702819  1.00899075  0.05534426  1.0
  O  O33  1  0.00899075  0.56297181  0.55534426  1.0
  O  O34  1  -0.19087793  1.51092073  0.29261766  1.0
  O  O35  1  0.51092073  0.80912207  0.79261766  1.0
  O  O36  1  -0.51092073  1.19087793  0.29261766  1.0
  O  O37  1  0.19087793  0.48907927  0.79261766  1.0
  O  O38  1  0.06264827  0.19134459  0.24813728  1.0
  O  O39  1  -0.80865541  1.06264827  0.74813728  1.0
  O  O40  1  0.80865541  0.93735173  0.24813728  1.0
  O  O41  1  -0.06264827  1.80865541  0.74813728  1.0
  O  O42  1  0.00678914  0.99321086  0.00059154  1.0
  O  O43  1  -0.00678914  1.00678914  0.50059154  1.0
  O  O44  1  0.14601386  0.85398614  0.24484976  1.0
  O  O45  1  -0.14601386  1.14601386  0.74484976  1.0
  O  O46  1  0.29988051  0.70011949  0.02174767  1.0
  O  O47  1  -0.29988051  1.29988051  0.52174767  1.0
  O  O48  1  -0.37541225  1.37541225  0.06516571  1.0
  O  O49  1  0.37541225  0.62458775  0.56516571  1.0
