# generated using pymatgen
data_SiO2
_symmetry_space_group_name_H-M   'P 1'
_cell_length_a   9.79315795
_cell_length_b   9.79315795
_cell_length_c   24.30536321
_cell_angle_alpha   74.73164056
_cell_angle_beta   105.26835944
_cell_angle_gamma   149.82967972
_symmetry_Int_Tables_number   1
_chemical_formula_structural   SiO2
_chemical_formula_sum   'Si24 O48'
_cell_volume   1127.09601008
_cell_formula_units_Z   24
loop_
 _symmetry_equiv_pos_site_id
 _symmetry_equiv_pos_as_xyz
  1  'x, y, z'
loop_
 _atom_site_type_symbol
 _atom_site_label
 _atom_site_symmetry_multiplicity
 _atom_site_fract_x
 _atom_site_fract_y
 _atom_site_fract_z
 _atom_site_occupancy
  Si  Si0  1  1.01665408  0.90524323  0.67675870  1.0
  Si  Si1  1  0.09475677  -0.01665408  0.17675870  1.0
  Si  Si2  1  1.03806309  0.88147743  0.98281221  1.0
  Si  Si3  1  0.11852257  -0.03806309  0.48281221  1.0
  Si  Si4  1  0.54213767  0.37678475  0.90875026  1.0
  Si  Si5  1  0.62321525  0.45786233  0.40875026  1.0
  Si  Si6  1  0.61215823  0.31037182  0.71549291  1.0
  Si  Si7  1  0.68962818  -0.61215823  0.21549291  1.0
  Si  Si8  1  0.75907337  0.33789533  0.84912884  1.0
  Si  Si9  1  1.66210467  0.24092663  0.34912884  1.0
  Si  Si10  1  1.18085475  -0.28510256  0.07351652  1.0
  Si  Si11  1  0.28510256  -0.18085475  0.57351652  1.0
  Si  Si12  1  0.82242102  0.28120442  0.65112401  1.0
  Si  Si13  1  1.71879558  0.17757898  0.15112401  1.0
  Si  Si14  1  1.26164011  -0.35773211  0.37845586  1.0
  Si  Si15  1  0.35773211  -0.26164011  0.87845586  1.0
  Si  Si16  1  1.32510507  -0.39717345  0.51429873  1.0
  Si  Si17  1  1.39717345  -0.32510507  0.01429873  1.0
  Si  Si18  1  1.87949425  0.02782594  0.73532246  1.0
  Si  Si19  1  0.97217406  -0.87949425  0.23532246  1.0
  Si  Si20  1  1.38664450  -0.47809997  0.81048729  1.0
  Si  Si21  1  1.47809997  -0.38664450  0.31048729  1.0
  Si  Si22  1  1.92002775  0.00565604  0.54839551  1.0
  Si  Si23  1  0.99434396  -0.92002775  0.04839551  1.0
  O  O24  1  0.99066102  0.98509986  0.50068913  1.0
  O  O25  1  0.01490014  0.00933898  0.00068913  1.0
  O  O26  1  0.99552143  0.98962340  0.71912999  1.0
  O  O27  1  0.01037660  0.00447857  0.21912999  1.0
  O  O28  1  0.98444554  0.96322010  0.11134051  1.0
  O  O29  1  0.03677990  0.01555446  0.61134051  1.0
  O  O30  1  0.51806495  0.48979318  0.85253109  1.0
  O  O31  1  0.51020682  0.48193505  0.35253109  1.0
  O  O32  1  0.73728990  0.58204897  0.95971344  1.0
  O  O33  1  0.41795103  0.26271010  0.45971344  1.0
  O  O34  1  0.75151596  0.57544098  0.68030326  1.0
  O  O35  1  0.42455902  0.24848404  0.18030326  1.0
  O  O36  1  0.96119688  -0.28757981  0.19696715  1.0
  O  O37  1  0.28757981  0.03880312  0.69696715  1.0
  O  O38  1  1.14412985  0.84800421  0.53832971  1.0
  O  O39  1  1.15199579  -0.14412985  0.03832971  1.0
  O  O40  1  0.66970367  0.35176342  0.89207148  1.0
  O  O41  1  0.64823658  0.33029633  0.39207148  1.0
  O  O42  1  0.65825011  0.33373018  0.78383146  1.0
  O  O43  1  1.66626982  0.34174989  0.28383146  1.0
  O  O44  1  0.74030535  0.28216207  0.70113867  1.0
  O  O45  1  1.71783793  0.25969465  0.20113867  1.0
  O  O46  1  0.59046930  0.11088218  0.59802849  1.0
  O  O47  1  0.88911782  -0.59046930  0.09802849  1.0
  O  O48  1  1.08968316  0.60783373  0.85431248  1.0
  O  O49  1  1.39216627  -0.08968316  0.35431248  1.0
  O  O50  1  1.10758183  0.59353628  0.62716396  1.0
  O  O51  1  1.40646372  -0.10758183  0.12716396  1.0
  O  O52  1  1.26774901  -0.30110112  0.03026398  1.0
  O  O53  1  1.30110112  -0.26774901  0.53026398  1.0
  O  O54  1  0.62881021  0.06850564  0.86795315  1.0
  O  O55  1  0.93149436  -0.62881021  0.36795315  1.0
  O  O56  1  0.34205701  -0.35214524  0.94593207  1.0
  O  O57  1  1.35214524  -0.34205701  0.44593207  1.0
  O  O58  1  0.86632712  -0.85038013  0.67860235  1.0
  O  O59  1  1.85038013  0.13367288  0.17860235  1.0
  O  O60  1  1.36792819  -0.37534745  0.34496620  1.0
  O  O61  1  0.37534745  -0.36792819  0.84496620  1.0
  O  O62  1  1.05424936  -0.72204524  0.53281494  1.0
  O  O63  1  1.72204524  -0.05424936  0.03281494  1.0
  O  O64  1  1.26544061  -0.57276629  0.25635525  1.0
  O  O65  1  1.57276629  -0.26544061  0.75635525  1.0
  O  O66  1  1.25821305  -0.59154921  0.04792014  1.0
  O  O67  1  1.59154921  -0.25821305  0.54792014  1.0
  O  O68  1  1.07765164  -0.77011223  0.78709095  1.0
  O  O69  1  1.77011223  -0.07765164  0.28709095  1.0
  O  O70  1  0.24149904  0.07724973  0.93140682  1.0
  O  O71  1  0.92275027  0.75850096  0.43140682  1.0
