# generated using pymatgen
data_La5Al2Ru3
_symmetry_space_group_name_H-M   'P 1'
_cell_length_a   8.64490594
_cell_length_b   8.64490594
_cell_length_c   8.64490594
_cell_angle_alpha   109.47122063
_cell_angle_beta   109.47122063
_cell_angle_gamma   109.47122063
_symmetry_Int_Tables_number   1
_chemical_formula_structural   La5Al2Ru3
_chemical_formula_sum   'La10 Al4 Ru6'
_cell_volume   497.34633941
_cell_formula_units_Z   2
loop_
 _symmetry_equiv_pos_site_id
 _symmetry_equiv_pos_as_xyz
  1  'x, y, z'
loop_
 _atom_site_type_symbol
 _atom_site_label
 _atom_site_symmetry_multiplicity
 _atom_site_fract_x
 _atom_site_fract_y
 _atom_site_fract_z
 _atom_site_occupancy
  La  La0  1  1.19035904  0.94035904  1.25000000  1.0
  La  La1  1  0.25000000  1.19035904  0.94035904  1.0
  La  La2  1  0.75000000  1.30964096  0.55964096  1.0
  La  La3  1  0.94035904  0.25000000  1.19035904  1.0
  La  La4  1  0.55964096  0.75000000  0.30964096  1.0
  La  La5  1  0.30964096  0.55964096  0.75000000  1.0
  La  La6  1  0.78943887  0.78943887  0.78943887  1.0
  La  La7  1  0.50000000  1.00000000  0.71056113  1.0
  La  La8  1  1.00000000  0.71056113  1.50000000  1.0
  La  La9  1  0.71056113  1.50000000  1.00000000  1.0
  Al  Al10  1  1.41361550  1.41361550  1.41361550  1.0
  Al  Al11  1  1.50000000  1.00000000  1.08638450  1.0
  Al  Al12  1  1.00000000  1.08638450  1.50000000  1.0
  Al  Al13  1  1.08638450  0.50000000  1.00000000  1.0
  Ru  Ru14  1  1.61700423  1.36700423  1.25000000  1.0
  Ru  Ru15  1  0.25000000  0.61700423  0.36700423  1.0
  Ru  Ru16  1  0.75000000  0.88299577  0.13299577  1.0
  Ru  Ru17  1  1.36700423  1.25000000  1.61700423  1.0
  Ru  Ru18  1  0.13299577  0.75000000  0.88299577  1.0
  Ru  Ru19  1  0.88299577  1.13299577  0.75000000  1.0
