# generated using pymatgen
data_SrZnCl2
_symmetry_space_group_name_H-M   'P 1'
_cell_length_a   9.20868312
_cell_length_b   9.20868312
_cell_length_c   9.20868312
_cell_angle_alpha   120.04341345
_cell_angle_beta   120.04341345
_cell_angle_gamma   89.92482214
_symmetry_Int_Tables_number   1
_chemical_formula_structural   SrZnCl2
_chemical_formula_sum   'Sr4 Zn4 Cl8'
_cell_volume   551.81322989
_cell_formula_units_Z   4
loop_
 _symmetry_equiv_pos_site_id
 _symmetry_equiv_pos_as_xyz
  1  'x, y, z'
loop_
 _atom_site_type_symbol
 _atom_site_label
 _atom_site_symmetry_multiplicity
 _atom_site_fract_x
 _atom_site_fract_y
 _atom_site_fract_z
 _atom_site_occupancy
  Sr  Sr0  1  0.37500000  0.62500000  0.75000000  1.0
  Sr  Sr1  1  0.87500000  0.62500000  1.25000000  1.0
  Sr  Sr2  1  0.37500000  1.12500000  0.75000000  1.0
  Sr  Sr3  1  0.37500000  0.62500000  0.25000000  1.0
  Zn  Zn4  1  0.87500000  0.12500000  0.75000000  1.0
  Zn  Zn5  1  0.37500000  0.12500000  0.25000000  1.0
  Zn  Zn6  1  0.87500000  0.62500000  0.75000000  1.0
  Zn  Zn7  1  0.87500000  1.12500000  1.25000000  1.0
  Cl  Cl8  1  0.15000719  0.85015227  0.70014688  1.0
  Cl  Cl9  1  0.59999461  0.80013969  1.20014688  1.0
  Cl  Cl10  1  1.14984773  0.84999461  1.29985493  1.0
  Cl  Cl11  1  1.19986031  0.40000719  0.79985493  1.0
  Cl  Cl12  1  1.15000539  0.44986031  1.29985312  1.0
  Cl  Cl13  1  0.59999281  0.39984773  0.79985312  1.0
  Cl  Cl14  1  0.55013969  0.84999281  0.70014507  1.0
  Cl  Cl15  1  0.60015227  1.40000539  1.20014507  1.0
