# generated using pymatgen
data_K2Be2Co(O3F4)2
_symmetry_space_group_name_H-M   'P 1'
_cell_length_a   6.76263251
_cell_length_b   10.80802853
_cell_length_c   7.88891686
_cell_angle_alpha   90.00000000
_cell_angle_beta   104.87055632
_cell_angle_gamma   90.00000000
_symmetry_Int_Tables_number   1
_chemical_formula_structural   K2Be2Co(O3F4)2
_chemical_formula_sum   'K4 Be4 Co2 O12 F16'
_cell_volume   557.29499536
_cell_formula_units_Z   2
loop_
 _symmetry_equiv_pos_site_id
 _symmetry_equiv_pos_as_xyz
  1  'x, y, z'
loop_
 _atom_site_type_symbol
 _atom_site_label
 _atom_site_symmetry_multiplicity
 _atom_site_fract_x
 _atom_site_fract_y
 _atom_site_fract_z
 _atom_site_occupancy
  K  K0  1  0.11140105  0.15733116  0.39949683  1.0
  K  K1  1  0.11140105  0.34266884  0.89949683  1.0
  K  K2  1  0.88859895  0.65733116  0.10050317  1.0
  K  K3  1  0.88859895  0.84266884  0.60050317  1.0
  Be  Be4  1  0.28603193  0.85508044  0.41700377  1.0
  Be  Be5  1  0.28603193  0.64491956  0.91700377  1.0
  Be  Be6  1  0.71396807  0.35508044  0.08299623  1.0
  Be  Be7  1  0.71396807  0.14491956  0.58299623  1.0
  Co  Co8  1  0.50000000  0.00000000  -0.00000000  1.0
  Co  Co9  1  0.50000000  0.50000000  0.50000000  1.0
  O  O10  1  0.23640529  0.95640008  -0.03497170  1.0
  O  O11  1  0.23640529  0.54359992  0.46502830  1.0
  O  O12  1  0.76359471  0.45640008  0.53497170  1.0
  O  O13  1  0.76359471  0.04359992  1.03497170  1.0
  O  O14  1  0.52131410  0.58526131  0.30558361  1.0
  O  O15  1  0.52131410  0.91473869  0.80558361  1.0
  O  O16  1  0.47868590  0.08526131  0.19441639  1.0
  O  O17  1  0.47868590  0.41473869  0.69441639  1.0
  O  O18  1  0.61602098  0.87217791  0.12968779  1.0
  O  O19  1  0.61602098  0.62782209  0.62968779  1.0
  O  O20  1  0.38397902  0.37217791  0.37031221  1.0
  O  O21  1  0.38397902  0.12782209  0.87031221  1.0
  F  F22  1  0.11256147  0.75762522  0.38463436  1.0
  F  F23  1  0.11256147  0.74237478  0.88463436  1.0
  F  F24  1  0.88743853  0.25762522  0.11536564  1.0
  F  F25  1  0.88743853  0.24237478  0.61536564  1.0
  F  F26  1  0.23506047  0.95258835  0.26012851  1.0
  F  F27  1  0.23506047  0.54741165  0.76012851  1.0
  F  F28  1  0.76493953  0.45258835  0.23987149  1.0
  F  F29  1  0.76493953  0.04741165  0.73987149  1.0
  F  F30  1  0.26205700  0.56302559  0.08053731  1.0
  F  F31  1  0.26205700  0.93697441  0.58053731  1.0
  F  F32  1  0.73794300  0.06302559  0.41946269  1.0
  F  F33  1  0.73794300  0.43697441  0.91946269  1.0
  F  F34  1  0.50290558  0.79886466  0.44155913  1.0
  F  F35  1  0.50290558  0.70113534  0.94155913  1.0
  F  F36  1  0.49709442  0.29886466  0.05844087  1.0
  F  F37  1  0.49709442  0.20113534  0.55844087  1.0
