# generated using pymatgen
data_LaGa4Os
_symmetry_space_group_name_H-M   'P 1'
_cell_length_a   9.81959889
_cell_length_b   8.90150859
_cell_length_c   7.76987520
_cell_angle_alpha   90.00000000
_cell_angle_beta   90.00000000
_cell_angle_gamma   90.00000000
_symmetry_Int_Tables_number   1
_chemical_formula_structural   LaGa4Os
_chemical_formula_sum   'La6 Ga24 Os6'
_cell_volume   679.15891573
_cell_formula_units_Z   6
loop_
 _symmetry_equiv_pos_site_id
 _symmetry_equiv_pos_as_xyz
  1  'x, y, z'
loop_
 _atom_site_type_symbol
 _atom_site_label
 _atom_site_symmetry_multiplicity
 _atom_site_fract_x
 _atom_site_fract_y
 _atom_site_fract_z
 _atom_site_occupancy
  La  La0  1  0.75000000  0.75039281  0.83921500  1.0
  La  La1  1  0.75000000  0.24960719  0.83921500  1.0
  La  La2  1  0.25000000  0.75039281  0.16078500  1.0
  La  La3  1  0.25000000  0.24960719  0.16078500  1.0
  La  La4  1  0.75000000  0.50000000  0.32067952  1.0
  La  La5  1  0.25000000  0.50000000  0.67932048  1.0
  Ga  Ga6  1  0.92521605  0.76620275  0.18110833  1.0
  Ga  Ga7  1  0.92521605  0.23379725  0.18110833  1.0
  Ga  Ga8  1  0.42521605  0.76620275  0.81889167  1.0
  Ga  Ga9  1  0.42521605  0.23379725  0.81889167  1.0
  Ga  Ga10  1  0.07478395  0.76620275  0.81889167  1.0
  Ga  Ga11  1  0.07478395  0.23379725  0.81889167  1.0
  Ga  Ga12  1  0.57478395  0.76620275  0.18110833  1.0
  Ga  Ga13  1  0.57478395  0.23379725  0.18110833  1.0
  Ga  Ga14  1  0.75000000  0.84393731  0.45237725  1.0
  Ga  Ga15  1  0.75000000  0.15606269  0.45237725  1.0
  Ga  Ga16  1  0.25000000  0.84393731  0.54762275  1.0
  Ga  Ga17  1  0.25000000  0.15606269  0.54762275  1.0
  Ga  Ga18  1  0.91677835  0.50000000  0.65403880  1.0
  Ga  Ga19  1  0.41677835  0.50000000  0.34596120  1.0
  Ga  Ga20  1  0.08322165  0.50000000  0.34596120  1.0
  Ga  Ga21  1  0.58322165  0.50000000  0.65403880  1.0
  Ga  Ga22  1  0.44003262  0.00000000  0.33939184  1.0
  Ga  Ga23  1  0.94003262  0.00000000  0.66060816  1.0
  Ga  Ga24  1  0.55996738  0.00000000  0.66060816  1.0
  Ga  Ga25  1  0.05996738  0.00000000  0.33939184  1.0
  Ga  Ga26  1  0.75000000  0.00000000  0.13068996  1.0
  Ga  Ga27  1  0.25000000  0.00000000  0.86931004  1.0
  Ga  Ga28  1  0.00000000  0.50000000  0.00000000  1.0
  Ga  Ga29  1  0.50000000  0.50000000  0.00000000  1.0
  Os  Os30  1  0.00000000  0.74304763  0.50000000  1.0
  Os  Os31  1  0.00000000  0.25695237  0.50000000  1.0
  Os  Os32  1  0.50000000  0.74304763  0.50000000  1.0
  Os  Os33  1  0.50000000  0.25695237  0.50000000  1.0
  Os  Os34  1  0.00000000  0.00000000  0.00000000  1.0
  Os  Os35  1  0.50000000  0.00000000  0.00000000  1.0
