# generated using pymatgen
data_FeCu3S4
_symmetry_space_group_name_H-M   'P 1'
_cell_length_a   6.37567471
_cell_length_b   6.37567471
_cell_length_c   6.37567471
_cell_angle_alpha   131.49446523
_cell_angle_beta   131.49446523
_cell_angle_gamma   71.02864561
_symmetry_Int_Tables_number   1
_chemical_formula_structural   FeCu3S4
_chemical_formula_sum   'Fe1 Cu3 S4'
_cell_volume   142.37358519
_cell_formula_units_Z   1
loop_
 _symmetry_equiv_pos_site_id
 _symmetry_equiv_pos_as_xyz
  1  'x, y, z'
loop_
 _atom_site_type_symbol
 _atom_site_label
 _atom_site_symmetry_multiplicity
 _atom_site_fract_x
 _atom_site_fract_y
 _atom_site_fract_z
 _atom_site_occupancy
  Fe  Fe0  1  0.00000000  0.00000000  0.00000000  1.0
  Cu  Cu1  1  0.50000000  0.50000000  1.00000000  1.0
  Cu  Cu2  1  0.75000000  0.25000000  0.50000000  1.0
  Cu  Cu3  1  0.25000000  0.75000000  0.50000000  1.0
  S  S4  1  0.63392235  1.12101566  1.00000000  1.0
  S  S5  1  1.12101566  0.63392235  1.00000000  1.0
  S  S6  1  0.36607765  0.36607765  0.48709331  1.0
  S  S7  1  0.87898434  0.87898434  1.51290669  1.0
