# generated using pymatgen
data_OsC
_symmetry_space_group_name_H-M   'P 1'
_cell_length_a   4.45603605
_cell_length_b   4.45603605
_cell_length_c   4.45603605
_cell_angle_alpha   90.00000000
_cell_angle_beta   90.00000000
_cell_angle_gamma   90.00000000
_symmetry_Int_Tables_number   1
_chemical_formula_structural   OsC
_chemical_formula_sum   'Os4 C4'
_cell_volume   88.48019854
_cell_formula_units_Z   4
loop_
 _symmetry_equiv_pos_site_id
 _symmetry_equiv_pos_as_xyz
  1  'x, y, z'
loop_
 _atom_site_type_symbol
 _atom_site_label
 _atom_site_symmetry_multiplicity
 _atom_site_fract_x
 _atom_site_fract_y
 _atom_site_fract_z
 _atom_site_occupancy
  Os  Os0  1  0.17905656  0.67905656  0.82094344  1.0
  Os  Os1  1  0.67905656  0.82094344  0.17905656  1.0
  Os  Os2  1  0.82094344  0.17905656  0.67905656  1.0
  Os  Os3  1  0.32094344  0.32094344  0.32094344  1.0
  C  C4  1  0.44239962  0.94239962  0.55760038  1.0
  C  C5  1  0.94239962  0.55760038  0.44239962  1.0
  C  C6  1  0.55760038  0.44239962  0.94239962  1.0
  C  C7  1  0.05760038  0.05760038  0.05760038  1.0
