# generated using pymatgen
data_K4Ge2Au7
_symmetry_space_group_name_H-M   'P 1'
_cell_length_a   10.21044298
_cell_length_b   10.21044298
_cell_length_c   10.21044298
_cell_angle_alpha   37.63660830
_cell_angle_beta   37.63660830
_cell_angle_gamma   37.63660830
_symmetry_Int_Tables_number   1
_chemical_formula_structural   K4Ge2Au7
_chemical_formula_sum   'K4 Ge2 Au7'
_cell_volume   356.07048303
_cell_formula_units_Z   1
loop_
 _symmetry_equiv_pos_site_id
 _symmetry_equiv_pos_as_xyz
  1  'x, y, z'
loop_
 _atom_site_type_symbol
 _atom_site_label
 _atom_site_symmetry_multiplicity
 _atom_site_fract_x
 _atom_site_fract_y
 _atom_site_fract_z
 _atom_site_occupancy
  K  K0  1  0.81081536  0.81081536  0.81081536  1.0
  K  K1  1  1.18918464  1.18918464  0.18918464  1.0
  K  K2  1  0.68272762  0.68272762  0.68272762  1.0
  K  K3  1  1.31727238  1.31727238  0.31727238  1.0
  Ge  Ge4  1  1.54535957  0.54535957  0.54535957  1.0
  Ge  Ge5  1  1.45464043  0.45464043  0.45464043  1.0
  Au  Au6  1  1.22278791  1.22278791  -0.20504663  1.0
  Au  Au7  1  1.22278791  0.79495337  0.22278791  1.0
  Au  Au8  1  1.20504663  0.77721209  0.77721209  1.0
  Au  Au9  1  1.77721209  0.20504663  0.77721209  1.0
  Au  Au10  1  1.77721209  0.77721209  0.20504663  1.0
  Au  Au11  1  0.79495337  1.22278791  0.22278791  1.0
  Au  Au12  1  0.00000000  0.00000000  0.00000000  1.0
