# generated using pymatgen
data_ZrGeTe4
_symmetry_space_group_name_H-M   'P 1'
_cell_length_a   8.79805080
_cell_length_b   8.79805080
_cell_length_c   11.11941667
_cell_angle_alpha   90.00000000
_cell_angle_beta   90.00000000
_cell_angle_gamma   153.53289468
_symmetry_Int_Tables_number   1
_chemical_formula_structural   ZrGeTe4
_chemical_formula_sum   'Zr2 Ge2 Te8'
_cell_volume   383.60293360
_cell_formula_units_Z   2
loop_
 _symmetry_equiv_pos_site_id
 _symmetry_equiv_pos_as_xyz
  1  'x, y, z'
loop_
 _atom_site_type_symbol
 _atom_site_label
 _atom_site_symmetry_multiplicity
 _atom_site_fract_x
 _atom_site_fract_y
 _atom_site_fract_z
 _atom_site_occupancy
  Zr  Zr0  1  -0.34364972  0.34364972  0.72706657  1.0
  Zr  Zr1  1  0.34364972  0.65635028  0.22706657  1.0
  Ge  Ge2  1  0.22944227  0.77055773  0.03688455  1.0
  Ge  Ge3  1  -0.22944227  0.22944227  0.53688455  1.0
  Te  Te4  1  0.02973445  0.97026555  0.75945829  1.0
  Te  Te5  1  -0.02973445  0.02973445  0.25945829  1.0
  Te  Te6  1  0.10691515  0.89308485  0.54011326  1.0
  Te  Te7  1  -0.10691515  0.10691515  0.04011326  1.0
  Te  Te8  1  0.27553480  0.72446520  0.80139829  1.0
  Te  Te9  1  -0.27553480  0.27553480  0.30139829  1.0
  Te  Te10  1  0.37464011  0.62535989  0.50077904  1.0
  Te  Te11  1  -0.37464011  0.37464011  0.00077904  1.0
