# generated using pymatgen
data_Al3C
_symmetry_space_group_name_H-M   'P 1'
_cell_length_a   5.44114640
_cell_length_b   5.44114640
_cell_length_c   5.44114640
_cell_angle_alpha   94.75555727
_cell_angle_beta   114.24839191
_cell_angle_gamma   120.42445597
_symmetry_Int_Tables_number   1
_chemical_formula_structural   Al3C
_chemical_formula_sum   'Al6 C2'
_cell_volume   117.66597046
_cell_formula_units_Z   2
loop_
 _symmetry_equiv_pos_site_id
 _symmetry_equiv_pos_as_xyz
  1  'x, y, z'
loop_
 _atom_site_type_symbol
 _atom_site_label
 _atom_site_symmetry_multiplicity
 _atom_site_fract_x
 _atom_site_fract_y
 _atom_site_fract_z
 _atom_site_occupancy
  Al  Al0  1  0.28063951  0.53063951  0.75000000  1.0
  Al  Al1  1  1.71936049  1.46936049  1.25000000  1.0
  Al  Al2  1  0.50000000  0.82450631  1.32450631  1.0
  Al  Al3  1  1.00000000  1.17549369  1.17549369  1.0
  Al  Al4  1  0.50000000  0.17549369  0.67549369  1.0
  Al  Al5  1  0.00000000  0.82450631  0.82450631  1.0
  C  C6  1  0.65645801  0.90645801  0.75000000  1.0
  C  C7  1  1.34354199  1.09354199  1.25000000  1.0
