# generated using pymatgen
data_SbS2NCl8
_symmetry_space_group_name_H-M   'P 1'
_cell_length_a   7.72740280
_cell_length_b   11.75350915
_cell_length_c   16.54599468
_cell_angle_alpha   90.00000000
_cell_angle_beta   95.22917327
_cell_angle_gamma   90.00000000
_symmetry_Int_Tables_number   1
_chemical_formula_structural   SbS2NCl8
_chemical_formula_sum   'Sb4 S8 N4 Cl32'
_cell_volume   1496.52070080
_cell_formula_units_Z   4
loop_
 _symmetry_equiv_pos_site_id
 _symmetry_equiv_pos_as_xyz
  1  'x, y, z'
loop_
 _atom_site_type_symbol
 _atom_site_label
 _atom_site_symmetry_multiplicity
 _atom_site_fract_x
 _atom_site_fract_y
 _atom_site_fract_z
 _atom_site_occupancy
  Sb  Sb0  1  0.73273229  0.79716920  0.85352013  1.0
  Sb  Sb1  1  0.73273229  0.70283080  0.35352013  1.0
  Sb  Sb2  1  0.26726771  0.29716920  0.64647987  1.0
  Sb  Sb3  1  0.26726771  0.20283080  0.14647987  1.0
  S  S4  1  0.78728084  0.21222898  0.85112144  1.0
  S  S5  1  0.78728084  0.28777102  0.35112144  1.0
  S  S6  1  0.21271916  0.71222898  0.64887856  1.0
  S  S7  1  0.21271916  0.78777102  0.14887856  1.0
  S  S8  1  0.26807265  0.72079817  0.97747536  1.0
  S  S9  1  0.26807265  0.77920183  0.47747536  1.0
  S  S10  1  0.73192735  0.22079817  0.52252464  1.0
  S  S11  1  0.73192735  0.27920183  0.02252464  1.0
  N  N12  1  0.75669732  0.21620185  0.94233885  1.0
  N  N13  1  0.75669732  0.28379815  0.44233885  1.0
  N  N14  1  0.24330268  0.71620185  0.55766115  1.0
  N  N15  1  0.24330268  0.78379815  0.05766115  1.0
  Cl  Cl16  1  0.95915504  0.93593896  0.88641479  1.0
  Cl  Cl17  1  0.95915504  0.56406104  0.38641479  1.0
  Cl  Cl18  1  0.04084496  0.43593896  0.61358521  1.0
  Cl  Cl19  1  0.04084496  0.06406104  0.11358521  1.0
  Cl  Cl20  1  0.94986426  0.65961494  0.81893688  1.0
  Cl  Cl21  1  0.94986426  0.84038506  0.31893688  1.0
  Cl  Cl22  1  0.05013574  0.15961494  0.68106312  1.0
  Cl  Cl23  1  0.05013574  0.34038506  0.18106312  1.0
  Cl  Cl24  1  0.80624297  0.37071631  0.80555404  1.0
  Cl  Cl25  1  0.80624297  0.12928369  0.30555404  1.0
  Cl  Cl26  1  0.19375703  0.87071631  0.69444596  1.0
  Cl  Cl27  1  0.19375703  0.62928369  0.19444596  1.0
  Cl  Cl28  1  0.76641203  0.72923416  0.99331504  1.0
  Cl  Cl29  1  0.76641203  0.77076584  0.49331504  1.0
  Cl  Cl30  1  0.23358797  0.22923416  0.50668496  1.0
  Cl  Cl31  1  0.23358797  0.27076584  0.00668496  1.0
  Cl  Cl32  1  0.69909266  0.86233487  0.71520411  1.0
  Cl  Cl33  1  0.69909266  0.63766513  0.21520411  1.0
  Cl  Cl34  1  0.30090734  0.36233487  0.78479589  1.0
  Cl  Cl35  1  0.30090734  0.13766513  0.28479589  1.0
  Cl  Cl36  1  0.51640656  0.93132995  0.89039803  1.0
  Cl  Cl37  1  0.51640656  0.56867005  0.39039803  1.0
  Cl  Cl38  1  0.48359344  0.43132995  0.60960197  1.0
  Cl  Cl39  1  0.48359344  0.06867005  0.10960197  1.0
  Cl  Cl40  1  0.50873587  0.65465878  0.82253843  1.0
  Cl  Cl41  1  0.50873587  0.84534122  0.32253843  1.0
  Cl  Cl42  1  0.49126413  0.15465878  0.67746157  1.0
  Cl  Cl43  1  0.49126413  0.34534122  0.17746157  1.0
  Cl  Cl44  1  0.25964543  0.54921318  0.99351373  1.0
  Cl  Cl45  1  0.25964543  0.95078682  0.49351373  1.0
  Cl  Cl46  1  0.74035457  0.04921318  0.50648627  1.0
  Cl  Cl47  1  0.74035457  0.45078682  0.00648627  1.0
