# generated using pymatgen
data_La2Zn14Rh3
_symmetry_space_group_name_H-M   'P 1'
_cell_length_a   6.88060502
_cell_length_b   6.88060502
_cell_length_c   6.88060502
_cell_angle_alpha   82.78405373
_cell_angle_beta   82.78405373
_cell_angle_gamma   82.78405373
_symmetry_Int_Tables_number   1
_chemical_formula_structural   La2Zn14Rh3
_chemical_formula_sum   'La2 Zn14 Rh3'
_cell_volume   318.60457062
_cell_formula_units_Z   1
loop_
 _symmetry_equiv_pos_site_id
 _symmetry_equiv_pos_as_xyz
  1  'x, y, z'
loop_
 _atom_site_type_symbol
 _atom_site_label
 _atom_site_symmetry_multiplicity
 _atom_site_fract_x
 _atom_site_fract_y
 _atom_site_fract_z
 _atom_site_occupancy
  La  La0  1  0.66443307  0.66443307  -0.33556693  1.0
  La  La1  1  0.33556693  0.33556693  -0.66443307  1.0
  Zn  Zn2  1  0.34752688  0.34752688  -0.15229651  1.0
  Zn  Zn3  1  0.34752688  0.84770349  -0.65247312  1.0
  Zn  Zn4  1  1.15229651  -0.34752688  -0.34752688  1.0
  Zn  Zn5  1  0.65247312  0.15229651  -0.34752688  1.0
  Zn  Zn6  1  0.65247312  -0.34752688  0.15229651  1.0
  Zn  Zn7  1  0.84770349  0.34752688  -0.65247312  1.0
  Zn  Zn8  1  0.71007736  0.00000000  0.28992264  1.0
  Zn  Zn9  1  0.71007736  -0.71007736  0.00000000  1.0
  Zn  Zn10  1  0.00000000  0.71007736  -0.71007736  1.0
  Zn  Zn11  1  -0.00000000  0.28992264  -0.28992264  1.0
  Zn  Zn12  1  1.28992264  0.00000000  -0.28992264  1.0
  Zn  Zn13  1  0.28992264  -0.28992264  0.00000000  1.0
  Zn  Zn14  1  0.89752644  0.89752644  -0.10247356  1.0
  Zn  Zn15  1  1.10247356  1.10247356  0.10247356  1.0
  Rh  Rh16  1  1.00000000  1.50000000  0.00000000  1.0
  Rh  Rh17  1  1.00000000  -0.00000000  -0.50000000  1.0
  Rh  Rh18  1  0.50000000  0.00000000  -0.00000000  1.0
