# generated using pymatgen
data_La3(GaNi2)2
_symmetry_space_group_name_H-M   'P 1'
_cell_length_a   5.56171264
_cell_length_b   5.56171264
_cell_length_c   8.31983535
_cell_angle_alpha   82.06086186
_cell_angle_beta   97.93913814
_cell_angle_gamma   135.11863547
_symmetry_Int_Tables_number   1
_chemical_formula_structural   La3(GaNi2)2
_chemical_formula_sum   'La3 Ga2 Ni4'
_cell_volume   179.56080138
_cell_formula_units_Z   1
loop_
 _symmetry_equiv_pos_site_id
 _symmetry_equiv_pos_as_xyz
  1  'x, y, z'
loop_
 _atom_site_type_symbol
 _atom_site_label
 _atom_site_symmetry_multiplicity
 _atom_site_fract_x
 _atom_site_fract_y
 _atom_site_fract_z
 _atom_site_occupancy
  La  La0  1  0.62425057  0.37574943  0.87965322  1.0
  La  La1  1  0.37574943  -0.37574943  0.12034678  1.0
  La  La2  1  0.00000000  -0.00000000  0.50000000  1.0
  Ga  Ga3  1  0.32304777  -0.32304777  0.71261711  1.0
  Ga  Ga4  1  0.67695223  0.32304777  0.28738289  1.0
  Ni  Ni5  1  0.91552272  0.08447728  0.86217823  1.0
  Ni  Ni6  1  0.08447728  -0.08447728  0.13782177  1.0
  Ni  Ni7  1  0.74158157  0.25841843  0.58684584  1.0
  Ni  Ni8  1  0.25841843  -0.25841843  0.41315416  1.0
