# generated using pymatgen
data_Sr2InCuSO3
_symmetry_space_group_name_H-M   'P 1'
_cell_length_a   4.13199981
_cell_length_b   4.13199981
_cell_length_c   15.63768444
_cell_angle_alpha   90.00000000
_cell_angle_beta   90.00000000
_cell_angle_gamma   90.00000000
_symmetry_Int_Tables_number   1
_chemical_formula_structural   Sr2InCuSO3
_chemical_formula_sum   'Sr4 In2 Cu2 S2 O6'
_cell_volume   266.98879260
_cell_formula_units_Z   2
loop_
 _symmetry_equiv_pos_site_id
 _symmetry_equiv_pos_as_xyz
  1  'x, y, z'
loop_
 _atom_site_type_symbol
 _atom_site_label
 _atom_site_symmetry_multiplicity
 _atom_site_fract_x
 _atom_site_fract_y
 _atom_site_fract_z
 _atom_site_occupancy
  Sr  Sr0  1  0.50000000  0.00000000  0.82378753  1.0
  Sr  Sr1  1  0.00000000  0.50000000  0.17621247  1.0
  Sr  Sr2  1  0.50000000  0.00000000  0.58628649  1.0
  Sr  Sr3  1  0.00000000  0.50000000  0.41371351  1.0
  In  In4  1  0.50000000  0.00000000  0.30027147  1.0
  In  In5  1  0.00000000  0.50000000  0.69972853  1.0
  Cu  Cu6  1  0.00000000  0.00000000  0.00000000  1.0
  Cu  Cu7  1  0.50000000  0.50000000  0.00000000  1.0
  S  S8  1  0.50000000  0.00000000  0.08368594  1.0
  S  S9  1  0.00000000  0.50000000  0.91631406  1.0
  O  O10  1  0.00000000  0.00000000  0.27477007  1.0
  O  O11  1  0.50000000  0.50000000  0.72522993  1.0
  O  O12  1  0.50000000  0.50000000  0.27477007  1.0
  O  O13  1  0.00000000  0.00000000  0.72522993  1.0
  O  O14  1  0.50000000  0.00000000  0.43568670  1.0
  O  O15  1  0.00000000  0.50000000  0.56431330  1.0
