# generated using pymatgen
data_YSi3Ni
_symmetry_space_group_name_H-M   'P 1'
_cell_length_a   10.70441771
_cell_length_b   10.70441771
_cell_length_c   3.96200381
_cell_angle_alpha   90.00000000
_cell_angle_beta   90.00000000
_cell_angle_gamma   158.78372546
_symmetry_Int_Tables_number   1
_chemical_formula_structural   YSi3Ni
_chemical_formula_sum   'Y2 Si6 Ni2'
_cell_volume   164.29215246
_cell_formula_units_Z   2
loop_
 _symmetry_equiv_pos_site_id
 _symmetry_equiv_pos_as_xyz
  1  'x, y, z'
loop_
 _atom_site_type_symbol
 _atom_site_label
 _atom_site_symmetry_multiplicity
 _atom_site_fract_x
 _atom_site_fract_y
 _atom_site_fract_z
 _atom_site_occupancy
  Y  Y0  1  -0.54714991  0.54714991  0.50000000  1.0
  Y  Y1  1  -0.88527693  0.88527693  0.50000000  1.0
  Si  Si2  1  -0.16017546  1.16017546  0.50000000  1.0
  Si  Si3  1  -0.27224306  1.27224306  0.50000000  1.0
  Si  Si4  1  0.00161250  -0.00161250  0.00000000  1.0
  Si  Si5  1  -0.43403072  1.43403072  0.00000000  1.0
  Si  Si6  1  -0.66015875  0.66015875  0.00000000  1.0
  Si  Si7  1  -0.77225649  0.77225649  0.00000000  1.0
  Ni  Ni8  1  -0.10615124  1.10615124  0.00000000  1.0
  Ni  Ni9  1  -0.32626994  1.32626994  0.00000000  1.0
