# generated using pymatgen
data_Gd3ReO8
_symmetry_space_group_name_H-M   'P 1'
_cell_length_a   7.37155187
_cell_length_b   6.10584857
_cell_length_c   14.73336057
_cell_angle_alpha   90.00000000
_cell_angle_beta   111.37154649
_cell_angle_gamma   90.00000000
_symmetry_Int_Tables_number   1
_chemical_formula_structural   Gd3ReO8
_chemical_formula_sum   'Gd12 Re4 O32'
_cell_volume   617.54263968
_cell_formula_units_Z   4
loop_
 _symmetry_equiv_pos_site_id
 _symmetry_equiv_pos_as_xyz
  1  'x, y, z'
loop_
 _atom_site_type_symbol
 _atom_site_label
 _atom_site_symmetry_multiplicity
 _atom_site_fract_x
 _atom_site_fract_y
 _atom_site_fract_z
 _atom_site_occupancy
  Gd  Gd0  1  0.89315584  0.18955582  0.33273134  1.0
  Gd  Gd1  1  0.89315584  0.31044418  0.83273134  1.0
  Gd  Gd2  1  0.10684416  0.68955582  0.16726866  1.0
  Gd  Gd3  1  0.10684416  0.81044418  0.66726866  1.0
  Gd  Gd4  1  0.40449665  0.23953114  0.29870241  1.0
  Gd  Gd5  1  0.40449665  0.26046886  0.79870241  1.0
  Gd  Gd6  1  0.59550335  0.73953114  0.20129759  1.0
  Gd  Gd7  1  0.59550335  0.76046886  0.70129759  1.0
  Gd  Gd8  1  0.33997911  0.20000913  0.05464227  1.0
  Gd  Gd9  1  0.33997911  0.29999087  0.55464227  1.0
  Gd  Gd10  1  0.66002089  0.70000913  0.44535773  1.0
  Gd  Gd11  1  0.66002089  0.79999087  0.94535773  1.0
  Re  Re12  1  0.82139460  0.24520949  0.09045358  1.0
  Re  Re13  1  0.82139460  0.25479051  0.59045358  1.0
  Re  Re14  1  0.17860540  0.74520949  0.40954642  1.0
  Re  Re15  1  0.17860540  0.75479051  0.90954642  1.0
  O  O16  1  0.97313393  0.30241510  0.02050757  1.0
  O  O17  1  0.97313393  0.19758490  0.52050757  1.0
  O  O18  1  0.02686607  0.80241510  0.47949243  1.0
  O  O19  1  0.02686607  0.69758490  0.97949243  1.0
  O  O20  1  0.96962189  0.79278366  0.28834253  1.0
  O  O21  1  0.96962189  0.70721634  0.78834253  1.0
  O  O22  1  0.03037811  0.29278366  0.21165747  1.0
  O  O23  1  0.03037811  0.20721634  0.71165747  1.0
  O  O24  1  0.87816501  0.94816878  0.08867463  1.0
  O  O25  1  0.87816501  0.55183122  0.58867463  1.0
  O  O26  1  0.12183499  0.44816878  0.41132537  1.0
  O  O27  1  0.12183499  0.05183122  0.91132537  1.0
  O  O28  1  0.68506499  0.47034575  0.32692934  1.0
  O  O29  1  0.68506499  0.02965425  0.82692934  1.0
  O  O30  1  0.31493501  0.97034575  0.17307066  1.0
  O  O31  1  0.31493501  0.52965425  0.67307066  1.0
  O  O32  1  0.66935096  0.14863803  0.16923009  1.0
  O  O33  1  0.66935096  0.35136197  0.66923009  1.0
  O  O34  1  0.33064904  0.64863803  0.33076991  1.0
  O  O35  1  0.33064904  0.85136197  0.83076991  1.0
  O  O36  1  0.64745659  0.97026676  0.34099707  1.0
  O  O37  1  0.64745659  0.52973324  0.84099707  1.0
  O  O38  1  0.35254341  0.47026676  0.15900293  1.0
  O  O39  1  0.35254341  0.02973324  0.65900293  1.0
  O  O40  1  0.58866841  0.30348941  0.48166248  1.0
  O  O41  1  0.58866841  0.19651059  0.98166248  1.0
  O  O42  1  0.41133159  0.80348941  0.01833752  1.0
  O  O43  1  0.41133159  0.69651059  0.51833752  1.0
  O  O44  1  0.25036802  0.04121766  0.40360373  1.0
  O  O45  1  0.25036802  0.45878234  0.90360373  1.0
  O  O46  1  0.74963198  0.54121766  0.09639627  1.0
  O  O47  1  0.74963198  0.95878234  0.59639627  1.0
