# generated using pymatgen
data_YSiNO2
_symmetry_space_group_name_H-M   'P 1'
_cell_length_a   7.03309072
_cell_length_b   9.17586242
_cell_length_c   7.07446872
_cell_angle_alpha   90.00000000
_cell_angle_beta   119.80673799
_cell_angle_gamma   90.00000000
_symmetry_Int_Tables_number   1
_chemical_formula_structural   YSiNO2
_chemical_formula_sum   'Y6 Si6 N6 O12'
_cell_volume   396.15035208
_cell_formula_units_Z   6
loop_
 _symmetry_equiv_pos_site_id
 _symmetry_equiv_pos_as_xyz
  1  'x, y, z'
loop_
 _atom_site_type_symbol
 _atom_site_label
 _atom_site_symmetry_multiplicity
 _atom_site_fract_x
 _atom_site_fract_y
 _atom_site_fract_z
 _atom_site_occupancy
  Y  Y0  1  0.86987200  0.25000012  0.99947775  1.0
  Y  Y1  1  0.86987200  0.74999988  0.99947775  1.0
  Y  Y2  1  0.19428048  0.24999954  0.64829041  1.0
  Y  Y3  1  0.19428048  0.75000046  0.64829041  1.0
  Y  Y4  1  0.54558480  0.24999986  0.35090158  1.0
  Y  Y5  1  0.54558480  0.75000014  0.35090158  1.0
  Si  Si6  1  0.28415487  0.50000000  -0.00041863  1.0
  Si  Si7  1  0.53342514  0.50000000  0.75476861  1.0
  Si  Si8  1  0.77825924  0.50000000  0.24448608  1.0
  Si  Si9  1  0.45568923  0.00000000  -0.00042028  1.0
  Si  Si10  1  0.96160937  0.00000000  0.75476865  1.0
  Si  Si11  1  0.20649465  0.00000000  0.24448559  1.0
  N  N12  1  0.77109845  0.50000000  -0.00036418  1.0
  N  N13  1  0.29362184  0.50000000  0.76149337  1.0
  N  N14  1  0.53168403  0.50000000  0.23768436  1.0
  N  N15  1  -0.03119769  0.00000000  -0.00036375  1.0
  N  N16  1  0.20813577  0.00000000  0.76148982  1.0
  N  N17  1  0.44626914  0.00000000  0.23768552  1.0
  O  O18  1  0.56856958  0.15912927  -0.00044218  1.0
  O  O19  1  0.56856958  0.84087073  -0.00044218  1.0
  O  O20  1  0.17125136  0.34087176  -0.00043901  1.0
  O  O21  1  0.17125136  0.65912824  -0.00043901  1.0
  O  O22  1  0.84480996  0.15613295  0.63912677  1.0
  O  O23  1  0.84480996  0.84386705  0.63912677  1.0
  O  O24  1  0.53458457  0.34386654  0.63912791  1.0
  O  O25  1  0.53458457  0.65613346  0.63912791  1.0
  O  O26  1  0.20541715  0.15613923  0.36015594  1.0
  O  O27  1  0.20541715  0.84386077  0.36015594  1.0
  O  O28  1  0.89500808  0.34385964  0.36015325  1.0
  O  O29  1  0.89500808  0.65614036  0.36015325  1.0
