# generated using pymatgen
data_Ca4InGe4
_symmetry_space_group_name_H-M   'P 1'
_cell_length_a   9.73799514
_cell_length_b   9.73799514
_cell_length_c   8.36755940
_cell_angle_alpha   81.17798504
_cell_angle_beta   98.82201496
_cell_angle_gamma   145.02501872
_symmetry_Int_Tables_number   1
_chemical_formula_structural   Ca4InGe4
_chemical_formula_sum   'Ca8 In2 Ge8'
_cell_volume   448.92097286
_cell_formula_units_Z   2
loop_
 _symmetry_equiv_pos_site_id
 _symmetry_equiv_pos_as_xyz
  1  'x, y, z'
loop_
 _atom_site_type_symbol
 _atom_site_label
 _atom_site_symmetry_multiplicity
 _atom_site_fract_x
 _atom_site_fract_y
 _atom_site_fract_z
 _atom_site_occupancy
  Ca  Ca0  1  1.67607515  0.06428727  0.20028761  1.0
  Ca  Ca1  1  0.93571273  -0.67607515  0.70028761  1.0
  Ca  Ca2  1  1.06428727  -0.32392485  0.29971239  1.0
  Ca  Ca3  1  1.32392485  -0.06428727  0.79971239  1.0
  Ca  Ca4  1  1.43498372  0.27885662  0.12432714  1.0
  Ca  Ca5  1  0.72114338  -0.43498372  0.62432714  1.0
  Ca  Ca6  1  1.27885662  -0.56501628  0.37567286  1.0
  Ca  Ca7  1  1.56501628  -0.27885662  0.87567286  1.0
  In  In8  1  0.83821205  0.83821205  0.25000000  1.0
  In  In9  1  0.16178795  0.16178795  0.75000000  1.0
  Ge  Ge10  1  1.57134982  0.18162102  0.44128134  1.0
  Ge  Ge11  1  0.81837898  -0.57134982  0.94128134  1.0
  Ge  Ge12  1  1.18162102  -0.42865018  0.05871866  1.0
  Ge  Ge13  1  1.42865018  -0.18162102  0.55871866  1.0
  Ge  Ge14  1  1.22239725  0.05502679  0.47791678  1.0
  Ge  Ge15  1  0.94497321  -0.22239725  0.97791678  1.0
  Ge  Ge16  1  1.05502679  -0.77760275  0.02208322  1.0
  Ge  Ge17  1  1.77760275  -0.05502679  0.52208322  1.0
