# generated using pymatgen
data_Ca(BH4)2
_symmetry_space_group_name_H-M   'P 1'
_cell_length_a   6.93008836
_cell_length_b   6.93008836
_cell_length_c   4.35797140
_cell_angle_alpha   90.00000000
_cell_angle_beta   90.00000000
_cell_angle_gamma   90.00000000
_symmetry_Int_Tables_number   1
_chemical_formula_structural   Ca(BH4)2
_chemical_formula_sum   'Ca2 B4 H16'
_cell_volume   209.29647818
_cell_formula_units_Z   2
loop_
 _symmetry_equiv_pos_site_id
 _symmetry_equiv_pos_as_xyz
  1  'x, y, z'
loop_
 _atom_site_type_symbol
 _atom_site_label
 _atom_site_symmetry_multiplicity
 _atom_site_fract_x
 _atom_site_fract_y
 _atom_site_fract_z
 _atom_site_occupancy
  Ca  Ca0  1  0.00000000  0.50000000  0.00000000  1.0
  Ca  Ca1  1  0.50000000  0.00000000  0.50000000  1.0
  B  B2  1  0.70376671  0.81632527  0.00000000  1.0
  B  B3  1  0.81632527  0.29623329  0.50000000  1.0
  B  B4  1  0.29623329  0.18367473  0.00000000  1.0
  B  B5  1  0.18367473  0.70376671  0.50000000  1.0
  H  H6  1  0.63589525  0.73699330  0.77319635  1.0
  H  H7  1  0.63589525  0.73699330  0.22680365  1.0
  H  H8  1  0.73699330  0.36410475  0.27319635  1.0
  H  H9  1  0.73699330  0.36410475  0.72680365  1.0
  H  H10  1  0.36410475  0.26300670  0.77319635  1.0
  H  H11  1  0.36410475  0.26300670  0.22680365  1.0
  H  H12  1  0.26300670  0.63589525  0.27319635  1.0
  H  H13  1  0.26300670  0.63589525  0.72680365  1.0
  H  H14  1  0.87963079  0.80779973  0.00000000  1.0
  H  H15  1  0.80779973  0.12036921  0.50000000  1.0
  H  H16  1  0.12036921  0.19220027  0.00000000  1.0
  H  H17  1  0.19220027  0.87963079  0.50000000  1.0
  H  H18  1  0.67090970  0.99027868  0.00000000  1.0
  H  H19  1  0.99027868  0.32909030  0.50000000  1.0
  H  H20  1  0.32909030  0.00972132  0.00000000  1.0
  H  H21  1  0.00972132  0.67090970  0.50000000  1.0
