# generated using pymatgen
data_GdGe2
_symmetry_space_group_name_H-M   'P 1'
_cell_length_a   10.90835888
_cell_length_b   10.90835888
_cell_length_c   10.90835888
_cell_angle_alpha   146.17362742
_cell_angle_beta   146.17362742
_cell_angle_gamma   48.58893998
_symmetry_Int_Tables_number   1
_chemical_formula_structural   GdGe2
_chemical_formula_sum   'Gd4 Ge8'
_cell_volume   400.51801005
_cell_formula_units_Z   4
loop_
 _symmetry_equiv_pos_site_id
 _symmetry_equiv_pos_as_xyz
  1  'x, y, z'
loop_
 _atom_site_type_symbol
 _atom_site_label
 _atom_site_symmetry_multiplicity
 _atom_site_fract_x
 _atom_site_fract_y
 _atom_site_fract_z
 _atom_site_occupancy
  Gd  Gd0  1  0.37500000  0.12500000  0.25000000  1.0
  Gd  Gd1  1  0.87500000  0.12500000  0.75000000  1.0
  Gd  Gd2  1  0.87500000  1.12500000  1.25000000  1.0
  Gd  Gd3  1  0.87500000  0.62500000  0.75000000  1.0
  Ge  Ge4  1  1.05079420  0.27757184  0.77322236  1.0
  Ge  Ge5  1  1.24565052  0.97242816  1.27322236  1.0
  Ge  Ge6  1  0.50434948  0.27757184  0.22677764  1.0
  Ge  Ge7  1  0.69920580  0.97242816  0.72677764  1.0
  Ge  Ge8  1  0.72242816  0.49565052  0.77322236  1.0
  Ge  Ge9  1  0.02757184  0.30079420  0.27322236  1.0
  Ge  Ge10  1  0.72242816  0.94920580  1.22677764  1.0
  Ge  Ge11  1  0.02757184  0.75434948  0.72677764  1.0
