# generated using pymatgen
data_BaCaSi
_symmetry_space_group_name_H-M   'P 1'
_cell_length_a   8.56637050
_cell_length_b   5.03887503
_cell_length_c   9.20849357
_cell_angle_alpha   90.00000000
_cell_angle_beta   90.00000000
_cell_angle_gamma   90.00000000
_symmetry_Int_Tables_number   1
_chemical_formula_structural   BaCaSi
_chemical_formula_sum   'Ba4 Ca4 Si4'
_cell_volume   397.48343135
_cell_formula_units_Z   4
loop_
 _symmetry_equiv_pos_site_id
 _symmetry_equiv_pos_as_xyz
  1  'x, y, z'
loop_
 _atom_site_type_symbol
 _atom_site_label
 _atom_site_symmetry_multiplicity
 _atom_site_fract_x
 _atom_site_fract_y
 _atom_site_fract_z
 _atom_site_occupancy
  Ba  Ba0  1  0.97148950  0.75000000  0.67558799  1.0
  Ba  Ba1  1  0.47148950  0.75000000  0.82441201  1.0
  Ba  Ba2  1  0.02851050  0.25000000  0.32441201  1.0
  Ba  Ba3  1  0.52851050  0.25000000  0.17558799  1.0
  Ca  Ca4  1  0.85873873  0.75000000  0.07396610  1.0
  Ca  Ca5  1  0.35873873  0.75000000  0.42603390  1.0
  Ca  Ca6  1  0.14126127  0.25000000  0.92603390  1.0
  Ca  Ca7  1  0.64126127  0.25000000  0.57396610  1.0
  Si  Si8  1  0.71930084  0.75000000  0.39064586  1.0
  Si  Si9  1  0.21930084  0.75000000  0.10935414  1.0
  Si  Si10  1  0.28069916  0.25000000  0.60935414  1.0
  Si  Si11  1  0.78069916  0.25000000  0.89064586  1.0
