# generated using pymatgen
data_MoH2(CO2)2
_symmetry_space_group_name_H-M   'P 1'
_cell_length_a   5.67882123
_cell_length_b   11.58680651
_cell_length_c   8.12027085
_cell_angle_alpha   90.00000000
_cell_angle_beta   110.74041826
_cell_angle_gamma   90.00000000
_symmetry_Int_Tables_number   1
_chemical_formula_structural   MoH2(CO2)2
_chemical_formula_sum   'Mo4 H8 C8 O16'
_cell_volume   499.68278386
_cell_formula_units_Z   4
loop_
 _symmetry_equiv_pos_site_id
 _symmetry_equiv_pos_as_xyz
  1  'x, y, z'
loop_
 _atom_site_type_symbol
 _atom_site_label
 _atom_site_symmetry_multiplicity
 _atom_site_fract_x
 _atom_site_fract_y
 _atom_site_fract_z
 _atom_site_occupancy
  Mo  Mo0  1  0.34857260  0.04667444  0.01115296  1.0
  Mo  Mo1  1  0.65142740  0.54667444  0.48884704  1.0
  Mo  Mo2  1  0.65142740  0.95332556  0.98884704  1.0
  Mo  Mo3  1  0.34857260  0.45332556  0.51115296  1.0
  H  H4  1  0.27914156  0.06904856  0.50931200  1.0
  H  H5  1  0.72085844  0.56904856  0.99068800  1.0
  H  H6  1  0.72085844  0.93095144  0.49068800  1.0
  H  H7  1  0.27914156  0.43095144  0.00931200  1.0
  H  H8  1  0.10303197  0.72433229  0.89588465  1.0
  H  H9  1  0.89696803  0.22433229  0.60411535  1.0
  H  H10  1  0.89696803  0.27566771  0.10411535  1.0
  H  H11  1  0.10303197  0.77566771  0.39588465  1.0
  C  C12  1  0.34037359  0.04927798  0.65065852  1.0
  C  C13  1  0.65962641  0.54927798  0.84934148  1.0
  C  C14  1  0.65962641  0.95072202  0.34934148  1.0
  C  C15  1  0.34037359  0.45072202  0.15065852  1.0
  C  C16  1  0.21868845  0.80315085  0.92795112  1.0
  C  C17  1  0.78131155  0.30315085  0.57204888  1.0
  C  C18  1  0.78131155  0.19684915  0.07204888  1.0
  C  C19  1  0.21868845  0.69684915  0.42795112  1.0
  O  O20  1  0.21215446  0.08788413  0.74055985  1.0
  O  O21  1  0.78784554  0.58788413  0.75944015  1.0
  O  O22  1  0.78784554  0.91211587  0.25944015  1.0
  O  O23  1  0.21215446  0.41211587  0.24055985  1.0
  O  O24  1  0.11857490  0.89675531  0.95706738  1.0
  O  O25  1  0.88142510  0.39675531  0.54293262  1.0
  O  O26  1  0.88142510  0.10324469  0.04293262  1.0
  O  O27  1  0.11857490  0.60324469  0.45706738  1.0
  O  O28  1  0.46173653  0.01202062  0.28199160  1.0
  O  O29  1  0.53826347  0.51202062  0.21800840  1.0
  O  O30  1  0.53826347  0.98797938  0.71800840  1.0
  O  O31  1  0.46173653  0.48797938  0.78199160  1.0
  O  O32  1  0.55468728  0.20130655  0.06732075  1.0
  O  O33  1  0.44531272  0.70130655  0.43267925  1.0
  O  O34  1  0.44531272  0.79869345  0.93267925  1.0
  O  O35  1  0.55468728  0.29869345  0.56732075  1.0
