# generated using pymatgen
data_YSi2
_symmetry_space_group_name_H-M   'P 1'
_cell_length_a   7.91622925
_cell_length_b   7.91622925
_cell_length_c   7.91622925
_cell_angle_alpha   151.06099909
_cell_angle_beta   151.06200418
_cell_angle_gamma   41.38543103
_symmetry_Int_Tables_number   1
_chemical_formula_structural   YSi2
_chemical_formula_sum   'Y2 Si4'
_cell_volume   115.89066927
_cell_formula_units_Z   2
loop_
 _symmetry_equiv_pos_site_id
 _symmetry_equiv_pos_as_xyz
  1  'x, y, z'
loop_
 _atom_site_type_symbol
 _atom_site_label
 _atom_site_symmetry_multiplicity
 _atom_site_fract_x
 _atom_site_fract_y
 _atom_site_fract_z
 _atom_site_occupancy
  Y  Y0  1  0.62500113  0.37500113  0.25000000  1.0
  Y  Y1  1  0.37499887  0.62499887  0.75000000  1.0
  Si  Si2  1  1.20656819  0.95656819  1.25000000  1.0
  Si  Si3  1  0.79343181  0.04343181  0.75000000  1.0
  Si  Si4  1  1.04342948  0.79342948  1.25000000  1.0
  Si  Si5  1  0.95657052  0.20657052  0.75000000  1.0
