# generated using pymatgen
data_InAu3(CN)6
_symmetry_space_group_name_H-M   'P 1'
_cell_length_a   8.36069586
_cell_length_b   8.36069586
_cell_length_c   6.92548109
_cell_angle_alpha   90.00000000
_cell_angle_beta   90.00000000
_cell_angle_gamma   120.00000000
_symmetry_Int_Tables_number   1
_chemical_formula_structural   InAu3(CN)6
_chemical_formula_sum   'In1 Au3 C6 N6'
_cell_volume   419.24262371
_cell_formula_units_Z   1
loop_
 _symmetry_equiv_pos_site_id
 _symmetry_equiv_pos_as_xyz
  1  'x, y, z'
loop_
 _atom_site_type_symbol
 _atom_site_label
 _atom_site_symmetry_multiplicity
 _atom_site_fract_x
 _atom_site_fract_y
 _atom_site_fract_z
 _atom_site_occupancy
  In  In0  1  0.00000000  0.00000000  -0.00000000  1.0
  Au  Au1  1  0.50000000  0.50000000  0.50000000  1.0
  Au  Au2  1  0.50000000  -0.00000000  0.50000000  1.0
  Au  Au3  1  0.00000000  0.50000000  0.50000000  1.0
  C  C4  1  0.77519179  0.77519179  0.19795237  1.0
  C  C5  1  0.77519179  0.00000000  0.80204763  1.0
  C  C6  1  -0.00000000  0.77519179  0.80204763  1.0
  C  C7  1  -0.00000000  0.22480821  0.19795237  1.0
  C  C8  1  0.22480821  0.22480821  0.80204763  1.0
  C  C9  1  0.22480821  -0.00000000  0.19795237  1.0
  N  N10  1  0.66973318  0.66973318  0.30803698  1.0
  N  N11  1  0.66973318  -0.00000000  0.69196302  1.0
  N  N12  1  0.00000000  0.66973318  0.69196302  1.0
  N  N13  1  0.00000000  0.33026682  0.30803698  1.0
  N  N14  1  0.33026682  0.33026682  0.69196302  1.0
  N  N15  1  0.33026682  0.00000000  0.30803698  1.0
