# generated using pymatgen
data_OsO3F2
_symmetry_space_group_name_H-M   'P 1'
_cell_length_a   5.92659239
_cell_length_b   5.30254867
_cell_length_c   13.10940990
_cell_angle_alpha   90.00000000
_cell_angle_beta   99.48319389
_cell_angle_gamma   90.00000000
_symmetry_Int_Tables_number   1
_chemical_formula_structural   OsO3F2
_chemical_formula_sum   'Os4 O12 F8'
_cell_volume   406.34681173
_cell_formula_units_Z   4
loop_
 _symmetry_equiv_pos_site_id
 _symmetry_equiv_pos_as_xyz
  1  'x, y, z'
loop_
 _atom_site_type_symbol
 _atom_site_label
 _atom_site_symmetry_multiplicity
 _atom_site_fract_x
 _atom_site_fract_y
 _atom_site_fract_z
 _atom_site_occupancy
  Os  Os0  1  0.68826295  0.20630241  0.35418187  1.0
  Os  Os1  1  0.68826295  0.29369759  0.85418187  1.0
  Os  Os2  1  0.31173705  0.70630241  0.14581813  1.0
  Os  Os3  1  0.31173705  0.79369759  0.64581813  1.0
  O  O4  1  0.86455936  0.30919677  0.27249624  1.0
  O  O5  1  0.86455936  0.19080323  0.77249624  1.0
  O  O6  1  0.13544064  0.80919677  0.22750376  1.0
  O  O7  1  0.13544064  0.69080323  0.72750376  1.0
  O  O8  1  0.81381068  0.93190172  0.40069821  1.0
  O  O9  1  0.81381068  0.56809828  0.90069821  1.0
  O  O10  1  0.18618932  0.43190172  0.09930179  1.0
  O  O11  1  0.18618932  0.06809828  0.59930179  1.0
  O  O12  1  0.75193277  0.40410653  0.45708536  1.0
  O  O13  1  0.75193277  0.09589347  0.95708536  1.0
  O  O14  1  0.24806723  0.90410653  0.04291464  1.0
  O  O15  1  0.24806723  0.59589347  0.54291464  1.0
  F  F16  1  0.53147588  0.01088628  0.21896536  1.0
  F  F17  1  0.53147588  0.48911372  0.71896536  1.0
  F  F18  1  0.46852412  0.51088628  0.28103464  1.0
  F  F19  1  0.46852412  0.98911372  0.78103464  1.0
  F  F20  1  0.39136982  0.12872560  0.38239574  1.0
  F  F21  1  0.39136982  0.37127440  0.88239574  1.0
  F  F22  1  0.60863018  0.62872560  0.11760426  1.0
  F  F23  1  0.60863018  0.87127440  0.61760426  1.0
