# generated using pymatgen
data_BaNi9As5
_symmetry_space_group_name_H-M   'P 1'
_cell_length_a   6.77794118
_cell_length_b   6.77794118
_cell_length_c   11.37136243
_cell_angle_alpha   90.00000000
_cell_angle_beta   90.00000000
_cell_angle_gamma   120.00000000
_symmetry_Int_Tables_number   1
_chemical_formula_structural   BaNi9As5
_chemical_formula_sum   'Ba2 Ni18 As10'
_cell_volume   452.41680090
_cell_formula_units_Z   2
loop_
 _symmetry_equiv_pos_site_id
 _symmetry_equiv_pos_as_xyz
  1  'x, y, z'
loop_
 _atom_site_type_symbol
 _atom_site_label
 _atom_site_symmetry_multiplicity
 _atom_site_fract_x
 _atom_site_fract_y
 _atom_site_fract_z
 _atom_site_occupancy
  Ba  Ba0  1  -0.00000000  -0.00000000  0.50000000  1.0
  Ba  Ba1  1  -0.00000000  -0.00000000  -0.00000000  1.0
  Ni  Ni2  1  0.53538758  0.46461242  0.39351504  1.0
  Ni  Ni3  1  0.53538758  0.46461242  0.10648496  1.0
  Ni  Ni4  1  0.53538758  0.07077516  0.39351504  1.0
  Ni  Ni5  1  0.53538758  0.07077516  0.10648496  1.0
  Ni  Ni6  1  0.46461242  0.53538758  0.89351504  1.0
  Ni  Ni7  1  0.46461242  0.53538758  0.60648496  1.0
  Ni  Ni8  1  0.46461242  0.92922484  0.89351504  1.0
  Ni  Ni9  1  0.46461242  0.92922484  0.60648496  1.0
  Ni  Ni10  1  0.92922484  0.46461242  0.39351504  1.0
  Ni  Ni11  1  0.92922484  0.46461242  0.10648496  1.0
  Ni  Ni12  1  0.07077516  0.53538758  0.89351504  1.0
  Ni  Ni13  1  0.07077516  0.53538758  0.60648496  1.0
  Ni  Ni14  1  0.20923132  0.79076868  0.25000000  1.0
  Ni  Ni15  1  0.20923132  0.41846264  0.25000000  1.0
  Ni  Ni16  1  0.79076868  0.20923132  0.75000000  1.0
  Ni  Ni17  1  0.79076868  0.58153736  0.75000000  1.0
  Ni  Ni18  1  0.58153736  0.79076868  0.25000000  1.0
  Ni  Ni19  1  0.41846264  0.20923132  0.75000000  1.0
  As  As20  1  0.82702538  0.17297462  0.25000000  1.0
  As  As21  1  0.82702538  0.65405076  0.25000000  1.0
  As  As22  1  0.17297462  0.82702538  0.75000000  1.0
  As  As23  1  0.17297462  0.34594924  0.75000000  1.0
  As  As24  1  0.34594924  0.17297462  0.25000000  1.0
  As  As25  1  0.65405076  0.82702538  0.75000000  1.0
  As  As26  1  0.33333333  0.66666667  0.43937387  1.0
  As  As27  1  0.33333333  0.66666667  0.06062613  1.0
  As  As28  1  0.66666667  0.33333333  0.93937387  1.0
  As  As29  1  0.66666667  0.33333333  0.56062613  1.0
