# generated using pymatgen
data_K2GeTe4
_symmetry_space_group_name_H-M   'P 1'
_cell_length_a   12.89063341
_cell_length_b   8.58798368
_cell_length_c   10.33767201
_cell_angle_alpha   90.00000000
_cell_angle_beta   104.27333633
_cell_angle_gamma   90.00000000
_symmetry_Int_Tables_number   1
_chemical_formula_structural   K2GeTe4
_chemical_formula_sum   'K8 Ge4 Te16'
_cell_volume   1109.09950516
_cell_formula_units_Z   4
loop_
 _symmetry_equiv_pos_site_id
 _symmetry_equiv_pos_as_xyz
  1  'x, y, z'
loop_
 _atom_site_type_symbol
 _atom_site_label
 _atom_site_symmetry_multiplicity
 _atom_site_fract_x
 _atom_site_fract_y
 _atom_site_fract_z
 _atom_site_occupancy
  K  K0  1  0.84363949  0.43258254  0.70043824  1.0
  K  K1  1  0.84363949  0.06741746  0.20043824  1.0
  K  K2  1  0.15636051  0.93258254  0.79956176  1.0
  K  K3  1  0.15636051  0.56741746  0.29956176  1.0
  K  K4  1  0.45496894  0.56001341  0.79043025  1.0
  K  K5  1  0.45496894  0.93998659  0.29043025  1.0
  K  K6  1  0.54503106  0.06001341  0.70956975  1.0
  K  K7  1  0.54503106  0.43998659  0.20956975  1.0
  Ge  Ge8  1  0.75582799  0.85478462  0.53347012  1.0
  Ge  Ge9  1  0.75582799  0.64521538  0.03347012  1.0
  Ge  Ge10  1  0.24417201  0.35478462  0.96652988  1.0
  Ge  Ge11  1  0.24417201  0.14521538  0.46652988  1.0
  Te  Te12  1  0.92873167  0.74000473  0.95545703  1.0
  Te  Te13  1  0.92873167  0.75999527  0.45545703  1.0
  Te  Te14  1  0.07126833  0.24000473  0.54454297  1.0
  Te  Te15  1  0.07126833  0.25999527  0.04454297  1.0
  Te  Te16  1  0.84687984  0.97465116  0.77114861  1.0
  Te  Te17  1  0.84687984  0.52534883  0.27114861  1.0
  Te  Te18  1  0.15312016  0.47465117  0.72885139  1.0
  Te  Te19  1  0.15312016  0.02534883  0.22885139  1.0
  Te  Te20  1  0.70427397  0.36009809  0.96262075  1.0
  Te  Te21  1  0.70427397  0.13990191  0.46262075  1.0
  Te  Te22  1  0.29572603  0.86009809  0.53737925  1.0
  Te  Te23  1  0.29572603  0.63990191  0.03737925  1.0
  Te  Te24  1  0.61016573  0.65068603  0.52545763  1.0
  Te  Te25  1  0.61016573  0.84931397  0.02545763  1.0
  Te  Te26  1  0.38983427  0.15068603  0.97454237  1.0
  Te  Te27  1  0.38983427  0.34931397  0.47454237  1.0
