# generated using pymatgen
data_RbMoAsO6
_symmetry_space_group_name_H-M   'P 1'
_cell_length_a   10.57567219
_cell_length_b   10.02886624
_cell_length_c   8.67269531
_cell_angle_alpha   68.43117065
_cell_angle_beta   61.87156309
_cell_angle_gamma   49.69726626
_symmetry_Int_Tables_number   1
_chemical_formula_structural   RbMoAsO6
_chemical_formula_sum   'Rb4 Mo4 As4 O24'
_cell_volume   615.96229584
_cell_formula_units_Z   4
loop_
 _symmetry_equiv_pos_site_id
 _symmetry_equiv_pos_as_xyz
  1  'x, y, z'
loop_
 _atom_site_type_symbol
 _atom_site_label
 _atom_site_symmetry_multiplicity
 _atom_site_fract_x
 _atom_site_fract_y
 _atom_site_fract_z
 _atom_site_occupancy
  Rb  Rb0  1  0.70251773  0.29748227  0.29748227  1.0
  Rb  Rb1  1  0.29748227  0.70251773  0.70251773  1.0
  Rb  Rb2  1  0.54748227  0.95251773  -0.04748227  1.0
  Rb  Rb3  1  0.95251773  0.54748227  -0.45251773  1.0
  Mo  Mo4  1  1.22105952  -0.22105952  0.22105952  1.0
  Mo  Mo5  1  0.77894048  0.22105952  -0.22105952  1.0
  Mo  Mo6  1  0.02894048  1.47105952  0.02894048  1.0
  Mo  Mo7  1  0.47105952  1.02894048  0.47105952  1.0
  As  As8  1  0.12026587  1.12026587  0.37973413  1.0
  As  As9  1  0.37973413  0.37973413  0.12026587  1.0
  As  As10  1  1.12973413  0.12973413  -0.12973413  1.0
  As  As11  1  0.87026587  0.87026587  0.12973413  1.0
  O  O12  1  0.24073193  0.91146904  0.94178998  1.0
  O  O13  1  0.94178998  -0.09399095  0.24073193  1.0
  O  O14  1  0.91146904  0.24073193  -0.09399095  1.0
  O  O15  1  -0.09399095  0.94178998  0.91146904  1.0
  O  O16  1  0.00926807  1.33853096  0.30821002  1.0
  O  O17  1  0.30821002  1.34399095  0.00926807  1.0
  O  O18  1  0.33853096  1.00926807  0.34399095  1.0
  O  O19  1  0.34399095  1.30821002  0.33853096  1.0
  O  O20  1  0.08654559  1.01973920  0.28647649  1.0
  O  O21  1  0.28647649  0.60723872  0.08654559  1.0
  O  O22  1  0.01973920  1.08654559  0.60723872  1.0
  O  O23  1  0.60723872  0.28647649  0.01973920  1.0
  O  O24  1  1.16345441  0.23026080  -0.03647649  1.0
  O  O25  1  0.96352351  0.64276128  0.16345441  1.0
  O  O26  1  0.23026080  1.16345441  0.64276128  1.0
  O  O27  1  0.64276128  0.96352351  0.23026080  1.0
  O  O28  1  0.42681267  0.71714524  1.18148412  1.0
  O  O29  1  1.18148412  -0.32544203  0.42681267  1.0
  O  O30  1  0.71714524  0.42681267  -0.32544203  1.0
  O  O31  1  -0.32544203  1.18148412  0.71714524  1.0
  O  O32  1  0.82318733  0.53285476  1.06851588  1.0
  O  O33  1  1.06851588  0.57544203  0.82318733  1.0
  O  O34  1  0.53285476  0.82318733  0.57544203  1.0
  O  O35  1  0.57544203  1.06851588  0.53285476  1.0
