# generated using pymatgen
data_BaBe2Si2O7
_symmetry_space_group_name_H-M   'P 1'
_cell_length_a   4.73179219
_cell_length_b   11.80621561
_cell_length_c   4.96986555
_cell_angle_alpha   90.00000000
_cell_angle_beta   90.00110086
_cell_angle_gamma   90.00000000
_symmetry_Int_Tables_number   1
_chemical_formula_structural   BaBe2Si2O7
_chemical_formula_sum   'Ba2 Be4 Si4 O14'
_cell_volume   277.63934662
_cell_formula_units_Z   2
loop_
 _symmetry_equiv_pos_site_id
 _symmetry_equiv_pos_as_xyz
  1  'x, y, z'
loop_
 _atom_site_type_symbol
 _atom_site_label
 _atom_site_symmetry_multiplicity
 _atom_site_fract_x
 _atom_site_fract_y
 _atom_site_fract_z
 _atom_site_occupancy
  Ba  Ba0  1  0.94506879  0.50000000  0.98635800  1.0
  Ba  Ba1  1  0.44509630  0.00000000  0.58392116  1.0
  Be  Be2  1  0.94444481  0.74899448  0.61631426  1.0
  Be  Be3  1  0.94444481  0.25100552  0.61631426  1.0
  Be  Be4  1  0.44444938  0.75100034  0.95391103  1.0
  Be  Be5  1  0.44444938  0.24899966  0.95391103  1.0
  Si  Si6  1  0.95935097  0.87152737  0.10938975  1.0
  Si  Si7  1  0.95935097  0.12847263  0.10938975  1.0
  Si  Si8  1  0.45932538  0.62846891  0.46084284  1.0
  Si  Si9  1  0.45932538  0.37153109  0.46084284  1.0
  O  O10  1  0.89209131  0.85987768  0.42911850  1.0
  O  O11  1  0.89209131  0.14012232  0.42911850  1.0
  O  O12  1  0.79711299  0.63318558  0.51954843  1.0
  O  O13  1  0.79711299  0.36681442  0.51954843  1.0
  O  O14  1  0.79366394  0.77838267  0.91700191  1.0
  O  O15  1  0.79366394  0.22161733  0.91700191  1.0
  O  O16  1  0.39210289  0.64012404  0.14111220  1.0
  O  O17  1  0.39210289  0.35987596  0.14111220  1.0
  O  O18  1  0.29714379  0.86680149  0.05073265  1.0
  O  O19  1  0.29714379  0.13319851  0.05073265  1.0
  O  O20  1  0.29365345  0.72161529  0.65323149  1.0
  O  O21  1  0.29365345  0.27838471  0.65323149  1.0
  O  O22  1  0.34684304  0.50000000  0.55782106  1.0
  O  O23  1  -0.15308592  0.00000000  0.01239365  1.0
