# generated using pymatgen
data_Ge9Pd25
_symmetry_space_group_name_H-M   'P 1'
_cell_length_a   7.46345940
_cell_length_b   7.46345940
_cell_length_c   10.71307519
_cell_angle_alpha   90.00000000
_cell_angle_beta   90.00000000
_cell_angle_gamma   120.00000000
_symmetry_Int_Tables_number   1
_chemical_formula_structural   Ge9Pd25
_chemical_formula_sum   'Ge9 Pd25'
_cell_volume   516.80312862
_cell_formula_units_Z   1
loop_
 _symmetry_equiv_pos_site_id
 _symmetry_equiv_pos_as_xyz
  1  'x, y, z'
loop_
 _atom_site_type_symbol
 _atom_site_label
 _atom_site_symmetry_multiplicity
 _atom_site_fract_x
 _atom_site_fract_y
 _atom_site_fract_z
 _atom_site_occupancy
  Ge  Ge0  1  0.33465629  0.99204170  0.32188586  1.0
  Ge  Ge1  1  0.99204170  0.65738541  0.67811414  1.0
  Ge  Ge2  1  0.65738541  0.66534371  0.32188586  1.0
  Ge  Ge3  1  0.00795830  0.34261459  0.32188586  1.0
  Ge  Ge4  1  0.66534371  0.00795830  0.67811414  1.0
  Ge  Ge5  1  0.34261459  0.33465629  0.67811414  1.0
  Ge  Ge6  1  0.33333333  0.66666667  0.02023209  1.0
  Ge  Ge7  1  0.66666667  0.33333333  0.97976791  1.0
  Ge  Ge8  1  0.00000000  0.00000000  0.00000000  1.0
  Pd  Pd9  1  0.09123669  0.67375894  0.18580551  1.0
  Pd  Pd10  1  0.67375894  0.58252225  0.81419449  1.0
  Pd  Pd11  1  0.58252225  0.90876331  0.18580551  1.0
  Pd  Pd12  1  0.32624106  0.41747775  0.18580551  1.0
  Pd  Pd13  1  0.90876331  0.32624106  0.81419449  1.0
  Pd  Pd14  1  0.41747775  0.09123669  0.81419449  1.0
  Pd  Pd15  1  0.72639614  0.65630503  0.08017824  1.0
  Pd  Pd16  1  0.65630503  0.92990889  0.91982176  1.0
  Pd  Pd17  1  0.92990889  0.27360386  0.08017824  1.0
  Pd  Pd18  1  0.34369497  0.07009111  0.08017824  1.0
  Pd  Pd19  1  0.27360386  0.34369497  0.91982176  1.0
  Pd  Pd20  1  0.07009111  0.72639614  0.91982176  1.0
  Pd  Pd21  1  0.92780475  0.62048327  0.43116423  1.0
  Pd  Pd22  1  0.62048327  0.69267852  0.56883577  1.0
  Pd  Pd23  1  0.69267852  0.07219525  0.43116423  1.0
  Pd  Pd24  1  0.37951673  0.30732148  0.43116423  1.0
  Pd  Pd25  1  0.07219525  0.37951673  0.56883577  1.0
  Pd  Pd26  1  0.30732148  0.92780475  0.56883577  1.0
  Pd  Pd27  1  0.33333333  0.66666667  0.39266133  1.0
  Pd  Pd28  1  0.66666667  0.33333333  0.60733867  1.0
  Pd  Pd29  1  0.33333333  0.66666667  0.75669407  1.0
  Pd  Pd30  1  0.66666667  0.33333333  0.24330593  1.0
  Pd  Pd31  1  0.00000000  0.00000000  0.24879734  1.0
  Pd  Pd32  1  0.00000000  0.00000000  0.75120266  1.0
  Pd  Pd33  1  0.00000000  0.00000000  0.50000000  1.0
