# generated using pymatgen
data_EuZrS3
_symmetry_space_group_name_H-M   'P 1'
_cell_length_a   7.16609236
_cell_length_b   9.67898926
_cell_length_c   6.59490557
_cell_angle_alpha   90.00000000
_cell_angle_beta   90.00000000
_cell_angle_gamma   90.00000000
_symmetry_Int_Tables_number   1
_chemical_formula_structural   EuZrS3
_chemical_formula_sum   'Eu4 Zr4 S12'
_cell_volume   457.42615171
_cell_formula_units_Z   4
loop_
 _symmetry_equiv_pos_site_id
 _symmetry_equiv_pos_as_xyz
  1  'x, y, z'
loop_
 _atom_site_type_symbol
 _atom_site_label
 _atom_site_symmetry_multiplicity
 _atom_site_fract_x
 _atom_site_fract_y
 _atom_site_fract_z
 _atom_site_occupancy
  Eu  Eu0  1  0.09545316  0.75000000  0.53535020  1.0
  Eu  Eu1  1  0.59545316  0.75000000  0.96464980  1.0
  Eu  Eu2  1  0.90454684  0.25000000  0.46464980  1.0
  Eu  Eu3  1  0.40454684  0.25000000  0.03535020  1.0
  Zr  Zr4  1  0.50000000  0.00000000  0.50000000  1.0
  Zr  Zr5  1  0.50000000  0.50000000  0.50000000  1.0
  Zr  Zr6  1  0.00000000  0.00000000  0.00000000  1.0
  Zr  Zr7  1  0.00000000  0.50000000  0.00000000  1.0
  S  S8  1  0.30857987  0.94113120  0.81787905  1.0
  S  S9  1  0.30857987  0.55886880  0.81787905  1.0
  S  S10  1  0.80857987  0.94113120  0.68212095  1.0
  S  S11  1  0.80857987  0.55886880  0.68212095  1.0
  S  S12  1  0.69142013  0.44113120  0.18212095  1.0
  S  S13  1  0.69142013  0.05886880  0.18212095  1.0
  S  S14  1  0.19142013  0.44113120  0.31787905  1.0
  S  S15  1  0.19142013  0.05886880  0.31787905  1.0
  S  S16  1  0.97171628  0.75000000  0.11757581  1.0
  S  S17  1  0.47171628  0.75000000  0.38242419  1.0
  S  S18  1  0.02828372  0.25000000  0.88242419  1.0
  S  S19  1  0.52828372  0.25000000  0.61757581  1.0
