# generated using pymatgen
data_Lu5(Si5Rh2)2
_symmetry_space_group_name_H-M   'P 1'
_cell_length_a   12.55450385
_cell_length_b   12.55450385
_cell_length_c   4.15608177
_cell_angle_alpha   90.00000000
_cell_angle_beta   90.00000000
_cell_angle_gamma   90.00000000
_symmetry_Int_Tables_number   1
_chemical_formula_structural   Lu5(Si5Rh2)2
_chemical_formula_sum   'Lu10 Si20 Rh8'
_cell_volume   655.06318392
_cell_formula_units_Z   2
loop_
 _symmetry_equiv_pos_site_id
 _symmetry_equiv_pos_as_xyz
  1  'x, y, z'
loop_
 _atom_site_type_symbol
 _atom_site_label
 _atom_site_symmetry_multiplicity
 _atom_site_fract_x
 _atom_site_fract_y
 _atom_site_fract_z
 _atom_site_occupancy
  Lu  Lu0  1  0.32450823  0.17549177  0.50000000  1.0
  Lu  Lu1  1  0.82450823  0.32450823  0.50000000  1.0
  Lu  Lu2  1  0.67549177  0.82450823  0.50000000  1.0
  Lu  Lu3  1  0.17549177  0.67549177  0.50000000  1.0
  Lu  Lu4  1  0.88641199  0.61358801  0.50000000  1.0
  Lu  Lu5  1  0.38641199  0.88641199  0.50000000  1.0
  Lu  Lu6  1  0.11358801  0.38641199  0.50000000  1.0
  Lu  Lu7  1  0.61358801  0.11358801  0.50000000  1.0
  Lu  Lu8  1  0.50000000  0.50000000  0.00000000  1.0
  Lu  Lu9  1  0.00000000  0.00000000  0.00000000  1.0
  Si  Si10  1  0.34342635  0.50010595  0.50000000  1.0
  Si  Si11  1  0.84342635  0.99989405  0.50000000  1.0
  Si  Si12  1  0.49989405  0.34342635  0.50000000  1.0
  Si  Si13  1  0.99989405  0.15657365  0.50000000  1.0
  Si  Si14  1  0.65657365  0.49989405  0.50000000  1.0
  Si  Si15  1  0.15657365  0.00010595  0.50000000  1.0
  Si  Si16  1  0.50010595  0.65657365  0.50000000  1.0
  Si  Si17  1  0.00010595  0.84342635  0.50000000  1.0
  Si  Si18  1  0.33699141  0.70083041  0.00000000  1.0
  Si  Si19  1  0.83699141  0.79916959  0.00000000  1.0
  Si  Si20  1  0.29916959  0.33699141  0.00000000  1.0
  Si  Si21  1  0.79916959  0.16300859  0.00000000  1.0
  Si  Si22  1  0.66300859  0.29916959  0.00000000  1.0
  Si  Si23  1  0.16300859  0.20083041  0.00000000  1.0
  Si  Si24  1  0.70083041  0.66300859  0.00000000  1.0
  Si  Si25  1  0.20083041  0.83699141  0.00000000  1.0
  Si  Si26  1  0.43405511  0.06594489  0.00000000  1.0
  Si  Si27  1  0.93405511  0.43405511  0.00000000  1.0
  Si  Si28  1  0.56594489  0.93405511  0.00000000  1.0
  Si  Si29  1  0.06594489  0.56594489  0.00000000  1.0
  Rh  Rh30  1  0.25494024  0.52013279  0.00000000  1.0
  Rh  Rh31  1  0.75494024  0.97986721  0.00000000  1.0
  Rh  Rh32  1  0.47986721  0.25494024  0.00000000  1.0
  Rh  Rh33  1  0.97986721  0.24505976  0.00000000  1.0
  Rh  Rh34  1  0.74505976  0.47986721  0.00000000  1.0
  Rh  Rh35  1  0.24505976  0.02013279  0.00000000  1.0
  Rh  Rh36  1  0.52013279  0.74505976  0.00000000  1.0
  Rh  Rh37  1  0.02013279  0.75494024  0.00000000  1.0
