# generated using pymatgen
data_NaSO2
_symmetry_space_group_name_H-M   'P 1'
_cell_length_a   6.50993496
_cell_length_b   6.93017791
_cell_length_c   6.67623743
_cell_angle_alpha   90.00000000
_cell_angle_beta   118.39176279
_cell_angle_gamma   90.00000000
_symmetry_Int_Tables_number   1
_chemical_formula_structural   NaSO2
_chemical_formula_sum   'Na4 S4 O8'
_cell_volume   264.96942488
_cell_formula_units_Z   4
loop_
 _symmetry_equiv_pos_site_id
 _symmetry_equiv_pos_as_xyz
  1  'x, y, z'
loop_
 _atom_site_type_symbol
 _atom_site_label
 _atom_site_symmetry_multiplicity
 _atom_site_fract_x
 _atom_site_fract_y
 _atom_site_fract_z
 _atom_site_occupancy
  Na  Na0  1  0.76418817  0.85360132  0.97649803  1.0
  Na  Na1  1  0.76418817  0.14639868  0.47649803  1.0
  Na  Na2  1  0.23581183  0.85360132  0.52350197  1.0
  Na  Na3  1  0.23581183  0.14639868  0.02350197  1.0
  S  S4  1  0.69014086  0.67019433  0.42732664  1.0
  S  S5  1  0.69014086  0.32980567  0.92732664  1.0
  S  S6  1  0.30985914  0.67019433  0.07267336  1.0
  S  S7  1  0.30985914  0.32980567  0.57267336  1.0
  O  O8  1  0.81873825  0.82008095  0.35750872  1.0
  O  O9  1  0.81873825  0.17991905  0.85750872  1.0
  O  O10  1  0.18126175  0.82008095  0.14249128  1.0
  O  O11  1  0.18126175  0.17991905  0.64249128  1.0
  O  O12  1  0.38713649  0.76539951  0.91348592  1.0
  O  O13  1  0.38713649  0.23460049  0.41348592  1.0
  O  O14  1  0.61286351  0.76539951  0.58651408  1.0
  O  O15  1  0.61286351  0.23460049  0.08651408  1.0
