# generated using pymatgen
data_BiI3
_symmetry_space_group_name_H-M   'P 1'
_cell_length_a   7.81211309
_cell_length_b   7.81211309
_cell_length_c   24.03531516
_cell_angle_alpha   90.00000000
_cell_angle_beta   90.00000000
_cell_angle_gamma   120.00000000
_symmetry_Int_Tables_number   1
_chemical_formula_structural   BiI3
_chemical_formula_sum   'Bi6 I18'
_cell_volume   1270.33275527
_cell_formula_units_Z   6
loop_
 _symmetry_equiv_pos_site_id
 _symmetry_equiv_pos_as_xyz
  1  'x, y, z'
loop_
 _atom_site_type_symbol
 _atom_site_label
 _atom_site_symmetry_multiplicity
 _atom_site_fract_x
 _atom_site_fract_y
 _atom_site_fract_z
 _atom_site_occupancy
  Bi  Bi0  1  0.33333333  0.66666667  0.00002766  1.0
  Bi  Bi1  1  0.33333333  0.66666667  0.65878464  1.0
  Bi  Bi2  1  0.66666667  0.33333333  -0.00002766  1.0
  Bi  Bi3  1  0.00000000  0.00000000  0.34119336  1.0
  Bi  Bi4  1  0.00000000  0.00000000  0.65880664  1.0
  Bi  Bi5  1  0.66666667  0.33333333  0.34121536  1.0
  I  I6  1  0.64640009  0.99963700  0.07581609  1.0
  I  I7  1  0.00036300  0.64676310  0.07581609  1.0
  I  I8  1  0.35323690  0.35359991  0.07581609  1.0
  I  I9  1  0.99963700  0.35323690  0.92418391  1.0
  I  I10  1  0.64676310  0.64640009  0.92418391  1.0
  I  I11  1  0.35359991  0.00036300  0.92418391  1.0
  I  I12  1  0.68745575  1.02029766  0.26532460  1.0
  I  I13  1  -0.02029766  0.66715809  0.26532460  1.0
  I  I14  1  0.33284191  0.31254425  0.26532460  1.0
  I  I15  1  -0.01953094  0.31432383  0.41690124  1.0
  I  I16  1  0.68567617  0.66614523  0.41690124  1.0
  I  I17  1  0.33385477  0.01953094  0.41690124  1.0
  I  I18  1  0.66614523  -0.01953094  0.58309876  1.0
  I  I19  1  0.01953094  0.68567617  0.58309876  1.0
  I  I20  1  0.31432383  0.33385477  0.58309876  1.0
  I  I21  1  1.02029766  0.33284191  0.73467540  1.0
  I  I22  1  0.66715809  0.68745575  0.73467540  1.0
  I  I23  1  0.31254425  -0.02029766  0.73467540  1.0
