# generated using pymatgen
data_K2CuH4(Cl2O)2
_symmetry_space_group_name_H-M   'P 1'
_cell_length_a   7.60149124
_cell_length_b   7.60149124
_cell_length_c   7.98855411
_cell_angle_alpha   90.00000000
_cell_angle_beta   90.00000000
_cell_angle_gamma   90.00000000
_symmetry_Int_Tables_number   1
_chemical_formula_structural   K2CuH4(Cl2O)2
_chemical_formula_sum   'K4 Cu2 H8 Cl8 O4'
_cell_volume   461.59997908
_cell_formula_units_Z   2
loop_
 _symmetry_equiv_pos_site_id
 _symmetry_equiv_pos_as_xyz
  1  'x, y, z'
loop_
 _atom_site_type_symbol
 _atom_site_label
 _atom_site_symmetry_multiplicity
 _atom_site_fract_x
 _atom_site_fract_y
 _atom_site_fract_z
 _atom_site_occupancy
  K  K0  1  0.50000000  0.00000000  0.25000000  1.0
  K  K1  1  0.50000000  0.00000000  0.75000000  1.0
  K  K2  1  0.00000000  0.50000000  0.75000000  1.0
  K  K3  1  0.00000000  0.50000000  0.25000000  1.0
  Cu  Cu4  1  0.50000000  0.50000000  0.50000000  1.0
  Cu  Cu5  1  0.00000000  0.00000000  0.00000000  1.0
  H  H6  1  0.42505616  0.57494384  0.17943422  1.0
  H  H7  1  0.42505616  0.57494384  0.82056578  1.0
  H  H8  1  0.92505616  0.92505616  0.67943422  1.0
  H  H9  1  0.92505616  0.92505616  0.32056578  1.0
  H  H10  1  0.57494384  0.42505616  0.17943422  1.0
  H  H11  1  0.57494384  0.42505616  0.82056578  1.0
  H  H12  1  0.07494384  0.07494384  0.67943422  1.0
  H  H13  1  0.07494384  0.07494384  0.32056578  1.0
  Cl  Cl14  1  0.21624696  0.21624696  0.50000000  1.0
  Cl  Cl15  1  0.71624696  0.28375304  0.00000000  1.0
  Cl  Cl16  1  0.78375304  0.78375304  0.50000000  1.0
  Cl  Cl17  1  0.28375304  0.71624696  0.00000000  1.0
  Cl  Cl18  1  0.28807315  0.71192685  0.50000000  1.0
  Cl  Cl19  1  0.78807315  0.78807315  0.00000000  1.0
  Cl  Cl20  1  0.71192685  0.28807315  0.50000000  1.0
  Cl  Cl21  1  0.21192685  0.21192685  0.00000000  1.0
  O  O22  1  0.50000000  0.50000000  0.25250961  1.0
  O  O23  1  0.50000000  0.50000000  0.74749039  1.0
  O  O24  1  0.00000000  0.00000000  0.75250961  1.0
  O  O25  1  0.00000000  0.00000000  0.24749039  1.0
