# generated using pymatgen
data_CaC2
_symmetry_space_group_name_H-M   'P 1'
_cell_length_a   4.75750134
_cell_length_b   4.75750134
_cell_length_c   4.75969170
_cell_angle_alpha   90.00000000
_cell_angle_beta   90.00000000
_cell_angle_gamma   133.59822018
_symmetry_Int_Tables_number   1
_chemical_formula_structural   CaC2
_chemical_formula_sum   'Ca2 C4'
_cell_volume   78.01734268
_cell_formula_units_Z   2
loop_
 _symmetry_equiv_pos_site_id
 _symmetry_equiv_pos_as_xyz
  1  'x, y, z'
loop_
 _atom_site_type_symbol
 _atom_site_label
 _atom_site_symmetry_multiplicity
 _atom_site_fract_x
 _atom_site_fract_y
 _atom_site_fract_z
 _atom_site_occupancy
  Ca  Ca0  1  -0.14625543  0.14625543  0.25000000  1.0
  Ca  Ca1  1  0.14625543  0.85374457  0.75000000  1.0
  C  C2  1  -0.43845734  0.43845734  0.39687245  1.0
  C  C3  1  0.43845734  0.56154266  0.60312755  1.0
  C  C4  1  -0.43845734  0.43845734  0.10312755  1.0
  C  C5  1  0.43845734  0.56154266  0.89687245  1.0
