# generated using pymatgen
data_PNF2
_symmetry_space_group_name_H-M   'P 1'
_cell_length_a   5.56946304
_cell_length_b   5.56946304
_cell_length_c   5.03440310
_cell_angle_alpha   90.00000000
_cell_angle_beta   90.00000000
_cell_angle_gamma   63.71830854
_symmetry_Int_Tables_number   1
_chemical_formula_structural   PNF2
_chemical_formula_sum   'P2 N2 F4'
_cell_volume   140.01898279
_cell_formula_units_Z   2
loop_
 _symmetry_equiv_pos_site_id
 _symmetry_equiv_pos_as_xyz
  1  'x, y, z'
loop_
 _atom_site_type_symbol
 _atom_site_label
 _atom_site_symmetry_multiplicity
 _atom_site_fract_x
 _atom_site_fract_y
 _atom_site_fract_z
 _atom_site_occupancy
  P  P0  1  0.12800949  0.87199051  0.30316964  1.0
  P  P1  1  -0.12800949  1.12800949  0.80316964  1.0
  N  N2  1  0.07901896  0.92098104  -0.00263001  1.0
  N  N3  1  -0.07901896  1.07901896  0.49736999  1.0
  F  F4  1  0.16853686  0.57955042  0.36323018  1.0
  F  F5  1  -0.42044958  1.16853686  0.86323018  1.0
  F  F6  1  0.42044958  0.83146314  0.36323018  1.0
  F  F7  1  -0.16853686  1.42044958  0.86323018  1.0
