# generated using pymatgen
data_LiLa(CN2)2
_symmetry_space_group_name_H-M   'P 1'
_cell_length_a   5.47262479
_cell_length_b   3.79627935
_cell_length_c   10.19477129
_cell_angle_alpha   90.00000000
_cell_angle_beta   101.08379192
_cell_angle_gamma   90.00000000
_symmetry_Int_Tables_number   1
_chemical_formula_structural   LiLa(CN2)2
_chemical_formula_sum   'Li2 La2 C4 N8'
_cell_volume   207.85188160
_cell_formula_units_Z   2
loop_
 _symmetry_equiv_pos_site_id
 _symmetry_equiv_pos_as_xyz
  1  'x, y, z'
loop_
 _atom_site_type_symbol
 _atom_site_label
 _atom_site_symmetry_multiplicity
 _atom_site_fract_x
 _atom_site_fract_y
 _atom_site_fract_z
 _atom_site_occupancy
  Li  Li0  1  0.40806170  0.25000000  0.64578957  1.0
  Li  Li1  1  0.59193830  0.75000000  0.35421043  1.0
  La  La2  1  0.97716566  0.25000000  0.19356725  1.0
  La  La3  1  0.02283434  0.75000000  0.80643275  1.0
  C  C4  1  0.78092820  0.25000000  0.52769300  1.0
  C  C5  1  0.21907180  0.75000000  0.47230700  1.0
  C  C6  1  0.57625513  0.25000000  0.88963250  1.0
  C  C7  1  0.42374487  0.75000000  0.11036750  1.0
  N  N8  1  0.79816809  0.25000000  0.65153766  1.0
  N  N9  1  0.20183191  0.75000000  0.34846234  1.0
  N  N10  1  0.80294527  0.25000000  0.93351630  1.0
  N  N11  1  0.19705473  0.75000000  0.06648370  1.0
  N  N12  1  0.75069432  0.25000000  0.40540230  1.0
  N  N13  1  0.24930568  0.75000000  0.59459770  1.0
  N  N14  1  0.35221548  0.25000000  0.84054122  1.0
  N  N15  1  0.64778452  0.75000000  0.15945878  1.0
