# generated using pymatgen
data_Sm(AlZn)2
_symmetry_space_group_name_H-M   'P 1'
_cell_length_a   6.29189533
_cell_length_b   6.29189533
_cell_length_c   6.29189533
_cell_angle_alpha   140.99405701
_cell_angle_beta   140.99405701
_cell_angle_gamma   56.34702909
_symmetry_Int_Tables_number   1
_chemical_formula_structural   Sm(AlZn)2
_chemical_formula_sum   'Sm1 Al2 Zn2'
_cell_volume   97.89380885
_cell_formula_units_Z   1
loop_
 _symmetry_equiv_pos_site_id
 _symmetry_equiv_pos_as_xyz
  1  'x, y, z'
loop_
 _atom_site_type_symbol
 _atom_site_label
 _atom_site_symmetry_multiplicity
 _atom_site_fract_x
 _atom_site_fract_y
 _atom_site_fract_z
 _atom_site_occupancy
  Sm  Sm0  1  0.00000000  0.00000000  0.00000000  1.0
  Al  Al1  1  0.75000000  0.25000000  0.50000000  1.0
  Al  Al2  1  0.25000000  0.75000000  0.50000000  1.0
  Zn  Zn3  1  0.61133470  0.61133470  1.00000000  1.0
  Zn  Zn4  1  0.38866530  0.38866530  0.00000000  1.0
