# generated using pymatgen
data_SiRh
_symmetry_space_group_name_H-M   'P 1'
_cell_length_a   4.60922120
_cell_length_b   4.59768468
_cell_length_c   5.60764307
_cell_angle_alpha   90.00000000
_cell_angle_beta   115.35782355
_cell_angle_gamma   90.00000000
_symmetry_Int_Tables_number   1
_chemical_formula_structural   SiRh
_chemical_formula_sum   'Si4 Rh4'
_cell_volume   107.38601627
_cell_formula_units_Z   4
loop_
 _symmetry_equiv_pos_site_id
 _symmetry_equiv_pos_as_xyz
  1  'x, y, z'
loop_
 _atom_site_type_symbol
 _atom_site_label
 _atom_site_symmetry_multiplicity
 _atom_site_fract_x
 _atom_site_fract_y
 _atom_site_fract_z
 _atom_site_occupancy
  Si  Si0  1  0.71193557  0.35280876  0.44066943  1.0
  Si  Si1  1  0.71193557  0.14719124  0.94066943  1.0
  Si  Si2  1  0.28806443  0.85280876  0.05933057  1.0
  Si  Si3  1  0.28806443  0.64719124  0.55933057  1.0
  Rh  Rh4  1  0.20004594  0.14387285  0.38205627  1.0
  Rh  Rh5  1  0.20004594  0.35612715  0.88205627  1.0
  Rh  Rh6  1  0.79995406  0.64387285  0.11794373  1.0
  Rh  Rh7  1  0.79995406  0.85612715  0.61794373  1.0
