# generated using pymatgen
data_ScH3
_symmetry_space_group_name_H-M   'P 1'
_cell_length_a   5.81180324
_cell_length_b   5.81180324
_cell_length_c   3.63372135
_cell_angle_alpha   74.36866512
_cell_angle_beta   105.63133488
_cell_angle_gamma   134.95003587
_symmetry_Int_Tables_number   1
_chemical_formula_structural   ScH3
_chemical_formula_sum   'Sc3 H9'
_cell_volume   83.08571004
_cell_formula_units_Z   3
loop_
 _symmetry_equiv_pos_site_id
 _symmetry_equiv_pos_as_xyz
  1  'x, y, z'
loop_
 _atom_site_type_symbol
 _atom_site_label
 _atom_site_symmetry_multiplicity
 _atom_site_fract_x
 _atom_site_fract_y
 _atom_site_fract_z
 _atom_site_occupancy
  Sc  Sc0  1  1.14763785  -0.14763785  0.25541941  1.0
  Sc  Sc1  1  0.81617328  -0.81617328  0.96498736  1.0
  Sc  Sc2  1  1.48473060  -0.48473060  0.67437887  1.0
  H  H3  1  1.05507830  -0.57725975  0.46514345  1.0
  H  H4  1  1.57725975  -0.05507830  0.46514345  1.0
  H  H5  1  1.22964241  -0.73836755  0.21052849  1.0
  H  H6  1  1.73836755  -0.22964241  0.21052849  1.0
  H  H7  1  0.89394231  -0.40271752  0.71932424  1.0
  H  H8  1  1.40271752  0.10605769  0.71932424  1.0
  H  H9  1  0.98762754  -0.98762754  0.77748816  1.0
  H  H10  1  1.31611253  -0.31611253  0.96536431  1.0
  H  H11  1  0.64471036  -0.64471036  0.15236953  1.0
