# generated using pymatgen
data_Ca6Si6O19
_symmetry_space_group_name_H-M   'P 1'
_cell_length_a   8.86424234
_cell_length_b   7.98676790
_cell_length_c   7.43128012
_cell_angle_alpha   62.14530951
_cell_angle_beta   77.98692787
_cell_angle_gamma   84.71787314
_symmetry_Int_Tables_number   1
_chemical_formula_structural   Ca6Si6O19
_chemical_formula_sum   'Ca6 Si6 O19'
_cell_volume   454.95726150
_cell_formula_units_Z   1
loop_
 _symmetry_equiv_pos_site_id
 _symmetry_equiv_pos_as_xyz
  1  'x, y, z'
loop_
 _atom_site_type_symbol
 _atom_site_label
 _atom_site_symmetry_multiplicity
 _atom_site_fract_x
 _atom_site_fract_y
 _atom_site_fract_z
 _atom_site_occupancy
  Si  Si0  1  0.21136728  -0.76761598  1.66702600  1.0
  Si  Si1  1  0.78863272  -0.23238402  0.33297400  1.0
  Si  Si2  1  0.21322591  -0.76739075  1.24411248  1.0
  Si  Si3  1  0.78677409  -0.23260925  0.75588752  1.0
  Si  Si4  1  0.31794137  -0.05503545  0.07336863  1.0
  Si  Si5  1  0.68205863  -0.94496455  1.92663137  1.0
  O  O6  1  0.50000000  -0.00000000  0.00000000  1.0
  O  O7  1  0.21719470  -0.83838686  1.48985011  1.0
  O  O8  1  0.78280530  -0.16161314  0.51014989  1.0
  O  O9  1  0.35034369  -0.61705055  1.09091974  1.0
  O  O10  1  0.64965631  -0.38294945  0.90908026  1.0
  O  O11  1  0.34757405  -0.61569800  1.60073397  1.0
  O  O12  1  0.65242595  -0.38430200  0.39926603  1.0
  O  O13  1  0.22864928  -0.97259466  1.87537001  1.0
  O  O14  1  0.77135072  -0.02740534  0.12462999  1.0
  O  O15  1  0.22953462  -0.97227928  1.23303631  1.0
  O  O16  1  0.77046538  -0.02772072  0.76696369  1.0
  O  O17  1  0.04714419  -0.66736328  1.19536026  1.0
  O  O18  1  0.95285581  -0.33263672  0.80463974  1.0
  O  O19  1  0.04482729  -0.66903507  0.69841194  1.0
  O  O20  1  0.95517271  -0.33096493  1.30158806  1.0
  O  O21  1  0.29311972  -0.28103817  1.19302204  1.0
  O  O22  1  0.70688028  -0.71896183  0.80697796  1.0
  O  O23  1  0.29401374  -0.30019536  0.70593522  1.0
  O  O24  1  0.70598626  -0.69980464  1.29406478  1.0
  Ca  Ca25  1  0.49716956  -0.49983409  1.25052238  1.0
  Ca  Ca26  1  0.50283044  -0.50016591  0.74947762  1.0
  Ca  Ca27  1  0.12947865  -0.33531763  1.00664619  1.0
  Ca  Ca28  1  0.87052135  -0.66468237  0.99335381  1.0
  Ca  Ca29  1  0.13581847  -0.34283584  0.51867184  1.0
  Ca  Ca30  1  0.86418153  -0.65716416  1.48132816  1.0
