# generated using pymatgen
data_CdH4C4(S2N3)2
_symmetry_space_group_name_H-M   'P 1'
_cell_length_a   8.51012678
_cell_length_b   8.51012678
_cell_length_c   8.08609937
_cell_angle_alpha   85.76847062
_cell_angle_beta   94.23152938
_cell_angle_gamma   100.06913033
_symmetry_Int_Tables_number   1
_chemical_formula_structural   CdH4C4(S2N3)2
_chemical_formula_sum   'Cd2 H8 C8 S8 N12'
_cell_volume   573.91535473
_cell_formula_units_Z   2
loop_
 _symmetry_equiv_pos_site_id
 _symmetry_equiv_pos_as_xyz
  1  'x, y, z'
loop_
 _atom_site_type_symbol
 _atom_site_label
 _atom_site_symmetry_multiplicity
 _atom_site_fract_x
 _atom_site_fract_y
 _atom_site_fract_z
 _atom_site_occupancy
  Cd  Cd0  1  1.41872817  0.41872817  0.25000000  1.0
  Cd  Cd1  1  0.58127183  -0.41872817  0.75000000  1.0
  H  H2  1  1.88139732  0.00193949  0.88272881  1.0
  H  H3  1  0.99806051  -0.88139732  0.38272881  1.0
  H  H4  1  1.00193949  0.88139732  0.61727119  1.0
  H  H5  1  0.11860268  -0.00193949  0.11727119  1.0
  H  H6  1  0.18243831  -0.14273259  0.26700366  1.0
  H  H7  1  1.14273259  0.81756169  0.76700366  1.0
  H  H8  1  0.85726741  -0.81756169  0.23299634  1.0
  H  H9  1  1.81756169  0.14273259  0.73299634  1.0
  C  C10  1  0.76971119  -0.01148309  0.38222412  1.0
  C  C11  1  1.01148309  0.23028881  0.88222412  1.0
  C  C12  1  0.98851691  -0.23028881  0.11777588  1.0
  C  C13  1  1.23028881  0.01148309  0.61777588  1.0
  C  C14  1  0.53847493  -0.22203995  0.41751477  1.0
  C  C15  1  1.22203995  0.46152508  0.91751477  1.0
  C  C16  1  0.77796005  -0.46152508  0.08248523  1.0
  C  C17  1  1.46152508  0.22203995  0.58248523  1.0
  S  S18  1  1.35888352  0.64602506  0.41620331  1.0
  S  S19  1  0.35397494  -0.35888352  0.91620331  1.0
  S  S20  1  1.64602506  0.35888352  0.08379669  1.0
  S  S21  1  0.64111648  -0.64602506  0.58379669  1.0
  S  S22  1  0.58770103  -0.06594286  0.26632884  1.0
  S  S23  1  1.06594286  0.41229897  0.76632884  1.0
  S  S24  1  0.93405714  -0.41229897  0.23367116  1.0
  S  S25  1  1.41229897  0.06594286  0.73367116  1.0
  N  N26  1  1.88100114  0.11271703  0.33605063  1.0
  N  N27  1  0.88728297  -0.88100114  0.83605063  1.0
  N  N28  1  1.11271703  0.88100114  0.16394937  1.0
  N  N29  1  0.11899886  -0.11271703  0.66394937  1.0
  N  N30  1  1.34658695  0.22261343  0.46373894  1.0
  N  N31  1  0.77738657  -0.34658695  0.96373894  1.0
  N  N32  1  1.22261343  0.34658695  0.03626106  1.0
  N  N33  1  0.65341305  -0.22261343  0.53626106  1.0
  N  N34  1  1.21530480  0.10664097  0.48178095  1.0
  N  N35  1  0.89335903  -0.21530480  0.98178095  1.0
  N  N36  1  1.10664097  0.21530480  0.01821905  1.0
  N  N37  1  0.78469520  -0.10664097  0.51821905  1.0
