# generated using pymatgen
data_CaCu
_symmetry_space_group_name_H-M   'P 1'
_cell_length_a   15.35664144
_cell_length_b   4.28908356
_cell_length_c   5.79900030
_cell_angle_alpha   90.00000000
_cell_angle_beta   90.00000000
_cell_angle_gamma   90.00000000
_symmetry_Int_Tables_number   1
_chemical_formula_structural   CaCu
_chemical_formula_sum   'Ca8 Cu8'
_cell_volume   381.95648054
_cell_formula_units_Z   8
loop_
 _symmetry_equiv_pos_site_id
 _symmetry_equiv_pos_as_xyz
  1  'x, y, z'
loop_
 _atom_site_type_symbol
 _atom_site_label
 _atom_site_symmetry_multiplicity
 _atom_site_fract_x
 _atom_site_fract_y
 _atom_site_fract_z
 _atom_site_occupancy
  Ca  Ca0  1  0.46485449  0.75000000  0.74770448  1.0
  Ca  Ca1  1  0.96485449  0.75000000  0.75229552  1.0
  Ca  Ca2  1  0.53514551  0.25000000  0.25229552  1.0
  Ca  Ca3  1  0.03514551  0.25000000  0.24770448  1.0
  Ca  Ca4  1  0.21454165  0.75000000  0.50074962  1.0
  Ca  Ca5  1  0.71454165  0.75000000  0.99925038  1.0
  Ca  Ca6  1  0.78545835  0.25000000  0.49925038  1.0
  Ca  Ca7  1  0.28545835  0.25000000  0.00074962  1.0
  Cu  Cu8  1  0.38994683  0.75000000  0.26904796  1.0
  Cu  Cu9  1  0.88994683  0.75000000  0.23095204  1.0
  Cu  Cu10  1  0.61005317  0.25000000  0.73095204  1.0
  Cu  Cu11  1  0.11005317  0.25000000  0.76904796  1.0
  Cu  Cu12  1  0.14019231  0.75000000  -0.01950374  1.0
  Cu  Cu13  1  0.64019231  0.75000000  0.51950374  1.0
  Cu  Cu14  1  0.85980769  0.25000000  1.01950374  1.0
  Cu  Cu15  1  0.35980769  0.25000000  0.48049626  1.0
