# generated using pymatgen
data_K3(FeSe2)2
_symmetry_space_group_name_H-M   'P 1'
_cell_length_a   7.50588424
_cell_length_b   11.10517329
_cell_length_c   12.31239341
_cell_angle_alpha   90.00000000
_cell_angle_beta   90.00000000
_cell_angle_gamma   90.00000000
_symmetry_Int_Tables_number   1
_chemical_formula_structural   K3(FeSe2)2
_chemical_formula_sum   'K12 Fe8 Se16'
_cell_volume   1026.28902756
_cell_formula_units_Z   4
loop_
 _symmetry_equiv_pos_site_id
 _symmetry_equiv_pos_as_xyz
  1  'x, y, z'
loop_
 _atom_site_type_symbol
 _atom_site_label
 _atom_site_symmetry_multiplicity
 _atom_site_fract_x
 _atom_site_fract_y
 _atom_site_fract_z
 _atom_site_occupancy
  K  K0  1  0.42061232  0.93029980  0.63546962  1.0
  K  K1  1  0.42061232  0.56970020  0.63546962  1.0
  K  K2  1  0.92061232  0.93029980  0.86453038  1.0
  K  K3  1  0.92061232  0.56970020  0.86453038  1.0
  K  K4  1  0.57938768  0.43029980  0.36453038  1.0
  K  K5  1  0.57938768  0.06970020  0.36453038  1.0
  K  K6  1  0.07938768  0.43029980  0.13546962  1.0
  K  K7  1  0.07938768  0.06970020  0.13546962  1.0
  K  K8  1  0.41040449  0.75000000  0.26075751  1.0
  K  K9  1  0.91040449  0.75000000  0.23924249  1.0
  K  K10  1  0.58959551  0.25000000  0.73924249  1.0
  K  K11  1  0.08959551  0.25000000  0.76075751  1.0
  Fe  Fe12  1  0.44513145  0.86725623  0.97127914  1.0
  Fe  Fe13  1  0.44513145  0.63274377  0.97127914  1.0
  Fe  Fe14  1  0.94513145  0.86725623  0.52872086  1.0
  Fe  Fe15  1  0.94513145  0.63274377  0.52872086  1.0
  Fe  Fe16  1  0.55486855  0.36725623  0.02872086  1.0
  Fe  Fe17  1  0.55486855  0.13274377  0.02872086  1.0
  Fe  Fe18  1  0.05486855  0.36725623  0.47127914  1.0
  Fe  Fe19  1  0.05486855  0.13274377  0.47127914  1.0
  Se  Se20  1  0.34751938  0.44496363  0.89175085  1.0
  Se  Se21  1  0.34751938  0.05503637  0.89175085  1.0
  Se  Se22  1  0.84751938  0.44496363  0.60824915  1.0
  Se  Se23  1  0.84751938  0.05503637  0.60824915  1.0
  Se  Se24  1  0.65248062  0.94496363  0.10824915  1.0
  Se  Se25  1  0.65248062  0.55503637  0.10824915  1.0
  Se  Se26  1  0.15248062  0.94496363  0.39175085  1.0
  Se  Se27  1  0.15248062  0.55503637  0.39175085  1.0
  Se  Se28  1  0.19173035  0.75000000  0.03454058  1.0
  Se  Se29  1  0.69173035  0.75000000  0.46545942  1.0
  Se  Se30  1  0.80826965  0.25000000  0.96545942  1.0
  Se  Se31  1  0.30826965  0.25000000  0.53454058  1.0
  Se  Se32  1  0.08056486  0.75000000  0.66821236  1.0
  Se  Se33  1  0.58056486  0.75000000  0.83178764  1.0
  Se  Se34  1  0.91943514  0.25000000  0.33178764  1.0
  Se  Se35  1  0.41943514  0.25000000  0.16821236  1.0
