# generated using pymatgen
data_Na5H7(Se2O9)2
_symmetry_space_group_name_H-M   'P 1'
_cell_length_a   6.08852825
_cell_length_b   10.06389439
_cell_length_c   7.41929276
_cell_angle_alpha   102.88335037
_cell_angle_beta   100.18133107
_cell_angle_gamma   99.27740565
_symmetry_Int_Tables_number   1
_chemical_formula_structural   Na5H7(Se2O9)2
_chemical_formula_sum   'Na5 H7 Se4 O18'
_cell_volume   426.54681123
_cell_formula_units_Z   1
loop_
 _symmetry_equiv_pos_site_id
 _symmetry_equiv_pos_as_xyz
  1  'x, y, z'
loop_
 _atom_site_type_symbol
 _atom_site_label
 _atom_site_symmetry_multiplicity
 _atom_site_fract_x
 _atom_site_fract_y
 _atom_site_fract_z
 _atom_site_occupancy
  Na  Na0  1  -0.85020530  -0.80814420  -0.25914099  1.0
  Na  Na1  1  -0.14979470  -0.19185580  -0.74085901  1.0
  Na  Na2  1  -0.36613021  -0.60312606  -0.82625250  1.0
  Na  Na3  1  -0.63386979  -0.39687394  -0.17374750  1.0
  Na  Na4  1  -0.50000000  0.00000000  -0.00000000  1.0
  H  H5  1  -0.78503433  -0.61638551  -0.55909205  1.0
  H  H6  1  -0.21496567  -0.38361449  -0.44090795  1.0
  H  H7  1  -0.45921570  -0.91183352  -0.32758748  1.0
  H  H8  1  -0.54078430  -0.08816648  -0.67241252  1.0
  H  H9  1  -0.35328216  -0.94888321  -0.60579331  1.0
  H  H10  1  -0.64671784  -0.05111679  -0.39420669  1.0
  H  H11  1  0.00000000  -0.50000000  -0.00000000  1.0
  Se  Se12  1  -0.91436853  -0.82254070  -0.79669704  1.0
  Se  Se13  1  -0.08563147  -0.17745930  -0.20330296  1.0
  Se  Se14  1  -0.74758449  -0.37183729  -0.69230141  1.0
  Se  Se15  1  -0.25241551  -0.62816271  -0.30769859  1.0
  O  O16  1  -0.98757626  -0.55654143  -0.15986869  1.0
  O  O17  1  -0.01242374  -0.44345857  -0.84013131  1.0
  O  O18  1  -0.91246077  -0.97947313  -0.77129982  1.0
  O  O19  1  -0.08753923  -0.02052687  -0.22870018  1.0
  O  O20  1  -0.81283624  -0.71934593  -0.55987872  1.0
  O  O21  1  -0.18716376  -0.28065407  -0.44012128  1.0
  O  O22  1  -0.75124251  -0.20465205  -0.61308625  1.0
  O  O23  1  -0.24875749  -0.79534795  -0.38691375  1.0
  O  O24  1  -0.72719109  -0.45024795  -0.51779708  1.0
  O  O25  1  -0.27280891  -0.54975205  -0.48220292  1.0
  O  O26  1  -0.72358941  -0.77036409  -0.91460966  1.0
  O  O27  1  -0.27641059  -0.22963591  -0.08539034  1.0
  O  O28  1  -0.59661507  -0.96156121  -0.29802112  1.0
  O  O29  1  -0.40338493  -0.03843879  -0.70197888  1.0
  O  O30  1  -0.55331937  -0.39664893  -0.82047854  1.0
  O  O31  1  -0.44668063  -0.60335107  -0.17952146  1.0
  O  O32  1  -0.16911594  -0.79393255  -0.87487522  1.0
  O  O33  1  -0.83088406  -0.20606745  -0.12512478  1.0
