# generated using pymatgen
data_Co5Se4(BrO6)2
_symmetry_space_group_name_H-M   'P 1'
_cell_length_a   6.55737545
_cell_length_b   7.77530299
_cell_length_c   7.93475347
_cell_angle_alpha   66.38481157
_cell_angle_beta   72.60719245
_cell_angle_gamma   81.61155913
_symmetry_Int_Tables_number   1
_chemical_formula_structural   Co5Se4(BrO6)2
_chemical_formula_sum   'Co5 Se4 Br2 O12'
_cell_volume   353.57261552
_cell_formula_units_Z   1
loop_
 _symmetry_equiv_pos_site_id
 _symmetry_equiv_pos_as_xyz
  1  'x, y, z'
loop_
 _atom_site_type_symbol
 _atom_site_label
 _atom_site_symmetry_multiplicity
 _atom_site_fract_x
 _atom_site_fract_y
 _atom_site_fract_z
 _atom_site_occupancy
  Br  Br0  1  -0.19910732  -0.16817589  -0.01110040  1.0
  Br  Br1  1  -0.80089268  -0.83182411  -0.98889960  1.0
  O  O2  1  -0.42159046  -0.19883893  -0.49066292  1.0
  O  O3  1  -0.57840954  -0.80116107  -0.50933708  1.0
  O  O4  1  -0.04500519  -0.30793122  -0.63310598  1.0
  O  O5  1  -0.95499481  -0.69206878  -0.36689402  1.0
  O  O6  1  -0.16577297  -0.44949358  -0.21099044  1.0
  O  O7  1  -0.83422703  -0.55050642  -0.78900956  1.0
  O  O8  1  -0.73765977  -0.42188686  -0.21948422  1.0
  O  O9  1  -0.26234023  -0.57811314  -0.78051578  1.0
  O  O10  1  -0.35463919  -0.60448649  -0.38477739  1.0
  O  O11  1  -0.64536081  -0.39551351  -0.61522261  1.0
  O  O12  1  -0.83707899  -0.08546203  -0.45627343  1.0
  O  O13  1  -0.16292101  -0.91453797  -0.54372657  1.0
  Se  Se14  1  -0.20565687  -0.66283284  -0.22026933  1.0
  Se  Se15  1  -0.79434313  -0.33716716  -0.77973067  1.0
  Se  Se16  1  -0.65446355  -0.19049041  -0.31863321  1.0
  Se  Se17  1  -0.34553645  -0.80950959  -0.68136679  1.0
  Co  Co18  1  -0.11508584  -0.19507286  -0.43757015  1.0
  Co  Co19  1  -0.88491416  -0.80492714  -0.56242985  1.0
  Co  Co20  1  -0.33158441  -0.38264480  -0.64402131  1.0
  Co  Co21  1  -0.66841559  -0.61735520  -0.35597869  1.0
  Co  Co22  1  -0.00000000  -0.50000000  0.00000000  1.0
