# generated using pymatgen
data_BaFeBP2O9
_symmetry_space_group_name_H-M   'P 1'
_cell_length_a   8.14976555
_cell_length_b   8.30849549
_cell_length_c   5.36804825
_cell_angle_alpha   88.47115387
_cell_angle_beta   79.64353813
_cell_angle_gamma   89.08732968
_symmetry_Int_Tables_number   1
_chemical_formula_structural   BaFeBP2O9
_chemical_formula_sum   'Ba2 Fe2 B2 P4 O18'
_cell_volume   357.41092169
_cell_formula_units_Z   2
loop_
 _symmetry_equiv_pos_site_id
 _symmetry_equiv_pos_as_xyz
  1  'x, y, z'
loop_
 _atom_site_type_symbol
 _atom_site_label
 _atom_site_symmetry_multiplicity
 _atom_site_fract_x
 _atom_site_fract_y
 _atom_site_fract_z
 _atom_site_occupancy
  Fe  Fe0  1  -0.21343391  -0.81393338  -0.71463733  1.0
  Fe  Fe1  1  -0.78656609  -0.18606662  -0.28536267  1.0
  B  B2  1  -0.54389410  -0.73625602  -0.87552961  1.0
  B  B3  1  -0.45610590  -0.26374398  -0.12447039  1.0
  Ba  Ba4  1  -0.87591700  -0.68891353  -0.26901463  1.0
  Ba  Ba5  1  -0.12408300  -0.31108647  -0.73098537  1.0
  P  P6  1  -0.70169348  -0.42940681  -0.79526076  1.0
  P  P7  1  -0.29830652  -0.57059319  -0.20473924  1.0
  P  P8  1  -0.81442501  -0.94158215  -0.77803395  1.0
  P  P9  1  -0.18557499  -0.05841785  -0.22196605  1.0
  O  O10  1  -0.19081573  -0.57476852  -0.99502758  1.0
  O  O11  1  -0.80918427  -0.42523148  -0.00497242  1.0
  O  O12  1  -0.65695312  -0.86008617  -0.94745960  1.0
  O  O13  1  -0.34304688  -0.13991383  -0.05254040  1.0
  O  O14  1  -0.85801769  -0.08755961  -0.92195634  1.0
  O  O15  1  -0.14198231  -0.91244039  -0.07804366  1.0
  O  O16  1  -0.53421941  -0.33665925  -0.87345710  1.0
  O  O17  1  -0.46578059  -0.66334075  -0.12654290  1.0
  O  O18  1  -0.95244484  -0.80666388  -0.75119110  1.0
  O  O19  1  -0.04755516  -0.19333612  -0.24880890  1.0
  O  O20  1  -0.65556356  -0.60820878  -0.72446285  1.0
  O  O21  1  -0.34443644  -0.39179122  -0.27553715  1.0
  O  O22  1  -0.80681553  -0.36660694  -0.54588098  1.0
  O  O23  1  -0.19318447  -0.63339306  -0.45411902  1.0
  O  O24  1  -0.78257080  -0.98640288  -0.50789967  1.0
  O  O25  1  -0.21742920  -0.01359712  -0.49210033  1.0
  O  O26  1  -0.43280061  -0.79697397  -0.72582130  1.0
  O  O27  1  -0.56719939  -0.20302603  -0.27417870  1.0
