# generated using pymatgen
data_Cu(CO2)2
_symmetry_space_group_name_H-M   'P 1'
_cell_length_a   5.15353982
_cell_length_b   5.92587319
_cell_length_c   6.46434488
_cell_angle_alpha   90.00000000
_cell_angle_beta   114.70815539
_cell_angle_gamma   90.00000000
_symmetry_Int_Tables_number   1
_chemical_formula_structural   Cu(CO2)2
_chemical_formula_sum   'Cu2 C4 O8'
_cell_volume   179.34237280
_cell_formula_units_Z   2
loop_
 _symmetry_equiv_pos_site_id
 _symmetry_equiv_pos_as_xyz
  1  'x, y, z'
loop_
 _atom_site_type_symbol
 _atom_site_label
 _atom_site_symmetry_multiplicity
 _atom_site_fract_x
 _atom_site_fract_y
 _atom_site_fract_z
 _atom_site_occupancy
  Cu  Cu0  1  0.00000000  0.00000000  0.00000000  1.0
  Cu  Cu1  1  -0.00000000  0.50000000  0.50000000  1.0
  C  C2  1  0.54760504  0.40876390  0.59220341  1.0
  C  C3  1  0.54760504  0.09123610  0.09220341  1.0
  C  C4  1  0.45239496  0.90876390  0.90779659  1.0
  C  C5  1  0.45239496  0.59123610  0.40779659  1.0
  O  O6  1  0.80327175  0.15882668  0.16493278  1.0
  O  O7  1  0.80327175  0.34117332  0.66493278  1.0
  O  O8  1  0.19672825  0.65882668  0.33506722  1.0
  O  O9  1  0.19672825  0.84117332  0.83506722  1.0
  O  O10  1  0.36380872  0.33840589  0.65873750  1.0
  O  O11  1  0.36380872  0.16159411  0.15873750  1.0
  O  O12  1  0.63619128  0.83840589  0.84126250  1.0
  O  O13  1  0.63619128  0.66159411  0.34126250  1.0
