# generated using pymatgen
data_Pb2Se(NO4)2
_symmetry_space_group_name_H-M   'P 1'
_cell_length_a   5.60789231
_cell_length_b   10.75633715
_cell_length_c   6.90921631
_cell_angle_alpha   90.00000000
_cell_angle_beta   90.00000000
_cell_angle_gamma   90.00000000
_symmetry_Int_Tables_number   1
_chemical_formula_structural   Pb2Se(NO4)2
_chemical_formula_sum   'Pb4 Se2 N4 O16'
_cell_volume   416.76655632
_cell_formula_units_Z   2
loop_
 _symmetry_equiv_pos_site_id
 _symmetry_equiv_pos_as_xyz
  1  'x, y, z'
loop_
 _atom_site_type_symbol
 _atom_site_label
 _atom_site_symmetry_multiplicity
 _atom_site_fract_x
 _atom_site_fract_y
 _atom_site_fract_z
 _atom_site_occupancy
  Pb  Pb0  1  0.50000000  0.98784229  0.50001688  1.0
  Pb  Pb1  1  0.00000000  0.01215771  0.00001688  1.0
  Pb  Pb2  1  0.50000000  0.32971988  0.76709322  1.0
  Pb  Pb3  1  0.00000000  0.67028012  0.26709322  1.0
  Se  Se4  1  0.50000000  0.81700203  0.96675710  1.0
  Se  Se5  1  0.00000000  0.18299797  0.46675710  1.0
  N  N6  1  0.50000000  0.52421924  0.40850552  1.0
  N  N7  1  0.00000000  0.47578076  0.90850552  1.0
  N  N8  1  0.50000000  0.17625349  0.16362348  1.0
  N  N9  1  0.00000000  0.82374651  0.66362348  1.0
  O  O10  1  0.68974786  0.21385325  0.08503269  1.0
  O  O11  1  0.18974786  0.78614675  0.58503269  1.0
  O  O12  1  0.31025214  0.21385325  0.08503269  1.0
  O  O13  1  0.81025214  0.78614675  0.58503269  1.0
  O  O14  1  0.69571781  0.47624809  0.46085056  1.0
  O  O15  1  0.19571781  0.52375191  0.96085056  1.0
  O  O16  1  0.30428219  0.47624809  0.46085056  1.0
  O  O17  1  0.80428219  0.52375191  0.96085056  1.0
  O  O18  1  0.74176477  0.84182580  0.12026482  1.0
  O  O19  1  0.24176477  0.15817420  0.62026482  1.0
  O  O20  1  0.25823523  0.84182580  0.12026482  1.0
  O  O21  1  0.75823523  0.15817420  0.62026482  1.0
  O  O22  1  0.50000000  0.95928780  0.85217404  1.0
  O  O23  1  0.00000000  0.04071220  0.35217404  1.0
  O  O24  1  0.50000000  0.62115522  0.30563362  1.0
  O  O25  1  0.00000000  0.37884478  0.80563362  1.0
