# generated using pymatgen
data_TlZnAsO4
_symmetry_space_group_name_H-M   'P 1'
_cell_length_a   9.13265140
_cell_length_b   5.73937754
_cell_length_c   9.16676830
_cell_angle_alpha   90.00000000
_cell_angle_beta   91.07370558
_cell_angle_gamma   90.00000000
_symmetry_Int_Tables_number   1
_chemical_formula_structural   TlZnAsO4
_chemical_formula_sum   'Tl4 Zn4 As4 O16'
_cell_volume   480.39852733
_cell_formula_units_Z   4
loop_
 _symmetry_equiv_pos_site_id
 _symmetry_equiv_pos_as_xyz
  1  'x, y, z'
loop_
 _atom_site_type_symbol
 _atom_site_label
 _atom_site_symmetry_multiplicity
 _atom_site_fract_x
 _atom_site_fract_y
 _atom_site_fract_z
 _atom_site_occupancy
  Tl  Tl0  1  1.00269984  0.01290324  0.81637541  1.0
  Tl  Tl1  1  -0.00269984  0.51290324  0.18362459  1.0
  Tl  Tl2  1  0.49785869  -0.02233483  0.68072522  1.0
  Tl  Tl3  1  0.50214131  0.47766517  0.31927478  1.0
  Zn  Zn4  1  0.82281828  -0.00655923  0.40232730  1.0
  Zn  Zn5  1  0.17718172  0.49344077  0.59767270  1.0
  Zn  Zn6  1  0.67276632  0.52647448  0.92467398  1.0
  Zn  Zn7  1  0.32723368  1.02647448  0.07532602  1.0
  As  As8  1  0.81186907  0.49516312  0.59876876  1.0
  As  As9  1  0.18813093  -0.00483688  0.40123124  1.0
  As  As10  1  0.30953496  0.52497931  0.93381019  1.0
  As  As11  1  0.69046504  1.02497931  0.06618981  1.0
  O  O12  1  0.98231256  0.53320033  0.68381977  1.0
  O  O13  1  0.01768744  1.03320033  0.31618023  1.0
  O  O14  1  0.79541060  0.65228335  0.43642795  1.0
  O  O15  1  0.20458940  0.15228335  0.56357205  1.0
  O  O16  1  0.78823233  0.24800051  0.98247126  1.0
  O  O17  1  0.21176767  0.74800051  0.01752874  1.0
  O  O18  1  0.77750184  0.19962849  0.56794023  1.0
  O  O19  1  0.22249816  0.69962849  0.43205977  1.0
  O  O20  1  0.67774857  0.59741048  0.71566399  1.0
  O  O21  1  0.32225143  0.09741048  0.28433601  1.0
  O  O22  1  0.67308515  0.08189366  0.25139071  1.0
  O  O23  1  0.32691485  0.58189366  0.74860929  1.0
  O  O24  1  0.51935964  0.00060429  0.97983670  1.0
  O  O25  1  0.48064036  0.50060429  0.02016330  1.0
  O  O26  1  0.21336448  0.26835281  0.96442974  1.0
  O  O27  1  0.78663552  0.76835281  0.03557026  1.0
