# generated using pymatgen
data_K2CdH4(SeO5)2
_symmetry_space_group_name_H-M   'P 1'
_cell_length_a   6.66262427
_cell_length_b   11.67151405
_cell_length_c   7.77399397
_cell_angle_alpha   71.90417317
_cell_angle_beta   68.55855405
_cell_angle_gamma   74.80585943
_symmetry_Int_Tables_number   1
_chemical_formula_structural   K2CdH4(SeO5)2
_chemical_formula_sum   'K4 Cd2 H8 Se4 O20'
_cell_volume   527.26580087
_cell_formula_units_Z   2
loop_
 _symmetry_equiv_pos_site_id
 _symmetry_equiv_pos_as_xyz
  1  'x, y, z'
loop_
 _atom_site_type_symbol
 _atom_site_label
 _atom_site_symmetry_multiplicity
 _atom_site_fract_x
 _atom_site_fract_y
 _atom_site_fract_z
 _atom_site_occupancy
  K  K0  1  -0.81249455  -0.90107930  -0.74950178  1.0
  K  K1  1  -0.18750545  -0.09892070  -0.25049822  1.0
  K  K2  1  -0.72603914  -0.57775566  -0.25989985  1.0
  K  K3  1  -0.27396086  -0.42224434  -0.74010015  1.0
  Cd  Cd4  1  -0.74874863  -0.24675197  -0.97554545  1.0
  Cd  Cd5  1  -0.25125137  -0.75324803  -0.02445455  1.0
  H  H6  1  -0.82361490  -0.29433917  -0.58239397  1.0
  H  H7  1  -0.17638510  -0.70566083  -0.41760603  1.0
  H  H8  1  -0.64008693  -0.20704913  -0.67391444  1.0
  H  H9  1  -0.35991307  -0.79295087  -0.32608556  1.0
  H  H10  1  -0.35924377  -0.69464971  -0.69140944  1.0
  H  H11  1  -0.64075623  -0.30535029  -0.30859056  1.0
  H  H12  1  -0.32760301  -0.83589590  -0.62096717  1.0
  H  H13  1  -0.67239699  -0.16410410  -0.37903283  1.0
  Se  Se14  1  -0.73261331  -0.92400578  -0.22978741  1.0
  Se  Se15  1  -0.26738669  -0.07599422  -0.77021259  1.0
  Se  Se16  1  -0.74658483  -0.58247123  -0.76331698  1.0
  Se  Se17  1  -0.25341517  -0.41752877  -0.23668302  1.0
  O  O18  1  -0.97733613  -0.62181618  -0.60380707  1.0
  O  O19  1  -0.02266387  -0.37818382  -0.39619293  1.0
  O  O20  1  -0.87212163  -0.80776947  -0.12414522  1.0
  O  O21  1  -0.12787837  -0.19223053  -0.87585478  1.0
  O  O22  1  -0.86405709  -0.94939322  -0.35413456  1.0
  O  O23  1  -0.13594291  -0.05060678  -0.64586544  1.0
  O  O24  1  -0.81048075  -0.44718530  -0.90734720  1.0
  O  O25  1  -0.18951925  -0.55281470  -0.09265280  1.0
  O  O26  1  -0.69211863  -0.27444098  -0.69089608  1.0
  O  O27  1  -0.30788137  -0.72555902  -0.30910392  1.0
  O  O28  1  -0.63295714  -0.68525621  -0.89890802  1.0
  O  O29  1  -0.36704286  -0.31474379  -0.10109198  1.0
  O  O30  1  -0.57100910  -0.57671878  -0.65914047  1.0
  O  O31  1  -0.42899090  -0.42328122  -0.34085953  1.0
  O  O32  1  -0.48603041  -0.88849562  -0.36595253  1.0
  O  O33  1  -0.51396959  -0.11150438  -0.63404747  1.0
  O  O34  1  -0.31111542  -0.95316323  -0.94396793  1.0
  O  O35  1  -0.68888458  -0.04683677  -0.05603207  1.0
  O  O36  1  -0.25186941  -0.77020605  -0.71792348  1.0
  O  O37  1  -0.74813059  -0.22979395  -0.28207652  1.0
