# generated using pymatgen
data_SnH12C2(NCl)6
_symmetry_space_group_name_H-M   'P 1'
_cell_length_a   8.73713635
_cell_length_b   8.73713635
_cell_length_c   14.84121215
_cell_angle_alpha   66.42931263
_cell_angle_beta   113.57068737
_cell_angle_gamma   120.17014013
_symmetry_Int_Tables_number   1
_chemical_formula_structural   SnH12C2(NCl)6
_chemical_formula_sum   'Sn2 H24 C4 N12 Cl12'
_cell_volume   869.00515176
_cell_formula_units_Z   2
loop_
 _symmetry_equiv_pos_site_id
 _symmetry_equiv_pos_as_xyz
  1  'x, y, z'
loop_
 _atom_site_type_symbol
 _atom_site_label
 _atom_site_symmetry_multiplicity
 _atom_site_fract_x
 _atom_site_fract_y
 _atom_site_fract_z
 _atom_site_occupancy
  Sn  Sn0  1  1.34405146  0.34405146  0.25000000  1.0
  Sn  Sn1  1  0.65594854  0.65594854  0.75000000  1.0
  H  H2  1  0.73308282  -0.51523648  0.12842515  1.0
  H  H3  1  1.48476352  -0.26691718  0.37157485  1.0
  H  H4  1  1.26691718  -0.48476352  0.87157485  1.0
  H  H5  1  1.51523648  0.26691718  0.62842515  1.0
  H  H6  1  0.93247639  -0.51532910  0.12900861  1.0
  H  H7  1  1.48467090  -0.06752361  0.37099139  1.0
  H  H8  1  1.06752361  -0.48467090  0.87099139  1.0
  H  H9  1  1.51532910  0.06752361  0.62900861  1.0
  H  H10  1  1.20626171  -0.24752978  0.13542334  1.0
  H  H11  1  1.75247022  0.20626171  0.36457666  1.0
  H  H12  1  0.79373829  -0.75247022  0.86457666  1.0
  H  H13  1  1.24752978  -0.20626171  0.63542334  1.0
  H  H14  1  1.20776654  -0.04924473  0.13767103  1.0
  H  H15  1  0.95075527  -0.79223346  0.36232897  1.0
  H  H16  1  1.79223346  0.04924473  0.86232897  1.0
  H  H17  1  1.04924473  -0.20776654  0.63767103  1.0
  H  H18  1  0.93649219  -0.04897999  0.13632646  1.0
  H  H19  1  0.95102001  -0.06350781  0.36367354  1.0
  H  H20  1  1.06350781  -0.95102001  0.86367354  1.0
  H  H21  1  0.04897999  0.06350781  0.63632646  1.0
  H  H22  1  0.73568714  -0.24721443  0.13330829  1.0
  H  H23  1  0.75278557  -0.26431286  0.36669171  1.0
  H  H24  1  0.26431286  0.24721443  0.86669171  1.0
  H  H25  1  1.24721443  -0.73568714  0.63330829  1.0
  C  C26  1  0.95806166  -0.27004462  0.13202057  1.0
  C  C27  1  1.72995538  -0.04193834  0.36797943  1.0
  C  C28  1  1.04193834  -0.72995538  0.86797943  1.0
  C  C29  1  1.27004462  0.04193834  0.63202057  1.0
  N  N30  1  0.86886282  -0.44622282  0.13082690  1.0
  N  N31  1  1.55377718  -0.13113718  0.36917310  1.0
  N  N32  1  1.13113718  -0.55377718  0.86917310  1.0
  N  N33  1  1.44622282  0.13113718  0.63082690  1.0
  N  N34  1  1.13541816  -0.18156254  0.13273700  1.0
  N  N35  1  1.81843746  0.13541816  0.36726300  1.0
  N  N36  1  0.86458184  -0.81843746  0.86726300  1.0
  N  N37  1  1.18156254  -0.13541816  0.63273700  1.0
  N  N38  1  0.86974502  -0.18147280  0.13173887  1.0
  N  N39  1  0.81852720  -0.13025498  0.36826113  1.0
  N  N40  1  1.13025498  -0.81852720  0.86826113  1.0
  N  N41  1  0.18147280  0.13025498  0.63173887  1.0
  Cl  Cl42  1  1.02617043  0.25756707  0.14154880  1.0
  Cl  Cl43  1  1.25756707  0.02617043  0.35845120  1.0
  Cl  Cl44  1  0.97382957  0.74243293  0.85845120  1.0
  Cl  Cl45  1  1.74243293  -0.02617043  0.64154880  1.0
  Cl  Cl46  1  1.42871227  0.25857185  0.14171615  1.0
  Cl  Cl47  1  1.25857185  -0.57128773  0.35828385  1.0
  Cl  Cl48  1  1.57128773  -0.25857185  0.85828385  1.0
  Cl  Cl49  1  0.74142815  -0.42871227  0.64171615  1.0
  Cl  Cl50  1  0.42874007  -0.33936397  0.14045071  1.0
  Cl  Cl51  1  0.66063603  -0.57125993  0.35954929  1.0
  Cl  Cl52  1  0.57125993  0.33936397  0.85954929  1.0
  Cl  Cl53  1  1.33936397  -0.42874007  0.64045071  1.0
