# generated using pymatgen
data_Hf5Ir3
_symmetry_space_group_name_H-M   'P 1'
_cell_length_a   7.91431077
_cell_length_b   7.91431077
_cell_length_c   17.01033144
_cell_angle_alpha   90.00000000
_cell_angle_beta   90.00000000
_cell_angle_gamma   120.00000000
_symmetry_Int_Tables_number   1
_chemical_formula_structural   Hf5Ir3
_chemical_formula_sum   'Hf30 Ir18'
_cell_volume   922.71930491
_cell_formula_units_Z   6
loop_
 _symmetry_equiv_pos_site_id
 _symmetry_equiv_pos_as_xyz
  1  'x, y, z'
loop_
 _atom_site_type_symbol
 _atom_site_label
 _atom_site_symmetry_multiplicity
 _atom_site_fract_x
 _atom_site_fract_y
 _atom_site_fract_z
 _atom_site_occupancy
  Hf  Hf0  1  0.77353217  0.76301190  0.00765877  1.0
  Hf  Hf1  1  0.77353217  0.01052027  0.15900789  1.0
  Hf  Hf2  1  0.76301190  0.77353217  0.32567456  1.0
  Hf  Hf3  1  0.76301190  0.98947973  0.84099211  1.0
  Hf  Hf4  1  0.98947973  0.76301190  0.49234123  1.0
  Hf  Hf5  1  0.98947973  0.22646783  0.67432544  1.0
  Hf  Hf6  1  0.23698810  0.22646783  0.82567456  1.0
  Hf  Hf7  1  0.23698810  0.01052027  0.34099211  1.0
  Hf  Hf8  1  0.22646783  0.98947973  0.65900789  1.0
  Hf  Hf9  1  0.22646783  0.23698810  0.50765877  1.0
  Hf  Hf10  1  0.01052027  0.77353217  0.17432544  1.0
  Hf  Hf11  1  0.01052027  0.23698810  0.99234123  1.0
  Hf  Hf12  1  0.37981234  0.62018766  0.91666667  1.0
  Hf  Hf13  1  0.37981234  0.75962469  0.25000000  1.0
  Hf  Hf14  1  0.62018766  0.37981234  0.41666667  1.0
  Hf  Hf15  1  0.62018766  0.24037531  0.75000000  1.0
  Hf  Hf16  1  0.24037531  0.62018766  0.58333333  1.0
  Hf  Hf17  1  0.75962469  0.37981234  0.08333333  1.0
  Hf  Hf18  1  0.65596118  0.34403882  0.91666667  1.0
  Hf  Hf19  1  0.65596118  0.31192236  0.25000000  1.0
  Hf  Hf20  1  0.34403882  0.65596118  0.41666667  1.0
  Hf  Hf21  1  0.34403882  0.68807764  0.75000000  1.0
  Hf  Hf22  1  0.68807764  0.34403882  0.58333333  1.0
  Hf  Hf23  1  0.31192236  0.65596118  0.08333333  1.0
  Hf  Hf24  1  0.75141937  0.75141937  0.66666667  1.0
  Hf  Hf25  1  0.75141937  0.00000000  0.50000000  1.0
  Hf  Hf26  1  -0.00000000  0.75141937  0.83333333  1.0
  Hf  Hf27  1  -0.00000000  0.24858063  0.33333333  1.0
  Hf  Hf28  1  0.24858063  0.24858063  0.16666667  1.0
  Hf  Hf29  1  0.24858063  0.00000000  0.00000000  1.0
  Ir  Ir30  1  0.60808894  0.58091576  0.80916043  1.0
  Ir  Ir31  1  0.60808894  0.02717318  0.35750624  1.0
  Ir  Ir32  1  0.58091576  0.60808894  0.52417291  1.0
  Ir  Ir33  1  0.58091576  0.97282682  0.64249376  1.0
  Ir  Ir34  1  0.97282682  0.58091576  0.69083957  1.0
  Ir  Ir35  1  0.97282682  0.39191106  0.47582709  1.0
  Ir  Ir36  1  0.41908424  0.39191106  0.02417291  1.0
  Ir  Ir37  1  0.41908424  0.02717318  0.14249376  1.0
  Ir  Ir38  1  0.39191106  0.97282682  0.85750624  1.0
  Ir  Ir39  1  0.39191106  0.41908424  0.30916043  1.0
  Ir  Ir40  1  0.02717318  0.60808894  0.97582709  1.0
  Ir  Ir41  1  0.02717318  0.41908424  0.19083957  1.0
  Ir  Ir42  1  0.37930533  0.37930533  0.66666667  1.0
  Ir  Ir43  1  0.37930533  0.00000000  0.50000000  1.0
  Ir  Ir44  1  -0.00000000  0.37930533  0.83333333  1.0
  Ir  Ir45  1  -0.00000000  0.62069467  0.33333333  1.0
  Ir  Ir46  1  0.62069467  0.62069467  0.16666667  1.0
  Ir  Ir47  1  0.62069467  0.00000000  0.00000000  1.0
