# generated using pymatgen
data_KSi2P3
_symmetry_space_group_name_H-M   'P 1'
_cell_length_a   7.22197281
_cell_length_b   7.22197281
_cell_length_c   21.37788286
_cell_angle_alpha   85.15773447
_cell_angle_beta   94.84226553
_cell_angle_gamma   89.99772554
_symmetry_Int_Tables_number   1
_chemical_formula_structural   KSi2P3
_chemical_formula_sum   'K8 Si16 P24'
_cell_volume   1107.03008030
_cell_formula_units_Z   8
loop_
 _symmetry_equiv_pos_site_id
 _symmetry_equiv_pos_as_xyz
  1  'x, y, z'
loop_
 _atom_site_type_symbol
 _atom_site_label
 _atom_site_symmetry_multiplicity
 _atom_site_fract_x
 _atom_site_fract_y
 _atom_site_fract_z
 _atom_site_occupancy
  K  K0  1  0.23333548  -0.10779082  0.43342295  1.0
  K  K1  1  1.10779082  0.76666452  0.93342295  1.0
  K  K2  1  0.89220918  -0.76666452  0.06657705  1.0
  K  K3  1  1.76666452  0.10779082  0.56657705  1.0
  K  K4  1  1.23337084  0.39104617  0.43355370  1.0
  K  K5  1  0.60895383  -0.23337084  0.93355370  1.0
  K  K6  1  1.39104617  0.23337084  0.06644630  1.0
  K  K7  1  0.76662916  -0.39104617  0.56644630  1.0
  Si  Si8  1  0.65670339  -0.28179088  0.12712818  1.0
  Si  Si9  1  1.28179088  0.34329661  0.62712818  1.0
  Si  Si10  1  0.71820912  -0.34329661  0.37287182  1.0
  Si  Si11  1  1.34329661  0.28179088  0.87287182  1.0
  Si  Si12  1  1.71810647  0.15691130  0.37243795  1.0
  Si  Si13  1  0.84308870  -0.71810647  0.87243795  1.0
  Si  Si14  1  1.15691130  0.71810647  0.12756205  1.0
  Si  Si15  1  0.28189353  -0.15691130  0.62756205  1.0
  Si  Si16  1  0.43925638  -0.06431145  0.25002892  1.0
  Si  Si17  1  1.06431145  0.56074362  0.75002892  1.0
  Si  Si18  1  0.93568855  -0.56074362  0.24997108  1.0
  Si  Si19  1  1.56074362  0.06431145  0.74997108  1.0
  Si  Si20  1  0.93568252  -0.06431748  0.25000000  1.0
  Si  Si21  1  1.06431748  0.06431748  0.75000000  1.0
  Si  Si22  1  1.43921285  0.43921285  0.25000000  1.0
  Si  Si23  1  0.56078715  -0.43921285  0.75000000  1.0
  P  P24  1  0.73384513  -0.10836081  0.43529540  1.0
  P  P25  1  1.10836081  0.26615487  0.93529540  1.0
  P  P26  1  0.89163919  -0.26615487  0.06470460  1.0
  P  P27  1  1.26615487  0.10836081  0.56470460  1.0
  P  P28  1  0.43760924  -0.32911857  0.31619080  1.0
  P  P29  1  1.32911857  0.56239076  0.81619080  1.0
  P  P30  1  0.67088143  -0.56239076  0.18380920  1.0
  P  P31  1  1.56239076  0.32911857  0.68380920  1.0
  P  P32  1  0.67088789  -0.02956086  0.18382764  1.0
  P  P33  1  1.02956086  0.32911211  0.68382764  1.0
  P  P34  1  0.97043914  -0.32911211  0.31617236  1.0
  P  P35  1  1.32911211  0.02956086  0.81617236  1.0
  P  P36  1  0.39065554  -0.26614991  0.06463205  1.0
  P  P37  1  1.26614991  0.60934446  0.56463205  1.0
  P  P38  1  0.73385009  -0.60934446  0.43536795  1.0
  P  P39  1  1.60934446  0.26614991  0.93536795  1.0
  P  P40  1  1.43782083  0.17119465  0.31522042  1.0
  P  P41  1  0.82880535  -0.43782083  0.81522042  1.0
  P  P42  1  1.17119465  0.43782083  0.18477958  1.0
  P  P43  1  0.56217917  -0.17119465  0.68477958  1.0
  P  P44  1  0.17121472  -0.03029265  0.18481773  1.0
  P  P45  1  1.03029265  0.82878528  0.68481773  1.0
  P  P46  1  0.96970735  -0.82878528  0.31518227  1.0
  P  P47  1  1.82878528  0.03029265  0.81518227  1.0
