# generated using pymatgen
data_Ce2NiB10
_symmetry_space_group_name_H-M   'P 1'
_cell_length_a   5.59836979
_cell_length_b   11.16432946
_cell_length_c   4.16261659
_cell_angle_alpha   90.00000000
_cell_angle_beta   90.00000000
_cell_angle_gamma   90.00000000
_symmetry_Int_Tables_number   1
_chemical_formula_structural   Ce2NiB10
_chemical_formula_sum   'Ce4 Ni2 B20'
_cell_volume   260.17204839
_cell_formula_units_Z   2
loop_
 _symmetry_equiv_pos_site_id
 _symmetry_equiv_pos_as_xyz
  1  'x, y, z'
loop_
 _atom_site_type_symbol
 _atom_site_label
 _atom_site_symmetry_multiplicity
 _atom_site_fract_x
 _atom_site_fract_y
 _atom_site_fract_z
 _atom_site_occupancy
  Ce  Ce0  1  0.31223227  0.86206746  0.50000000  1.0
  Ce  Ce1  1  0.81223227  0.63793254  0.50000000  1.0
  Ce  Ce2  1  0.68776773  0.13793254  0.50000000  1.0
  Ce  Ce3  1  0.18776773  0.36206746  0.50000000  1.0
  Ni  Ni4  1  0.50000000  0.50000000  0.00000000  1.0
  Ni  Ni5  1  0.00000000  0.00000000  0.00000000  1.0
  B  B6  1  0.29929736  0.61405744  0.69894228  1.0
  B  B7  1  0.29929736  0.61405744  0.30105772  1.0
  B  B8  1  0.79929736  0.88594256  0.69894228  1.0
  B  B9  1  0.79929736  0.88594256  0.30105772  1.0
  B  B10  1  0.70070264  0.38594256  0.69894228  1.0
  B  B11  1  0.70070264  0.38594256  0.30105772  1.0
  B  B12  1  0.20070264  0.11405744  0.69894228  1.0
  B  B13  1  0.20070264  0.11405744  0.30105772  1.0
  B  B14  1  0.46769941  0.68764264  0.00000000  1.0
  B  B15  1  0.96769941  0.81235736  0.00000000  1.0
  B  B16  1  0.53230059  0.31235736  0.00000000  1.0
  B  B17  1  0.03230059  0.18764264  0.00000000  1.0
  B  B18  1  0.15594497  0.69765267  0.00000000  1.0
  B  B19  1  0.65594497  0.80234733  0.00000000  1.0
  B  B20  1  0.84405503  0.30234733  0.00000000  1.0
  B  B21  1  0.34405503  0.19765267  0.00000000  1.0
  B  B22  1  0.12530945  0.54083878  0.00000000  1.0
  B  B23  1  0.62530945  0.95916122  0.00000000  1.0
  B  B24  1  0.87469055  0.45916122  0.00000000  1.0
  B  B25  1  0.37469055  0.04083878  0.00000000  1.0
