# generated using pymatgen
data_K3TlAu5
_symmetry_space_group_name_H-M   'P 1'
_cell_length_a   11.32326172
_cell_length_b   11.32326172
_cell_length_c   11.32326172
_cell_angle_alpha   54.03296390
_cell_angle_beta   150.84607602
_cell_angle_gamma   135.56176228
_symmetry_Int_Tables_number   1
_chemical_formula_structural   K3TlAu5
_chemical_formula_sum   'K6 Tl2 Au10'
_cell_volume   492.38489294
_cell_formula_units_Z   2
loop_
 _symmetry_equiv_pos_site_id
 _symmetry_equiv_pos_as_xyz
  1  'x, y, z'
loop_
 _atom_site_type_symbol
 _atom_site_label
 _atom_site_symmetry_multiplicity
 _atom_site_fract_x
 _atom_site_fract_y
 _atom_site_fract_z
 _atom_site_occupancy
  K  K0  1  0.38104269  0.79407250  0.91302981  1.0
  K  K1  1  1.61895731  1.20592750  1.08697019  1.0
  K  K2  1  1.61895731  1.53198711  1.41302981  1.0
  K  K3  1  0.38104269  0.46801289  0.58697019  1.0
  K  K4  1  0.61932847  0.86932847  0.75000000  1.0
  K  K5  1  1.38067153  1.13067153  1.25000000  1.0
  Tl  Tl6  1  1.16289816  1.41289816  0.75000000  1.0
  Tl  Tl7  1  0.83710184  0.58710184  1.25000000  1.0
  Au  Au8  1  0.95567209  1.31238873  0.85671664  1.0
  Au  Au9  1  1.04432791  0.68761127  1.14328336  1.0
  Au  Au10  1  1.04432791  0.90104454  1.35671664  1.0
  Au  Au11  1  0.95567209  1.09895546  0.64328336  1.0
  Au  Au12  1  0.50000000  1.19011779  0.69011779  1.0
  Au  Au13  1  1.00000000  0.80988221  0.80988221  1.0
  Au  Au14  1  1.00000000  1.19011779  1.19011779  1.0
  Au  Au15  1  0.50000000  0.80988221  0.30988221  1.0
  Au  Au16  1  1.00000000  0.50000000  1.00000000  1.0
  Au  Au17  1  1.00000000  1.00000000  0.50000000  1.0
