# generated using pymatgen
data_VP2H8(NO4)2
_symmetry_space_group_name_H-M   'P 1'
_cell_length_a   8.44343336
_cell_length_b   8.44343336
_cell_length_c   5.84913401
_cell_angle_alpha   90.00000000
_cell_angle_beta   90.00000000
_cell_angle_gamma   90.00000000
_symmetry_Int_Tables_number   1
_chemical_formula_structural   VP2H8(NO4)2
_chemical_formula_sum   'V2 P4 H16 N4 O16'
_cell_volume   416.99392883
_cell_formula_units_Z   2
loop_
 _symmetry_equiv_pos_site_id
 _symmetry_equiv_pos_as_xyz
  1  'x, y, z'
loop_
 _atom_site_type_symbol
 _atom_site_label
 _atom_site_symmetry_multiplicity
 _atom_site_fract_x
 _atom_site_fract_y
 _atom_site_fract_z
 _atom_site_occupancy
  V  V0  1  0.50000000  0.50000000  0.27575348  1.0
  V  V1  1  0.00000000  0.00000000  0.27575348  1.0
  P  P2  1  0.37040932  0.12959068  0.26110610  1.0
  P  P3  1  0.87040932  0.37040932  0.26110610  1.0
  P  P4  1  0.62959068  0.87040932  0.26110610  1.0
  P  P5  1  0.12959068  0.62959068  0.26110610  1.0
  H  H6  1  0.44868905  0.81089230  0.82676604  1.0
  H  H7  1  0.94868905  0.68910770  0.82676604  1.0
  H  H8  1  0.18910770  0.44868905  0.82676604  1.0
  H  H9  1  0.68910770  0.05131095  0.82676604  1.0
  H  H10  1  0.55131095  0.18910770  0.82676604  1.0
  H  H11  1  0.05131095  0.31089230  0.82676604  1.0
  H  H12  1  0.81089230  0.55131095  0.82676604  1.0
  H  H13  1  0.31089230  0.94868905  0.82676604  1.0
  H  H14  1  0.81974281  0.68025719  0.60322757  1.0
  H  H15  1  0.31974281  0.81974281  0.60322757  1.0
  H  H16  1  0.18025719  0.31974281  0.60322757  1.0
  H  H17  1  0.68025719  0.18025719  0.60322757  1.0
  H  H18  1  0.75578451  0.74421549  0.86263083  1.0
  H  H19  1  0.25578451  0.75578451  0.86263083  1.0
  H  H20  1  0.24421549  0.25578451  0.86263083  1.0
  H  H21  1  0.74421549  0.24421549  0.86263083  1.0
  N  N22  1  0.83313375  0.66686625  0.77635464  1.0
  N  N23  1  0.33313375  0.83313375  0.77635464  1.0
  N  N24  1  0.16686625  0.33313375  0.77635464  1.0
  N  N25  1  0.66686625  0.16686625  0.77635464  1.0
  O  O26  1  0.28623453  0.57600214  0.37220174  1.0
  O  O27  1  0.78623453  0.92399786  0.37220174  1.0
  O  O28  1  0.42399786  0.28623453  0.37220174  1.0
  O  O29  1  0.92399786  0.21376547  0.37220174  1.0
  O  O30  1  0.71376547  0.42399786  0.37220174  1.0
  O  O31  1  0.21376547  0.07600214  0.37220174  1.0
  O  O32  1  0.57600214  0.71376547  0.37220174  1.0
  O  O33  1  0.07600214  0.78623453  0.37220174  1.0
  O  O34  1  0.36875809  0.13124191  0.00042717  1.0
  O  O35  1  0.86875809  0.36875809  0.00042717  1.0
  O  O36  1  0.63124191  0.86875809  0.00042717  1.0
  O  O37  1  0.13124191  0.63124191  0.00042717  1.0
  O  O38  1  0.00000000  0.50000000  0.35235340  1.0
  O  O39  1  0.50000000  0.00000000  0.35235340  1.0
  O  O40  1  0.50000000  0.50000000  0.00352938  1.0
  O  O41  1  0.00000000  0.00000000  0.00352938  1.0
