# generated using pymatgen
data_La4CdPd
_symmetry_space_group_name_H-M   'P 1'
_cell_length_a   10.21768024
_cell_length_b   10.21768024
_cell_length_c   10.21768024
_cell_angle_alpha   60.00000000
_cell_angle_beta   60.00000000
_cell_angle_gamma   60.00000000
_symmetry_Int_Tables_number   1
_chemical_formula_structural   La4CdPd
_chemical_formula_sum   'La16 Cd4 Pd4'
_cell_volume   754.29620788
_cell_formula_units_Z   4
loop_
 _symmetry_equiv_pos_site_id
 _symmetry_equiv_pos_as_xyz
  1  'x, y, z'
loop_
 _atom_site_type_symbol
 _atom_site_label
 _atom_site_symmetry_multiplicity
 _atom_site_fract_x
 _atom_site_fract_y
 _atom_site_fract_z
 _atom_site_occupancy
  La  La0  1  -0.35081956  0.64918044  0.64918044  1.0
  La  La1  1  1.05245869  0.64918044  -0.35081956  1.0
  La  La2  1  -0.35081956  0.64918044  1.05245869  1.0
  La  La3  1  0.64918044  1.05245869  -0.35081956  1.0
  La  La4  1  0.06410756  0.43589244  0.43589244  1.0
  La  La5  1  0.43589244  0.43589244  0.06410756  1.0
  La  La6  1  0.43589244  0.06410756  0.43589244  1.0
  La  La7  1  0.06410756  0.06410756  0.43589244  1.0
  La  La8  1  0.06410756  0.43589244  0.06410756  1.0
  La  La9  1  0.43589244  0.06410756  0.06410756  1.0
  La  La10  1  -0.80586260  0.80586260  0.80586260  1.0
  La  La11  1  -0.19413740  0.80586260  0.19413740  1.0
  La  La12  1  -0.19413740  0.19413740  0.80586260  1.0
  La  La13  1  0.19413740  1.19413740  -0.19413740  1.0
  La  La14  1  0.19413740  -0.19413740  0.19413740  1.0
  La  La15  1  -0.19413740  0.19413740  0.19413740  1.0
  Cd  Cd16  1  0.42051045  1.42051045  0.42051045  1.0
  Cd  Cd17  1  -0.26153136  0.42051045  0.42051045  1.0
  Cd  Cd18  1  0.42051045  1.42051045  -0.26153136  1.0
  Cd  Cd19  1  0.42051045  -0.26153136  0.42051045  1.0
  Pd  Pd20  1  0.85676878  0.85676878  -0.14323122  1.0
  Pd  Pd21  1  0.42969365  0.85676878  -0.14323122  1.0
  Pd  Pd22  1  0.85676878  0.85676878  -0.57030635  1.0
  Pd  Pd23  1  0.85676878  0.42969365  -0.14323122  1.0
