# generated using pymatgen
data_Nb2NiO6
_symmetry_space_group_name_H-M   'P 1'
_cell_length_a   14.12311051
_cell_length_b   5.74247101
_cell_length_c   5.05211573
_cell_angle_alpha   90.00000000
_cell_angle_beta   90.00000000
_cell_angle_gamma   90.00000000
_symmetry_Int_Tables_number   1
_chemical_formula_structural   Nb2NiO6
_chemical_formula_sum   'Nb8 Ni4 O24'
_cell_volume   409.73443020
_cell_formula_units_Z   4
loop_
 _symmetry_equiv_pos_site_id
 _symmetry_equiv_pos_as_xyz
  1  'x, y, z'
loop_
 _atom_site_type_symbol
 _atom_site_label
 _atom_site_symmetry_multiplicity
 _atom_site_fract_x
 _atom_site_fract_y
 _atom_site_fract_z
 _atom_site_occupancy
  Nb  Nb0  1  0.65863879  0.68102326  0.75480324  1.0
  Nb  Nb1  1  0.65863879  0.31897674  0.25480324  1.0
  Nb  Nb2  1  0.15863879  0.18102326  0.74519676  1.0
  Nb  Nb3  1  0.15863879  0.81897674  0.24519676  1.0
  Nb  Nb4  1  0.34136121  0.68102326  0.74519676  1.0
  Nb  Nb5  1  0.34136121  0.31897674  0.24519676  1.0
  Nb  Nb6  1  0.84136121  0.18102326  0.75480324  1.0
  Nb  Nb7  1  0.84136121  0.81897674  0.25480324  1.0
  Ni  Ni8  1  0.00000000  0.64974929  0.75000000  1.0
  Ni  Ni9  1  0.00000000  0.35025071  0.25000000  1.0
  Ni  Ni10  1  0.50000000  0.14974929  0.75000000  1.0
  Ni  Ni11  1  0.50000000  0.85025071  0.25000000  1.0
  O  O12  1  0.90575678  0.89076495  0.58050353  1.0
  O  O13  1  0.90575678  0.10923505  0.08050353  1.0
  O  O14  1  0.40575678  0.39076495  0.91949647  1.0
  O  O15  1  0.40575678  0.60923505  0.41949647  1.0
  O  O16  1  0.09424322  0.89076495  0.91949647  1.0
  O  O17  1  0.09424322  0.10923505  0.41949647  1.0
  O  O18  1  0.59424322  0.39076495  0.58050353  1.0
  O  O19  1  0.59424322  0.60923505  0.08050353  1.0
  O  O20  1  0.75569733  0.87558393  0.92446982  1.0
  O  O21  1  0.75569733  0.12441607  0.42446982  1.0
  O  O22  1  0.25569733  0.37558393  0.57553018  1.0
  O  O23  1  0.25569733  0.62441607  0.07553018  1.0
  O  O24  1  0.24430267  0.87558393  0.57553018  1.0
  O  O25  1  0.24430267  0.12441607  0.07553018  1.0
  O  O26  1  0.74430267  0.37558393  0.92446982  1.0
  O  O27  1  0.74430267  0.62441607  0.42446982  1.0
  O  O28  1  0.57755747  0.88299739  0.58805021  1.0
  O  O29  1  0.57755747  0.11700261  0.08805021  1.0
  O  O30  1  0.07755747  0.38299739  0.91194979  1.0
  O  O31  1  0.07755747  0.61700261  0.41194979  1.0
  O  O32  1  0.42244253  0.88299739  0.91194979  1.0
  O  O33  1  0.42244253  0.11700261  0.41194979  1.0
  O  O34  1  0.92244253  0.38299739  0.58805021  1.0
  O  O35  1  0.92244253  0.61700261  0.08805021  1.0
