# generated using pymatgen
data_Lu2MoO6
_symmetry_space_group_name_H-M   'P 1'
_cell_length_a   9.88830629
_cell_length_b   9.88830629
_cell_length_c   5.32320681
_cell_angle_alpha   74.25451848
_cell_angle_beta   105.74548152
_cell_angle_gamma   112.35635354
_symmetry_Int_Tables_number   1
_chemical_formula_structural   Lu2MoO6
_chemical_formula_sum   'Lu8 Mo4 O24'
_cell_volume   454.96911923
_cell_formula_units_Z   4
loop_
 _symmetry_equiv_pos_site_id
 _symmetry_equiv_pos_as_xyz
  1  'x, y, z'
loop_
 _atom_site_type_symbol
 _atom_site_label
 _atom_site_symmetry_multiplicity
 _atom_site_fract_x
 _atom_site_fract_y
 _atom_site_fract_z
 _atom_site_occupancy
  Lu  Lu0  1  1.71817015  0.04915953  0.62602140  1.0
  Lu  Lu1  1  0.95084047  -0.71817015  0.12602140  1.0
  Lu  Lu2  1  1.04915953  0.71817015  0.87397860  1.0
  Lu  Lu3  1  0.28182985  -0.04915953  0.37397860  1.0
  Lu  Lu4  1  0.63965524  -0.36034476  0.75000000  1.0
  Lu  Lu5  1  1.36034476  0.36034476  0.25000000  1.0
  Lu  Lu6  1  1.10496032  0.10496032  0.75000000  1.0
  Lu  Lu7  1  0.89503968  -0.10496032  0.25000000  1.0
  Mo  Mo8  1  1.51838397  0.20730675  0.93923556  1.0
  Mo  Mo9  1  0.79269325  -0.51838397  0.43923556  1.0
  Mo  Mo10  1  1.20730675  0.51838397  0.56076444  1.0
  Mo  Mo11  1  0.48161603  -0.20730675  0.06076444  1.0
  O  O12  1  0.69785353  -0.16353471  0.91837055  1.0
  O  O13  1  1.16353471  0.30214647  0.41837055  1.0
  O  O14  1  0.83646529  -0.30214647  0.58162945  1.0
  O  O15  1  1.30214647  0.16353471  0.08162945  1.0
  O  O16  1  1.88731520  0.07011862  0.42114286  1.0
  O  O17  1  0.92988138  -0.88731520  0.92114286  1.0
  O  O18  1  1.07011862  0.88731520  0.07885714  1.0
  O  O19  1  0.11268480  -0.07011862  0.57885714  1.0
  O  O20  1  0.47609923  -0.07109273  0.75143071  1.0
  O  O21  1  1.07109273  0.52390077  0.25143071  1.0
  O  O22  1  0.92890727  -0.52390077  0.74856929  1.0
  O  O23  1  1.52390077  0.07109273  0.24856929  1.0
  O  O24  1  1.68661485  0.20913547  0.86464394  1.0
  O  O25  1  0.79086453  -0.68661485  0.36464394  1.0
  O  O26  1  1.20913547  0.68661485  0.63535606  1.0
  O  O27  1  0.31338515  -0.20913547  0.13535606  1.0
  O  O28  1  1.38829725  0.17368542  0.63120183  1.0
  O  O29  1  0.82631458  -0.38829725  0.13120183  1.0
  O  O30  1  1.17368542  0.38829725  0.86879817  1.0
  O  O31  1  0.61170275  -0.17368542  0.36879817  1.0
  O  O32  1  1.55043672  0.39107313  0.98444402  1.0
  O  O33  1  0.60892687  -0.55043672  0.48444402  1.0
  O  O34  1  1.39107313  0.55043672  0.51555598  1.0
  O  O35  1  0.44956328  -0.39107313  0.01555598  1.0
