# generated using pymatgen
data_RbH(CO)4
_symmetry_space_group_name_H-M   'P 1'
_cell_length_a   4.48916284
_cell_length_b   16.08053864
_cell_length_c   8.38571597
_cell_angle_alpha   90.00000000
_cell_angle_beta   101.03278169
_cell_angle_gamma   90.00000000
_symmetry_Int_Tables_number   1
_chemical_formula_structural   RbH(CO)4
_chemical_formula_sum   'Rb4 H4 C16 O16'
_cell_volume   594.16122050
_cell_formula_units_Z   4
loop_
 _symmetry_equiv_pos_site_id
 _symmetry_equiv_pos_as_xyz
  1  'x, y, z'
loop_
 _atom_site_type_symbol
 _atom_site_label
 _atom_site_symmetry_multiplicity
 _atom_site_fract_x
 _atom_site_fract_y
 _atom_site_fract_z
 _atom_site_occupancy
  Rb  Rb0  1  0.66002981  0.56415029  0.77064514  1.0
  Rb  Rb1  1  0.33997019  0.06415029  0.72935486  1.0
  Rb  Rb2  1  0.33997019  0.43584971  0.22935486  1.0
  Rb  Rb3  1  0.66002981  0.93584971  0.27064514  1.0
  H  H4  1  0.49583737  0.76060156  0.52906544  1.0
  H  H5  1  0.50416263  0.26060156  0.97093456  1.0
  H  H6  1  0.50416263  0.23939844  0.47093456  1.0
  H  H7  1  0.49583737  0.73939844  0.02906544  1.0
  C  C8  1  0.85351838  0.78947874  0.70454920  1.0
  C  C9  1  0.14648162  0.28947874  0.79545080  1.0
  C  C10  1  0.14648162  0.21052126  0.29545080  1.0
  C  C11  1  0.85351838  0.71052126  0.20454920  1.0
  C  C12  1  0.10421853  0.77805106  0.83804302  1.0
  C  C13  1  0.89578147  0.27805106  0.66195698  1.0
  C  C14  1  0.89578147  0.22194894  0.16195698  1.0
  C  C15  1  0.10421853  0.72194894  0.33804302  1.0
  C  C16  1  0.13248733  0.87018432  0.85747053  1.0
  C  C17  1  0.86751267  0.37018432  0.64252947  1.0
  C  C18  1  0.86751267  0.12981568  0.14252947  1.0
  C  C19  1  0.13248733  0.62981568  0.35747053  1.0
  C  C20  1  0.88055156  0.87990707  0.71207205  1.0
  C  C21  1  0.11944844  0.37990707  0.78792795  1.0
  C  C22  1  0.11944844  0.12009293  0.28792795  1.0
  C  C23  1  0.88055156  0.62009293  0.21207205  1.0
  O  O24  1  0.67946595  0.73505471  0.61676671  1.0
  O  O25  1  0.32053405  0.23505471  0.88323329  1.0
  O  O26  1  0.32053405  0.26494529  0.38323329  1.0
  O  O27  1  0.67946595  0.76494529  0.11676671  1.0
  O  O28  1  0.24277393  0.71491715  0.90696419  1.0
  O  O29  1  0.75722607  0.21491715  0.59303581  1.0
  O  O30  1  0.75722607  0.28508285  0.09303581  1.0
  O  O31  1  0.24277393  0.78508285  0.40696419  1.0
  O  O32  1  0.29055233  0.91935314  0.95059394  1.0
  O  O33  1  0.70944767  0.41935314  0.54940606  1.0
  O  O34  1  0.70944767  0.08064686  0.04940606  1.0
  O  O35  1  0.29055233  0.58064686  0.45059394  1.0
  O  O36  1  0.75816888  0.94049582  0.63247315  1.0
  O  O37  1  0.24183112  0.44049582  0.86752685  1.0
  O  O38  1  0.24183112  0.05950418  0.36752685  1.0
  O  O39  1  0.75816888  0.55950418  0.13247315  1.0
