# generated using pymatgen
data_Mo8O23
_symmetry_space_group_name_H-M   'P 1'
_cell_length_a   13.46905454
_cell_length_b   4.19807207
_cell_length_c   17.04947590
_cell_angle_alpha   90.00000000
_cell_angle_beta   106.39261397
_cell_angle_gamma   90.00000000
_symmetry_Int_Tables_number   1
_chemical_formula_structural   Mo8O23
_chemical_formula_sum   'Mo16 O46'
_cell_volume   924.85847284
_cell_formula_units_Z   2
loop_
 _symmetry_equiv_pos_site_id
 _symmetry_equiv_pos_as_xyz
  1  'x, y, z'
loop_
 _atom_site_type_symbol
 _atom_site_label
 _atom_site_symmetry_multiplicity
 _atom_site_fract_x
 _atom_site_fract_y
 _atom_site_fract_z
 _atom_site_occupancy
  Mo  Mo0  1  0.93613409  0.91435052  0.58371387  1.0
  Mo  Mo1  1  0.93613409  0.08564948  0.08371387  1.0
  Mo  Mo2  1  0.06386591  0.91435052  0.91628613  1.0
  Mo  Mo3  1  0.06386591  0.08564948  0.41628613  1.0
  Mo  Mo4  1  0.81427459  0.91362043  0.25396740  1.0
  Mo  Mo5  1  0.81427459  0.08637957  0.75396740  1.0
  Mo  Mo6  1  0.18572541  0.91362043  0.24603260  1.0
  Mo  Mo7  1  0.18572541  0.08637957  0.74603260  1.0
  Mo  Mo8  1  0.68561218  0.90668554  0.92042064  1.0
  Mo  Mo9  1  0.68561218  0.09331446  0.42042064  1.0
  Mo  Mo10  1  0.31438782  0.90668554  0.57957936  1.0
  Mo  Mo11  1  0.31438782  0.09331446  0.07957936  1.0
  Mo  Mo12  1  0.44639707  0.90271683  0.40295110  1.0
  Mo  Mo13  1  0.44639707  0.09728317  0.90295110  1.0
  Mo  Mo14  1  0.55360293  0.90271683  0.09704890  1.0
  Mo  Mo15  1  0.55360293  0.09728317  0.59704890  1.0
  O  O16  1  0.93627139  0.99624384  0.33514189  1.0
  O  O17  1  0.93627139  0.00375616  0.83514189  1.0
  O  O18  1  0.06372861  0.99624384  0.16485811  1.0
  O  O19  1  0.06372861  0.00375616  0.66485811  1.0
  O  O20  1  0.93493734  0.49138808  0.08410091  1.0
  O  O21  1  0.93493734  0.50861192  0.58410091  1.0
  O  O22  1  0.06506266  0.49138808  0.41589909  1.0
  O  O23  1  0.06506266  0.50861192  0.91589909  1.0
  O  O24  1  0.87076668  0.99667974  0.16911651  1.0
  O  O25  1  0.87076668  0.00332026  0.66911651  1.0
  O  O26  1  0.12923332  0.99667974  0.33088349  1.0
  O  O27  1  0.12923332  0.00332026  0.83088349  1.0
  O  O28  1  0.80928240  0.50740555  0.25439508  1.0
  O  O29  1  0.80928240  0.49259445  0.75439508  1.0
  O  O30  1  0.19071760  0.50740555  0.24560492  1.0
  O  O31  1  0.19071760  0.49259445  0.74560492  1.0
  O  O32  1  0.80167968  0.99681379  0.00446289  1.0
  O  O33  1  0.80167968  0.00318621  0.50446289  1.0
  O  O34  1  0.19832032  0.99681379  0.49553711  1.0
  O  O35  1  0.19832032  0.00318621  0.99553711  1.0
  O  O36  1  0.74048645  0.98349395  0.83655619  1.0
  O  O37  1  0.74048645  0.01650605  0.33655619  1.0
  O  O38  1  0.25951355  0.98349395  0.66344381  1.0
  O  O39  1  0.25951355  0.01650605  0.16344381  1.0
  O  O40  1  0.68229761  0.50036071  0.42312691  1.0
  O  O41  1  0.68229761  0.49963929  0.92312691  1.0
  O  O42  1  0.31770239  0.50036071  0.07687309  1.0
  O  O43  1  0.31770239  0.49963929  0.57687309  1.0
  O  O44  1  0.67359509  0.98825169  0.17258406  1.0
  O  O45  1  0.67359509  0.01174831  0.67258406  1.0
  O  O46  1  0.32640491  0.98825169  0.32741594  1.0
  O  O47  1  0.32640491  0.01174831  0.82741594  1.0
  O  O48  1  0.58982392  0.99757342  0.99660634  1.0
  O  O49  1  0.58982392  0.00242658  0.49660634  1.0
  O  O50  1  0.41017608  0.99757342  0.50339366  1.0
  O  O51  1  0.41017608  0.00242658  0.00339366  1.0
  O  O52  1  0.54459650  0.98882930  0.34866269  1.0
  O  O53  1  0.54459650  0.01117070  0.84866269  1.0
  O  O54  1  0.45540350  0.98882930  0.15133731  1.0
  O  O55  1  0.45540350  0.01117070  0.65133731  1.0
  O  O56  1  0.44690191  0.49497506  0.40611009  1.0
  O  O57  1  0.44690191  0.50502494  0.90611009  1.0
  O  O58  1  0.55309809  0.49497506  0.09388991  1.0
  O  O59  1  0.55309809  0.50502494  0.59388991  1.0
  O  O60  1  0.00000000  -0.00000000  0.50000000  1.0
  O  O61  1  0.00000000  -0.00000000  0.00000000  1.0
