# generated using pymatgen
data_Y6Zn23
_symmetry_space_group_name_H-M   'P 1'
_cell_length_a   8.97865636
_cell_length_b   8.97865636
_cell_length_c   8.97865636
_cell_angle_alpha   60.00000000
_cell_angle_beta   60.00000000
_cell_angle_gamma   60.00000000
_symmetry_Int_Tables_number   1
_chemical_formula_structural   Y6Zn23
_chemical_formula_sum   'Y6 Zn23'
_cell_volume   511.82212152
_cell_formula_units_Z   1
loop_
 _symmetry_equiv_pos_site_id
 _symmetry_equiv_pos_as_xyz
  1  'x, y, z'
loop_
 _atom_site_type_symbol
 _atom_site_label
 _atom_site_symmetry_multiplicity
 _atom_site_fract_x
 _atom_site_fract_y
 _atom_site_fract_z
 _atom_site_occupancy
  Y  Y0  1  -0.70701749  0.70701749  0.70701749  1.0
  Y  Y1  1  -0.29298251  0.29298251  0.70701749  1.0
  Y  Y2  1  0.70701749  0.70701749  -0.70701749  1.0
  Y  Y3  1  0.29298251  1.29298251  -0.29298251  1.0
  Y  Y4  1  0.29298251  -0.29298251  1.29298251  1.0
  Y  Y5  1  -0.29298251  0.29298251  0.29298251  1.0
  Zn  Zn6  1  0.87662348  0.87662348  -0.12337652  1.0
  Zn  Zn7  1  1.12337652  0.12337652  0.62987044  1.0
  Zn  Zn8  1  1.12337652  0.62987044  0.12337652  1.0
  Zn  Zn9  1  0.37012956  0.87662348  -0.12337652  1.0
  Zn  Zn10  1  1.62987044  0.12337652  0.12337652  1.0
  Zn  Zn11  1  0.87662348  0.37012956  -0.12337652  1.0
  Zn  Zn12  1  0.87662348  0.87662348  -0.62987044  1.0
  Zn  Zn13  1  1.12337652  0.12337652  0.12337652  1.0
  Zn  Zn14  1  0.67100290  0.67100290  -0.32899710  1.0
  Zn  Zn15  1  1.32899710  0.32899710  0.01300870  1.0
  Zn  Zn16  1  1.32899710  0.01300870  0.32899710  1.0
  Zn  Zn17  1  0.98699130  0.67100290  -0.32899710  1.0
  Zn  Zn18  1  1.01300870  0.32899710  0.32899710  1.0
  Zn  Zn19  1  0.67100290  0.98699130  -0.32899710  1.0
  Zn  Zn20  1  0.67100290  0.67100290  -0.01300870  1.0
  Zn  Zn21  1  1.32899710  0.32899710  0.32899710  1.0
  Zn  Zn22  1  1.50000000  0.00000000  -0.00000000  1.0
  Zn  Zn23  1  1.00000000  0.50000000  -0.50000000  1.0
  Zn  Zn24  1  0.00000000  1.50000000  -0.00000000  1.0
  Zn  Zn25  1  0.50000000  1.00000000  -0.50000000  1.0
  Zn  Zn26  1  -0.00000000  -0.00000000  0.50000000  1.0
  Zn  Zn27  1  0.50000000  -0.50000000  1.00000000  1.0
  Zn  Zn28  1  0.00000000  0.00000000  0.00000000  1.0
