# generated using pymatgen
data_KLiGdF5
_symmetry_space_group_name_H-M   'P 1'
_cell_length_a   6.66131418
_cell_length_b   11.97278380
_cell_length_c   6.46008986
_cell_angle_alpha   90.00000000
_cell_angle_beta   113.83163473
_cell_angle_gamma   90.00000000
_symmetry_Int_Tables_number   1
_chemical_formula_structural   KLiGdF5
_chemical_formula_sum   'K4 Li4 Gd4 F20'
_cell_volume   471.29163348
_cell_formula_units_Z   4
loop_
 _symmetry_equiv_pos_site_id
 _symmetry_equiv_pos_as_xyz
  1  'x, y, z'
loop_
 _atom_site_type_symbol
 _atom_site_label
 _atom_site_symmetry_multiplicity
 _atom_site_fract_x
 _atom_site_fract_y
 _atom_site_fract_z
 _atom_site_occupancy
  K  K0  1  0.94881985  0.84923018  0.46700096  1.0
  K  K1  1  0.94881985  0.65076982  0.96700096  1.0
  K  K2  1  0.05118015  0.34923018  0.03299904  1.0
  K  K3  1  0.05118015  0.15076982  0.53299904  1.0
  Li  Li4  1  0.55303251  0.24604869  0.46021098  1.0
  Li  Li5  1  0.55303251  0.25395131  0.96021098  1.0
  Li  Li6  1  0.44696749  0.74604869  0.03978902  1.0
  Li  Li7  1  0.44696749  0.75395131  0.53978902  1.0
  Gd  Gd8  1  0.68196906  0.49701114  0.32041696  1.0
  Gd  Gd9  1  0.68196906  0.00298886  0.82041696  1.0
  Gd  Gd10  1  0.31803094  0.99701114  0.17958304  1.0
  Gd  Gd11  1  0.31803094  0.50298886  0.67958304  1.0
  F  F12  1  0.46299543  0.39402592  0.46487309  1.0
  F  F13  1  0.46299543  0.10597408  0.96487309  1.0
  F  F14  1  0.53700457  0.89402592  0.03512691  1.0
  F  F15  1  0.53700457  0.60597408  0.53512691  1.0
  F  F16  1  0.95793221  0.00460656  0.17604518  1.0
  F  F17  1  0.95793221  0.49539344  0.67604518  1.0
  F  F18  1  0.04206779  0.50460656  0.32395482  1.0
  F  F19  1  0.04206779  0.99539344  0.82395482  1.0
  F  F20  1  0.71395259  0.30128740  0.27619845  1.0
  F  F21  1  0.71395259  0.19871260  0.77619845  1.0
  F  F22  1  0.28604741  0.80128740  0.22380155  1.0
  F  F23  1  0.28604741  0.69871260  0.72380155  1.0
  F  F24  1  0.66436579  0.03375274  0.45190956  1.0
  F  F25  1  0.66436579  0.46624726  0.95190956  1.0
  F  F26  1  0.33563421  0.53375274  0.04809044  1.0
  F  F27  1  0.33563421  0.96624726  0.54809044  1.0
  F  F28  1  0.28735610  0.17573149  0.28328535  1.0
  F  F29  1  0.28735610  0.32426851  0.78328535  1.0
  F  F30  1  0.71264390  0.67573149  0.21671465  1.0
  F  F31  1  0.71264390  0.82426851  0.71671465  1.0
