# generated using pymatgen
data_Hg2MoO4
_symmetry_space_group_name_H-M   'P 1'
_cell_length_a   7.55852658
_cell_length_b   7.55852658
_cell_length_c   5.01835394
_cell_angle_alpha   74.80067832
_cell_angle_beta   105.19932168
_cell_angle_gamma   72.28244625
_symmetry_Int_Tables_number   1
_chemical_formula_structural   Hg2MoO4
_chemical_formula_sum   'Hg4 Mo2 O8'
_cell_volume   244.63786345
_cell_formula_units_Z   2
loop_
 _symmetry_equiv_pos_site_id
 _symmetry_equiv_pos_as_xyz
  1  'x, y, z'
loop_
 _atom_site_type_symbol
 _atom_site_label
 _atom_site_symmetry_multiplicity
 _atom_site_fract_x
 _atom_site_fract_y
 _atom_site_fract_z
 _atom_site_occupancy
  Hg  Hg0  1  1.53434530  0.24599225  0.98131080  1.0
  Hg  Hg1  1  0.75400775  -0.53434530  0.48131080  1.0
  Hg  Hg2  1  1.24599225  0.53434530  0.51868920  1.0
  Hg  Hg3  1  0.46565470  -0.24599225  0.01868920  1.0
  Mo  Mo4  1  0.89983589  -0.10016411  0.75000000  1.0
  Mo  Mo5  1  1.10016411  0.10016411  0.25000000  1.0
  O  O6  1  1.81581234  0.09087052  0.36007079  1.0
  O  O7  1  0.90912948  -0.81581234  0.86007079  1.0
  O  O8  1  1.09087052  0.81581234  0.13992921  1.0
  O  O9  1  0.18418766  -0.09087052  0.63992921  1.0
  O  O10  1  0.67335265  -0.05213498  0.80507859  1.0
  O  O11  1  1.05213498  0.32664735  0.30507859  1.0
  O  O12  1  0.94786502  -0.32664735  0.69492141  1.0
  O  O13  1  1.32664735  0.05213498  0.19492141  1.0
