# generated using pymatgen
data_SmIn2Ir
_symmetry_space_group_name_H-M   'P 1'
_cell_length_a   5.62032597
_cell_length_b   5.62032597
_cell_length_c   8.25287872
_cell_angle_alpha   90.00000000
_cell_angle_beta   90.00000000
_cell_angle_gamma   134.61989861
_symmetry_Int_Tables_number   1
_chemical_formula_structural   SmIn2Ir
_chemical_formula_sum   'Sm2 In4 Ir2'
_cell_volume   185.55624013
_cell_formula_units_Z   2
loop_
 _symmetry_equiv_pos_site_id
 _symmetry_equiv_pos_as_xyz
  1  'x, y, z'
loop_
 _atom_site_type_symbol
 _atom_site_label
 _atom_site_symmetry_multiplicity
 _atom_site_fract_x
 _atom_site_fract_y
 _atom_site_fract_z
 _atom_site_occupancy
  Sm  Sm0  1  0.43297321  0.56702679  0.75000000  1.0
  Sm  Sm1  1  -0.43297321  0.43297321  0.25000000  1.0
  In  In2  1  0.14682181  0.85317819  0.94885703  1.0
  In  In3  1  0.14682181  0.85317819  0.55114297  1.0
  In  In4  1  -0.14682181  0.14682181  0.44885703  1.0
  In  In5  1  -0.14682181  0.14682181  0.05114297  1.0
  Ir  Ir6  1  -0.27997097  0.27997097  0.75000000  1.0
  Ir  Ir7  1  0.27997097  0.72002903  0.25000000  1.0
