# generated using pymatgen
data_Mg7VH16
_symmetry_space_group_name_H-M   'P 1'
_cell_length_a   6.56599662
_cell_length_b   6.56599662
_cell_length_c   6.56599662
_cell_angle_alpha   60.00000000
_cell_angle_beta   60.00000000
_cell_angle_gamma   60.00000000
_symmetry_Int_Tables_number   1
_chemical_formula_structural   Mg7VH16
_chemical_formula_sum   'Mg7 V1 H16'
_cell_volume   200.16445879
_cell_formula_units_Z   1
loop_
 _symmetry_equiv_pos_site_id
 _symmetry_equiv_pos_as_xyz
  1  'x, y, z'
loop_
 _atom_site_type_symbol
 _atom_site_label
 _atom_site_symmetry_multiplicity
 _atom_site_fract_x
 _atom_site_fract_y
 _atom_site_fract_z
 _atom_site_occupancy
  Mg  Mg0  1  0.00000000  0.00000000  0.50000000  1.0
  Mg  Mg1  1  0.50000000  1.00000000  -0.50000000  1.0
  Mg  Mg2  1  1.00000000  0.50000000  -0.50000000  1.0
  Mg  Mg3  1  0.50000000  -0.50000000  1.00000000  1.0
  Mg  Mg4  1  -0.00000000  1.50000000  0.00000000  1.0
  Mg  Mg5  1  1.50000000  -0.00000000  0.00000000  1.0
  Mg  Mg6  1  -0.50000000  0.50000000  0.50000000  1.0
  V  V7  1  0.00000000  0.00000000  0.00000000  1.0
  H  H8  1  0.88426768  0.88426768  -0.65280305  1.0
  H  H9  1  0.88426768  0.34719695  -0.11573232  1.0
  H  H10  1  0.34719695  0.88426768  -0.11573232  1.0
  H  H11  1  0.88426768  0.88426768  -0.11573232  1.0
  H  H12  1  1.11573232  0.11573232  0.65280305  1.0
  H  H13  1  1.11573232  0.65280305  0.11573232  1.0
  H  H14  1  1.65280305  0.11573232  0.11573232  1.0
  H  H15  1  1.11573232  0.11573232  0.11573232  1.0
  H  H16  1  0.62838162  0.62838162  1.11485513  1.0
  H  H17  1  0.62838162  1.11485513  -0.37161838  1.0
  H  H18  1  1.11485513  0.62838162  0.62838162  1.0
  H  H19  1  0.62838162  0.62838162  -0.37161838  1.0
  H  H20  1  0.37161838  1.37161838  -0.11485513  1.0
  H  H21  1  1.37161838  -0.11485513  0.37161838  1.0
  H  H22  1  -0.11485513  1.37161838  0.37161838  1.0
  H  H23  1  1.37161838  0.37161838  0.37161838  1.0
