# generated using pymatgen
data_AlI3
_symmetry_space_group_name_H-M   'P 1'
_cell_length_a   10.25471583
_cell_length_b   6.76099203
_cell_length_c   12.76557876
_cell_angle_alpha   90.00000000
_cell_angle_beta   108.59379698
_cell_angle_gamma   90.00000000
_symmetry_Int_Tables_number   1
_chemical_formula_structural   AlI3
_chemical_formula_sum   'Al4 I12'
_cell_volume   838.86603948
_cell_formula_units_Z   4
loop_
 _symmetry_equiv_pos_site_id
 _symmetry_equiv_pos_as_xyz
  1  'x, y, z'
loop_
 _atom_site_type_symbol
 _atom_site_label
 _atom_site_symmetry_multiplicity
 _atom_site_fract_x
 _atom_site_fract_y
 _atom_site_fract_z
 _atom_site_occupancy
  Al  Al0  1  0.81479948  0.50716960  0.45316200  1.0
  Al  Al1  1  0.81479948  0.99283040  0.95316200  1.0
  Al  Al2  1  0.18520052  0.00716960  0.04683800  1.0
  Al  Al3  1  0.18520052  0.49283040  0.54683800  1.0
  I  I4  1  0.00328625  0.71043348  0.39238527  1.0
  I  I5  1  0.00328625  0.78956652  0.89238527  1.0
  I  I6  1  0.99671375  0.21043348  0.10761473  1.0
  I  I7  1  0.99671375  0.28956652  0.60761473  1.0
  I  I8  1  0.67985732  0.29122614  0.29785715  1.0
  I  I9  1  0.67985732  0.20877386  0.79785715  1.0
  I  I10  1  0.32014268  0.79122614  0.20214285  1.0
  I  I11  1  0.32014268  0.70877386  0.70214285  1.0
  I  I12  1  0.30881186  0.26684662  0.45582064  1.0
  I  I13  1  0.30881186  0.23315338  0.95582064  1.0
  I  I14  1  0.69118814  0.76684662  0.04417936  1.0
  I  I15  1  0.69118814  0.73315338  0.54417936  1.0
