# generated using pymatgen
data_KZr2(PO4)3
_symmetry_space_group_name_H-M   'P 1'
_cell_length_a   9.53042094
_cell_length_b   9.53042094
_cell_length_c   9.53042094
_cell_angle_alpha   55.34228639
_cell_angle_beta   55.34228639
_cell_angle_gamma   55.34228639
_symmetry_Int_Tables_number   1
_chemical_formula_structural   KZr2(PO4)3
_chemical_formula_sum   'K2 Zr4 P6 O24'
_cell_volume   545.85920135
_cell_formula_units_Z   2
loop_
 _symmetry_equiv_pos_site_id
 _symmetry_equiv_pos_as_xyz
  1  'x, y, z'
loop_
 _atom_site_type_symbol
 _atom_site_label
 _atom_site_symmetry_multiplicity
 _atom_site_fract_x
 _atom_site_fract_y
 _atom_site_fract_z
 _atom_site_occupancy
  K  K0  1  1.00000000  0.00000000  -0.00000000  1.0
  K  K1  1  0.50000000  0.50000000  0.50000000  1.0
  Zr  Zr2  1  0.85095692  -0.14904308  -0.14904308  1.0
  Zr  Zr3  1  0.35095692  0.35095692  0.35095692  1.0
  Zr  Zr4  1  0.64904308  0.64904308  -0.35095692  1.0
  Zr  Zr5  1  1.14904308  0.14904308  0.14904308  1.0
  P  P6  1  0.46337370  0.75000000  0.03662630  1.0
  P  P7  1  0.96337370  -0.46337370  0.25000000  1.0
  P  P8  1  0.25000000  0.96337370  -0.46337370  1.0
  P  P9  1  0.75000000  1.03662630  -0.53662630  1.0
  P  P10  1  0.53662630  0.25000000  -0.03662630  1.0
  P  P11  1  1.03662630  0.46337370  -0.25000000  1.0
  O  O12  1  0.76052978  1.01023019  -0.36629203  1.0
  O  O13  1  1.26052978  0.13370797  -0.48976981  1.0
  O  O14  1  0.86629203  0.48976981  -0.26052978  1.0
  O  O15  1  0.36629203  0.23947022  -0.01023019  1.0
  O  O16  1  0.98976981  0.36629203  -0.76052978  1.0
  O  O17  1  0.48976981  0.73947022  -0.13370797  1.0
  O  O18  1  0.23947022  0.98976981  -0.63370797  1.0
  O  O19  1  0.73947022  0.86629203  -0.51023019  1.0
  O  O20  1  0.63370797  0.76052978  0.01023019  1.0
  O  O21  1  1.13370797  -0.48976981  0.26052978  1.0
  O  O22  1  0.51023019  0.26052978  0.13370797  1.0
  O  O23  1  1.01023019  0.63370797  -0.23947022  1.0
  O  O24  1  0.70588255  0.07697248  -0.06934476  1.0
  O  O25  1  1.20588255  0.43065524  -0.42302752  1.0
  O  O26  1  0.56934476  0.42302752  -0.20588255  1.0
  O  O27  1  1.06934476  0.29411745  -0.07697248  1.0
  O  O28  1  0.92302752  0.06934476  0.29411745  1.0
  O  O29  1  0.42302752  0.79411745  -0.43065524  1.0
  O  O30  1  1.29411745  -0.07697248  0.06934476  1.0
  O  O31  1  0.79411745  0.56934476  -0.57697248  1.0
  O  O32  1  0.93065524  -0.29411745  0.07697248  1.0
  O  O33  1  0.43065524  0.57697248  0.20588255  1.0
  O  O34  1  0.57697248  1.20588255  -0.56934476  1.0
  O  O35  1  1.07697248  -0.06934476  -0.29411745  1.0
