# generated using pymatgen
data_ZnSeO5
_symmetry_space_group_name_H-M   'P 1'
_cell_length_a   5.34697489
_cell_length_b   5.34697489
_cell_length_c   7.63562192
_cell_angle_alpha   74.57861791
_cell_angle_beta   105.42138209
_cell_angle_gamma   75.46057606
_symmetry_Int_Tables_number   1
_chemical_formula_structural   ZnSeO5
_chemical_formula_sum   'Zn2 Se2 O10'
_cell_volume   190.31881255
_cell_formula_units_Z   2
loop_
 _symmetry_equiv_pos_site_id
 _symmetry_equiv_pos_as_xyz
  1  'x, y, z'
loop_
 _atom_site_type_symbol
 _atom_site_label
 _atom_site_symmetry_multiplicity
 _atom_site_fract_x
 _atom_site_fract_y
 _atom_site_fract_z
 _atom_site_occupancy
  Se  Se0  1  0.92242313  -0.07757687  0.25000000  1.0
  Se  Se1  1  1.07757687  0.07757687  0.75000000  1.0
  O  O2  1  0.81496258  -0.19243469  0.43215246  1.0
  O  O3  1  1.19243469  0.18503742  0.93215246  1.0
  O  O4  1  0.80756531  -0.18503742  0.06784754  1.0
  O  O5  1  1.18503742  0.19243469  0.56784754  1.0
  O  O6  1  1.34674058  0.34674058  0.25000000  1.0
  O  O7  1  0.65325942  -0.34674058  0.75000000  1.0
  O  O8  1  0.26956134  -0.20106592  0.33881649  1.0
  O  O9  1  1.20106592  0.73043866  0.83881649  1.0
  O  O10  1  0.79893408  -0.73043866  0.16118351  1.0
  O  O11  1  1.73043866  0.20106592  0.66118351  1.0
  Zn  Zn12  1  1.50000000  0.00000000  0.50000000  1.0
  Zn  Zn13  1  1.00000000  -0.50000000  0.00000000  1.0
