# generated using pymatgen
data_Cu6Hg3(SbS3)4
_symmetry_space_group_name_H-M   'P 1'
_cell_length_a   8.80114055
_cell_length_b   8.80114055
_cell_length_c   8.80114055
_cell_angle_alpha   107.53343565
_cell_angle_beta   107.53343565
_cell_angle_gamma   107.53343565
_symmetry_Int_Tables_number   1
_chemical_formula_structural   Cu6Hg3(SbS3)4
_chemical_formula_sum   'Cu6 Hg3 Sb4 S12'
_cell_volume   559.28972816
_cell_formula_units_Z   1
loop_
 _symmetry_equiv_pos_site_id
 _symmetry_equiv_pos_as_xyz
  1  'x, y, z'
loop_
 _atom_site_type_symbol
 _atom_site_label
 _atom_site_symmetry_multiplicity
 _atom_site_fract_x
 _atom_site_fract_y
 _atom_site_fract_z
 _atom_site_occupancy
  Cu  Cu0  1  1.23491677  -0.29596659  0.08153002  1.0
  Cu  Cu1  1  0.70403341  0.08153002  0.23491677  1.0
  Cu  Cu2  1  1.08153002  0.23491677  -0.29596659  1.0
  Cu  Cu3  1  1.18673584  0.45329697  -0.60359817  1.0
  Cu  Cu4  1  0.45329697  0.39640183  0.18673584  1.0
  Cu  Cu5  1  0.39640183  1.18673584  -0.54670303  1.0
  Hg  Hg6  1  0.93215970  0.78399433  0.31607687  1.0
  Hg  Hg7  1  0.78399433  1.31607687  -0.06784030  1.0
  Hg  Hg8  1  1.31607687  0.93215970  -0.21600567  1.0
  Sb  Sb9  1  1.61993597  -0.16659280  0.55122806  1.0
  Sb  Sb10  1  0.83340720  0.55122806  0.61993597  1.0
  Sb  Sb11  1  1.55122806  0.61993597  -0.16659280  1.0
  Sb  Sb12  1  0.98007093  0.98007093  0.98007093  1.0
  S  S13  1  0.83007519  1.00974434  0.45941307  1.0
  S  S14  1  1.00974434  1.45941307  -0.16992481  1.0
  S  S15  1  1.45941307  0.83007519  0.00974434  1.0
  S  S16  1  1.06245887  0.64051189  -0.49153537  1.0
  S  S17  1  0.64051189  0.50846463  0.06245887  1.0
  S  S18  1  0.50846463  1.06245887  -0.35948811  1.0
  S  S19  1  1.16569043  -0.07328396  0.21808364  1.0
  S  S20  1  0.92671604  0.21808364  0.16569043  1.0
  S  S21  1  1.21808364  0.16569043  -0.07328396  1.0
  S  S22  1  1.35082615  -0.39943818  0.28266606  1.0
  S  S23  1  0.60056182  0.28266606  0.35082615  1.0
  S  S24  1  1.28266606  0.35082615  -0.39943818  1.0
