# generated using pymatgen
data_Na2PtO2
_symmetry_space_group_name_H-M   'P 1'
_cell_length_a   16.57530683
_cell_length_b   16.57529153
_cell_length_c   6.14861371
_cell_angle_alpha   79.31130152
_cell_angle_beta   79.31102130
_cell_angle_gamma   21.37767717
_symmetry_Int_Tables_number   1
_chemical_formula_structural   Na2PtO2
_chemical_formula_sum   'Na16 Pt8 O16'
_cell_volume   604.69557372
_cell_formula_units_Z   8
loop_
 _symmetry_equiv_pos_site_id
 _symmetry_equiv_pos_as_xyz
  1  'x, y, z'
loop_
 _atom_site_type_symbol
 _atom_site_label
 _atom_site_symmetry_multiplicity
 _atom_site_fract_x
 _atom_site_fract_y
 _atom_site_fract_z
 _atom_site_occupancy
  Na  Na0  1  0.38143114  0.38474178  1.34463224  1.0
  Na  Na1  1  -0.11080517  0.34463224  0.38474178  1.0
  Na  Na2  1  -0.13474178  0.86856886  0.36080517  1.0
  Na  Na3  1  -0.09463224  0.36080517  0.86856886  1.0
  Na  Na4  1  0.34463224  -0.11080517  1.38143114  1.0
  Na  Na5  1  0.38474178  0.38143114  -0.11080517  1.0
  Na  Na6  1  -0.63919483  0.90536776  0.86525822  1.0
  Na  Na7  1  -0.13143114  0.86525822  0.90536776  1.0
  Na  Na8  1  0.53112587  -0.46888769  1.19651208  1.0
  Na  Na9  1  -0.25875025  1.19651208  0.53111231  1.0
  Na  Na10  1  -0.28111231  0.71887413  0.50875025  1.0
  Na  Na11  1  1.05348792  -0.49124975  0.71887413  1.0
  Na  Na12  1  1.19651208  -0.25875025  0.53112587  1.0
  Na  Na13  1  -0.46888769  0.53112587  0.74124975  1.0
  Na  Na14  1  -0.49124975  1.05348792  0.71888769  1.0
  Na  Na15  1  0.71887413  -0.28111231  1.05348792  1.0
  Pt  Pt16  1  0.05460476  0.05435360  1.69713120  1.0
  Pt  Pt17  1  0.19391043  0.69713120  1.05435360  1.0
  Pt  Pt18  1  0.19564640  0.19539524  1.05608957  1.0
  Pt  Pt19  1  0.55286880  0.05608957  1.19539524  1.0
  Pt  Pt20  1  0.69713120  0.19391043  1.05460476  1.0
  Pt  Pt21  1  0.05435360  0.05460476  1.19391043  1.0
  Pt  Pt22  1  0.05608957  0.55286880  1.19564640  1.0
  Pt  Pt23  1  0.19539524  0.19564640  1.55286880  1.0
  O  O24  1  -0.17664105  0.26472026  0.45605407  1.0
  O  O25  1  0.45586673  0.45605407  1.26472026  1.0
  O  O26  1  0.98527974  -0.57335895  0.79413327  1.0
  O  O27  1  -0.20605407  0.79413327  0.42664105  1.0
  O  O28  1  0.45605407  0.45586673  -0.17664105  1.0
  O  O29  1  0.26472026  -0.17664105  1.45586673  1.0
  O  O30  1  0.79413327  -0.20605407  0.98527974  1.0
  O  O31  1  -0.57335895  0.98527974  0.79394593  1.0
  O  O32  1  0.28459939  -0.15792896  1.93679947  1.0
  O  O33  1  -0.06346990  0.93679947  -0.15792896  1.0
  O  O34  1  -0.59207104  0.96540061  1.31346990  1.0
  O  O35  1  -0.68679947  1.31346990  0.96540061  1.0
  O  O36  1  0.93679947  -0.06346990  1.28459939  1.0
  O  O37  1  -0.15792896  0.28459939  -0.06346990  1.0
  O  O38  1  0.31346990  0.31320053  0.40792896  1.0
  O  O39  1  -0.03459939  0.40792896  0.31320053  1.0
