# generated using pymatgen
data_SrZrS3
_symmetry_space_group_name_H-M   'P 1'
_cell_length_a   7.16636820
_cell_length_b   9.82015914
_cell_length_c   6.77003066
_cell_angle_alpha   90.00000000
_cell_angle_beta   90.00000000
_cell_angle_gamma   90.00000000
_symmetry_Int_Tables_number   1
_chemical_formula_structural   SrZrS3
_chemical_formula_sum   'Sr4 Zr4 S12'
_cell_volume   476.44006971
_cell_formula_units_Z   4
loop_
 _symmetry_equiv_pos_site_id
 _symmetry_equiv_pos_as_xyz
  1  'x, y, z'
loop_
 _atom_site_type_symbol
 _atom_site_label
 _atom_site_symmetry_multiplicity
 _atom_site_fract_x
 _atom_site_fract_y
 _atom_site_fract_z
 _atom_site_occupancy
  Sr  Sr0  1  0.08005046  0.75000000  0.52446744  1.0
  Sr  Sr1  1  0.58005046  0.75000000  0.97553256  1.0
  Sr  Sr2  1  0.91994954  0.25000000  0.47553256  1.0
  Sr  Sr3  1  0.41994954  0.25000000  0.02446744  1.0
  Zr  Zr4  1  0.50000000  0.00000000  0.50000000  1.0
  Zr  Zr5  1  0.50000000  0.50000000  0.50000000  1.0
  Zr  Zr6  1  0.00000000  0.00000000  0.00000000  1.0
  Zr  Zr7  1  0.00000000  0.50000000  0.00000000  1.0
  S  S8  1  0.30329224  0.94985509  0.80765585  1.0
  S  S9  1  0.30329224  0.55014491  0.80765585  1.0
  S  S10  1  0.80329224  0.94985509  0.69234415  1.0
  S  S11  1  0.80329224  0.55014491  0.69234415  1.0
  S  S12  1  0.69670776  0.44985509  0.19234415  1.0
  S  S13  1  0.69670776  0.05014491  0.19234415  1.0
  S  S14  1  0.19670776  0.44985509  0.30765585  1.0
  S  S15  1  0.19670776  0.05014491  0.30765585  1.0
  S  S16  1  0.98036097  0.75000000  0.09748692  1.0
  S  S17  1  0.48036097  0.75000000  0.40251308  1.0
  S  S18  1  0.01963903  0.25000000  0.90251308  1.0
  S  S19  1  0.51963903  0.25000000  0.59748692  1.0
