# generated using pymatgen
data_SrHfO3
_symmetry_space_group_name_H-M   'P 1'
_cell_length_a   5.83462038
_cell_length_b   8.20898332
_cell_length_c   5.79555159
_cell_angle_alpha   90.00000000
_cell_angle_beta   90.00000000
_cell_angle_gamma   90.00000000
_symmetry_Int_Tables_number   1
_chemical_formula_structural   SrHfO3
_chemical_formula_sum   'Sr4 Hf4 O12'
_cell_volume   277.58548589
_cell_formula_units_Z   4
loop_
 _symmetry_equiv_pos_site_id
 _symmetry_equiv_pos_as_xyz
  1  'x, y, z'
loop_
 _atom_site_type_symbol
 _atom_site_label
 _atom_site_symmetry_multiplicity
 _atom_site_fract_x
 _atom_site_fract_y
 _atom_site_fract_z
 _atom_site_occupancy
  Sr  Sr0  1  0.02708309  0.75000000  0.50600280  1.0
  Sr  Sr1  1  0.52708309  0.75000000  0.99399720  1.0
  Sr  Sr2  1  0.97291691  0.25000000  0.49399720  1.0
  Sr  Sr3  1  0.47291691  0.25000000  0.00600280  1.0
  Hf  Hf4  1  0.50000000  0.00000000  0.50000000  1.0
  Hf  Hf5  1  0.50000000  0.50000000  0.50000000  1.0
  Hf  Hf6  1  0.00000000  0.00000000  0.00000000  1.0
  Hf  Hf7  1  0.00000000  0.50000000  0.00000000  1.0
  O  O8  1  0.28250970  0.96298046  0.78269561  1.0
  O  O9  1  0.28250970  0.53701954  0.78269561  1.0
  O  O10  1  0.78250970  0.96298046  0.71730439  1.0
  O  O11  1  0.78250970  0.53701954  0.71730439  1.0
  O  O12  1  0.71749030  0.46298046  0.21730439  1.0
  O  O13  1  0.71749030  0.03701954  0.21730439  1.0
  O  O14  1  0.21749030  0.46298046  0.28269561  1.0
  O  O15  1  0.21749030  0.03701954  0.28269561  1.0
  O  O16  1  0.98398643  0.75000000  0.07040945  1.0
  O  O17  1  0.48398643  0.75000000  0.42959055  1.0
  O  O18  1  0.01601357  0.25000000  0.92959055  1.0
  O  O19  1  0.51601357  0.25000000  0.57040945  1.0
