# generated using pymatgen
data_LiAlSiO4
_symmetry_space_group_name_H-M   'P 1'
_cell_length_a   5.35177259
_cell_length_b   5.35177259
_cell_length_c   11.13021968
_cell_angle_alpha   90.00000000
_cell_angle_beta   90.00000000
_cell_angle_gamma   120.00000000
_symmetry_Int_Tables_number   1
_chemical_formula_structural   LiAlSiO4
_chemical_formula_sum   'Li3 Al3 Si3 O12'
_cell_volume   276.07664609
_cell_formula_units_Z   3
loop_
 _symmetry_equiv_pos_site_id
 _symmetry_equiv_pos_as_xyz
  1  'x, y, z'
loop_
 _atom_site_type_symbol
 _atom_site_label
 _atom_site_symmetry_multiplicity
 _atom_site_fract_x
 _atom_site_fract_y
 _atom_site_fract_z
 _atom_site_occupancy
  Li  Li0  1  0.00000000  0.00000000  0.33333333  1.0
  Li  Li1  1  0.00000000  0.00000000  0.00000000  1.0
  Li  Li2  1  0.00000000  0.00000000  0.66666667  1.0
  Al  Al3  1  0.50000000  0.50000000  0.33333333  1.0
  Al  Al4  1  0.50000000  0.00000000  0.00000000  1.0
  Al  Al5  1  0.00000000  0.50000000  0.66666667  1.0
  Si  Si6  1  0.50000000  0.50000000  0.83333333  1.0
  Si  Si7  1  0.50000000  0.00000000  0.50000000  1.0
  Si  Si8  1  0.00000000  0.50000000  0.16666667  1.0
  O  O9  1  0.21387521  0.81508118  0.58434118  1.0
  O  O10  1  0.21387521  0.39879403  0.74899215  1.0
  O  O11  1  0.81508118  0.21387521  0.08232549  1.0
  O  O12  1  0.81508118  0.60120597  0.25100785  1.0
  O  O13  1  0.60120597  0.81508118  0.41565882  1.0
  O  O14  1  0.60120597  0.78612479  0.91767451  1.0
  O  O15  1  0.18491882  0.78612479  0.08232549  1.0
  O  O16  1  0.18491882  0.39879403  0.25100785  1.0
  O  O17  1  0.78612479  0.60120597  0.74899215  1.0
  O  O18  1  0.78612479  0.18491882  0.58434118  1.0
  O  O19  1  0.39879403  0.21387521  0.91767451  1.0
  O  O20  1  0.39879403  0.18491882  0.41565882  1.0
