# generated using pymatgen
data_TaAgS3
_symmetry_space_group_name_H-M   'P 1'
_cell_length_a   7.34999725
_cell_length_b   7.34999725
_cell_length_c   7.77926227
_cell_angle_alpha   90.00000000
_cell_angle_beta   90.00000000
_cell_angle_gamma   153.32660630
_symmetry_Int_Tables_number   1
_chemical_formula_structural   TaAgS3
_chemical_formula_sum   'Ta2 Ag2 S6'
_cell_volume   188.65413816
_cell_formula_units_Z   2
loop_
 _symmetry_equiv_pos_site_id
 _symmetry_equiv_pos_as_xyz
  1  'x, y, z'
loop_
 _atom_site_type_symbol
 _atom_site_label
 _atom_site_symmetry_multiplicity
 _atom_site_fract_x
 _atom_site_fract_y
 _atom_site_fract_z
 _atom_site_occupancy
  Ta  Ta0  1  -0.26298053  0.26298053  0.75000000  1.0
  Ta  Ta1  1  0.26298053  0.73701947  0.25000000  1.0
  Ag  Ag2  1  0.00000000  0.00000000  0.00000000  1.0
  Ag  Ag3  1  0.00000000  0.00000000  0.50000000  1.0
  S  S4  1  0.32577275  0.67422725  0.92976167  1.0
  S  S5  1  0.32577275  0.67422725  0.57023833  1.0
  S  S6  1  -0.32577275  0.32577275  0.42976167  1.0
  S  S7  1  -0.32577275  0.32577275  0.07023833  1.0
  S  S8  1  0.10399460  0.89600540  0.75000000  1.0
  S  S9  1  -0.10399460  0.10399460  0.25000000  1.0
