# generated using pymatgen
data_Co2As
_symmetry_space_group_name_H-M   'P 1'
_cell_length_a   11.89278502
_cell_length_b   11.89278502
_cell_length_c   3.55870122
_cell_angle_alpha   90.00000000
_cell_angle_beta   90.00000000
_cell_angle_gamma   120.00000000
_symmetry_Int_Tables_number   1
_chemical_formula_structural   Co2As
_chemical_formula_sum   'Co24 As12'
_cell_volume   435.90243545
_cell_formula_units_Z   12
loop_
 _symmetry_equiv_pos_site_id
 _symmetry_equiv_pos_as_xyz
  1  'x, y, z'
loop_
 _atom_site_type_symbol
 _atom_site_label
 _atom_site_symmetry_multiplicity
 _atom_site_fract_x
 _atom_site_fract_y
 _atom_site_fract_z
 _atom_site_occupancy
  Co  Co0  1  0.36643681  0.82605718  0.50000000  1.0
  Co  Co1  1  0.82605718  0.36643681  0.50000000  1.0
  Co  Co2  1  0.45962037  0.63356319  0.50000000  1.0
  Co  Co3  1  0.17394282  0.54037963  0.50000000  1.0
  Co  Co4  1  0.63356319  0.45962037  0.50000000  1.0
  Co  Co5  1  0.54037963  0.17394282  0.50000000  1.0
  Co  Co6  1  0.17326083  0.71589116  0.00000000  1.0
  Co  Co7  1  0.71589116  0.17326083  0.00000000  1.0
  Co  Co8  1  0.54263033  0.82673917  0.00000000  1.0
  Co  Co9  1  0.28410884  0.45736967  0.00000000  1.0
  Co  Co10  1  0.82673917  0.54263033  0.00000000  1.0
  Co  Co11  1  0.45736967  0.28410884  0.00000000  1.0
  Co  Co12  1  0.87262974  0.87262974  0.50000000  1.0
  Co  Co13  1  -0.00000000  0.12737026  0.50000000  1.0
  Co  Co14  1  0.12737026  0.00000000  0.50000000  1.0
  Co  Co15  1  0.37392101  0.37392101  0.50000000  1.0
  Co  Co16  1  0.00000000  0.62607899  0.50000000  1.0
  Co  Co17  1  0.62607899  0.00000000  0.50000000  1.0
  Co  Co18  1  0.69112125  0.69112125  0.00000000  1.0
  Co  Co19  1  0.00000000  0.30887875  0.00000000  1.0
  Co  Co20  1  0.30887875  0.00000000  0.00000000  1.0
  Co  Co21  1  0.20199491  0.20199491  0.00000000  1.0
  Co  Co22  1  0.00000000  0.79800509  0.00000000  1.0
  Co  Co23  1  0.79800509  0.00000000  0.00000000  1.0
  As  As24  1  0.17412796  0.83963499  0.50000000  1.0
  As  As25  1  0.83963499  0.17412796  0.50000000  1.0
  As  As26  1  0.66550703  0.82587204  0.50000000  1.0
  As  As27  1  0.16036501  0.33449297  0.50000000  1.0
  As  As28  1  0.82587204  0.66550703  0.50000000  1.0
  As  As29  1  0.33449297  0.16036501  0.50000000  1.0
  As  As30  1  0.50108678  0.50108678  0.00000000  1.0
  As  As31  1  0.00000000  0.49891322  0.00000000  1.0
  As  As32  1  0.49891322  0.00000000  0.00000000  1.0
  As  As33  1  0.33333333  0.66666667  0.00000000  1.0
  As  As34  1  0.66666667  0.33333333  0.00000000  1.0
  As  As35  1  0.00000000  0.00000000  0.00000000  1.0
