# generated using pymatgen
data_NaCrO2
_symmetry_space_group_name_H-M   'P 1'
_cell_length_a   5.60978368
_cell_length_b   5.60978368
_cell_length_c   5.60978368
_cell_angle_alpha   31.27856715
_cell_angle_beta   31.27856715
_cell_angle_gamma   31.27856715
_symmetry_Int_Tables_number   1
_chemical_formula_structural   NaCrO2
_chemical_formula_sum   'Na1 Cr1 O2'
_cell_volume   42.23506212
_cell_formula_units_Z   1
loop_
 _symmetry_equiv_pos_site_id
 _symmetry_equiv_pos_as_xyz
  1  'x, y, z'
loop_
 _atom_site_type_symbol
 _atom_site_label
 _atom_site_symmetry_multiplicity
 _atom_site_fract_x
 _atom_site_fract_y
 _atom_site_fract_z
 _atom_site_occupancy
  Na  Na0  1  0.00000000  0.00000000  0.00000000  1.0
  Cr  Cr1  1  1.50000000  0.50000000  0.50000000  1.0
  O  O2  1  0.76866439  0.76866439  0.76866439  1.0
  O  O3  1  1.23133561  1.23133561  0.23133561  1.0
