# generated using pymatgen
data_La3Zn3Si2SbO14
_symmetry_space_group_name_H-M   'P 1'
_cell_length_a   8.37366679
_cell_length_b   8.37366679
_cell_length_c   5.20674033
_cell_angle_alpha   90.00000000
_cell_angle_beta   90.00000000
_cell_angle_gamma   120.00000000
_symmetry_Int_Tables_number   1
_chemical_formula_structural   La3Zn3Si2SbO14
_chemical_formula_sum   'La3 Zn3 Si2 Sb1 O14'
_cell_volume   316.17527235
_cell_formula_units_Z   1
loop_
 _symmetry_equiv_pos_site_id
 _symmetry_equiv_pos_as_xyz
  1  'x, y, z'
loop_
 _atom_site_type_symbol
 _atom_site_label
 _atom_site_symmetry_multiplicity
 _atom_site_fract_x
 _atom_site_fract_y
 _atom_site_fract_z
 _atom_site_occupancy
  La  La0  1  0.42229666  0.42229666  0.00000000  1.0
  La  La1  1  0.00000000  0.57770334  0.00000000  1.0
  La  La2  1  0.57770334  0.00000000  0.00000000  1.0
  Zn  Zn3  1  0.75500931  0.75500931  0.50000000  1.0
  Zn  Zn4  1  -0.00000000  0.24499069  0.50000000  1.0
  Zn  Zn5  1  0.24499069  0.00000000  0.50000000  1.0
  Si  Si6  1  0.33333333  0.66666667  0.55919232  1.0
  Si  Si7  1  0.66666667  0.33333333  0.44080768  1.0
  Sb  Sb8  1  0.00000000  0.00000000  0.00000000  1.0
  O  O9  1  0.08748846  0.85945678  0.21837424  1.0
  O  O10  1  0.85945678  0.08748846  0.78162576  1.0
  O  O11  1  0.77196832  0.91251154  0.21837424  1.0
  O  O12  1  0.14054322  0.22803168  0.21837424  1.0
  O  O13  1  0.91251154  0.77196832  0.78162576  1.0
  O  O14  1  0.22803168  0.14054322  0.78162576  1.0
  O  O15  1  0.67564927  0.51698780  0.30665774  1.0
  O  O16  1  0.51698780  0.67564927  0.69334226  1.0
  O  O17  1  0.84133853  0.32435073  0.30665774  1.0
  O  O18  1  0.48301220  0.15866147  0.30665774  1.0
  O  O19  1  0.32435073  0.84133853  0.69334226  1.0
  O  O20  1  0.15866147  0.48301220  0.69334226  1.0
  O  O21  1  0.33333333  0.66666667  0.24433692  1.0
  O  O22  1  0.66666667  0.33333333  0.75566308  1.0
