# generated using pymatgen
data_Cr(MoS2)2
_symmetry_space_group_name_H-M   'P 1'
_cell_length_a   6.83231202
_cell_length_b   6.83231202
_cell_length_c   12.95852729
_cell_angle_alpha   69.12686260
_cell_angle_beta   110.87313740
_cell_angle_gamma   122.56104720
_symmetry_Int_Tables_number   1
_chemical_formula_structural   Cr(MoS2)2
_chemical_formula_sum   'Cr4 Mo8 S16'
_cell_volume   465.85630402
_cell_formula_units_Z   4
loop_
 _symmetry_equiv_pos_site_id
 _symmetry_equiv_pos_as_xyz
  1  'x, y, z'
loop_
 _atom_site_type_symbol
 _atom_site_label
 _atom_site_symmetry_multiplicity
 _atom_site_fract_x
 _atom_site_fract_y
 _atom_site_fract_z
 _atom_site_occupancy
  Cr  Cr0  1  1.85959850  -0.11366165  0.13654370  1.0
  Cr  Cr1  1  1.11366165  -0.85959850  0.63654370  1.0
  Cr  Cr2  1  1.35819814  -0.61518453  0.13652662  1.0
  Cr  Cr3  1  1.61518453  -0.35819814  0.63652662  1.0
  Mo  Mo4  1  0.68618087  0.01804863  0.88006883  1.0
  Mo  Mo5  1  0.98195137  -0.68618087  0.38006883  1.0
  Mo  Mo6  1  1.42976085  -0.22360225  0.37905056  1.0
  Mo  Mo7  1  1.22360225  0.57023915  0.87905056  1.0
  Mo  Mo8  1  0.99104385  0.71254300  0.39298747  1.0
  Mo  Mo9  1  0.28745700  0.00895615  0.89298747  1.0
  Mo  Mo10  1  0.54321348  0.24994682  0.39401369  1.0
  Mo  Mo11  1  0.75005318  0.45678652  0.89401369  1.0
  S  S12  1  1.85982381  -0.11822375  0.49204471  1.0
  S  S13  1  1.11822375  0.14017619  0.99204471  1.0
  S  S14  1  1.59237706  -0.35665112  0.27432189  1.0
  S  S15  1  1.35665112  -0.59237706  0.77432189  1.0
  S  S16  1  1.64243991  0.10189459  0.03272290  1.0
  S  S17  1  0.89810541  -0.64243991  0.53272290  1.0
  S  S18  1  1.13199262  -0.37589884  0.02275739  1.0
  S  S19  1  0.37589884  -0.13199262  0.52275739  1.0
  S  S20  1  1.07491391  -0.33116343  0.24032486  1.0
  S  S21  1  0.33116343  -0.07491391  0.74032486  1.0
  S  S22  1  1.59709248  0.15834483  0.25030313  1.0
  S  S23  1  0.84165517  0.40290752  0.75030313  1.0
  S  S24  1  0.38065230  0.38306027  0.49874382  1.0
  S  S25  1  0.61693973  0.61934770  -0.00125618  1.0
  S  S26  1  1.11324713  -0.85531767  0.28099042  1.0
  S  S27  1  1.85531767  -0.11324713  0.78099042  1.0
