# generated using pymatgen
data_LuZnRh
_symmetry_space_group_name_H-M   'P 1'
_cell_length_a   6.84063708
_cell_length_b   3.99691261
_cell_length_c   8.02437896
_cell_angle_alpha   90.00000000
_cell_angle_beta   90.00000000
_cell_angle_gamma   90.00000000
_symmetry_Int_Tables_number   1
_chemical_formula_structural   LuZnRh
_chemical_formula_sum   'Lu4 Zn4 Rh4'
_cell_volume   219.39798427
_cell_formula_units_Z   4
loop_
 _symmetry_equiv_pos_site_id
 _symmetry_equiv_pos_as_xyz
  1  'x, y, z'
loop_
 _atom_site_type_symbol
 _atom_site_label
 _atom_site_symmetry_multiplicity
 _atom_site_fract_x
 _atom_site_fract_y
 _atom_site_fract_z
 _atom_site_occupancy
  Lu  Lu0  1  0.96091257  0.75000000  0.68119699  1.0
  Lu  Lu1  1  0.46091257  0.75000000  0.81880301  1.0
  Lu  Lu2  1  0.03908743  0.25000000  0.31880301  1.0
  Lu  Lu3  1  0.53908743  0.25000000  0.18119699  1.0
  Zn  Zn4  1  0.86360690  0.75000000  0.06319544  1.0
  Zn  Zn5  1  0.36360690  0.75000000  0.43680456  1.0
  Zn  Zn6  1  0.13639310  0.25000000  0.93680456  1.0
  Zn  Zn7  1  0.63639310  0.25000000  0.56319544  1.0
  Rh  Rh8  1  0.74576114  0.75000000  0.37475124  1.0
  Rh  Rh9  1  0.24576114  0.75000000  0.12524876  1.0
  Rh  Rh10  1  0.25423886  0.25000000  0.62524876  1.0
  Rh  Rh11  1  0.75423886  0.25000000  0.87475124  1.0
