# generated using pymatgen
data_KAs2HO6
_symmetry_space_group_name_H-M   'P 1'
_cell_length_a   6.22920940
_cell_length_b   9.86474550
_cell_length_c   9.39300483
_cell_angle_alpha   90.00000000
_cell_angle_beta   95.37408208
_cell_angle_gamma   90.00000000
_symmetry_Int_Tables_number   1
_chemical_formula_structural   KAs2HO6
_chemical_formula_sum   'K4 As8 H4 O24'
_cell_volume   574.65896071
_cell_formula_units_Z   4
loop_
 _symmetry_equiv_pos_site_id
 _symmetry_equiv_pos_as_xyz
  1  'x, y, z'
loop_
 _atom_site_type_symbol
 _atom_site_label
 _atom_site_symmetry_multiplicity
 _atom_site_fract_x
 _atom_site_fract_y
 _atom_site_fract_z
 _atom_site_occupancy
  K  K0  1  0.39488253  0.19183091  0.01661005  1.0
  K  K1  1  0.39488253  0.30816909  0.51661005  1.0
  K  K2  1  0.60511747  0.69183091  0.48338995  1.0
  K  K3  1  0.60511747  0.80816909  0.98338995  1.0
  As  As4  1  0.88554698  0.09886285  0.41695995  1.0
  As  As5  1  0.88554698  0.40113715  0.91695995  1.0
  As  As6  1  0.11445302  0.59886285  0.08304005  1.0
  As  As7  1  0.11445302  0.90113715  0.58304005  1.0
  As  As8  1  0.84172698  0.39086422  0.25457105  1.0
  As  As9  1  0.84172698  0.10913578  0.75457105  1.0
  As  As10  1  0.15827302  0.89086422  0.24542895  1.0
  As  As11  1  0.15827302  0.60913578  0.74542895  1.0
  H  H12  1  0.54912954  0.04713536  0.28705146  1.0
  H  H13  1  0.54912954  0.45286464  0.78705146  1.0
  H  H14  1  0.45087046  0.54713536  0.21294854  1.0
  H  H15  1  0.45087046  0.95286464  0.71294854  1.0
  O  O16  1  0.98963668  0.27058333  0.36546649  1.0
  O  O17  1  0.98963668  0.22941667  0.86546649  1.0
  O  O18  1  0.01036332  0.77058333  0.13453351  1.0
  O  O19  1  0.01036332  0.72941667  0.63453351  1.0
  O  O20  1  0.95978535  0.01905174  0.24049005  1.0
  O  O21  1  0.95978535  0.48094826  0.74049005  1.0
  O  O22  1  0.04021465  0.51905174  0.25950995  1.0
  O  O23  1  0.04021465  0.98094826  0.75950995  1.0
  O  O24  1  0.83467112  0.92841364  0.49516841  1.0
  O  O25  1  0.83467112  0.57158636  0.99516841  1.0
  O  O26  1  0.16532888  0.42841364  0.00483159  1.0
  O  O27  1  0.16532888  0.07158636  0.50483159  1.0
  O  O28  1  0.79522948  0.31223967  0.08622884  1.0
  O  O29  1  0.79522948  0.18776033  0.58622884  1.0
  O  O30  1  0.20477052  0.81223967  0.41377116  1.0
  O  O31  1  0.20477052  0.68776033  0.91377116  1.0
  O  O32  1  0.61688052  0.13112180  0.33255644  1.0
  O  O33  1  0.61688052  0.36887820  0.83255644  1.0
  O  O34  1  0.38311948  0.63112180  0.16744356  1.0
  O  O35  1  0.38311948  0.86887820  0.66744356  1.0
  O  O36  1  0.61357309  0.44672632  0.32081109  1.0
  O  O37  1  0.61357309  0.05327368  0.82081109  1.0
  O  O38  1  0.38642691  0.94672632  0.17918891  1.0
  O  O39  1  0.38642691  0.55327368  0.67918891  1.0
