# generated using pymatgen
data_Cs2K2TeO5
_symmetry_space_group_name_H-M   'P 1'
_cell_length_a   9.39075452
_cell_length_b   9.39075452
_cell_length_c   9.73255292
_cell_angle_alpha   90.00000000
_cell_angle_beta   90.00000000
_cell_angle_gamma   90.00000000
_symmetry_Int_Tables_number   1
_chemical_formula_structural   Cs2K2TeO5
_chemical_formula_sum   'Cs8 K8 Te4 O20'
_cell_volume   858.27754481
_cell_formula_units_Z   4
loop_
 _symmetry_equiv_pos_site_id
 _symmetry_equiv_pos_as_xyz
  1  'x, y, z'
loop_
 _atom_site_type_symbol
 _atom_site_label
 _atom_site_symmetry_multiplicity
 _atom_site_fract_x
 _atom_site_fract_y
 _atom_site_fract_z
 _atom_site_occupancy
  Cs  Cs0  1  0.16273097  0.16273097  0.50000000  1.0
  Cs  Cs1  1  0.66273097  0.33726903  0.00000000  1.0
  Cs  Cs2  1  0.83726903  0.83726903  0.50000000  1.0
  Cs  Cs3  1  0.33726903  0.66273097  0.00000000  1.0
  Cs  Cs4  1  0.50000000  0.00000000  0.25000000  1.0
  Cs  Cs5  1  0.50000000  0.00000000  0.75000000  1.0
  Cs  Cs6  1  0.00000000  0.50000000  0.75000000  1.0
  Cs  Cs7  1  0.00000000  0.50000000  0.25000000  1.0
  K  K8  1  0.12564983  0.87435017  0.21458666  1.0
  K  K9  1  0.12564983  0.87435017  0.78541334  1.0
  K  K10  1  0.62564983  0.62564983  0.71458666  1.0
  K  K11  1  0.62564983  0.62564983  0.28541334  1.0
  K  K12  1  0.87435017  0.12564983  0.21458666  1.0
  K  K13  1  0.87435017  0.12564983  0.78541334  1.0
  K  K14  1  0.37435017  0.37435017  0.71458666  1.0
  K  K15  1  0.37435017  0.37435017  0.28541334  1.0
  Te  Te16  1  0.30879945  0.69120055  0.50000000  1.0
  Te  Te17  1  0.80879945  0.80879945  -0.00000000  1.0
  Te  Te18  1  0.69120055  0.30879945  0.50000000  1.0
  Te  Te19  1  0.19120055  0.19120055  -0.00000000  1.0
  O  O20  1  0.32270610  0.67729390  0.29491485  1.0
  O  O21  1  0.32270610  0.67729390  0.70508515  1.0
  O  O22  1  0.82270610  0.82270610  0.79491485  1.0
  O  O23  1  0.82270610  0.82270610  0.20508515  1.0
  O  O24  1  0.67729390  0.32270610  0.29491485  1.0
  O  O25  1  0.67729390  0.32270610  0.70508515  1.0
  O  O26  1  0.17729390  0.17729390  0.79491485  1.0
  O  O27  1  0.17729390  0.17729390  0.20508515  1.0
  O  O28  1  0.50229955  0.77171284  0.50000000  1.0
  O  O29  1  1.00229955  0.72828716  -0.00000000  1.0
  O  O30  1  0.22828716  0.49770045  0.50000000  1.0
  O  O31  1  0.72828716  1.00229955  0.00000000  1.0
  O  O32  1  0.49770045  0.22828716  0.50000000  1.0
  O  O33  1  -0.00229955  0.27171284  -0.00000000  1.0
  O  O34  1  0.77171284  0.50229955  0.50000000  1.0
  O  O35  1  0.27171284  -0.00229955  -0.00000000  1.0
  O  O36  1  0.16211583  0.83788417  0.50000000  1.0
  O  O37  1  0.66211583  0.66211583  0.00000000  1.0
  O  O38  1  0.83788417  0.16211583  0.50000000  1.0
  O  O39  1  0.33788417  0.33788417  0.00000000  1.0
