# generated using pymatgen
data_Na(MoSe)3
_symmetry_space_group_name_H-M   'P 1'
_cell_length_a   8.83921112
_cell_length_b   8.83921112
_cell_length_c   4.50616932
_cell_angle_alpha   90.00000000
_cell_angle_beta   90.00000000
_cell_angle_gamma   120.00000000
_symmetry_Int_Tables_number   1
_chemical_formula_structural   Na(MoSe)3
_chemical_formula_sum   'Na2 Mo6 Se6'
_cell_volume   304.90542572
_cell_formula_units_Z   2
loop_
 _symmetry_equiv_pos_site_id
 _symmetry_equiv_pos_as_xyz
  1  'x, y, z'
loop_
 _atom_site_type_symbol
 _atom_site_label
 _atom_site_symmetry_multiplicity
 _atom_site_fract_x
 _atom_site_fract_y
 _atom_site_fract_z
 _atom_site_occupancy
  Na  Na0  1  0.33333333  0.66666667  0.25000000  1.0
  Na  Na1  1  0.66666667  0.33333333  0.75000000  1.0
  Mo  Mo2  1  0.04461389  0.85315789  0.25000000  1.0
  Mo  Mo3  1  0.85315789  0.80854400  0.75000000  1.0
  Mo  Mo4  1  0.80854400  0.95538611  0.25000000  1.0
  Mo  Mo5  1  0.14684211  0.19145600  0.25000000  1.0
  Mo  Mo6  1  0.95538611  0.14684211  0.75000000  1.0
  Mo  Mo7  1  0.19145600  0.04461389  0.75000000  1.0
  Se  Se8  1  0.70829258  0.62061755  0.25000000  1.0
  Se  Se9  1  0.62061755  0.91232498  0.75000000  1.0
  Se  Se10  1  0.91232498  0.29170742  0.25000000  1.0
  Se  Se11  1  0.37938245  0.08767502  0.25000000  1.0
  Se  Se12  1  0.29170742  0.37938245  0.75000000  1.0
  Se  Se13  1  0.08767502  0.70829258  0.75000000  1.0
