# generated using pymatgen
data_ZnTeMoO6
_symmetry_space_group_name_H-M   'P 1'
_cell_length_a   5.09209936
_cell_length_b   5.36442117
_cell_length_c   9.34513128
_cell_angle_alpha   90.00000000
_cell_angle_beta   90.00000000
_cell_angle_gamma   90.00000000
_symmetry_Int_Tables_number   1
_chemical_formula_structural   ZnTeMoO6
_chemical_formula_sum   'Zn2 Te2 Mo2 O12'
_cell_volume   255.27315365
_cell_formula_units_Z   2
loop_
 _symmetry_equiv_pos_site_id
 _symmetry_equiv_pos_as_xyz
  1  'x, y, z'
loop_
 _atom_site_type_symbol
 _atom_site_label
 _atom_site_symmetry_multiplicity
 _atom_site_fract_x
 _atom_site_fract_y
 _atom_site_fract_z
 _atom_site_occupancy
  Zn  Zn0  1  0.50000000  0.00000000  0.97621344  1.0
  Zn  Zn1  1  0.00000000  0.50000000  0.02378656  1.0
  Te  Te2  1  0.50000000  0.50000000  0.76150358  1.0
  Te  Te3  1  0.00000000  0.00000000  0.23849642  1.0
  Mo  Mo4  1  0.50000000  0.50000000  0.30256377  1.0
  Mo  Mo5  1  0.00000000  0.00000000  0.69743623  1.0
  O  O6  1  0.27477819  0.67967735  0.89951000  1.0
  O  O7  1  0.77477819  0.82032265  0.10049000  1.0
  O  O8  1  0.72522181  0.32032265  0.89951000  1.0
  O  O9  1  0.22522181  0.17967735  0.10049000  1.0
  O  O10  1  0.26034465  0.17619168  0.79571504  1.0
  O  O11  1  0.76034465  0.32380832  0.20428496  1.0
  O  O12  1  0.73965535  0.82380832  0.79571504  1.0
  O  O13  1  0.23965535  0.67619168  0.20428496  1.0
  O  O14  1  0.15596041  0.78878819  0.58762757  1.0
  O  O15  1  0.65596041  0.71121181  0.41237243  1.0
  O  O16  1  0.84403959  0.21121181  0.58762757  1.0
  O  O17  1  0.34403959  0.28878819  0.41237243  1.0
