# generated using pymatgen
data_LaNb2ClO6
_symmetry_space_group_name_H-M   'P 1'
_cell_length_a   9.92578686
_cell_length_b   7.36553357
_cell_length_c   8.42188518
_cell_angle_alpha   90.00000000
_cell_angle_beta   90.00000000
_cell_angle_gamma   90.00000000
_symmetry_Int_Tables_number   1
_chemical_formula_structural   LaNb2ClO6
_chemical_formula_sum   'La4 Nb8 Cl4 O24'
_cell_volume   615.71321437
_cell_formula_units_Z   4
loop_
 _symmetry_equiv_pos_site_id
 _symmetry_equiv_pos_as_xyz
  1  'x, y, z'
loop_
 _atom_site_type_symbol
 _atom_site_label
 _atom_site_symmetry_multiplicity
 _atom_site_fract_x
 _atom_site_fract_y
 _atom_site_fract_z
 _atom_site_occupancy
  La  La0  1  0.17751191  0.75000000  0.30636095  1.0
  La  La1  1  0.67751191  0.75000000  0.19363905  1.0
  La  La2  1  0.82248809  0.25000000  0.69363905  1.0
  La  La3  1  0.32248809  0.25000000  0.80636095  1.0
  Nb  Nb4  1  0.26099677  0.75000000  0.76405606  1.0
  Nb  Nb5  1  0.76099677  0.75000000  0.73594394  1.0
  Nb  Nb6  1  0.73900323  0.25000000  0.23594394  1.0
  Nb  Nb7  1  0.23900323  0.25000000  0.26405606  1.0
  Nb  Nb8  1  0.50000000  0.00000000  0.50000000  1.0
  Nb  Nb9  1  0.50000000  0.50000000  0.50000000  1.0
  Nb  Nb10  1  0.00000000  0.00000000  0.00000000  1.0
  Nb  Nb11  1  0.00000000  0.50000000  0.00000000  1.0
  Cl  Cl12  1  0.39333569  0.75000000  0.07001205  1.0
  Cl  Cl13  1  0.89333569  0.75000000  0.42998795  1.0
  Cl  Cl14  1  0.60666431  0.25000000  0.92998795  1.0
  Cl  Cl15  1  0.10666431  0.25000000  0.57001205  1.0
  O  O16  1  0.39296902  0.94417954  0.69583723  1.0
  O  O17  1  0.39296902  0.55582046  0.69583723  1.0
  O  O18  1  0.89296902  0.94417954  0.80416277  1.0
  O  O19  1  0.89296902  0.55582046  0.80416277  1.0
  O  O20  1  0.60703098  0.44417954  0.30416277  1.0
  O  O21  1  0.60703098  0.05582046  0.30416277  1.0
  O  O22  1  0.10703098  0.44417954  0.19583723  1.0
  O  O23  1  0.10703098  0.05582046  0.19583723  1.0
  O  O24  1  0.17060512  0.94990060  0.88148592  1.0
  O  O25  1  0.17060512  0.55009940  0.88148592  1.0
  O  O26  1  0.67060512  0.94990060  0.61851408  1.0
  O  O27  1  0.67060512  0.55009940  0.61851408  1.0
  O  O28  1  0.82939488  0.44990060  0.11851408  1.0
  O  O29  1  0.82939488  0.05009940  0.11851408  1.0
  O  O30  1  0.32939488  0.44990060  0.38148592  1.0
  O  O31  1  0.32939488  0.05009940  0.38148592  1.0
  O  O32  1  0.16899324  0.75000000  0.58204524  1.0
  O  O33  1  0.66899324  0.75000000  0.91795476  1.0
  O  O34  1  0.83100676  0.25000000  0.41795476  1.0
  O  O35  1  0.33100676  0.25000000  0.08204524  1.0
  O  O36  1  0.99731601  0.75000000  0.07933619  1.0
  O  O37  1  0.49731601  0.75000000  0.42066381  1.0
  O  O38  1  0.00268399  0.25000000  0.92066381  1.0
  O  O39  1  0.50268399  0.25000000  0.57933619  1.0
