# generated using pymatgen
data_MgCu2(SO4)2
_symmetry_space_group_name_H-M   'P 1'
_cell_length_a   8.01279389
_cell_length_b   5.94275439
_cell_length_c   10.58166378
_cell_angle_alpha   90.00000000
_cell_angle_beta   141.57163397
_cell_angle_gamma   90.00000000
_symmetry_Int_Tables_number   1
_chemical_formula_structural   MgCu2(SO4)2
_chemical_formula_sum   'Mg2 Cu4 S4 O16'
_cell_volume   313.17838963
_cell_formula_units_Z   2
loop_
 _symmetry_equiv_pos_site_id
 _symmetry_equiv_pos_as_xyz
  1  'x, y, z'
loop_
 _atom_site_type_symbol
 _atom_site_label
 _atom_site_symmetry_multiplicity
 _atom_site_fract_x
 _atom_site_fract_y
 _atom_site_fract_z
 _atom_site_occupancy
  Cu  Cu0  1  0.62808769  0.30968232  -0.09498567  1.0
  Cu  Cu1  1  0.62808769  0.19031768  0.40501433  1.0
  Cu  Cu2  1  0.37191231  0.80968232  0.59498567  1.0
  Cu  Cu3  1  0.37191231  0.69031768  1.09498567  1.0
  Mg  Mg4  1  -0.00000000  0.50000000  0.50000000  1.0
  Mg  Mg5  1  0.00000000  -0.00000000  0.00000000  1.0
  O  O6  1  0.97256980  0.12804305  0.16744698  1.0
  O  O7  1  0.97256980  0.37195695  0.66744698  1.0
  O  O8  1  0.02743020  0.62804305  0.33255302  1.0
  O  O9  1  0.02743020  0.87195695  0.83255302  1.0
  O  O10  1  1.05213544  0.20109801  0.43704649  1.0
  O  O11  1  1.05213544  0.29890199  0.93704650  1.0
  O  O12  1  -0.05213544  0.70109801  0.06295350  1.0
  O  O13  1  -0.05213544  0.79890199  0.56295351  1.0
  O  O14  1  0.40594143  -0.03713670  0.21306071  1.0
  O  O15  1  0.40594143  0.53713670  0.71306071  1.0
  O  O16  1  0.59405857  0.46286330  0.28693929  1.0
  O  O17  1  0.59405857  1.03713670  0.78693929  1.0
  O  O18  1  0.41080404  0.28109443  0.48146754  1.0
  O  O19  1  0.41080404  0.21890557  0.98146754  1.0
  O  O20  1  0.58919596  0.78109443  0.01853246  1.0
  O  O21  1  0.58919596  0.71890557  0.51853246  1.0
  S  S22  1  0.80864939  0.64131491  0.09947600  1.0
  S  S23  1  0.80864939  0.85868509  0.59947600  1.0
  S  S24  1  0.19135061  0.14131491  0.40052400  1.0
  S  S25  1  0.19135061  0.35868509  0.90052400  1.0
