# generated using pymatgen
data_SrH9ClO5
_symmetry_space_group_name_H-M   'P 1'
_cell_length_a   7.73988081
_cell_length_b   7.43607955
_cell_length_c   5.98318566
_cell_angle_alpha   89.66877948
_cell_angle_beta   107.91582157
_cell_angle_gamma   90.93977016
_symmetry_Int_Tables_number   1
_chemical_formula_structural   SrH9ClO5
_chemical_formula_sum   'Sr2 H18 Cl2 O10'
_cell_volume   327.61618915
_cell_formula_units_Z   2
loop_
 _symmetry_equiv_pos_site_id
 _symmetry_equiv_pos_as_xyz
  1  'x, y, z'
loop_
 _atom_site_type_symbol
 _atom_site_label
 _atom_site_symmetry_multiplicity
 _atom_site_fract_x
 _atom_site_fract_y
 _atom_site_fract_z
 _atom_site_occupancy
  Sr  Sr0  1  0.21480566  0.44909707  -0.67355460  1.0
  Sr  Sr1  1  0.78519434  0.55090293  -0.32644540  1.0
  H  H2  1  0.89151785  0.20872421  -0.03129874  1.0
  H  H3  1  0.10848215  0.79127579  -0.96870126  1.0
  H  H4  1  0.32628202  0.17437763  -0.93672274  1.0
  H  H5  1  0.67371798  0.82562237  -0.06327726  1.0
  H  H6  1  0.81486980  0.31906582  -0.85808440  1.0
  H  H7  1  0.18513020  0.68093418  -0.14191560  1.0
  H  H8  1  0.55306015  0.68563239  -0.82010917  1.0
  H  H9  1  0.44693985  0.31436761  -0.17989083  1.0
  H  H10  1  0.55179521  0.31121256  -0.79957842  1.0
  H  H11  1  0.44820479  0.68878744  -0.20042158  1.0
  H  H12  1  0.70272142  0.19722776  -0.60641201  1.0
  H  H13  1  0.29727858  0.80277224  -0.39358799  1.0
  H  H14  1  0.01368758  0.21043906  -0.37268170  1.0
  H  H15  1  0.98631242  0.78956094  -0.62731830  1.0
  H  H16  1  0.54119478  0.20917282  -0.33923127  1.0
  H  H17  1  0.45880522  0.79082718  -0.66076873  1.0
  H  H18  1  0.17431779  0.32253775  -0.19972126  1.0
  H  H19  1  0.82568221  0.67746225  -0.80027874  1.0
  Cl  Cl20  1  0.21462210  -0.00590929  -0.67449379  1.0
  Cl  Cl21  1  0.78537790  1.00590929  -0.32550621  1.0
  O  O22  1  0.35046189  0.29983581  -0.96928630  1.0
  O  O23  1  0.64953811  0.70016419  -0.03071370  1.0
  O  O24  1  0.90143771  0.32698531  -0.95435035  1.0
  O  O25  1  0.09856229  0.67301469  -0.04564965  1.0
  O  O26  1  0.68377225  0.31406022  -0.68999172  1.0
  O  O27  1  0.31622775  0.68593978  -0.31000828  1.0
  O  O28  1  0.50448397  0.67154799  -0.68072261  1.0
  O  O29  1  0.49551603  0.32845201  -0.31927739  1.0
  O  O30  1  0.06776505  0.33191521  -0.35076383  1.0
  O  O31  1  0.93223495  0.66808479  -0.64923617  1.0
