# generated using pymatgen
data_SNCl
_symmetry_space_group_name_H-M   'P 1'
_cell_length_a   6.09598168
_cell_length_b   11.75402592
_cell_length_c   6.49308246
_cell_angle_alpha   90.00000000
_cell_angle_beta   98.11748844
_cell_angle_gamma   90.00000000
_symmetry_Int_Tables_number   1
_chemical_formula_structural   SNCl
_chemical_formula_sum   'S6 N6 Cl6'
_cell_volume   460.58299710
_cell_formula_units_Z   6
loop_
 _symmetry_equiv_pos_site_id
 _symmetry_equiv_pos_as_xyz
  1  'x, y, z'
loop_
 _atom_site_type_symbol
 _atom_site_label
 _atom_site_symmetry_multiplicity
 _atom_site_fract_x
 _atom_site_fract_y
 _atom_site_fract_z
 _atom_site_occupancy
  S  S0  1  0.97840443  0.87194618  0.77689888  1.0
  S  S1  1  0.97840443  0.62805382  0.77689888  1.0
  S  S2  1  0.02159557  0.37194618  0.22310112  1.0
  S  S3  1  0.02159557  0.12805382  0.22310112  1.0
  S  S4  1  0.85395775  0.25000000  0.85364810  1.0
  S  S5  1  0.14604225  0.75000000  0.14635190  1.0
  N  N6  1  0.94406975  0.36471378  0.97480559  1.0
  N  N7  1  0.94406975  0.13528622  0.97480559  1.0
  N  N8  1  0.05593025  0.86471378  0.02519441  1.0
  N  N9  1  0.05593025  0.63528622  0.02519441  1.0
  N  N10  1  0.09024290  0.25000000  0.32669494  1.0
  N  N11  1  0.90975710  0.75000000  0.67330506  1.0
  Cl  Cl12  1  0.72053314  0.41625300  0.35192586  1.0
  Cl  Cl13  1  0.72053314  0.08374700  0.35192586  1.0
  Cl  Cl14  1  0.27946686  0.91625300  0.64807414  1.0
  Cl  Cl15  1  0.27946686  0.58374700  0.64807414  1.0
  Cl  Cl16  1  0.50256992  0.25000000  0.86411440  1.0
  Cl  Cl17  1  0.49743008  0.75000000  0.13588560  1.0
