# generated using pymatgen
data_CsY(MoO4)2
_symmetry_space_group_name_H-M   'P 1'
_cell_length_a   9.84601914
_cell_length_b   5.06300686
_cell_length_c   8.23988350
_cell_angle_alpha   90.00000000
_cell_angle_beta   93.61232900
_cell_angle_gamma   90.00000000
_symmetry_Int_Tables_number   1
_chemical_formula_structural   CsY(MoO4)2
_chemical_formula_sum   'Cs2 Y2 Mo4 O16'
_cell_volume   409.94589821
_cell_formula_units_Z   2
loop_
 _symmetry_equiv_pos_site_id
 _symmetry_equiv_pos_as_xyz
  1  'x, y, z'
loop_
 _atom_site_type_symbol
 _atom_site_label
 _atom_site_symmetry_multiplicity
 _atom_site_fract_x
 _atom_site_fract_y
 _atom_site_fract_z
 _atom_site_occupancy
  Cs  Cs0  1  0.50000000  0.41777957  0.75000000  1.0
  Cs  Cs1  1  0.50000000  0.58222043  0.25000000  1.0
  Y  Y2  1  -0.00000000  0.50169861  0.75000000  1.0
  Y  Y3  1  -0.00000000  0.49830139  0.25000000  1.0
  Mo  Mo4  1  0.80863722  0.97499701  0.48529998  1.0
  Mo  Mo5  1  0.80863722  0.02500299  0.98529998  1.0
  Mo  Mo6  1  0.19136278  0.97499701  0.01470002  1.0
  Mo  Mo7  1  0.19136278  0.02500299  0.51470002  1.0
  O  O8  1  0.93086687  0.74895113  0.99505715  1.0
  O  O9  1  0.93086687  0.25104887  0.49505715  1.0
  O  O10  1  0.06913313  0.74895113  0.50494285  1.0
  O  O11  1  0.06913313  0.25104887  0.00494285  1.0
  O  O12  1  0.82117690  0.75752174  0.31567691  1.0
  O  O13  1  0.82117690  0.24247826  0.81567691  1.0
  O  O14  1  0.17882310  0.75752174  0.18432309  1.0
  O  O15  1  0.17882310  0.24247826  0.68432309  1.0
  O  O16  1  0.82195633  0.76463583  0.65975922  1.0
  O  O17  1  0.82195633  0.23536417  0.15975922  1.0
  O  O18  1  0.17804367  0.76463583  0.84024078  1.0
  O  O19  1  0.17804367  0.23536417  0.34024078  1.0
  O  O20  1  0.64449558  0.89724991  0.97059893  1.0
  O  O21  1  0.64449558  0.10275009  0.47059893  1.0
  O  O22  1  0.35550442  0.89724991  0.52940107  1.0
  O  O23  1  0.35550442  0.10275009  0.02940107  1.0
