# generated using pymatgen
data_Sr2MgSi2O7
_symmetry_space_group_name_H-M   'P 1'
_cell_length_a   8.08911210
_cell_length_b   8.08911210
_cell_length_c   5.22132892
_cell_angle_alpha   90.00000000
_cell_angle_beta   90.00000000
_cell_angle_gamma   90.00000000
_symmetry_Int_Tables_number   1
_chemical_formula_structural   Sr2MgSi2O7
_chemical_formula_sum   'Sr4 Mg2 Si4 O14'
_cell_volume   341.65105092
_cell_formula_units_Z   2
loop_
 _symmetry_equiv_pos_site_id
 _symmetry_equiv_pos_as_xyz
  1  'x, y, z'
loop_
 _atom_site_type_symbol
 _atom_site_label
 _atom_site_symmetry_multiplicity
 _atom_site_fract_x
 _atom_site_fract_y
 _atom_site_fract_z
 _atom_site_occupancy
  Sr  Sr0  1  0.83366422  0.33366422  0.49229103  1.0
  Sr  Sr1  1  0.66633578  0.83366422  0.50770897  1.0
  Sr  Sr2  1  0.16633578  0.66633578  0.49229103  1.0
  Sr  Sr3  1  0.33366422  0.16633578  0.50770897  1.0
  Mg  Mg4  1  0.50000000  0.50000000  0.00000000  1.0
  Mg  Mg5  1  0.00000000  0.00000000  0.00000000  1.0
  Si  Si6  1  0.36116413  0.86116413  0.05675978  1.0
  Si  Si7  1  0.13883587  0.36116413  0.94324022  1.0
  Si  Si8  1  0.63883587  0.13883587  0.05675978  1.0
  Si  Si9  1  0.86116413  0.63883587  0.94324022  1.0
  O  O10  1  0.00000000  0.50000000  0.83406005  1.0
  O  O11  1  0.50000000  0.00000000  0.16593995  1.0
  O  O12  1  0.31048700  0.42029636  0.80105707  1.0
  O  O13  1  0.18951300  0.92029636  0.19894293  1.0
  O  O14  1  0.57970364  0.31048700  0.19894293  1.0
  O  O15  1  0.92029636  0.81048700  0.80105707  1.0
  O  O16  1  0.68951300  0.57970364  0.80105707  1.0
  O  O17  1  0.81048700  0.07970364  0.19894293  1.0
  O  O18  1  0.42029636  0.68951300  0.19894293  1.0
  O  O19  1  0.07970364  0.18951300  0.80105707  1.0
  O  O20  1  0.35986797  0.85986797  0.74645238  1.0
  O  O21  1  0.14013203  0.35986797  0.25354762  1.0
  O  O22  1  0.64013203  0.14013203  0.74645238  1.0
  O  O23  1  0.85986797  0.64013203  0.25354762  1.0
