# generated using pymatgen
data_PH5CN2O3
_symmetry_space_group_name_H-M   'P 1'
_cell_length_a   4.85536185
_cell_length_b   9.18002550
_cell_length_c   5.90438664
_cell_angle_alpha   94.35768909
_cell_angle_beta   94.12556479
_cell_angle_gamma   81.05475221
_symmetry_Int_Tables_number   1
_chemical_formula_structural   PH5CN2O3
_chemical_formula_sum   'P2 H10 C2 N4 O6'
_cell_volume   258.73651727
_cell_formula_units_Z   2
loop_
 _symmetry_equiv_pos_site_id
 _symmetry_equiv_pos_as_xyz
  1  'x, y, z'
loop_
 _atom_site_type_symbol
 _atom_site_label
 _atom_site_symmetry_multiplicity
 _atom_site_fract_x
 _atom_site_fract_y
 _atom_site_fract_z
 _atom_site_occupancy
  P  P0  1  -0.84556967  -0.74983380  -0.88623166  1.0
  P  P1  1  -0.15443033  -0.25016620  -0.11376834  1.0
  H  H2  1  -0.89028492  -0.32233280  -0.51811741  1.0
  H  H3  1  -0.10971508  -0.67766720  -0.48188259  1.0
  H  H4  1  -0.81803459  -0.41638005  -0.78307969  1.0
  H  H5  1  -0.18196541  -0.58361995  -0.21692031  1.0
  H  H6  1  -0.75970188  -0.89674072  -0.48625985  1.0
  H  H7  1  -0.24029812  -0.10325928  -0.51374015  1.0
  H  H8  1  -0.61665736  -0.96285959  -0.22426402  1.0
  H  H9  1  -0.38334264  -0.03714041  -0.77573598  1.0
  H  H10  1  -0.44015704  -0.65557452  -0.84588589  1.0
  H  H11  1  -0.55984296  -0.34442548  -0.15411411  1.0
  C  C12  1  -0.90472638  -0.77465398  -0.20116926  1.0
  C  C13  1  -0.09527362  -0.22534602  -0.79883074  1.0
  N  N14  1  -0.91414914  -0.32466275  -0.69412949  1.0
  N  N15  1  -0.08585086  -0.67533725  -0.30587051  1.0
  N  N16  1  -0.75666953  -0.88718686  -0.31033838  1.0
  N  N17  1  -0.24333047  -0.11281314  -0.68966162  1.0
  O  O18  1  -0.69938997  -0.89369976  -0.79888111  1.0
  O  O19  1  -0.30061003  -0.10630024  -0.20111889  1.0
  O  O20  1  -0.65213378  -0.62279668  -0.86177063  1.0
  O  O21  1  -0.34786622  -0.37720332  -0.13822937  1.0
  O  O22  1  -0.12375564  -0.68224187  -0.79274340  1.0
  O  O23  1  -0.87624436  -0.31775813  -0.20725660  1.0
