# generated using pymatgen
data_NaCu2H2(SeO5)2
_symmetry_space_group_name_H-M   'P 1'
_cell_length_a   5.78633968
_cell_length_b   5.78633968
_cell_length_c   7.97486922
_cell_angle_alpha   62.77134629
_cell_angle_beta   117.22865371
_cell_angle_gamma   112.62251611
_symmetry_Int_Tables_number   1
_chemical_formula_structural   NaCu2H2(SeO5)2
_chemical_formula_sum   'Na1 Cu2 H2 Se2 O10'
_cell_volume   205.85950468
_cell_formula_units_Z   1
loop_
 _symmetry_equiv_pos_site_id
 _symmetry_equiv_pos_as_xyz
  1  'x, y, z'
loop_
 _atom_site_type_symbol
 _atom_site_label
 _atom_site_symmetry_multiplicity
 _atom_site_fract_x
 _atom_site_fract_y
 _atom_site_fract_z
 _atom_site_occupancy
  Cu  Cu0  1  1.00000000  0.50000000  -0.00000000  1.0
  Cu  Cu1  1  1.50000000  0.00000000  0.00000000  1.0
  Na  Na2  1  0.50000000  -0.50000000  0.50000000  1.0
  O  O3  1  0.81645987  -0.81645987  0.81014499  1.0
  O  O4  1  1.18354013  -0.18354013  0.18985501  1.0
  O  O5  1  0.77489261  0.22510739  0.44836123  1.0
  O  O6  1  0.22510739  -0.22510739  0.55163877  1.0
  O  O7  1  1.25204428  0.18120531  0.74914547  1.0
  O  O8  1  0.81879469  0.74795572  0.74914547  1.0
  O  O9  1  1.74795572  -0.18120531  0.25085453  1.0
  O  O10  1  1.18120531  0.25204428  0.25085453  1.0
  O  O11  1  0.32616835  -0.32616835  0.95206517  1.0
  O  O12  1  0.67383165  0.32616835  0.04793483  1.0
  H  H13  1  0.28635708  -0.28635708  0.80758612  1.0
  H  H14  1  0.71364292  0.28635708  0.19241388  1.0
  Se  Se15  1  0.91374144  0.08625856  0.69096894  1.0
  Se  Se16  1  0.08625856  -0.08625856  0.30903106  1.0
