# generated using pymatgen
data_Lu(Al10V)2
_symmetry_space_group_name_H-M   'P 1'
_cell_length_a   10.24022763
_cell_length_b   10.24022763
_cell_length_c   10.24022763
_cell_angle_alpha   60.00000000
_cell_angle_beta   60.00000000
_cell_angle_gamma   60.00000000
_symmetry_Int_Tables_number   1
_chemical_formula_structural   Lu(Al10V)2
_chemical_formula_sum   'Lu2 Al40 V4'
_cell_volume   759.30075849
_cell_formula_units_Z   2
loop_
 _symmetry_equiv_pos_site_id
 _symmetry_equiv_pos_as_xyz
  1  'x, y, z'
loop_
 _atom_site_type_symbol
 _atom_site_label
 _atom_site_symmetry_multiplicity
 _atom_site_fract_x
 _atom_site_fract_y
 _atom_site_fract_z
 _atom_site_occupancy
  Lu  Lu0  1  0.50000000  -0.50000000  0.50000000  1.0
  Lu  Lu1  1  0.75000000  0.75000000  0.75000000  1.0
  Al  Al2  1  1.12500000  0.62500000  0.62500000  1.0
  Al  Al3  1  0.62500000  1.12500000  -0.37500000  1.0
  Al  Al4  1  -0.37500000  0.62500000  1.12500000  1.0
  Al  Al5  1  -0.37500000  0.62500000  0.62500000  1.0
  Al  Al6  1  0.86110384  0.86110384  -0.86110384  1.0
  Al  Al7  1  0.13889616  1.13889616  -0.13889616  1.0
  Al  Al8  1  0.86110384  -0.86110384  0.86110384  1.0
  Al  Al9  1  0.13889616  -0.13889616  0.13889616  1.0
  Al  Al10  1  -0.86110384  0.86110384  0.86110384  1.0
  Al  Al11  1  -0.13889616  0.13889616  0.13889616  1.0
  Al  Al12  1  0.38889616  1.38889616  0.11110384  1.0
  Al  Al13  1  0.11110384  0.11110384  0.38889616  1.0
  Al  Al14  1  0.38889616  1.11110384  0.38889616  1.0
  Al  Al15  1  0.11110384  1.38889616  0.11110384  1.0
  Al  Al16  1  0.11110384  1.38889616  0.38889616  1.0
  Al  Al17  1  0.38889616  1.11110384  0.11110384  1.0
  Al  Al18  1  0.56793668  1.30043211  0.30043211  1.0
  Al  Al19  1  0.30043211  1.56793668  -0.16880090  1.0
  Al  Al20  1  0.30043211  -0.16880090  0.56793668  1.0
  Al  Al21  1  -0.16880090  0.30043211  0.30043211  1.0
  Al  Al22  1  0.30043211  1.30043211  0.56793668  1.0
  Al  Al23  1  0.56793668  0.83119910  0.30043211  1.0
  Al  Al24  1  -0.16880090  1.56793668  0.30043211  1.0
  Al  Al25  1  0.30043211  1.30043211  -0.16880090  1.0
  Al  Al26  1  0.30043211  1.56793668  0.30043211  1.0
  Al  Al27  1  -0.16880090  0.30043211  0.56793668  1.0
  Al  Al28  1  0.56793668  1.30043211  -0.16880090  1.0
  Al  Al29  1  0.30043211  -0.16880090  0.30043211  1.0
  Al  Al30  1  0.68206332  0.94956789  0.94956789  1.0
  Al  Al31  1  0.94956789  0.68206332  -0.58119910  1.0
  Al  Al32  1  0.94956789  0.41880090  0.68206332  1.0
  Al  Al33  1  0.41880090  0.94956789  -0.05043211  1.0
  Al  Al34  1  0.94956789  0.94956789  0.68206332  1.0
  Al  Al35  1  0.68206332  -0.58119910  0.94956789  1.0
  Al  Al36  1  -0.58119910  0.68206332  0.94956789  1.0
  Al  Al37  1  0.94956789  0.94956789  -0.58119910  1.0
  Al  Al38  1  0.94956789  0.68206332  0.94956789  1.0
  Al  Al39  1  0.41880090  0.94956789  -0.31793668  1.0
  Al  Al40  1  0.68206332  0.94956789  -0.58119910  1.0
  Al  Al41  1  0.94956789  0.41880090  0.94956789  1.0
  V  V42  1  0.62500000  1.12500000  0.12500000  1.0
  V  V43  1  0.12500000  1.62500000  0.12500000  1.0
  V  V44  1  0.12500000  0.12500000  1.62500000  1.0
  V  V45  1  0.12500000  0.12500000  0.12500000  1.0
