# generated using pymatgen
data_K2CrOF5
_symmetry_space_group_name_H-M   'P 1'
_cell_length_a   6.06896785
_cell_length_b   6.06896785
_cell_length_c   8.39974078
_cell_angle_alpha   88.72379742
_cell_angle_beta   91.27620258
_cell_angle_gamma   96.26109664
_symmetry_Int_Tables_number   1
_chemical_formula_structural   K2CrOF5
_chemical_formula_sum   'K4 Cr2 O2 F10'
_cell_volume   307.39939182
_cell_formula_units_Z   2
loop_
 _symmetry_equiv_pos_site_id
 _symmetry_equiv_pos_as_xyz
  1  'x, y, z'
loop_
 _atom_site_type_symbol
 _atom_site_label
 _atom_site_symmetry_multiplicity
 _atom_site_fract_x
 _atom_site_fract_y
 _atom_site_fract_z
 _atom_site_occupancy
  K  K0  1  1.79262379  0.20739731  0.48584600  1.0
  K  K1  1  0.79260269  -0.79262379  0.98584600  1.0
  K  K2  1  1.20739731  0.79262379  0.01415400  1.0
  K  K3  1  0.20737621  -0.20739731  0.51415400  1.0
  Cr  Cr4  1  0.69775293  -0.30224707  0.25000000  1.0
  Cr  Cr5  1  1.30224707  0.30224707  0.75000000  1.0
  O  O6  1  1.50344023  0.50344023  0.25000000  1.0
  O  O7  1  0.49655977  -0.50344023  0.75000000  1.0
  F  F8  1  0.67927208  -0.22884417  0.03469642  1.0
  F  F9  1  1.22884417  0.32072792  0.53469642  1.0
  F  F10  1  0.77115583  -0.32072792  0.46530358  1.0
  F  F11  1  1.32072792  0.22884417  0.96530358  1.0
  F  F12  1  0.52155206  -0.07661448  0.29183565  1.0
  F  F13  1  1.07661448  0.47844794  0.79183565  1.0
  F  F14  1  0.92338552  -0.47844794  0.20816435  1.0
  F  F15  1  1.47844794  0.07661448  0.70816435  1.0
  F  F16  1  0.94321068  -0.05678932  0.25000000  1.0
  F  F17  1  1.05678932  0.05678932  0.75000000  1.0
