# generated using pymatgen
data_Lu2S3
_symmetry_space_group_name_H-M   'P 1'
_cell_length_a   7.22707883
_cell_length_b   7.22707883
_cell_length_c   7.22707883
_cell_angle_alpha   55.67881112
_cell_angle_beta   55.67881112
_cell_angle_gamma   55.67881112
_symmetry_Int_Tables_number   1
_chemical_formula_structural   Lu2S3
_chemical_formula_sum   'Lu4 S6'
_cell_volume   240.15635452
_cell_formula_units_Z   2
loop_
 _symmetry_equiv_pos_site_id
 _symmetry_equiv_pos_as_xyz
  1  'x, y, z'
loop_
 _atom_site_type_symbol
 _atom_site_label
 _atom_site_symmetry_multiplicity
 _atom_site_fract_x
 _atom_site_fract_y
 _atom_site_fract_z
 _atom_site_occupancy
  Lu  Lu0  1  0.84888820  -0.15111180  -0.15111180  1.0
  Lu  Lu1  1  0.34888820  0.34888820  0.34888820  1.0
  Lu  Lu2  1  0.65111180  0.65111180  -0.34888820  1.0
  Lu  Lu3  1  1.15111180  0.15111180  0.15111180  1.0
  S  S4  1  0.44614510  0.75000000  0.05385490  1.0
  S  S5  1  0.94614510  -0.44614510  0.25000000  1.0
  S  S6  1  0.25000000  0.94614510  -0.44614510  1.0
  S  S7  1  0.75000000  1.05385490  -0.55385490  1.0
  S  S8  1  0.55385490  0.25000000  -0.05385490  1.0
  S  S9  1  1.05385490  0.44614510  -0.25000000  1.0
