# generated using pymatgen
data_GaCu(PCl2)2
_symmetry_space_group_name_H-M   'P 1'
_cell_length_a   8.47617765
_cell_length_b   8.47617765
_cell_length_c   13.55580977
_cell_angle_alpha   90.00000000
_cell_angle_beta   90.00000000
_cell_angle_gamma   85.86472431
_symmetry_Int_Tables_number   1
_chemical_formula_structural   GaCu(PCl2)2
_chemical_formula_sum   'Ga4 Cu4 P8 Cl16'
_cell_volume   971.38957621
_cell_formula_units_Z   4
loop_
 _symmetry_equiv_pos_site_id
 _symmetry_equiv_pos_as_xyz
  1  'x, y, z'
loop_
 _atom_site_type_symbol
 _atom_site_label
 _atom_site_symmetry_multiplicity
 _atom_site_fract_x
 _atom_site_fract_y
 _atom_site_fract_z
 _atom_site_occupancy
  Ga  Ga0  1  -0.00000000  1.50000000  0.66944129  1.0
  Ga  Ga1  1  0.50000000  1.00000000  0.33055871  1.0
  Ga  Ga2  1  0.50000000  1.00000000  0.83055871  1.0
  Ga  Ga3  1  -0.00000000  1.50000000  0.16944129  1.0
  Cu  Cu4  1  0.28853064  1.28853064  0.50000000  1.0
  Cu  Cu5  1  -0.28853064  0.71146936  0.50000000  1.0
  Cu  Cu6  1  0.21146936  1.21146936  -0.00000000  1.0
  Cu  Cu7  1  -0.21146936  0.78853064  -0.00000000  1.0
  P  P8  1  0.51731184  1.36993842  0.56326809  1.0
  P  P9  1  -0.51731184  0.63006158  0.56326809  1.0
  P  P10  1  0.36993842  1.51731184  0.43673191  1.0
  P  P11  1  -0.36993842  0.48268816  0.43673191  1.0
  P  P12  1  -0.01731184  1.13006158  0.93673191  1.0
  P  P13  1  0.01731184  0.86993842  0.93673191  1.0
  P  P14  1  0.13006158  0.98268816  0.06326809  1.0
  P  P15  1  -0.13006158  1.01731184  0.06326809  1.0
  Cl  Cl16  1  0.03478491  1.28959156  0.56672061  1.0
  Cl  Cl17  1  -0.03478491  1.71040844  0.56672061  1.0
  Cl  Cl18  1  0.28959156  1.03478491  0.43327939  1.0
  Cl  Cl19  1  0.71040844  0.96521509  0.43327939  1.0
  Cl  Cl20  1  0.46521509  1.21040844  0.93327939  1.0
  Cl  Cl21  1  0.53478491  0.78959156  0.93327939  1.0
  Cl  Cl22  1  0.21040844  1.46521509  0.06672061  1.0
  Cl  Cl23  1  -0.21040844  1.53478491  0.06672061  1.0
  Cl  Cl24  1  0.21333773  1.52095488  0.75509357  1.0
  Cl  Cl25  1  -0.21333773  1.47904512  0.75509357  1.0
  Cl  Cl26  1  0.52095488  1.21333773  0.24490643  1.0
  Cl  Cl27  1  0.47904512  0.78666227  0.24490643  1.0
  Cl  Cl28  1  0.28666227  0.97904512  0.74490643  1.0
  Cl  Cl29  1  0.71333773  1.02095488  0.74490643  1.0
  Cl  Cl30  1  -0.02095488  1.28666227  0.25509357  1.0
  Cl  Cl31  1  0.02095488  1.71333773  0.25509357  1.0
