# generated using pymatgen
data_Rb3B12I
_symmetry_space_group_name_H-M   'P 1'
_cell_length_a   6.97235450
_cell_length_b   6.97235450
_cell_length_c   6.97235450
_cell_angle_alpha   90.02526082
_cell_angle_beta   90.02526082
_cell_angle_gamma   90.02526083
_symmetry_Int_Tables_number   1
_chemical_formula_structural   Rb3B12I
_chemical_formula_sum   'Rb3 B12 I1'
_cell_volume   338.95204183
_cell_formula_units_Z   1
loop_
 _symmetry_equiv_pos_site_id
 _symmetry_equiv_pos_as_xyz
  1  'x, y, z'
loop_
 _atom_site_type_symbol
 _atom_site_label
 _atom_site_symmetry_multiplicity
 _atom_site_fract_x
 _atom_site_fract_y
 _atom_site_fract_z
 _atom_site_occupancy
  Rb  Rb0  1  1.00000000  -0.50000000  -0.00000000  1.0
  Rb  Rb1  1  1.00000000  0.00000000  -0.50000000  1.0
  Rb  Rb2  1  0.50000000  -0.00000000  -0.00000000  1.0
  B  B3  1  1.54879126  0.54879126  -0.27595483  1.0
  B  B4  1  1.54879126  -0.27595483  0.54879126  1.0
  B  B5  1  1.27595483  0.45120874  -0.54879126  1.0
  B  B6  1  0.45120874  1.27595483  -0.54879126  1.0
  B  B7  1  0.45120874  0.45120874  0.27595483  1.0
  B  B8  1  0.72404517  0.54879126  0.54879126  1.0
  B  B9  1  1.37848554  0.37848554  -0.33395405  1.0
  B  B10  1  1.37848554  -0.33395405  0.37848554  1.0
  B  B11  1  1.33395405  0.62151446  -0.37848554  1.0
  B  B12  1  0.62151446  1.33395405  -0.37848554  1.0
  B  B13  1  0.62151446  0.62151446  0.33395405  1.0
  B  B14  1  0.66604595  0.37848554  0.37848554  1.0
  I  I15  1  -0.00000000  -0.00000000  -0.00000000  1.0
