# generated using pymatgen
data_LuNiPb
_symmetry_space_group_name_H-M   'P 1'
_cell_length_a   7.04177493
_cell_length_b   4.50781054
_cell_length_c   7.82405925
_cell_angle_alpha   90.00000000
_cell_angle_beta   90.00000000
_cell_angle_gamma   90.00000000
_symmetry_Int_Tables_number   1
_chemical_formula_structural   LuNiPb
_chemical_formula_sum   'Lu4 Ni4 Pb4'
_cell_volume   248.35901299
_cell_formula_units_Z   4
loop_
 _symmetry_equiv_pos_site_id
 _symmetry_equiv_pos_as_xyz
  1  'x, y, z'
loop_
 _atom_site_type_symbol
 _atom_site_label
 _atom_site_symmetry_multiplicity
 _atom_site_fract_x
 _atom_site_fract_y
 _atom_site_fract_z
 _atom_site_occupancy
  Lu  Lu0  1  0.98947705  0.75000000  0.69712424  1.0
  Lu  Lu1  1  0.48947705  0.75000000  0.80287576  1.0
  Lu  Lu2  1  0.01052295  0.25000000  0.30287576  1.0
  Lu  Lu3  1  0.51052295  0.25000000  0.19712424  1.0
  Ni  Ni4  1  0.72016964  0.75000000  0.41465436  1.0
  Ni  Ni5  1  0.22016964  0.75000000  0.08534564  1.0
  Ni  Ni6  1  0.27983036  0.25000000  0.58534564  1.0
  Ni  Ni7  1  0.77983036  0.25000000  0.91465436  1.0
  Pb  Pb8  1  0.81436134  0.75000000  0.08597492  1.0
  Pb  Pb9  1  0.31436134  0.75000000  0.41402508  1.0
  Pb  Pb10  1  0.18563866  0.25000000  0.91402508  1.0
  Pb  Pb11  1  0.68563866  0.25000000  0.58597492  1.0
