# generated using pymatgen
data_BaCaGaF7
_symmetry_space_group_name_H-M   'P 1'
_cell_length_a   5.48924562
_cell_length_b   5.52387449
_cell_length_c   19.86242811
_cell_angle_alpha   90.00000000
_cell_angle_beta   103.69153123
_cell_angle_gamma   90.00000000
_symmetry_Int_Tables_number   1
_chemical_formula_structural   BaCaGaF7
_chemical_formula_sum   'Ba4 Ca4 Ga4 F28'
_cell_volume   585.15269676
_cell_formula_units_Z   4
loop_
 _symmetry_equiv_pos_site_id
 _symmetry_equiv_pos_as_xyz
  1  'x, y, z'
loop_
 _atom_site_type_symbol
 _atom_site_label
 _atom_site_symmetry_multiplicity
 _atom_site_fract_x
 _atom_site_fract_y
 _atom_site_fract_z
 _atom_site_occupancy
  Ba  Ba0  1  0.81666374  0.25492296  0.06856646  1.0
  Ba  Ba1  1  0.81666374  0.74507704  0.56856646  1.0
  Ba  Ba2  1  0.18333626  0.25492296  0.43143354  1.0
  Ba  Ba3  1  0.18333626  0.74507704  0.93143354  1.0
  Ca  Ca4  1  0.50000000  0.29073089  0.25000000  1.0
  Ca  Ca5  1  0.50000000  0.70926911  0.75000000  1.0
  Ca  Ca6  1  -0.00000000  0.82515932  0.25000000  1.0
  Ca  Ca7  1  -0.00000000  0.17484068  0.75000000  1.0
  Ga  Ga8  1  0.67777845  0.72496013  0.38067668  1.0
  Ga  Ga9  1  0.67777845  0.27503987  0.88067668  1.0
  Ga  Ga10  1  0.32222155  0.72496013  0.11932332  1.0
  Ga  Ga11  1  0.32222155  0.27503987  0.61932332  1.0
  F  F12  1  1.00051687  0.78455422  0.05703349  1.0
  F  F13  1  1.00051687  0.21544578  0.55703349  1.0
  F  F14  1  -0.00051687  0.78455422  0.44296651  1.0
  F  F15  1  -0.00051687  0.21544578  0.94296651  1.0
  F  F16  1  0.84799840  0.52334497  0.32357718  1.0
  F  F17  1  0.84799840  0.47665503  0.82357718  1.0
  F  F18  1  0.15200160  0.52334497  0.17642282  1.0
  F  F19  1  0.15200160  0.47665503  0.67642282  1.0
  F  F20  1  0.76738349  0.87046295  0.69168798  1.0
  F  F21  1  0.76738349  0.12953705  0.19168798  1.0
  F  F22  1  0.23261651  0.87046295  0.80831202  1.0
  F  F23  1  0.23261651  0.12953705  0.30831202  1.0
  F  F24  1  0.74680993  0.99028637  0.32464519  1.0
  F  F25  1  0.74680993  0.00971363  0.82464519  1.0
  F  F26  1  0.25319007  0.99028637  0.17535481  1.0
  F  F27  1  0.25319007  0.00971363  0.67535481  1.0
  F  F28  1  0.65342480  0.44538815  0.43639626  1.0
  F  F29  1  0.65342480  0.55461185  0.93639626  1.0
  F  F30  1  0.34657520  0.44538815  0.06360374  1.0
  F  F31  1  0.34657520  0.55461185  0.56360374  1.0
  F  F32  1  0.62480653  0.63000534  0.18462543  1.0
  F  F33  1  0.62480653  0.36999466  0.68462543  1.0
  F  F34  1  0.37519347  0.63000534  0.31537457  1.0
  F  F35  1  0.37519347  0.36999466  0.81537457  1.0
  F  F36  1  0.52686326  0.90944059  0.43842995  1.0
  F  F37  1  0.52686326  0.09055941  0.93842995  1.0
  F  F38  1  0.47313674  0.90944059  0.06157005  1.0
  F  F39  1  0.47313674  0.09055941  0.56157005  1.0
