# generated using pymatgen
data_Li3TiF6
_symmetry_space_group_name_H-M   'P 1'
_cell_length_a   9.72957219
_cell_length_b   8.59728118
_cell_length_c   5.15369166
_cell_angle_alpha   90.00000000
_cell_angle_beta   90.00000000
_cell_angle_gamma   90.00000000
_symmetry_Int_Tables_number   1
_chemical_formula_structural   Li3TiF6
_chemical_formula_sum   'Li12 Ti4 F24'
_cell_volume   431.09531911
_cell_formula_units_Z   4
loop_
 _symmetry_equiv_pos_site_id
 _symmetry_equiv_pos_as_xyz
  1  'x, y, z'
loop_
 _atom_site_type_symbol
 _atom_site_label
 _atom_site_symmetry_multiplicity
 _atom_site_fract_x
 _atom_site_fract_y
 _atom_site_fract_z
 _atom_site_occupancy
  Li  Li0  1  0.39668749  0.44285801  0.50298294  1.0
  Li  Li1  1  0.89668749  0.05714199  0.50298294  1.0
  Li  Li2  1  0.60331251  0.55714199  0.00298294  1.0
  Li  Li3  1  0.10331251  0.94285801  0.00298294  1.0
  Li  Li4  1  0.35388919  0.04836523  0.49130928  1.0
  Li  Li5  1  0.85388919  0.45163477  0.49130928  1.0
  Li  Li6  1  0.64611081  0.95163477  0.99130928  1.0
  Li  Li7  1  0.14611081  0.54836523  0.99130928  1.0
  Li  Li8  1  0.12495347  0.35381018  0.49180384  1.0
  Li  Li9  1  0.62495347  0.14618982  0.49180384  1.0
  Li  Li10  1  0.87504653  0.64618982  0.99180384  1.0
  Li  Li11  1  0.37504653  0.85381018  0.99180384  1.0
  Ti  Ti12  1  0.37249937  0.24160564  0.99679122  1.0
  Ti  Ti13  1  0.87249937  0.25839436  0.99679122  1.0
  Ti  Ti14  1  0.62750063  0.75839436  0.49679122  1.0
  Ti  Ti15  1  0.12750063  0.74160564  0.49679122  1.0
  F  F16  1  0.49348342  0.08236693  0.18230638  1.0
  F  F17  1  0.99348342  0.41763307  0.18230638  1.0
  F  F18  1  0.50651658  0.91763307  0.68230638  1.0
  F  F19  1  0.00651658  0.58236693  0.68230638  1.0
  F  F20  1  0.47966421  0.24987061  0.66324932  1.0
  F  F21  1  0.97966421  0.25012939  0.66324932  1.0
  F  F22  1  0.52033579  0.75012939  0.16324932  1.0
  F  F23  1  0.02033579  0.74987061  0.16324932  1.0
  F  F24  1  0.47780850  0.40792039  0.14911226  1.0
  F  F25  1  0.97780850  0.09207961  0.14911226  1.0
  F  F26  1  0.52219150  0.59207961  0.64911226  1.0
  F  F27  1  0.02219150  0.90792039  0.64911226  1.0
  F  F28  1  0.27126354  0.06496303  0.85231735  1.0
  F  F29  1  0.77126354  0.43503697  0.85231735  1.0
  F  F30  1  0.72873646  0.93503697  0.35231735  1.0
  F  F31  1  0.22873646  0.56496303  0.35231735  1.0
  F  F32  1  0.26172662  0.23444460  0.32455729  1.0
  F  F33  1  0.76172662  0.26555540  0.32455729  1.0
  F  F34  1  0.73827338  0.76555540  0.82455729  1.0
  F  F35  1  0.23827338  0.73444460  0.82455729  1.0
  F  F36  1  0.25025703  0.89332792  0.30707013  1.0
  F  F37  1  0.75025703  0.60667208  0.30707013  1.0
  F  F38  1  0.74974297  0.10667208  0.80707013  1.0
  F  F39  1  0.24974297  0.39332792  0.80707013  1.0
