# generated using pymatgen
data_PrMnAsO
_symmetry_space_group_name_H-M   'P 1'
_cell_length_a   3.92185493
_cell_length_b   3.92185493
_cell_length_c   8.75535331
_cell_angle_alpha   90.00000000
_cell_angle_beta   90.00000000
_cell_angle_gamma   90.00000000
_symmetry_Int_Tables_number   1
_chemical_formula_structural   PrMnAsO
_chemical_formula_sum   'Pr2 Mn2 As2 O2'
_cell_volume   134.66561709
_cell_formula_units_Z   2
loop_
 _symmetry_equiv_pos_site_id
 _symmetry_equiv_pos_as_xyz
  1  'x, y, z'
loop_
 _atom_site_type_symbol
 _atom_site_label
 _atom_site_symmetry_multiplicity
 _atom_site_fract_x
 _atom_site_fract_y
 _atom_site_fract_z
 _atom_site_occupancy
  Pr  Pr0  1  0.50000000  0.00000000  0.64050919  1.0
  Pr  Pr1  1  0.00000000  0.50000000  0.35949081  1.0
  Mn  Mn2  1  0.00000000  0.00000000  0.00000000  1.0
  Mn  Mn3  1  0.50000000  0.50000000  0.00000000  1.0
  As  As4  1  0.50000000  0.00000000  0.16429956  1.0
  As  As5  1  0.00000000  0.50000000  0.83570044  1.0
  O  O6  1  0.00000000  0.00000000  0.50000000  1.0
  O  O7  1  0.50000000  0.50000000  0.50000000  1.0
