# generated using pymatgen
data_TaInO4
_symmetry_space_group_name_H-M   'P 1'
_cell_length_a   4.88486538
_cell_length_b   5.87891127
_cell_length_c   5.22270432
_cell_angle_alpha   90.00000000
_cell_angle_beta   91.37681789
_cell_angle_gamma   90.00000000
_symmetry_Int_Tables_number   1
_chemical_formula_structural   TaInO4
_chemical_formula_sum   'Ta2 In2 O8'
_cell_volume   149.94070287
_cell_formula_units_Z   2
loop_
 _symmetry_equiv_pos_site_id
 _symmetry_equiv_pos_as_xyz
  1  'x, y, z'
loop_
 _atom_site_type_symbol
 _atom_site_label
 _atom_site_symmetry_multiplicity
 _atom_site_fract_x
 _atom_site_fract_y
 _atom_site_fract_z
 _atom_site_occupancy
  Ta  Ta0  1  0.50000000  0.32947148  0.25000000  1.0
  Ta  Ta1  1  0.50000000  0.67052852  0.75000000  1.0
  In  In2  1  -0.00000000  0.82416442  0.25000000  1.0
  In  In3  1  -0.00000000  0.17583558  0.75000000  1.0
  O  O4  1  0.75927172  0.87729221  0.89964502  1.0
  O  O5  1  0.75927172  0.12270779  0.39964502  1.0
  O  O6  1  0.24072828  0.87729221  0.60035498  1.0
  O  O7  1  0.24072828  0.12270779  0.10035498  1.0
  O  O8  1  0.71285516  0.60351718  0.43618214  1.0
  O  O9  1  0.71285516  0.39648282  0.93618214  1.0
  O  O10  1  0.28714484  0.60351718  0.06381786  1.0
  O  O11  1  0.28714484  0.39648282  0.56381786  1.0
