# generated using pymatgen
data_SiO2
_symmetry_space_group_name_H-M   'P 1'
_cell_length_a   15.11248362
_cell_length_b   15.11248362
_cell_length_c   15.11248362
_cell_angle_alpha   159.81740712
_cell_angle_beta   124.27533817
_cell_angle_gamma   59.88294082
_symmetry_Int_Tables_number   1
_chemical_formula_structural   SiO2
_chemical_formula_sum   'Si16 O32'
_cell_volume   979.65166128
_cell_formula_units_Z   16
loop_
 _symmetry_equiv_pos_site_id
 _symmetry_equiv_pos_as_xyz
  1  'x, y, z'
loop_
 _atom_site_type_symbol
 _atom_site_label
 _atom_site_symmetry_multiplicity
 _atom_site_fract_x
 _atom_site_fract_y
 _atom_site_fract_z
 _atom_site_occupancy
  Si  Si0  1  0.90151490  0.44122860  0.46028630  1.0
  Si  Si1  1  0.51905770  0.55877140  0.96028630  1.0
  Si  Si2  1  0.09848510  0.55877140  0.53971370  1.0
  Si  Si3  1  0.48094230  0.44122860  0.03971370  1.0
  Si  Si4  1  1.34000164  0.89397761  1.44602403  1.0
  Si  Si5  1  1.05204643  0.10602239  0.94602403  1.0
  Si  Si6  1  0.65999836  0.10602239  0.55397597  1.0
  Si  Si7  1  0.94795357  0.89397761  1.05397597  1.0
  Si  Si8  1  1.14438726  0.78382458  1.36056268  1.0
  Si  Si9  1  1.07673809  0.21617542  0.86056268  1.0
  Si  Si10  1  0.85561274  0.21617542  0.63943732  1.0
  Si  Si11  1  0.92326191  0.78382458  1.13943732  1.0
  Si  Si12  1  1.20577200  0.95577200  1.25000000  1.0
  Si  Si13  1  0.79422800  0.04422800  0.75000000  1.0
  Si  Si14  1  0.72394453  0.47394453  0.25000000  1.0
  Si  Si15  1  0.27605547  0.52605547  0.75000000  1.0
  O  O16  1  0.90751731  0.66133791  0.74624296  1.0
  O  O17  1  0.58490505  0.83872564  1.24624296  1.0
  O  O18  1  0.09248269  0.83872564  0.75382059  1.0
  O  O19  1  0.41509495  0.66133791  0.25382059  1.0
  O  O20  1  0.90751731  1.16127436  1.24617941  1.0
  O  O21  1  0.58490505  0.33866209  0.74617941  1.0
  O  O22  1  0.09248269  0.33866209  0.25375704  1.0
  O  O23  1  0.41509495  1.16127436  0.75375704  1.0
  O  O24  1  1.24069694  0.74042260  0.99972565  1.0
  O  O25  1  0.75930306  0.75902871  1.49972565  1.0
  O  O26  1  1.24069694  1.24097129  1.50027435  1.0
  O  O27  1  0.75930306  0.25957740  1.00027435  1.0
  O  O28  1  1.26429905  0.83244573  1.43185332  1.0
  O  O29  1  1.09940759  0.16755427  0.93185332  1.0
  O  O30  1  0.73570095  0.16755427  0.56814668  1.0
  O  O31  1  0.90059241  0.83244573  1.06814668  1.0
  O  O32  1  0.78396810  0.43901035  0.34495776  1.0
  O  O33  1  0.40594741  0.56098965  0.84495776  1.0
  O  O34  1  0.21603190  0.56098965  0.65504224  1.0
  O  O35  1  0.59405259  0.43901035  0.15504224  1.0
  O  O36  1  1.26268898  0.92007567  1.34261330  1.0
  O  O37  1  0.92253763  0.07992433  0.84261330  1.0
  O  O38  1  0.73731102  0.07992433  0.65738670  1.0
  O  O39  1  1.07746237  0.92007567  1.15738670  1.0
  O  O40  1  1.13211415  0.50000000  1.13211415  1.0
  O  O41  1  1.13211415  1.00000000  1.63211415  1.0
  O  O42  1  0.86788585  1.00000000  1.36788585  1.0
  O  O43  1  0.86788585  0.50000000  0.86788585  1.0
  O  O44  1  1.05280443  0.80280443  1.25000000  1.0
  O  O45  1  0.94719557  0.19719557  0.75000000  1.0
  O  O46  1  0.00000000  0.50000000  0.50000000  1.0
  O  O47  1  0.50000000  0.50000000  1.00000000  1.0
