# generated using pymatgen
data_Nb3In2Cl9
_symmetry_space_group_name_H-M   'P 1'
_cell_length_a   9.90788409
_cell_length_b   9.90788409
_cell_length_c   9.73572550
_cell_angle_alpha   77.09484109
_cell_angle_beta   102.90515891
_cell_angle_gamma   63.89160166
_symmetry_Int_Tables_number   1
_chemical_formula_structural   Nb3In2Cl9
_chemical_formula_sum   'Nb6 In4 Cl18'
_cell_volume   778.00256856
_cell_formula_units_Z   2
loop_
 _symmetry_equiv_pos_site_id
 _symmetry_equiv_pos_as_xyz
  1  'x, y, z'
loop_
 _atom_site_type_symbol
 _atom_site_label
 _atom_site_symmetry_multiplicity
 _atom_site_fract_x
 _atom_site_fract_y
 _atom_site_fract_z
 _atom_site_occupancy
  Nb  Nb0  1  0.45818089  -0.28395398  0.85849437  1.0
  Nb  Nb1  1  1.28395398  0.54181911  0.85849437  1.0
  Nb  Nb2  1  0.71604602  -0.54181911  0.14150563  1.0
  Nb  Nb3  1  1.54181911  0.28395398  0.14150563  1.0
  Nb  Nb4  1  0.61998962  -0.61998962  0.87551752  1.0
  Nb  Nb5  1  0.38001038  -0.38001038  0.12448248  1.0
  In  In6  1  0.73052996  -0.04824597  0.66778273  1.0
  In  In7  1  1.04824597  0.26947004  0.66778273  1.0
  In  In8  1  0.95175403  -0.26947004  0.33221727  1.0
  In  In9  1  1.26947004  0.04824597  0.33221727  1.0
  Cl  Cl10  1  0.59169987  -0.38588965  0.68829890  1.0
  Cl  Cl11  1  1.38588965  0.40830013  0.68829890  1.0
  Cl  Cl12  1  0.61411035  -0.40830013  0.31170110  1.0
  Cl  Cl13  1  1.40830013  0.38588965  0.31170110  1.0
  Cl  Cl14  1  0.31131982  -0.10435353  0.97991683  1.0
  Cl  Cl15  1  1.10435353  0.68868018  0.97991683  1.0
  Cl  Cl16  1  0.89564647  -0.68868018  0.02008317  1.0
  Cl  Cl17  1  1.68868018  0.10435353  0.02008317  1.0
  Cl  Cl18  1  1.40191144  -0.00717557  0.67386991  1.0
  Cl  Cl19  1  1.00717557  -0.40191144  0.67386991  1.0
  Cl  Cl20  1  0.99282443  0.40191144  0.32613009  1.0
  Cl  Cl21  1  0.59808856  0.00717557  0.32613009  1.0
  Cl  Cl22  1  0.80639276  -0.80639276  0.33198601  1.0
  Cl  Cl23  1  0.19360724  -0.19360724  0.66801399  1.0
  Cl  Cl24  1  0.77110059  -0.77110059  0.71998728  1.0
  Cl  Cl25  1  0.22889941  -0.22889941  0.28001272  1.0
  Cl  Cl26  1  0.70572448  -0.29427552  0.00000000  1.0
  Cl  Cl27  1  1.29427552  0.29427552  0.00000000  1.0
