# generated using pymatgen
data_SiO2
_symmetry_space_group_name_H-M   'P 1'
_cell_length_a   7.36252273
_cell_length_b   7.36252273
_cell_length_c   7.07619754
_cell_angle_alpha   90.00000000
_cell_angle_beta   90.00000000
_cell_angle_gamma   120.00000000
_symmetry_Int_Tables_number   1
_chemical_formula_structural   SiO2
_chemical_formula_sum   'Si6 O12'
_cell_volume   332.18795146
_cell_formula_units_Z   6
loop_
 _symmetry_equiv_pos_site_id
 _symmetry_equiv_pos_as_xyz
  1  'x, y, z'
loop_
 _atom_site_type_symbol
 _atom_site_label
 _atom_site_symmetry_multiplicity
 _atom_site_fract_x
 _atom_site_fract_y
 _atom_site_fract_z
 _atom_site_occupancy
  Si  Si0  1  0.76686927  0.23313073  0.58333333  1.0
  Si  Si1  1  0.53373854  0.76686927  0.41666667  1.0
  Si  Si2  1  0.76686927  0.53373854  0.25000000  1.0
  Si  Si3  1  0.23313073  0.76686927  0.08333333  1.0
  Si  Si4  1  0.46626146  0.23313073  0.91666667  1.0
  Si  Si5  1  0.23313073  0.46626146  0.75000000  1.0
  O  O6  1  0.68364706  0.00000000  0.50000000  1.0
  O  O7  1  0.68364706  0.68364706  0.33333333  1.0
  O  O8  1  0.00000000  0.68364706  0.16666667  1.0
  O  O9  1  0.31635294  0.00000000  0.00000000  1.0
  O  O10  1  0.31635294  0.31635294  0.83333333  1.0
  O  O11  1  0.00000000  0.31635294  0.66666667  1.0
  O  O12  1  0.77531945  0.38765973  0.41666667  1.0
  O  O13  1  0.38765973  0.77531945  0.25000000  1.0
  O  O14  1  0.61234027  0.38765973  0.08333333  1.0
  O  O15  1  0.22468055  0.61234027  0.91666667  1.0
  O  O16  1  0.61234027  0.22468055  0.75000000  1.0
  O  O17  1  0.38765973  0.61234027  0.58333333  1.0
