# generated using pymatgen
data_CaTe2O5
_symmetry_space_group_name_H-M   'P 1'
_cell_length_a   9.66971979
_cell_length_b   5.86566522
_cell_length_c   11.27577350
_cell_angle_alpha   90.00000000
_cell_angle_beta   114.17061359
_cell_angle_gamma   90.00000000
_symmetry_Int_Tables_number   1
_chemical_formula_structural   CaTe2O5
_chemical_formula_sum   'Ca4 Te8 O20'
_cell_volume   583.48483904
_cell_formula_units_Z   4
loop_
 _symmetry_equiv_pos_site_id
 _symmetry_equiv_pos_as_xyz
  1  'x, y, z'
loop_
 _atom_site_type_symbol
 _atom_site_label
 _atom_site_symmetry_multiplicity
 _atom_site_fract_x
 _atom_site_fract_y
 _atom_site_fract_z
 _atom_site_occupancy
  Ca  Ca0  1  0.97682659  0.80542249  0.36059021  1.0
  Ca  Ca1  1  0.97682659  0.69457751  0.86059021  1.0
  Ca  Ca2  1  0.02317341  0.30542249  0.13940979  1.0
  Ca  Ca3  1  0.02317341  0.19457751  0.63940979  1.0
  Te  Te4  1  0.74293072  0.32141651  0.27837888  1.0
  Te  Te5  1  0.74293072  0.17858349  0.77837888  1.0
  Te  Te6  1  0.25706928  0.82141651  0.22162112  1.0
  Te  Te7  1  0.25706928  0.67858349  0.72162112  1.0
  Te  Te8  1  0.34635126  0.36193646  0.48657007  1.0
  Te  Te9  1  0.34635126  0.13806354  0.98657007  1.0
  Te  Te10  1  0.65364874  0.86193646  0.01342993  1.0
  Te  Te11  1  0.65364874  0.63806354  0.51342993  1.0
  O  O12  1  0.88575190  0.14214068  0.41701875  1.0
  O  O13  1  0.88575190  0.35785932  0.91701875  1.0
  O  O14  1  0.11424810  0.64214068  0.08298125  1.0
  O  O15  1  0.11424810  0.85785932  0.58298125  1.0
  O  O16  1  0.86212984  0.50416141  0.21080533  1.0
  O  O17  1  0.86212984  -0.00416141  0.71080533  1.0
  O  O18  1  0.13787016  1.00416141  0.28919467  1.0
  O  O19  1  0.13787016  0.49583859  0.78919467  1.0
  O  O20  1  0.79993981  0.03745371  0.15855271  1.0
  O  O21  1  0.79993981  0.46254629  0.65855271  1.0
  O  O22  1  0.20006019  0.53745371  0.34144729  1.0
  O  O23  1  0.20006019  0.96254629  0.84144729  1.0
  O  O24  1  0.77810149  0.90279911  0.90349311  1.0
  O  O25  1  0.77810149  0.59720089  0.40349311  1.0
  O  O26  1  0.22189851  0.40279911  0.59650689  1.0
  O  O27  1  0.22189851  0.09720089  0.09650689  1.0
  O  O28  1  0.51883855  0.39617162  0.40377176  1.0
  O  O29  1  0.51883855  0.10382838  0.90377176  1.0
  O  O30  1  0.48116145  0.89617162  0.09622824  1.0
  O  O31  1  0.48116145  0.60382838  0.59622824  1.0
