# generated using pymatgen
data_Na2ZrSi4O11
_symmetry_space_group_name_H-M   'P 1'
_cell_length_a   7.57662484
_cell_length_b   7.57662484
_cell_length_c   8.67859239
_cell_angle_alpha   82.34669017
_cell_angle_beta   97.65330983
_cell_angle_gamma   95.16338522
_symmetry_Int_Tables_number   1
_chemical_formula_structural   Na2ZrSi4O11
_chemical_formula_sum   'Na4 Zr2 Si8 O22'
_cell_volume   488.03449247
_cell_formula_units_Z   2
loop_
 _symmetry_equiv_pos_site_id
 _symmetry_equiv_pos_as_xyz
  1  'x, y, z'
loop_
 _atom_site_type_symbol
 _atom_site_label
 _atom_site_symmetry_multiplicity
 _atom_site_fract_x
 _atom_site_fract_y
 _atom_site_fract_z
 _atom_site_occupancy
  Na  Na0  1  0.92377286  0.92377286  0.75000000  1.0
  Na  Na1  1  0.07622714  0.07622714  0.25000000  1.0
  Na  Na2  1  0.60375368  0.60375368  0.75000000  1.0
  Na  Na3  1  0.39624632  0.39624632  0.25000000  1.0
  Zr  Zr4  1  1.50000000  0.00000000  0.50000000  1.0
  Zr  Zr5  1  1.00000000  0.50000000  0.00000000  1.0
  Si  Si6  1  0.66436521  0.19173382  0.86005798  1.0
  Si  Si7  1  0.80826618  0.33563479  0.36005798  1.0
  Si  Si8  1  1.19173382  -0.33563479  0.63994202  1.0
  Si  Si9  1  1.33563479  -0.19173382  0.13994202  1.0
  Si  Si10  1  0.26785229  0.16837316  0.92707070  1.0
  Si  Si11  1  0.83162684  0.73214771  0.42707070  1.0
  Si  Si12  1  1.16837316  -0.73214771  0.57292930  1.0
  Si  Si13  1  1.73214771  -0.16837316  0.07292930  1.0
  O  O14  1  1.71079827  -0.17676900  0.53048713  1.0
  O  O15  1  1.17676900  -0.71079827  0.03048713  1.0
  O  O16  1  0.82323100  0.71079827  0.96951287  1.0
  O  O17  1  0.28920173  0.17676900  0.46951287  1.0
  O  O18  1  0.75390984  0.03981126  0.99501151  1.0
  O  O19  1  0.96018874  0.24609016  0.49501151  1.0
  O  O20  1  1.03981126  -0.24609016  0.50498849  1.0
  O  O21  1  1.24609016  -0.03981126  0.00498849  1.0
  O  O22  1  1.37148431  -0.20324220  0.64512937  1.0
  O  O23  1  1.20324220  -0.37148431  0.14512937  1.0
  O  O24  1  0.79675780  0.37148431  0.85487063  1.0
  O  O25  1  0.62851569  0.20324220  0.35487063  1.0
  O  O26  1  0.62673007  0.10440699  0.69743835  1.0
  O  O27  1  0.89559301  0.37326993  0.19743835  1.0
  O  O28  1  1.10440699  -0.37326993  0.80256165  1.0
  O  O29  1  1.37326993  -0.10440699  0.30256165  1.0
  O  O30  1  0.47506226  0.24514673  0.91383150  1.0
  O  O31  1  0.75485327  0.52493774  0.41383150  1.0
  O  O32  1  1.24514673  -0.52493774  0.58616850  1.0
  O  O33  1  1.52493774  -0.24514673  0.08616850  1.0
  O  O34  1  0.15959521  0.15959521  0.75000000  1.0
  O  O35  1  0.84040479  0.84040479  0.25000000  1.0
