# generated using pymatgen
data_HoZnPO
_symmetry_space_group_name_H-M   'P 1'
_cell_length_a   10.46908320
_cell_length_b   10.46908320
_cell_length_c   10.46908320
_cell_angle_alpha   21.40576658
_cell_angle_beta   21.40576658
_cell_angle_gamma   21.40576658
_symmetry_Int_Tables_number   1
_chemical_formula_structural   HoZnPO
_chemical_formula_sum   'Ho2 Zn2 P2 O2'
_cell_volume   133.90370640
_cell_formula_units_Z   2
loop_
 _symmetry_equiv_pos_site_id
 _symmetry_equiv_pos_as_xyz
  1  'x, y, z'
loop_
 _atom_site_type_symbol
 _atom_site_label
 _atom_site_symmetry_multiplicity
 _atom_site_fract_x
 _atom_site_fract_y
 _atom_site_fract_z
 _atom_site_occupancy
  Ho  Ho0  1  1.62083059  0.62083059  0.62083059  1.0
  Ho  Ho1  1  1.37916941  0.37916941  0.37916941  1.0
  Zn  Zn2  1  0.80400034  0.80400034  0.80400034  1.0
  Zn  Zn3  1  1.19599966  1.19599966  0.19599966  1.0
  P  P4  1  0.88765524  0.88765524  0.88765524  1.0
  P  P5  1  1.11234476  1.11234476  0.11234476  1.0
  O  O6  1  0.69470070  0.69470070  0.69470070  1.0
  O  O7  1  1.30529930  1.30529930  0.30529930  1.0
