# generated using pymatgen
data_Ta2O5
_symmetry_space_group_name_H-M   'P 1'
_cell_length_a   5.57721622
_cell_length_b   5.57721622
_cell_length_c   5.92695888
_cell_angle_alpha   56.90209968
_cell_angle_beta   123.09790032
_cell_angle_gamma   105.71163641
_symmetry_Int_Tables_number   1
_chemical_formula_structural   Ta2O5
_chemical_formula_sum   'Ta2 O5'
_cell_volume   129.28640798
_cell_formula_units_Z   1
loop_
 _symmetry_equiv_pos_site_id
 _symmetry_equiv_pos_as_xyz
  1  'x, y, z'
loop_
 _atom_site_type_symbol
 _atom_site_label
 _atom_site_symmetry_multiplicity
 _atom_site_fract_x
 _atom_site_fract_y
 _atom_site_fract_z
 _atom_site_occupancy
  Ta  Ta0  1  1.43593994  -0.00279664  0.81904641  1.0
  Ta  Ta1  1  0.99720336  0.43593994  0.18095359  1.0
  O  O2  1  1.12534977  0.30779681  0.59426687  1.0
  O  O3  1  1.30779681  0.12534977  0.40573313  1.0
  O  O4  1  0.71657610  0.21656878  0.99999960  1.0
  O  O5  1  1.21656878  -0.28342390  0.00000040  1.0
  O  O6  1  -0.28343475  -0.28343475  -0.00000000  1.0
