# generated using pymatgen
data_Cu2PO5
_symmetry_space_group_name_H-M   'P 1'
_cell_length_a   8.01572954
_cell_length_b   8.61059785
_cell_length_c   5.80197230
_cell_angle_alpha   90.00000000
_cell_angle_beta   90.00000000
_cell_angle_gamma   90.00000000
_symmetry_Int_Tables_number   1
_chemical_formula_structural   Cu2PO5
_chemical_formula_sum   'Cu8 P4 O20'
_cell_volume   400.45342537
_cell_formula_units_Z   4
loop_
 _symmetry_equiv_pos_site_id
 _symmetry_equiv_pos_as_xyz
  1  'x, y, z'
loop_
 _atom_site_type_symbol
 _atom_site_label
 _atom_site_symmetry_multiplicity
 _atom_site_fract_x
 _atom_site_fract_y
 _atom_site_fract_z
 _atom_site_occupancy
  Cu  Cu0  1  0.34785946  0.11506513  0.50000000  1.0
  Cu  Cu1  1  0.15214054  0.61506513  0.00000000  1.0
  Cu  Cu2  1  0.65214054  0.88493487  0.50000000  1.0
  Cu  Cu3  1  0.84785946  0.38493487  0.00000000  1.0
  Cu  Cu4  1  0.50000000  0.50000000  0.75333889  1.0
  Cu  Cu5  1  0.50000000  0.50000000  0.24666111  1.0
  Cu  Cu6  1  0.00000000  0.00000000  0.25333889  1.0
  Cu  Cu7  1  0.00000000  0.00000000  0.74666111  1.0
  P  P8  1  0.27284960  0.74697049  0.50000000  1.0
  P  P9  1  0.22715040  0.24697049  0.00000000  1.0
  P  P10  1  0.72715040  0.25302951  0.50000000  1.0
  P  P11  1  0.77284960  0.75302951  0.00000000  1.0
  O  O12  1  0.16697945  0.75654857  0.72069149  1.0
  O  O13  1  0.16697945  0.75654857  0.27930851  1.0
  O  O14  1  0.33302055  0.25654857  0.22069149  1.0
  O  O15  1  0.33302055  0.25654857  0.77930851  1.0
  O  O16  1  0.83302055  0.24345143  0.72069149  1.0
  O  O17  1  0.83302055  0.24345143  0.27930851  1.0
  O  O18  1  0.66697945  0.74345143  0.22069149  1.0
  O  O19  1  0.66697945  0.74345143  0.77930851  1.0
  O  O20  1  0.37017680  0.58580373  0.50000000  1.0
  O  O21  1  0.12982320  0.08580373  0.00000000  1.0
  O  O22  1  0.62982320  0.41419627  0.50000000  1.0
  O  O23  1  0.87017680  0.91419627  0.00000000  1.0
  O  O24  1  0.40733569  0.88182753  0.50000000  1.0
  O  O25  1  0.09266431  0.38182753  0.00000000  1.0
  O  O26  1  0.59266431  0.11817247  0.50000000  1.0
  O  O27  1  0.90733569  0.61817247  0.00000000  1.0
  O  O28  1  0.12257646  0.07972116  0.50000000  1.0
  O  O29  1  0.37742354  0.57972116  0.00000000  1.0
  O  O30  1  0.87742354  0.92027884  0.50000000  1.0
  O  O31  1  0.62257646  0.42027884  0.00000000  1.0
