# generated using pymatgen
data_KB3SeO7
_symmetry_space_group_name_H-M   'P 1'
_cell_length_a   4.74471059
_cell_length_b   18.65750299
_cell_length_c   8.80238552
_cell_angle_alpha   90.00000000
_cell_angle_beta   102.54269071
_cell_angle_gamma   90.00000000
_symmetry_Int_Tables_number   1
_chemical_formula_structural   KB3SeO7
_chemical_formula_sum   'K4 B12 Se4 O28'
_cell_volume   760.62970332
_cell_formula_units_Z   4
loop_
 _symmetry_equiv_pos_site_id
 _symmetry_equiv_pos_as_xyz
  1  'x, y, z'
loop_
 _atom_site_type_symbol
 _atom_site_label
 _atom_site_symmetry_multiplicity
 _atom_site_fract_x
 _atom_site_fract_y
 _atom_site_fract_z
 _atom_site_occupancy
  K  K0  1  0.86967523  0.10203093  0.11969758  1.0
  K  K1  1  0.86967523  0.39796907  0.61969758  1.0
  K  K2  1  0.13032477  0.60203093  0.38030242  1.0
  K  K3  1  0.13032477  0.89796907  0.88030242  1.0
  B  B4  1  0.01688969  0.26374933  0.31038048  1.0
  B  B5  1  0.01688969  0.23625067  0.81038048  1.0
  B  B6  1  0.98311031  0.76374933  0.18961952  1.0
  B  B7  1  0.98311031  0.73625067  0.68961952  1.0
  B  B8  1  0.01200574  0.30774634  0.05307451  1.0
  B  B9  1  0.01200574  0.19225366  0.55307451  1.0
  B  B10  1  0.98799426  0.80774634  0.44692549  1.0
  B  B11  1  0.98799426  0.69225366  0.94692549  1.0
  B  B12  1  0.84888154  0.88996891  0.22152219  1.0
  B  B13  1  0.84888154  0.61003109  0.72152219  1.0
  B  B14  1  0.15111846  0.38996891  0.27847781  1.0
  B  B15  1  0.15111846  0.11003109  0.77847781  1.0
  Se  Se16  1  0.38343866  0.96449456  0.29677516  1.0
  Se  Se17  1  0.38343866  0.53550544  0.79677516  1.0
  Se  Se18  1  0.61656134  0.46449456  0.20322484  1.0
  Se  Se19  1  0.61656134  0.03550544  0.70322484  1.0
  O  O20  1  1.02263260  0.95300537  0.18820310  1.0
  O  O21  1  1.02263260  0.54699463  0.68820310  1.0
  O  O22  1  -0.02263260  0.45300537  0.31179690  1.0
  O  O23  1  -0.02263260  0.04699463  0.81179690  1.0
  O  O24  1  0.98135233  0.20358269  0.39531096  1.0
  O  O25  1  0.98135233  0.29641731  0.89531096  1.0
  O  O26  1  0.01864767  0.70358269  0.10468904  1.0
  O  O27  1  0.01864767  0.79641731  0.60468904  1.0
  O  O28  1  0.91789154  0.87432934  0.38951449  1.0
  O  O29  1  0.91789154  0.62567066  0.88951449  1.0
  O  O30  1  0.08210846  0.37432934  0.11048551  1.0
  O  O31  1  0.08210846  0.12567066  0.61048551  1.0
  O  O32  1  0.96589937  0.25189780  0.14975634  1.0
  O  O33  1  0.96589937  0.24810220  0.64975634  1.0
  O  O34  1  0.03410063  0.75189780  0.35024366  1.0
  O  O35  1  0.03410063  0.74810220  0.85024366  1.0
  O  O36  1  0.89908544  0.82837139  0.12612873  1.0
  O  O37  1  0.89908544  0.67162861  0.62612873  1.0
  O  O38  1  0.10091456  0.32837139  0.37387127  1.0
  O  O39  1  0.10091456  0.17162861  0.87387127  1.0
  O  O40  1  0.45932993  0.41025763  0.33204341  1.0
  O  O41  1  0.45932993  0.08974237  0.83204341  1.0
  O  O42  1  0.54067007  0.91025763  0.16795659  1.0
  O  O43  1  0.54067007  0.58974237  0.66795659  1.0
  O  O44  1  0.43709161  0.04810677  0.24883346  1.0
  O  O45  1  0.43709161  0.45189323  0.74883346  1.0
  O  O46  1  0.56290839  0.54810677  0.25116654  1.0
  O  O47  1  0.56290839  0.95189323  0.75116654  1.0
