# generated using pymatgen
data_Zn3Se3O10
_symmetry_space_group_name_H-M   'P 1'
_cell_length_a   8.80005684
_cell_length_b   8.09647863
_cell_length_c   8.24640152
_cell_angle_alpha   70.13727231
_cell_angle_beta   65.70359498
_cell_angle_gamma   68.67759031
_symmetry_Int_Tables_number   1
_chemical_formula_structural   Zn3Se3O10
_chemical_formula_sum   'Zn6 Se6 O20'
_cell_volume   486.18314720
_cell_formula_units_Z   2
loop_
 _symmetry_equiv_pos_site_id
 _symmetry_equiv_pos_as_xyz
  1  'x, y, z'
loop_
 _atom_site_type_symbol
 _atom_site_label
 _atom_site_symmetry_multiplicity
 _atom_site_fract_x
 _atom_site_fract_y
 _atom_site_fract_z
 _atom_site_occupancy
  O  O0  1  0.66338884  0.44534566  0.07813686  1.0
  O  O1  1  0.33661116  0.55465434  0.92186314  1.0
  O  O2  1  0.63009299  0.18658123  0.00413905  1.0
  O  O3  1  0.36990701  0.81341877  0.99586095  1.0
  O  O4  1  0.04935527  0.34118152  0.09739397  1.0
  O  O5  1  0.95064473  0.65881848  0.90260603  1.0
  O  O6  1  0.32275200  0.13568779  0.20177288  1.0
  O  O7  1  0.67724800  0.86431221  0.79822712  1.0
  O  O8  1  0.23712588  0.54107684  0.26871749  1.0
  O  O9  1  0.76287412  0.45892316  0.73128251  1.0
  O  O10  1  0.02746216  0.24290881  0.45548795  1.0
  O  O11  1  0.97253784  0.75709119  0.54451205  1.0
  O  O12  1  0.14662973  0.35780125  0.66951793  1.0
  O  O13  1  0.85337027  0.64219875  0.33048207  1.0
  O  O14  1  0.38484653  0.20529181  0.80524230  1.0
  O  O15  1  0.61515347  0.79470819  0.19475770  1.0
  O  O16  1  0.80534352  0.28267420  0.34801621  1.0
  O  O17  1  0.19465648  0.71732580  0.65198379  1.0
  O  O18  1  0.47226130  0.21916731  0.44860942  1.0
  O  O19  1  0.52773870  0.78083269  0.55139058  1.0
  Zn  Zn20  1  0.79398050  0.53632271  0.17157571  1.0
  Zn  Zn21  1  0.20601950  0.46367729  0.82842429  1.0
  Zn  Zn22  1  0.43409448  0.31880409  0.20938860  1.0
  Zn  Zn23  1  0.56590552  0.68119591  0.79061140  1.0
  Zn  Zn24  1  -0.00000000  0.50000000  0.50000000  1.0
  Zn  Zn25  1  0.50000000  0.00000000  -0.00000000  1.0
  Se  Se26  1  0.21289359  0.69984627  0.07218659  1.0
  Se  Se27  1  0.78710641  0.30015373  0.92781341  1.0
  Se  Se28  1  0.10280099  0.15215510  0.26757353  1.0
  Se  Se29  1  0.89719901  0.84784490  0.73242647  1.0
  Se  Se30  1  0.32160078  0.16104089  0.65300486  1.0
  Se  Se31  1  0.67839922  0.83895911  0.34699514  1.0
