# generated using pymatgen
data_CaTi2O6
_symmetry_space_group_name_H-M   'P 1'
_cell_length_a   10.16527702
_cell_length_b   8.84154802
_cell_length_c   5.21742864
_cell_angle_alpha   90.00000000
_cell_angle_beta   90.57484461
_cell_angle_gamma   90.00000000
_symmetry_Int_Tables_number   1
_chemical_formula_structural   CaTi2O6
_chemical_formula_sum   'Ca4 Ti8 O24'
_cell_volume   468.90211114
_cell_formula_units_Z   4
loop_
 _symmetry_equiv_pos_site_id
 _symmetry_equiv_pos_as_xyz
  1  'x, y, z'
loop_
 _atom_site_type_symbol
 _atom_site_label
 _atom_site_symmetry_multiplicity
 _atom_site_fract_x
 _atom_site_fract_y
 _atom_site_fract_z
 _atom_site_occupancy
  Ca  Ca0  1  0.74999719  0.00002705  0.49992827  1.0
  Ca  Ca1  1  0.74999719  0.49997295  0.99992827  1.0
  Ca  Ca2  1  0.25000281  0.50002705  0.00007173  1.0
  Ca  Ca3  1  0.25000281  0.99997295  0.50007173  1.0
  Ti  Ti4  1  0.52652980  0.33434684  0.49764844  1.0
  Ti  Ti5  1  0.52652980  0.16565316  0.99764844  1.0
  Ti  Ti6  1  0.47347020  0.83434684  0.00235156  1.0
  Ti  Ti7  1  0.47347020  0.66565316  0.50235156  1.0
  Ti  Ti8  1  0.97358789  0.83425923  0.00228522  1.0
  Ti  Ti9  1  0.97358789  0.66574077  0.50228522  1.0
  Ti  Ti10  1  0.02641211  0.33425923  0.49771478  1.0
  Ti  Ti11  1  0.02641211  0.16574077  0.99771478  1.0
  O  O12  1  0.41040233  0.17411884  0.31508177  1.0
  O  O13  1  0.41040233  0.32588116  0.81508177  1.0
  O  O14  1  0.58959767  0.67411884  0.18491823  1.0
  O  O15  1  0.58959767  0.82588116  0.68491823  1.0
  O  O16  1  0.91034947  0.17405327  0.31496630  1.0
  O  O17  1  0.91034947  0.32594673  0.81496630  1.0
  O  O18  1  0.08965053  0.67405327  0.18503370  1.0
  O  O19  1  0.08965053  0.82594673  0.68503370  1.0
  O  O20  1  0.87762573  0.81328856  0.31051234  1.0
  O  O21  1  0.87762573  0.68671144  0.81051234  1.0
  O  O22  1  0.12237427  0.31328856  0.18948766  1.0
  O  O23  1  0.12237427  0.18671144  0.68948766  1.0
  O  O24  1  0.90058945  0.49149864  0.34895557  1.0
  O  O25  1  0.90058945  0.00850136  0.84895557  1.0
  O  O26  1  0.09941055  0.99149864  0.15104443  1.0
  O  O27  1  0.09941055  0.50850136  0.65104443  1.0
  O  O28  1  0.59941249  -0.00860640  0.15096932  1.0
  O  O29  1  0.59941249  0.50860640  0.65096932  1.0
  O  O30  1  0.40058751  0.49139360  0.34903068  1.0
  O  O31  1  0.40058751  1.00860640  0.84903068  1.0
  O  O32  1  0.62250114  0.31321331  0.18956353  1.0
  O  O33  1  0.62250114  0.18678669  0.68956353  1.0
  O  O34  1  0.37749886  0.81321331  0.31043647  1.0
  O  O35  1  0.37749886  0.68678669  0.81043647  1.0
