# generated using pymatgen
data_Cs2Te
_symmetry_space_group_name_H-M   'P 1'
_cell_length_a   9.58889334
_cell_length_b   5.84674789
_cell_length_c   11.60616736
_cell_angle_alpha   90.00000000
_cell_angle_beta   90.00000000
_cell_angle_gamma   90.00000000
_symmetry_Int_Tables_number   1
_chemical_formula_structural   Cs2Te
_chemical_formula_sum   'Cs8 Te4'
_cell_volume   650.68633125
_cell_formula_units_Z   4
loop_
 _symmetry_equiv_pos_site_id
 _symmetry_equiv_pos_as_xyz
  1  'x, y, z'
loop_
 _atom_site_type_symbol
 _atom_site_label
 _atom_site_symmetry_multiplicity
 _atom_site_fract_x
 _atom_site_fract_y
 _atom_site_fract_z
 _atom_site_occupancy
  Cs  Cs0  1  0.85441331  0.75000000  0.07165781  1.0
  Cs  Cs1  1  0.35441331  0.75000000  0.42834219  1.0
  Cs  Cs2  1  0.14558669  0.25000000  0.92834219  1.0
  Cs  Cs3  1  0.64558669  0.25000000  0.57165781  1.0
  Cs  Cs4  1  0.97153170  0.75000000  0.67192034  1.0
  Cs  Cs5  1  0.47153170  0.75000000  0.82807966  1.0
  Cs  Cs6  1  0.02846830  0.25000000  0.32807966  1.0
  Cs  Cs7  1  0.52846830  0.25000000  0.17192034  1.0
  Te  Te8  1  0.75266621  0.75000000  0.38463554  1.0
  Te  Te9  1  0.25266621  0.75000000  0.11536446  1.0
  Te  Te10  1  0.24733379  0.25000000  0.61536446  1.0
  Te  Te11  1  0.74733379  0.25000000  0.88463554  1.0
