# generated using pymatgen
data_TiFeH2
_symmetry_space_group_name_H-M   'P 1'
_cell_length_a   5.05357796
_cell_length_b   2.73391709
_cell_length_c   5.05354147
_cell_angle_alpha   90.00000000
_cell_angle_beta   85.25101113
_cell_angle_gamma   90.00000000
_symmetry_Int_Tables_number   1
_chemical_formula_structural   TiFeH2
_chemical_formula_sum   'Ti2 Fe2 H4'
_cell_volume   69.58035322
_cell_formula_units_Z   2
loop_
 _symmetry_equiv_pos_site_id
 _symmetry_equiv_pos_as_xyz
  1  'x, y, z'
loop_
 _atom_site_type_symbol
 _atom_site_label
 _atom_site_symmetry_multiplicity
 _atom_site_fract_x
 _atom_site_fract_y
 _atom_site_fract_z
 _atom_site_occupancy
  Ti  Ti0  1  0.72111512  0.00000000  0.77888258  1.0
  Ti  Ti1  1  0.27888488  0.00000000  0.22111742  1.0
  Fe  Fe2  1  0.24070055  0.00000000  0.74070179  1.0
  Fe  Fe3  1  0.75929945  0.00000000  0.25929821  1.0
  H  H4  1  0.00000000  0.00000000  0.00000000  1.0
  H  H5  1  0.00000000  0.00000000  0.50000000  1.0
  H  H6  1  0.50000000  0.00000000  0.50000000  1.0
  H  H7  1  0.50000000  0.50000000  -0.00000000  1.0
