# generated using pymatgen
data_RuCl3
_symmetry_space_group_name_H-M   'P 1'
_cell_length_a   6.04827796
_cell_length_b   6.04827796
_cell_length_c   19.67066311
_cell_angle_alpha   90.00000000
_cell_angle_beta   90.00000000
_cell_angle_gamma   120.00000000
_symmetry_Int_Tables_number   1
_chemical_formula_structural   RuCl3
_chemical_formula_sum   'Ru6 Cl18'
_cell_volume   623.17943828
_cell_formula_units_Z   6
loop_
 _symmetry_equiv_pos_site_id
 _symmetry_equiv_pos_as_xyz
  1  'x, y, z'
loop_
 _atom_site_type_symbol
 _atom_site_label
 _atom_site_symmetry_multiplicity
 _atom_site_fract_x
 _atom_site_fract_y
 _atom_site_fract_z
 _atom_site_occupancy
  Ru  Ru0  1  0.11220315  0.55610158  0.00000000  1.0
  Ru  Ru1  1  0.44389842  0.55610158  0.33333333  1.0
  Ru  Ru2  1  0.44389842  0.88779685  0.66666667  1.0
  Ru  Ru3  1  0.44565047  0.22282524  0.00000000  1.0
  Ru  Ru4  1  0.77717476  0.22282524  0.33333333  1.0
  Ru  Ru5  1  0.77717476  0.55434953  0.66666667  1.0
  Cl  Cl6  1  0.13206740  0.88947312  0.06796528  1.0
  Cl  Cl7  1  0.13206740  0.24259428  0.93203472  1.0
  Cl  Cl8  1  0.75740572  0.88947312  0.26536805  1.0
  Cl  Cl9  1  0.75740572  0.86793260  0.73463195  1.0
  Cl  Cl10  1  0.11052688  0.86793260  0.59870139  1.0
  Cl  Cl11  1  0.11052688  0.24259428  0.40129861  1.0
  Cl  Cl12  1  0.42574556  0.88943824  0.93201894  1.0
  Cl  Cl13  1  0.42574556  0.53630732  0.06798106  1.0
  Cl  Cl14  1  0.46369268  0.88943824  0.40131439  1.0
  Cl  Cl15  1  0.46369268  0.57425444  0.59868561  1.0
  Cl  Cl16  1  0.11056176  0.57425444  0.73464773  1.0
  Cl  Cl17  1  0.11056176  0.53630732  0.26535227  1.0
  Cl  Cl18  1  0.77891298  0.53633729  0.93201560  1.0
  Cl  Cl19  1  0.77891298  0.24257569  0.06798440  1.0
  Cl  Cl20  1  0.75742431  0.53633729  0.40131774  1.0
  Cl  Cl21  1  0.75742431  0.22108702  0.59868226  1.0
  Cl  Cl22  1  0.46366271  0.22108702  0.73465107  1.0
  Cl  Cl23  1  0.46366271  0.24257569  0.26534893  1.0
