# generated using pymatgen
data_ZrNi
_symmetry_space_group_name_H-M   'P 1'
_cell_length_a   5.26024169
_cell_length_b   5.26024169
_cell_length_c   4.07653347
_cell_angle_alpha   90.00000000
_cell_angle_beta   90.00000000
_cell_angle_gamma   143.49056082
_symmetry_Int_Tables_number   1
_chemical_formula_structural   ZrNi
_chemical_formula_sum   'Zr2 Ni2'
_cell_volume   67.10991392
_cell_formula_units_Z   2
loop_
 _symmetry_equiv_pos_site_id
 _symmetry_equiv_pos_as_xyz
  1  'x, y, z'
loop_
 _atom_site_type_symbol
 _atom_site_label
 _atom_site_symmetry_multiplicity
 _atom_site_fract_x
 _atom_site_fract_y
 _atom_site_fract_z
 _atom_site_occupancy
  Zr  Zr0  1  -0.63908608  0.63908608  0.25000000  1.0
  Zr  Zr1  1  -0.36091392  1.36091392  0.75000000  1.0
  Ni  Ni2  1  -0.91680626  0.91680626  0.25000000  1.0
  Ni  Ni3  1  -0.08319374  1.08319374  0.75000000  1.0
