# generated using pymatgen
data_Hg2MoSeO6
_symmetry_space_group_name_H-M   'P 1'
_cell_length_a   6.62272745
_cell_length_b   13.95373080
_cell_length_c   7.25373619
_cell_angle_alpha   90.00000000
_cell_angle_beta   90.00000000
_cell_angle_gamma   90.00000000
_symmetry_Int_Tables_number   1
_chemical_formula_structural   Hg2MoSeO6
_chemical_formula_sum   'Hg8 Mo4 Se4 O24'
_cell_volume   670.33049878
_cell_formula_units_Z   4
loop_
 _symmetry_equiv_pos_site_id
 _symmetry_equiv_pos_as_xyz
  1  'x, y, z'
loop_
 _atom_site_type_symbol
 _atom_site_label
 _atom_site_symmetry_multiplicity
 _atom_site_fract_x
 _atom_site_fract_y
 _atom_site_fract_z
 _atom_site_occupancy
  Hg  Hg0  1  0.04663438  0.48313001  0.25000000  1.0
  Hg  Hg1  1  0.95336562  0.51686999  0.75000000  1.0
  Hg  Hg2  1  0.04663438  0.01686999  0.75000000  1.0
  Hg  Hg3  1  0.95336562  0.98313001  0.25000000  1.0
  Hg  Hg4  1  0.57730597  0.56914005  0.75000000  1.0
  Hg  Hg5  1  0.42269403  0.43085995  0.25000000  1.0
  Hg  Hg6  1  0.57730597  0.93085995  0.25000000  1.0
  Hg  Hg7  1  0.42269403  0.06914005  0.75000000  1.0
  Mo  Mo8  1  0.24075177  0.75000000  0.00000000  1.0
  Mo  Mo9  1  0.75924823  0.25000000  0.50000000  1.0
  Mo  Mo10  1  0.75924823  0.25000000  0.00000000  1.0
  Mo  Mo11  1  0.24075177  0.75000000  0.50000000  1.0
  Se  Se12  1  0.66207040  0.64799986  0.25000000  1.0
  Se  Se13  1  0.33792960  0.35200014  0.75000000  1.0
  Se  Se14  1  0.66207040  0.85200014  0.75000000  1.0
  Se  Se15  1  0.33792960  0.14799986  0.25000000  1.0
  O  O16  1  0.72369832  0.52470947  0.25000000  1.0
  O  O17  1  0.27630168  0.47529053  0.75000000  1.0
  O  O18  1  0.72369832  0.97529053  0.75000000  1.0
  O  O19  1  0.27630168  0.02470947  0.25000000  1.0
  O  O20  1  0.50118961  0.64818733  0.06324180  1.0
  O  O21  1  0.49881039  0.35181267  0.56324180  1.0
  O  O22  1  0.50118961  0.85181267  0.93675820  1.0
  O  O23  1  0.49881039  0.14818733  0.43675820  1.0
  O  O24  1  0.49881039  0.35181267  0.93675820  1.0
  O  O25  1  0.50118961  0.64818733  0.43675820  1.0
  O  O26  1  0.49881039  0.14818733  0.06324180  1.0
  O  O27  1  0.50118961  0.85181267  0.56324180  1.0
  O  O28  1  0.07629730  0.84255846  0.94888210  1.0
  O  O29  1  0.92370270  0.15744154  0.44888210  1.0
  O  O30  1  0.07629730  0.65744154  0.05111790  1.0
  O  O31  1  0.92370270  0.34255846  0.55111790  1.0
  O  O32  1  0.92370270  0.15744154  0.05111790  1.0
  O  O33  1  0.07629730  0.84255846  0.55111790  1.0
  O  O34  1  0.92370270  0.34255846  0.94888210  1.0
  O  O35  1  0.07629730  0.65744154  0.44888210  1.0
  O  O36  1  0.31031124  0.70696372  0.75000000  1.0
  O  O37  1  0.68968876  0.29303628  0.25000000  1.0
  O  O38  1  0.31031124  0.79303628  0.25000000  1.0
  O  O39  1  0.68968876  0.20696372  0.75000000  1.0
