# generated using pymatgen
data_RbBi3S5
_symmetry_space_group_name_H-M   'P 1'
_cell_length_a   12.51940059
_cell_length_b   18.68151823
_cell_length_c   4.35088644
_cell_angle_alpha   90.00000000
_cell_angle_beta   90.00000000
_cell_angle_gamma   90.00000000
_symmetry_Int_Tables_number   1
_chemical_formula_structural   RbBi3S5
_chemical_formula_sum   'Rb4 Bi12 S20'
_cell_volume   1017.59145738
_cell_formula_units_Z   4
loop_
 _symmetry_equiv_pos_site_id
 _symmetry_equiv_pos_as_xyz
  1  'x, y, z'
loop_
 _atom_site_type_symbol
 _atom_site_label
 _atom_site_symmetry_multiplicity
 _atom_site_fract_x
 _atom_site_fract_y
 _atom_site_fract_z
 _atom_site_occupancy
  S  S0  1  0.07087468  0.30166875  0.00000000  1.0
  S  S1  1  0.92912532  0.69833125  0.00000000  1.0
  S  S2  1  0.57087468  0.19833125  0.50000000  1.0
  S  S3  1  0.42912532  0.80166875  0.50000000  1.0
  S  S4  1  0.37232352  0.33503248  0.00000000  1.0
  S  S5  1  0.62767648  0.66496752  0.00000000  1.0
  S  S6  1  0.87232352  0.16496752  0.50000000  1.0
  S  S7  1  0.12767648  0.83503248  0.50000000  1.0
  S  S8  1  0.68297054  0.03916747  -0.00000000  1.0
  S  S9  1  0.31702946  0.96083253  -0.00000000  1.0
  S  S10  1  0.18297054  0.46083253  0.50000000  1.0
  S  S11  1  0.81702946  0.53916747  0.50000000  1.0
  S  S12  1  0.00000000  0.00000000  0.00000000  1.0
  S  S13  1  0.50000000  0.50000000  0.50000000  1.0
  S  S14  1  0.32360913  0.64143479  -0.00000000  1.0
  S  S15  1  0.67639087  0.35856521  -0.00000000  1.0
  S  S16  1  0.82360913  0.85856521  0.50000000  1.0
  S  S17  1  0.17639087  0.14143479  0.50000000  1.0
  S  S18  1  0.00000000  0.50000000  0.50000000  1.0
  S  S19  1  0.50000000  0.00000000  0.00000000  1.0
  Bi  Bi20  1  0.29299640  0.81592809  -0.00000000  1.0
  Bi  Bi21  1  0.70700360  0.18407191  -0.00000000  1.0
  Bi  Bi22  1  0.79299640  0.68407191  0.50000000  1.0
  Bi  Bi23  1  0.20700360  0.31592809  0.50000000  1.0
  Bi  Bi24  1  0.03580208  0.15717695  0.00000000  1.0
  Bi  Bi25  1  0.96419792  0.84282305  0.00000000  1.0
  Bi  Bi26  1  0.53580208  0.34282305  0.50000000  1.0
  Bi  Bi27  1  0.46419792  0.65717695  0.50000000  1.0
  Bi  Bi28  1  0.33460605  0.48290846  0.00000000  1.0
  Bi  Bi29  1  0.66539395  0.51709154  0.00000000  1.0
  Bi  Bi30  1  0.83460605  0.01709154  0.50000000  1.0
  Bi  Bi31  1  0.16539395  0.98290846  0.50000000  1.0
  Rb  Rb32  1  0.38108521  0.14763149  0.00000000  1.0
  Rb  Rb33  1  0.61891479  0.85236851  0.00000000  1.0
  Rb  Rb34  1  0.88108521  0.35236851  0.50000000  1.0
  Rb  Rb35  1  0.11891479  0.64763149  0.50000000  1.0
