# generated using pymatgen
data_Cs2Ni3S4
_symmetry_space_group_name_H-M   'P 1'
_cell_length_a   5.89851816
_cell_length_b   5.89851816
_cell_length_c   15.49256539
_cell_angle_alpha   90.00000000
_cell_angle_beta   90.00000000
_cell_angle_gamma   120.00000000
_symmetry_Int_Tables_number   1
_chemical_formula_structural   Cs2Ni3S4
_chemical_formula_sum   'Cs4 Ni6 S8'
_cell_volume   466.80963452
_cell_formula_units_Z   2
loop_
 _symmetry_equiv_pos_site_id
 _symmetry_equiv_pos_as_xyz
  1  'x, y, z'
loop_
 _atom_site_type_symbol
 _atom_site_label
 _atom_site_symmetry_multiplicity
 _atom_site_fract_x
 _atom_site_fract_y
 _atom_site_fract_z
 _atom_site_occupancy
  Cs  Cs0  1  0.33333333  0.66666667  0.90717072  1.0
  Cs  Cs1  1  0.33333333  0.66666667  0.59282928  1.0
  Cs  Cs2  1  0.66666667  0.33333333  0.40717072  1.0
  Cs  Cs3  1  0.66666667  0.33333333  0.09282928  1.0
  Ni  Ni4  1  0.16655435  0.83344565  0.25000000  1.0
  Ni  Ni5  1  0.16655435  0.33310869  0.25000000  1.0
  Ni  Ni6  1  0.83344565  0.16655435  0.75000000  1.0
  Ni  Ni7  1  0.83344565  0.66689131  0.75000000  1.0
  Ni  Ni8  1  0.66689131  0.83344565  0.25000000  1.0
  Ni  Ni9  1  0.33310869  0.16655435  0.75000000  1.0
  S  S10  1  0.33333333  0.66666667  0.34200895  1.0
  S  S11  1  0.33333333  0.66666667  0.15799105  1.0
  S  S12  1  0.66666667  0.33333333  0.84200895  1.0
  S  S13  1  0.66666667  0.33333333  0.65799105  1.0
  S  S14  1  0.00000000  0.00000000  0.34130036  1.0
  S  S15  1  0.00000000  0.00000000  0.15869964  1.0
  S  S16  1  -0.00000000  -0.00000000  0.84130036  1.0
  S  S17  1  0.00000000  -0.00000000  0.65869964  1.0
