# generated using pymatgen
data_Co3(PO4)2
_symmetry_space_group_name_H-M   'P 1'
_cell_length_a   5.93700420
_cell_length_b   4.76731996
_cell_length_c   10.43542271
_cell_angle_alpha   90.00000000
_cell_angle_beta   90.13214380
_cell_angle_gamma   90.00000000
_symmetry_Int_Tables_number   1
_chemical_formula_structural   Co3(PO4)2
_chemical_formula_sum   'Co6 P4 O16'
_cell_volume   295.35923038
_cell_formula_units_Z   2
loop_
 _symmetry_equiv_pos_site_id
 _symmetry_equiv_pos_as_xyz
  1  'x, y, z'
loop_
 _atom_site_type_symbol
 _atom_site_label
 _atom_site_symmetry_multiplicity
 _atom_site_fract_x
 _atom_site_fract_y
 _atom_site_fract_z
 _atom_site_occupancy
  Co  Co0  1  0.73919635  0.98766662  0.28060643  1.0
  Co  Co1  1  0.73919635  0.51233338  0.78060643  1.0
  Co  Co2  1  0.26080365  0.48766662  0.21939357  1.0
  Co  Co3  1  0.26080365  0.01233338  0.71939357  1.0
  Co  Co4  1  0.00000000  0.50000000  0.50000000  1.0
  Co  Co5  1  -0.00000000  0.00000000  -0.00000000  1.0
  P  P6  1  0.75730214  0.43124775  0.10004799  1.0
  P  P7  1  0.75730214  0.06875225  0.60004799  1.0
  P  P8  1  0.24269786  0.93124775  0.39995201  1.0
  P  P9  1  0.24269786  0.56875225  0.89995201  1.0
  O  O10  1  0.96847222  0.27786649  0.16495562  1.0
  O  O11  1  0.96847222  0.22213351  0.66495562  1.0
  O  O12  1  0.03152778  0.77786649  0.33504438  1.0
  O  O13  1  0.03152778  0.72213351  0.83504438  1.0
  O  O14  1  0.75417331  0.18867859  0.46120699  1.0
  O  O15  1  0.75417331  0.31132141  0.96120699  1.0
  O  O16  1  0.24582669  0.68867859  0.03879301  1.0
  O  O17  1  0.24582669  0.81132141  0.53879301  1.0
  O  O18  1  0.55880152  0.31818900  0.18345086  1.0
  O  O19  1  0.55880152  0.18181100  0.68345086  1.0
  O  O20  1  0.44119848  0.81818900  0.31654914  1.0
  O  O21  1  0.44119848  0.68181100  0.81654914  1.0
  O  O22  1  0.22664326  0.25483553  0.39631108  1.0
  O  O23  1  0.22664326  0.24516447  0.89631108  1.0
  O  O24  1  0.77335674  0.75483553  0.10368892  1.0
  O  O25  1  0.77335674  0.74516447  0.60368892  1.0
