# generated using pymatgen
data_Tc3Se4I
_symmetry_space_group_name_H-M   'P 1'
_cell_length_a   6.65566633
_cell_length_b   12.12795782
_cell_length_c   11.88411366
_cell_angle_alpha   90.00000000
_cell_angle_beta   111.84035764
_cell_angle_gamma   90.00000000
_symmetry_Int_Tables_number   1
_chemical_formula_structural   Tc3Se4I
_chemical_formula_sum   'Tc12 Se16 I4'
_cell_volume   890.42801691
_cell_formula_units_Z   4
loop_
 _symmetry_equiv_pos_site_id
 _symmetry_equiv_pos_as_xyz
  1  'x, y, z'
loop_
 _atom_site_type_symbol
 _atom_site_label
 _atom_site_symmetry_multiplicity
 _atom_site_fract_x
 _atom_site_fract_y
 _atom_site_fract_z
 _atom_site_occupancy
  Tc  Tc0  1  0.96567925  0.35994631  0.05559800  1.0
  Tc  Tc1  1  0.96567925  0.14005369  0.55559800  1.0
  Tc  Tc2  1  0.03432075  0.85994631  0.44440200  1.0
  Tc  Tc3  1  0.03432075  0.64005369  0.94440200  1.0
  Tc  Tc4  1  0.97372798  0.06231130  0.35168626  1.0
  Tc  Tc5  1  0.97372798  0.43768870  0.85168626  1.0
  Tc  Tc6  1  0.02627202  0.56231130  0.14831374  1.0
  Tc  Tc7  1  0.02627202  0.93768870  0.64831374  1.0
  Tc  Tc8  1  0.70350493  0.97926480  0.44411498  1.0
  Tc  Tc9  1  0.70350493  0.52073520  0.94411498  1.0
  Tc  Tc10  1  0.29649507  0.47926480  0.05588502  1.0
  Tc  Tc11  1  0.29649507  0.02073520  0.55588502  1.0
  Se  Se12  1  0.71857987  0.44175171  0.15137996  1.0
  Se  Se13  1  0.71857987  0.05824829  0.65137996  1.0
  Se  Se14  1  0.28142013  0.94175171  0.34862004  1.0
  Se  Se15  1  0.28142013  0.55824829  0.84862004  1.0
  Se  Se16  1  0.72442636  0.90535709  0.25128139  1.0
  Se  Se17  1  0.72442636  0.59464291  0.75128139  1.0
  Se  Se18  1  0.27557364  0.40535709  0.24871861  1.0
  Se  Se19  1  0.27557364  0.09464291  0.74871861  1.0
  Se  Se20  1  0.65831961  0.17045720  0.35698754  1.0
  Se  Se21  1  0.65831961  0.32954280  0.85698754  1.0
  Se  Se22  1  0.34168039  0.67045720  0.14301246  1.0
  Se  Se23  1  0.34168039  0.82954280  0.64301246  1.0
  Se  Se24  1  0.22741638  0.21108933  0.46687701  1.0
  Se  Se25  1  0.22741638  0.28891067  0.96687701  1.0
  Se  Se26  1  0.77258362  0.71108933  0.03312299  1.0
  Se  Se27  1  0.77258362  0.78891067  0.53312299  1.0
  I  I28  1  0.90519980  0.13959331  0.11562742  1.0
  I  I29  1  0.90519980  0.36040669  0.61562742  1.0
  I  I30  1  0.09480020  0.63959331  0.38437258  1.0
  I  I31  1  0.09480020  0.86040669  0.88437258  1.0
