# generated using pymatgen
data_Hf2Rh
_symmetry_space_group_name_H-M   'P 1'
_cell_length_a   8.73127542
_cell_length_b   8.73127542
_cell_length_c   8.73127542
_cell_angle_alpha   60.00000000
_cell_angle_beta   60.00000000
_cell_angle_gamma   60.00000000
_symmetry_Int_Tables_number   1
_chemical_formula_structural   Hf2Rh
_chemical_formula_sum   'Hf16 Rh8'
_cell_volume   470.67167714
_cell_formula_units_Z   8
loop_
 _symmetry_equiv_pos_site_id
 _symmetry_equiv_pos_as_xyz
  1  'x, y, z'
loop_
 _atom_site_type_symbol
 _atom_site_label
 _atom_site_symmetry_multiplicity
 _atom_site_fract_x
 _atom_site_fract_y
 _atom_site_fract_z
 _atom_site_occupancy
  Hf  Hf0  1  1.12500000  0.62500000  0.62500000  1.0
  Hf  Hf1  1  0.62500000  1.12500000  -0.37500000  1.0
  Hf  Hf2  1  -0.37500000  0.62500000  1.12500000  1.0
  Hf  Hf3  1  -0.37500000  0.62500000  0.62500000  1.0
  Hf  Hf4  1  0.81387359  0.81387359  -0.81387359  1.0
  Hf  Hf5  1  0.18612641  1.18612641  -0.18612641  1.0
  Hf  Hf6  1  0.81387359  -0.81387359  0.81387359  1.0
  Hf  Hf7  1  0.18612641  -0.18612641  0.18612641  1.0
  Hf  Hf8  1  -0.81387359  0.81387359  0.81387359  1.0
  Hf  Hf9  1  -0.18612641  0.18612641  0.18612641  1.0
  Hf  Hf10  1  0.43612641  1.43612641  0.06387359  1.0
  Hf  Hf11  1  0.06387359  0.06387359  0.43612641  1.0
  Hf  Hf12  1  0.43612641  1.06387359  0.43612641  1.0
  Hf  Hf13  1  0.06387359  1.43612641  0.06387359  1.0
  Hf  Hf14  1  0.06387359  1.43612641  0.43612641  1.0
  Hf  Hf15  1  0.43612641  1.06387359  0.06387359  1.0
  Rh  Rh16  1  -0.21039870  0.40346623  0.40346623  1.0
  Rh  Rh17  1  0.40346623  -0.21039870  0.40346623  1.0
  Rh  Rh18  1  0.40346623  1.40346623  -0.21039870  1.0
  Rh  Rh19  1  0.40346623  1.40346623  0.40346623  1.0
  Rh  Rh20  1  0.46039870  0.84653377  -0.15346623  1.0
  Rh  Rh21  1  0.84653377  0.46039870  0.84653377  1.0
  Rh  Rh22  1  0.84653377  0.84653377  -0.53960130  1.0
  Rh  Rh23  1  0.84653377  0.84653377  0.84653377  1.0
