# generated using pymatgen
data_KAl(MoO4)2
_symmetry_space_group_name_H-M   'P 1'
_cell_length_a   5.60711888
_cell_length_b   5.60711888
_cell_length_c   7.28699100
_cell_angle_alpha   90.00000000
_cell_angle_beta   90.00000000
_cell_angle_gamma   120.00000000
_symmetry_Int_Tables_number   1
_chemical_formula_structural   KAl(MoO4)2
_chemical_formula_sum   'K1 Al1 Mo2 O8'
_cell_volume   198.40764037
_cell_formula_units_Z   1
loop_
 _symmetry_equiv_pos_site_id
 _symmetry_equiv_pos_as_xyz
  1  'x, y, z'
loop_
 _atom_site_type_symbol
 _atom_site_label
 _atom_site_symmetry_multiplicity
 _atom_site_fract_x
 _atom_site_fract_y
 _atom_site_fract_z
 _atom_site_occupancy
  K  K0  1  -0.00000000  -0.00000000  0.00000000  1.0
  Al  Al1  1  -0.00000000  -0.00000000  0.50000000  1.0
  Mo  Mo2  1  0.33333333  0.66666667  0.26942793  1.0
  Mo  Mo3  1  0.66666667  0.33333333  0.73057207  1.0
  O  O4  1  0.68378375  0.84189187  0.34519962  1.0
  O  O5  1  0.84189187  0.68378375  0.65480038  1.0
  O  O6  1  0.84189187  0.15810813  0.65480038  1.0
  O  O7  1  0.15810813  0.84189187  0.34519962  1.0
  O  O8  1  0.15810813  0.31621625  0.34519962  1.0
  O  O9  1  0.31621625  0.15810813  0.65480038  1.0
  O  O10  1  0.33333333  0.66666667  0.03160520  1.0
  O  O11  1  0.66666667  0.33333333  0.96839480  1.0
