# generated using pymatgen
data_Ca3Si4
_symmetry_space_group_name_H-M   'P 1'
_cell_length_a   8.54391303
_cell_length_b   8.54391303
_cell_length_c   14.89817051
_cell_angle_alpha   90.00000000
_cell_angle_beta   90.00000000
_cell_angle_gamma   120.00000000
_symmetry_Int_Tables_number   1
_chemical_formula_structural   Ca3Si4
_chemical_formula_sum   'Ca18 Si24'
_cell_volume   941.84017090
_cell_formula_units_Z   6
loop_
 _symmetry_equiv_pos_site_id
 _symmetry_equiv_pos_as_xyz
  1  'x, y, z'
loop_
 _atom_site_type_symbol
 _atom_site_label
 _atom_site_symmetry_multiplicity
 _atom_site_fract_x
 _atom_site_fract_y
 _atom_site_fract_z
 _atom_site_occupancy
  Ca  Ca0  1  0.90640070  0.57825028  0.40253338  1.0
  Ca  Ca1  1  0.90640070  0.57825028  0.09746662  1.0
  Ca  Ca2  1  0.57825028  0.67184959  0.90253338  1.0
  Ca  Ca3  1  0.57825028  0.67184959  0.59746662  1.0
  Ca  Ca4  1  0.67184959  0.09359930  0.40253338  1.0
  Ca  Ca5  1  0.67184959  0.09359930  0.09746662  1.0
  Ca  Ca6  1  0.42174972  0.32815041  0.40253338  1.0
  Ca  Ca7  1  0.42174972  0.32815041  0.09746662  1.0
  Ca  Ca8  1  0.09359930  0.42174972  0.90253338  1.0
  Ca  Ca9  1  0.09359930  0.42174972  0.59746662  1.0
  Ca  Ca10  1  0.32815041  0.90640070  0.90253338  1.0
  Ca  Ca11  1  0.32815041  0.90640070  0.59746662  1.0
  Ca  Ca12  1  0.33333333  0.66666667  0.25000000  1.0
  Ca  Ca13  1  0.66666667  0.33333333  0.75000000  1.0
  Ca  Ca14  1  0.00000000  0.00000000  0.50000000  1.0
  Ca  Ca15  1  0.00000000  0.00000000  0.00000000  1.0
  Ca  Ca16  1  0.00000000  0.00000000  0.25000000  1.0
  Ca  Ca17  1  0.00000000  0.00000000  0.75000000  1.0
  Si  Si18  1  0.26317962  0.90911663  0.39029671  1.0
  Si  Si19  1  0.26317962  0.90911663  0.10970329  1.0
  Si  Si20  1  0.90911663  0.64593701  0.89029671  1.0
  Si  Si21  1  0.90911663  0.64593701  0.60970329  1.0
  Si  Si22  1  0.64593701  0.73682038  0.39029671  1.0
  Si  Si23  1  0.64593701  0.73682038  0.10970329  1.0
  Si  Si24  1  0.09088337  0.35406299  0.39029671  1.0
  Si  Si25  1  0.09088337  0.35406299  0.10970329  1.0
  Si  Si26  1  0.73682038  0.09088337  0.89029671  1.0
  Si  Si27  1  0.73682038  0.09088337  0.60970329  1.0
  Si  Si28  1  0.35406299  0.26317962  0.89029671  1.0
  Si  Si29  1  0.35406299  0.26317962  0.60970329  1.0
  Si  Si30  1  0.67463809  0.61870311  0.25000000  1.0
  Si  Si31  1  0.61870311  0.94406502  0.75000000  1.0
  Si  Si32  1  0.94406502  0.32536191  0.25000000  1.0
  Si  Si33  1  0.38129689  0.05593498  0.25000000  1.0
  Si  Si34  1  0.32536191  0.38129689  0.75000000  1.0
  Si  Si35  1  0.05593498  0.67463809  0.75000000  1.0
  Si  Si36  1  0.33333333  0.66666667  0.44307586  1.0
  Si  Si37  1  0.33333333  0.66666667  0.05692414  1.0
  Si  Si38  1  0.66666667  0.33333333  0.94307586  1.0
  Si  Si39  1  0.66666667  0.33333333  0.55692414  1.0
  Si  Si40  1  0.66666667  0.33333333  0.25000000  1.0
  Si  Si41  1  0.33333333  0.66666667  0.75000000  1.0
