# generated using pymatgen
data_Ta5Ni
_symmetry_space_group_name_H-M   'P 1'
_cell_length_a   8.39526369
_cell_length_b   8.39526369
_cell_length_c   8.39526369
_cell_angle_alpha   60.00000000
_cell_angle_beta   60.00000000
_cell_angle_gamma   60.00000000
_symmetry_Int_Tables_number   1
_chemical_formula_structural   Ta5Ni
_chemical_formula_sum   'Ta20 Ni4'
_cell_volume   418.39648446
_cell_formula_units_Z   4
loop_
 _symmetry_equiv_pos_site_id
 _symmetry_equiv_pos_as_xyz
  1  'x, y, z'
loop_
 _atom_site_type_symbol
 _atom_site_label
 _atom_site_symmetry_multiplicity
 _atom_site_fract_x
 _atom_site_fract_y
 _atom_site_fract_z
 _atom_site_occupancy
  Ta  Ta0  1  -0.24175117  0.41391706  0.41391706  1.0
  Ta  Ta1  1  0.41391706  -0.24175117  0.41391706  1.0
  Ta  Ta2  1  0.41391706  1.41391706  -0.24175117  1.0
  Ta  Ta3  1  0.41391706  1.41391706  0.41391706  1.0
  Ta  Ta4  1  0.49175117  0.83608294  -0.16391706  1.0
  Ta  Ta5  1  0.83608294  0.49175117  0.83608294  1.0
  Ta  Ta6  1  0.83608294  0.83608294  -0.50824883  1.0
  Ta  Ta7  1  0.83608294  0.83608294  0.83608294  1.0
  Ta  Ta8  1  0.81300677  0.81300677  -0.81300677  1.0
  Ta  Ta9  1  0.18699323  1.18699323  -0.18699323  1.0
  Ta  Ta10  1  0.81300677  -0.81300677  0.81300677  1.0
  Ta  Ta11  1  0.18699323  -0.18699323  0.18699323  1.0
  Ta  Ta12  1  -0.81300677  0.81300677  0.81300677  1.0
  Ta  Ta13  1  -0.18699323  0.18699323  0.18699323  1.0
  Ta  Ta14  1  0.43699323  1.43699323  0.06300677  1.0
  Ta  Ta15  1  0.06300677  0.06300677  0.43699323  1.0
  Ta  Ta16  1  0.43699323  1.06300677  0.43699323  1.0
  Ta  Ta17  1  0.06300677  1.43699323  0.06300677  1.0
  Ta  Ta18  1  0.06300677  1.43699323  0.43699323  1.0
  Ta  Ta19  1  0.43699323  1.06300677  0.06300677  1.0
  Ni  Ni20  1  1.12500000  0.62500000  0.62500000  1.0
  Ni  Ni21  1  0.62500000  1.12500000  -0.37500000  1.0
  Ni  Ni22  1  -0.37500000  0.62500000  1.12500000  1.0
  Ni  Ni23  1  -0.37500000  0.62500000  0.62500000  1.0
