# generated using pymatgen
data_Sr2ScOsO6
_symmetry_space_group_name_H-M   'P 1'
_cell_length_a   5.70119345
_cell_length_b   5.69719337
_cell_length_c   9.87085421
_cell_angle_alpha   90.00000000
_cell_angle_beta   125.37382091
_cell_angle_gamma   90.00000000
_symmetry_Int_Tables_number   1
_chemical_formula_structural   Sr2ScOsO6
_chemical_formula_sum   'Sr4 Sc2 Os2 O12'
_cell_volume   261.42561015
_cell_formula_units_Z   2
loop_
 _symmetry_equiv_pos_site_id
 _symmetry_equiv_pos_as_xyz
  1  'x, y, z'
loop_
 _atom_site_type_symbol
 _atom_site_label
 _atom_site_symmetry_multiplicity
 _atom_site_fract_x
 _atom_site_fract_y
 _atom_site_fract_z
 _atom_site_occupancy
  Sr  Sr0  1  0.74644868  0.02081858  0.25046894  1.0
  Sr  Sr1  1  0.74644868  0.47918142  0.75046894  1.0
  Sr  Sr2  1  0.25355132  0.52081858  0.24953106  1.0
  Sr  Sr3  1  0.25355132  0.97918142  0.74953106  1.0
  Sc  Sc4  1  0.50000000  0.50000000  -0.00000000  1.0
  Sc  Sc5  1  0.50000000  0.00000000  0.50000000  1.0
  Os  Os6  1  0.00000000  0.50000000  0.50000000  1.0
  Os  Os7  1  0.00000000  0.00000000  0.00000000  1.0
  O  O8  1  0.81417251  0.49149570  0.25774548  1.0
  O  O9  1  0.81417251  0.00850430  0.75774548  1.0
  O  O10  1  0.18582749  0.99149570  0.24225452  1.0
  O  O11  1  0.18582749  0.50850430  0.74225452  1.0
  O  O12  1  0.75428562  0.76853082  0.47039168  1.0
  O  O13  1  0.75428562  0.73146918  0.97039168  1.0
  O  O14  1  0.24571438  0.26853082  0.02960832  1.0
  O  O15  1  0.24571438  0.23146918  0.52960832  1.0
  O  O16  1  0.70316953  0.28280954  0.47061600  1.0
  O  O17  1  0.70316953  0.21719046  0.97061600  1.0
  O  O18  1  0.29683047  0.78280954  0.02938400  1.0
  O  O19  1  0.29683047  0.71719046  0.52938400  1.0
