# generated using pymatgen
data_K4H6W2S2O9
_symmetry_space_group_name_H-M   'P 1'
_cell_length_a   6.56601834
_cell_length_b   6.56601834
_cell_length_c   18.94979508
_cell_angle_alpha   82.57081287
_cell_angle_beta   97.42918713
_cell_angle_gamma   99.96590728
_symmetry_Int_Tables_number   1
_chemical_formula_structural   K4H6W2S2O9
_chemical_formula_sum   'K8 H12 W4 S4 O18'
_cell_volume   793.09658114
_cell_formula_units_Z   2
loop_
 _symmetry_equiv_pos_site_id
 _symmetry_equiv_pos_as_xyz
  1  'x, y, z'
loop_
 _atom_site_type_symbol
 _atom_site_label
 _atom_site_symmetry_multiplicity
 _atom_site_fract_x
 _atom_site_fract_y
 _atom_site_fract_z
 _atom_site_occupancy
  K  K0  1  1.74072087  -0.13180553  0.93842890  1.0
  K  K1  1  1.13180553  -0.74072087  0.43842890  1.0
  K  K2  1  0.86819447  0.74072087  0.56157110  1.0
  K  K3  1  0.25927913  0.13180553  0.06157110  1.0
  K  K4  1  1.21809550  -0.20002564  0.78441676  1.0
  K  K5  1  1.20002564  -0.21809550  0.28441676  1.0
  K  K6  1  0.79997436  0.21809550  0.71558324  1.0
  K  K7  1  0.78190450  0.20002564  0.21558324  1.0
  H  H8  1  1.70846628  -0.28474097  0.78999250  1.0
  H  H9  1  1.28474097  -0.70846628  0.28999250  1.0
  H  H10  1  0.71525903  0.70846628  0.71000750  1.0
  H  H11  1  0.29153372  0.28474097  0.21000750  1.0
  H  H12  1  0.71538237  0.21003901  0.53445503  1.0
  H  H13  1  0.78996099  0.28461763  0.03445503  1.0
  H  H14  1  1.21003901  -0.28461763  0.96554497  1.0
  H  H15  1  1.28461763  -0.21003901  0.46554497  1.0
  H  H16  1  0.54878538  0.07588259  0.57946341  1.0
  H  H17  1  0.92411741  0.45121462  0.07946341  1.0
  H  H18  1  1.07588259  -0.45121462  0.92053659  1.0
  H  H19  1  1.45121462  -0.07588259  0.42053659  1.0
  W  W20  1  0.45731675  0.30751187  0.88019103  1.0
  W  W21  1  0.69248813  0.54268325  0.38019103  1.0
  W  W22  1  1.30751187  -0.54268325  0.61980897  1.0
  W  W23  1  1.54268325  -0.30751187  0.11980897  1.0
  S  S24  1  1.75375739  -0.10821616  0.37752391  1.0
  S  S25  1  1.10821616  -0.75375739  0.87752391  1.0
  S  S26  1  0.89178384  0.75375739  0.12247609  1.0
  S  S27  1  0.24624261  0.10821616  0.62247609  1.0
  O  O28  1  1.54238339  -0.42399145  0.85050942  1.0
  O  O29  1  1.42399145  -0.54238339  0.35050942  1.0
  O  O30  1  0.57600855  0.54238339  0.64949058  1.0
  O  O31  1  0.45761661  0.42399145  0.14949058  1.0
  O  O32  1  0.69656785  0.09035055  0.57195617  1.0
  O  O33  1  0.90964945  0.30343215  0.07195617  1.0
  O  O34  1  1.09035055  -0.30343215  0.92804383  1.0
  O  O35  1  1.30343215  -0.09035055  0.42804383  1.0
  O  O36  1  0.53557254  0.13964925  0.82565202  1.0
  O  O37  1  0.86035075  0.46442746  0.32565202  1.0
  O  O38  1  1.13964925  -0.46442746  0.67434798  1.0
  O  O39  1  1.46442746  -0.13964925  0.17434798  1.0
  O  O40  1  0.57066288  0.24715025  0.96973065  1.0
  O  O41  1  0.75284975  0.42933712  0.46973065  1.0
  O  O42  1  1.24715025  -0.42933712  0.53026935  1.0
  O  O43  1  1.42933712  -0.24715025  0.03026935  1.0
  O  O44  1  0.78677421  0.78677421  0.75000000  1.0
  O  O45  1  0.21322579  0.21322579  0.25000000  1.0
