# generated using pymatgen
data_SrZr(PO4)2
_symmetry_space_group_name_H-M   'P 1'
_cell_length_a   7.83932716
_cell_length_b   5.19580359
_cell_length_c   8.07215214
_cell_angle_alpha   96.32961204
_cell_angle_beta   91.80121709
_cell_angle_gamma   90.51677100
_symmetry_Int_Tables_number   1
_chemical_formula_structural   SrZr(PO4)2
_chemical_formula_sum   'Sr2 Zr2 P4 O16'
_cell_volume   326.60016497
_cell_formula_units_Z   2
loop_
 _symmetry_equiv_pos_site_id
 _symmetry_equiv_pos_as_xyz
  1  'x, y, z'
loop_
 _atom_site_type_symbol
 _atom_site_label
 _atom_site_symmetry_multiplicity
 _atom_site_fract_x
 _atom_site_fract_y
 _atom_site_fract_z
 _atom_site_occupancy
  Sr  Sr0  1  -0.47565588  -0.29531130  -0.72825692  1.0
  Sr  Sr1  1  -0.52434412  -0.70468870  -0.27174308  1.0
  Zr  Zr2  1  -0.97180280  -0.33558217  -0.77858832  1.0
  Zr  Zr3  1  -0.02819720  -0.66441783  -0.22141168  1.0
  P  P4  1  -0.20782426  -0.79721742  -0.62160957  1.0
  P  P5  1  -0.79217574  -0.20278258  -0.37839043  1.0
  P  P6  1  -0.75057023  -0.78260692  -0.87911222  1.0
  P  P7  1  -0.24942977  -0.21739309  -0.12088778  1.0
  O  O8  1  -0.83866381  -0.95494211  -0.26241899  1.0
  O  O9  1  -0.16133619  -0.04505789  -0.73758101  1.0
  O  O10  1  -0.39692307  -0.81180560  -0.57798010  1.0
  O  O11  1  -0.60307693  -0.18819440  -0.42201990  1.0
  O  O12  1  -0.58943387  -0.74356282  -0.97202522  1.0
  O  O13  1  -0.41056613  -0.25643718  -0.02797478  1.0
  O  O14  1  -0.91931942  -0.68989044  -0.96884368  1.0
  O  O15  1  -0.08068058  -0.31010956  -0.03115632  1.0
  O  O16  1  -0.75491689  -0.57960879  -0.71887648  1.0
  O  O17  1  -0.24508311  -0.42039121  -0.28112352  1.0
  O  O18  1  -0.81810044  -0.44301910  -0.27886423  1.0
  O  O19  1  -0.18189956  -0.55698090  -0.72113577  1.0
  O  O20  1  -0.91618569  -0.23085348  -0.53169559  1.0
  O  O21  1  -0.08381431  -0.76914652  -0.46830441  1.0
  O  O22  1  -0.77558556  -0.06517681  -0.83421897  1.0
  O  O23  1  -0.22441444  -0.93482319  -0.16578103  1.0
