# generated using pymatgen
data_Y5(GeSb)2
_symmetry_space_group_name_H-M   'P 1'
_cell_length_a   8.55168936
_cell_length_b   8.55168936
_cell_length_c   7.95146235
_cell_angle_alpha   90.00000000
_cell_angle_beta   90.00000000
_cell_angle_gamma   55.27842625
_symmetry_Int_Tables_number   1
_chemical_formula_structural   Y5(GeSb)2
_chemical_formula_sum   'Y10 Ge4 Sb4'
_cell_volume   477.95331366
_cell_formula_units_Z   2
loop_
 _symmetry_equiv_pos_site_id
 _symmetry_equiv_pos_as_xyz
  1  'x, y, z'
loop_
 _atom_site_type_symbol
 _atom_site_label
 _atom_site_symmetry_multiplicity
 _atom_site_fract_x
 _atom_site_fract_y
 _atom_site_fract_z
 _atom_site_occupancy
  Y  Y0  1  0.53612077  1.20919150  0.16271394  1.0
  Y  Y1  1  0.03612077  1.70919150  0.33728606  1.0
  Y  Y2  1  0.20919150  1.53612077  0.83728606  1.0
  Y  Y3  1  0.70919150  1.03612077  0.66271394  1.0
  Y  Y4  1  -0.20919150  1.46387923  0.16271394  1.0
  Y  Y5  1  0.29080850  0.96387923  0.33728606  1.0
  Y  Y6  1  0.46387923  0.79080850  0.83728606  1.0
  Y  Y7  1  -0.03612077  1.29080850  0.66271394  1.0
  Y  Y8  1  -0.50000000  0.50000000  0.50000000  1.0
  Y  Y9  1  0.00000000  0.00000000  0.00000000  1.0
  Ge  Ge10  1  -0.14019463  0.14019463  0.36074889  1.0
  Ge  Ge11  1  -0.64019463  0.64019463  0.13925111  1.0
  Ge  Ge12  1  -0.85980537  0.85980537  0.63925111  1.0
  Ge  Ge13  1  -0.35980537  0.35980537  0.86074889  1.0
  Sb  Sb14  1  0.29545374  1.29545374  0.50000000  1.0
  Sb  Sb15  1  0.79545374  0.79545374  0.00000000  1.0
  Sb  Sb16  1  0.70454626  0.70454626  0.50000000  1.0
  Sb  Sb17  1  0.20454626  1.20454626  0.00000000  1.0
