# generated using pymatgen
data_Sr6TbSc(BO3)6
_symmetry_space_group_name_H-M   'P 1'
_cell_length_a   7.83779128
_cell_length_b   7.83779128
_cell_length_c   7.83779128
_cell_angle_alpha   105.13099493
_cell_angle_beta   105.13099493
_cell_angle_gamma   105.13099493
_symmetry_Int_Tables_number   1
_chemical_formula_structural   Sr6TbSc(BO3)6
_chemical_formula_sum   'Sr6 Tb1 Sc1 B6 O18'
_cell_volume   419.75417205
_cell_formula_units_Z   1
loop_
 _symmetry_equiv_pos_site_id
 _symmetry_equiv_pos_as_xyz
  1  'x, y, z'
loop_
 _atom_site_type_symbol
 _atom_site_label
 _atom_site_symmetry_multiplicity
 _atom_site_fract_x
 _atom_site_fract_y
 _atom_site_fract_z
 _atom_site_occupancy
  Sr  Sr0  1  0.76652736  0.65214201  0.14232966  1.0
  Sr  Sr1  1  1.34785799  -0.14232966  0.23347264  1.0
  Sr  Sr2  1  0.85767034  0.23347264  0.34785799  1.0
  Sr  Sr3  1  1.23347264  0.34785799  -0.14232966  1.0
  Sr  Sr4  1  0.65214201  1.14232966  -0.23347264  1.0
  Sr  Sr5  1  1.14232966  0.76652736  -0.34785799  1.0
  Tb  Tb6  1  0.50000000  0.50000000  0.50000000  1.0
  Sc  Sc7  1  0.00000000  0.00000000  0.00000000  1.0
  B  B8  1  1.54380504  0.79295106  -0.11481972  1.0
  B  B9  1  1.20704894  0.11481972  -0.54380504  1.0
  B  B10  1  1.11481972  -0.54380504  0.20704894  1.0
  B  B11  1  0.45619496  0.20704894  0.11481972  1.0
  B  B12  1  0.79295106  0.88518028  0.54380504  1.0
  B  B13  1  0.88518028  1.54380504  -0.20704894  1.0
  O  O14  1  0.72020742  0.93289759  -0.00358931  1.0
  O  O15  1  1.06710241  0.00358931  -0.72020742  1.0
  O  O16  1  1.00358931  -0.72020742  0.06710241  1.0
  O  O17  1  0.27979258  0.06710241  0.00358931  1.0
  O  O18  1  0.93289759  0.99641069  -0.27979258  1.0
  O  O19  1  0.99641069  0.72020742  -0.06710241  1.0
  O  O20  1  1.47490607  0.76557346  -0.30638445  1.0
  O  O21  1  1.23442654  0.30638445  -0.47490607  1.0
  O  O22  1  1.30638445  -0.47490607  0.23442654  1.0
  O  O23  1  0.52509393  0.23442654  0.30638445  1.0
  O  O24  1  0.76557346  0.69361555  0.47490607  1.0
  O  O25  1  0.69361555  1.47490607  -0.23442654  1.0
  O  O26  1  0.55738201  0.30970998  0.03366501  1.0
  O  O27  1  0.69029002  0.96633499  0.44261799  1.0
  O  O28  1  0.96633499  1.44261799  -0.30970998  1.0
  O  O29  1  1.44261799  0.69029002  -0.03366501  1.0
  O  O30  1  1.30970998  0.03366501  -0.44261799  1.0
  O  O31  1  1.03366501  -0.44261799  0.30970998  1.0
