# generated using pymatgen
data_C2N
_symmetry_space_group_name_H-M   'P 1'
_cell_length_a   11.10233409
_cell_length_b   11.10233409
_cell_length_c   11.10233409
_cell_angle_alpha   90.00000000
_cell_angle_beta   90.00000000
_cell_angle_gamma   90.00000000
_symmetry_Int_Tables_number   1
_chemical_formula_structural   C2N
_chemical_formula_sum   'C48 N24'
_cell_volume   1368.49393297
_cell_formula_units_Z   24
loop_
 _symmetry_equiv_pos_site_id
 _symmetry_equiv_pos_as_xyz
  1  'x, y, z'
loop_
 _atom_site_type_symbol
 _atom_site_label
 _atom_site_symmetry_multiplicity
 _atom_site_fract_x
 _atom_site_fract_y
 _atom_site_fract_z
 _atom_site_occupancy
  C  C0  1  0.49314716  0.90694918  0.91383243  1.0
  C  C1  1  0.49314716  0.59305082  0.41383243  1.0
  C  C2  1  0.99314716  0.90694918  0.58616757  1.0
  C  C3  1  0.99314716  0.59305082  0.08616757  1.0
  C  C4  1  0.40694918  0.58616757  0.50685284  1.0
  C  C5  1  0.40694918  0.91383243  0.00685284  1.0
  C  C6  1  0.90694918  0.58616757  0.99314716  1.0
  C  C7  1  0.90694918  0.91383243  0.49314716  1.0
  C  C8  1  0.08616757  0.99314716  0.59305082  1.0
  C  C9  1  0.08616757  0.50685284  0.09305082  1.0
  C  C10  1  0.58616757  0.99314716  0.90694918  1.0
  C  C11  1  0.58616757  0.50685284  0.40694918  1.0
  C  C12  1  0.50685284  0.40694918  0.58616757  1.0
  C  C13  1  0.50685284  0.09305082  0.08616757  1.0
  C  C14  1  0.00685284  0.40694918  0.91383243  1.0
  C  C15  1  0.00685284  0.09305082  0.41383243  1.0
  C  C16  1  0.59305082  0.08616757  0.99314716  1.0
  C  C17  1  0.59305082  0.41383243  0.49314716  1.0
  C  C18  1  0.09305082  0.08616757  0.50685284  1.0
  C  C19  1  0.09305082  0.41383243  0.00685284  1.0
  C  C20  1  0.91383243  0.49314716  0.90694918  1.0
  C  C21  1  0.91383243  0.00685284  0.40694918  1.0
  C  C22  1  0.41383243  0.49314716  0.59305082  1.0
  C  C23  1  0.41383243  0.00685284  0.09305082  1.0
  C  C24  1  0.48605670  0.81299614  0.82680824  1.0
  C  C25  1  0.48605670  0.68700386  0.32680824  1.0
  C  C26  1  0.98605670  0.81299614  0.67319176  1.0
  C  C27  1  0.98605670  0.68700386  0.17319176  1.0
  C  C28  1  0.31299614  0.67319176  0.51394330  1.0
  C  C29  1  0.31299614  0.82680824  0.01394330  1.0
  C  C30  1  0.81299614  0.67319176  0.98605670  1.0
  C  C31  1  0.81299614  0.82680824  0.48605670  1.0
  C  C32  1  0.17319176  0.98605670  0.68700386  1.0
  C  C33  1  0.17319176  0.51394330  0.18700386  1.0
  C  C34  1  0.67319176  0.98605670  0.81299614  1.0
  C  C35  1  0.67319176  0.51394330  0.31299614  1.0
  C  C36  1  0.51394330  0.31299614  0.67319176  1.0
  C  C37  1  0.51394330  0.18700386  0.17319176  1.0
  C  C38  1  0.01394330  0.31299614  0.82680824  1.0
  C  C39  1  0.01394330  0.18700386  0.32680824  1.0
  C  C40  1  0.68700386  0.17319176  0.98605670  1.0
  C  C41  1  0.68700386  0.32680824  0.48605670  1.0
  C  C42  1  0.18700386  0.17319176  0.51394330  1.0
  C  C43  1  0.18700386  0.32680824  0.01394330  1.0
  C  C44  1  0.82680824  0.48605670  0.81299614  1.0
  C  C45  1  0.82680824  0.01394330  0.31299614  1.0
  C  C46  1  0.32680824  0.48605670  0.68700386  1.0
  C  C47  1  0.32680824  0.01394330  0.18700386  1.0
  N  N48  1  0.47977635  0.73626880  0.75569989  1.0
  N  N49  1  0.47977635  0.76373120  0.25569989  1.0
  N  N50  1  0.97977635  0.73626880  0.74430011  1.0
  N  N51  1  0.97977635  0.76373120  0.24430011  1.0
  N  N52  1  0.23626880  0.74430011  0.52022365  1.0
  N  N53  1  0.23626880  0.75569989  0.02022365  1.0
  N  N54  1  0.73626880  0.74430011  0.97977635  1.0
  N  N55  1  0.73626880  0.75569989  0.47977635  1.0
  N  N56  1  0.24430011  0.97977635  0.76373120  1.0
  N  N57  1  0.24430011  0.52022365  0.26373120  1.0
  N  N58  1  0.74430011  0.97977635  0.73626880  1.0
  N  N59  1  0.74430011  0.52022365  0.23626880  1.0
  N  N60  1  0.52022365  0.23626880  0.74430011  1.0
  N  N61  1  0.52022365  0.26373120  0.24430011  1.0
  N  N62  1  0.02022365  0.23626880  0.75569989  1.0
  N  N63  1  0.02022365  0.26373120  0.25569989  1.0
  N  N64  1  0.76373120  0.24430011  0.97977635  1.0
  N  N65  1  0.76373120  0.25569989  0.47977635  1.0
  N  N66  1  0.26373120  0.24430011  0.52022365  1.0
  N  N67  1  0.26373120  0.25569989  0.02022365  1.0
  N  N68  1  0.75569989  0.47977635  0.73626880  1.0
  N  N69  1  0.75569989  0.02022365  0.23626880  1.0
  N  N70  1  0.25569989  0.47977635  0.76373120  1.0
  N  N71  1  0.25569989  0.02022365  0.26373120  1.0
