# generated using pymatgen
data_TaTl2AgS4
_symmetry_space_group_name_H-M   'P 1'
_cell_length_a   8.11835747
_cell_length_b   10.64435279
_cell_length_c   12.99230132
_cell_angle_alpha   90.00000000
_cell_angle_beta   127.43320439
_cell_angle_gamma   90.00000000
_symmetry_Int_Tables_number   1
_chemical_formula_structural   TaTl2AgS4
_chemical_formula_sum   'Ta4 Tl8 Ag4 S16'
_cell_volume   891.51406739
_cell_formula_units_Z   4
loop_
 _symmetry_equiv_pos_site_id
 _symmetry_equiv_pos_as_xyz
  1  'x, y, z'
loop_
 _atom_site_type_symbol
 _atom_site_label
 _atom_site_symmetry_multiplicity
 _atom_site_fract_x
 _atom_site_fract_y
 _atom_site_fract_z
 _atom_site_occupancy
  Ta  Ta0  1  0.07140302  0.27591633  0.95019832  1.0
  Ta  Ta1  1  0.07140302  0.22408367  0.45019832  1.0
  Ta  Ta2  1  0.92859698  0.77591633  0.54980168  1.0
  Ta  Ta3  1  0.92859698  0.72408367  0.04980168  1.0
  Tl  Tl4  1  0.66997001  0.98987337  0.77722717  1.0
  Tl  Tl5  1  0.66997001  0.51012663  0.27722717  1.0
  Tl  Tl6  1  0.33002999  0.48987337  0.72277283  1.0
  Tl  Tl7  1  0.33002999  0.01012663  0.22277283  1.0
  Tl  Tl8  1  0.60083715  0.27232641  0.49876833  1.0
  Tl  Tl9  1  0.60083715  0.22767359  0.99876833  1.0
  Tl  Tl10  1  0.39916285  0.77232641  0.00123167  1.0
  Tl  Tl11  1  0.39916285  0.72767359  0.50123167  1.0
  Ag  Ag12  1  0.91520894  0.51279981  0.78720067  1.0
  Ag  Ag13  1  0.91520894  0.98720019  0.28720067  1.0
  Ag  Ag14  1  0.08479106  0.01279981  0.71279933  1.0
  Ag  Ag15  1  0.08479106  0.48720019  0.21279933  1.0
  S  S16  1  0.89053804  0.73276506  0.86089873  1.0
  S  S17  1  0.89053804  0.76723494  0.36089873  1.0
  S  S18  1  0.10946196  0.23276506  0.63910127  1.0
  S  S19  1  0.10946196  0.26723494  0.13910127  1.0
  S  S20  1  0.72680301  0.31324967  0.78154432  1.0
  S  S21  1  0.72680301  0.18675033  0.28154432  1.0
  S  S22  1  0.27319699  0.81324967  0.71845568  1.0
  S  S23  1  0.27319699  0.68675033  0.21845568  1.0
  S  S24  1  0.18170939  0.08264830  0.93364238  1.0
  S  S25  1  0.18170939  0.41735170  0.43364238  1.0
  S  S26  1  0.81829061  0.58264830  0.56635762  1.0
  S  S27  1  0.81829061  0.91735170  0.06635762  1.0
  S  S28  1  0.28454796  0.42837751  0.96525034  1.0
  S  S29  1  0.28454796  0.07162249  0.46525034  1.0
  S  S30  1  0.71545204  0.92837751  0.53474966  1.0
  S  S31  1  0.71545204  0.57162249  0.03474966  1.0
