# generated using pymatgen
data_AlH3
_symmetry_space_group_name_H-M   'P 1'
_cell_length_a   6.46160157
_cell_length_b   6.46160157
_cell_length_c   6.61260966
_cell_angle_alpha   90.00000000
_cell_angle_beta   90.00000000
_cell_angle_gamma   119.24408843
_symmetry_Int_Tables_number   1
_chemical_formula_structural   AlH3
_chemical_formula_sum   'Al6 H18'
_cell_volume   240.90276067
_cell_formula_units_Z   6
loop_
 _symmetry_equiv_pos_site_id
 _symmetry_equiv_pos_as_xyz
  1  'x, y, z'
loop_
 _atom_site_type_symbol
 _atom_site_label
 _atom_site_symmetry_multiplicity
 _atom_site_fract_x
 _atom_site_fract_y
 _atom_site_fract_z
 _atom_site_occupancy
  Al  Al0  1  -0.00000000  1.50000000  0.50000000  1.0
  Al  Al1  1  -0.00000000  1.50000000  0.00000000  1.0
  Al  Al2  1  0.50000000  1.00000000  0.00000000  1.0
  Al  Al3  1  0.50000000  1.00000000  0.50000000  1.0
  Al  Al4  1  0.00000000  0.00000000  0.50000000  1.0
  Al  Al5  1  0.00000000  0.00000000  0.00000000  1.0
  H  H6  1  0.08863402  0.29314278  0.44988971  1.0
  H  H7  1  0.08863402  0.29314278  0.05011029  1.0
  H  H8  1  -0.70685722  1.08863402  0.94988971  1.0
  H  H9  1  -0.70685722  1.08863402  0.55011029  1.0
  H  H10  1  0.70685722  0.91136598  0.44988971  1.0
  H  H11  1  0.70685722  0.91136598  0.05011029  1.0
  H  H12  1  -0.08863402  1.70685722  0.94988971  1.0
  H  H13  1  -0.08863402  1.70685722  0.55011029  1.0
  H  H14  1  -0.07910993  1.49268064  0.25000000  1.0
  H  H15  1  0.49268064  0.92089007  0.75000000  1.0
  H  H16  1  -0.49268064  1.07910993  0.25000000  1.0
  H  H17  1  0.07910993  0.50731936  0.75000000  1.0
  H  H18  1  0.28623411  0.71376589  0.44472338  1.0
  H  H19  1  0.28623411  0.71376589  0.05527662  1.0
  H  H20  1  -0.28623411  1.28623411  0.94472338  1.0
  H  H21  1  -0.28623411  1.28623411  0.55527662  1.0
  H  H22  1  0.04366564  0.95633436  0.25000000  1.0
  H  H23  1  -0.04366564  1.04366564  0.75000000  1.0
