# generated using pymatgen
data_WOF4
_symmetry_space_group_name_H-M   'P 1'
_cell_length_a   8.87796292
_cell_length_b   8.87796292
_cell_length_c   5.74372764
_cell_angle_alpha   89.62986987
_cell_angle_beta   90.37013013
_cell_angle_gamma   68.81373141
_symmetry_Int_Tables_number   1
_chemical_formula_structural   WOF4
_chemical_formula_sum   'W4 O4 F16'
_cell_volume   422.08433844
_cell_formula_units_Z   4
loop_
 _symmetry_equiv_pos_site_id
 _symmetry_equiv_pos_as_xyz
  1  'x, y, z'
loop_
 _atom_site_type_symbol
 _atom_site_label
 _atom_site_symmetry_multiplicity
 _atom_site_fract_x
 _atom_site_fract_y
 _atom_site_fract_z
 _atom_site_occupancy
  W  W0  1  0.76398192  -0.76398192  0.22001389  1.0
  W  W1  1  0.23601808  -0.23601808  0.77998611  1.0
  W  W2  1  0.81662248  -0.18337752  -0.00000000  1.0
  W  W3  1  1.18337752  0.18337752  -0.00000000  1.0
  O  O4  1  0.20997006  -0.02602302  0.88873857  1.0
  O  O5  1  1.02602302  0.79002994  0.88873857  1.0
  O  O6  1  0.97397698  -0.79002994  0.11126143  1.0
  O  O7  1  1.79002994  0.02602302  0.11126143  1.0
  F  F8  1  0.72377623  -0.09406931  0.71461557  1.0
  F  F9  1  1.09406931  0.27622377  0.71461557  1.0
  F  F10  1  0.90593069  -0.27622377  0.28538443  1.0
  F  F11  1  1.27622377  0.09406931  0.28538443  1.0
  F  F12  1  0.44155208  -0.26156527  0.67112422  1.0
  F  F13  1  1.26156527  0.55844792  0.67112422  1.0
  F  F14  1  0.73843473  -0.55844792  0.32887578  1.0
  F  F15  1  1.55844792  0.26156527  0.32887578  1.0
  F  F16  1  1.38803317  0.16037659  0.88885819  1.0
  F  F17  1  0.83962341  -0.38803317  0.88885819  1.0
  F  F18  1  1.16037659  0.38803317  0.11114181  1.0
  F  F19  1  0.61196683  -0.16037659  0.11114181  1.0
  F  F20  1  0.85112034  -0.85112034  0.50996508  1.0
  F  F21  1  0.14887966  -0.14887966  0.49003492  1.0
  F  F22  1  0.67233898  -0.67233898  0.93533373  1.0
  F  F23  1  0.32766102  -0.32766102  0.06466627  1.0
