# generated using pymatgen
data_Na3CoF6
_symmetry_space_group_name_H-M   'P 1'
_cell_length_a   5.59180760
_cell_length_b   5.78744464
_cell_length_c   9.78802199
_cell_angle_alpha   90.00000000
_cell_angle_beta   124.42792223
_cell_angle_gamma   90.00000000
_symmetry_Int_Tables_number   1
_chemical_formula_structural   Na3CoF6
_chemical_formula_sum   'Na6 Co2 F12'
_cell_volume   261.27791733
_cell_formula_units_Z   2
loop_
 _symmetry_equiv_pos_site_id
 _symmetry_equiv_pos_as_xyz
  1  'x, y, z'
loop_
 _atom_site_type_symbol
 _atom_site_label
 _atom_site_symmetry_multiplicity
 _atom_site_fract_x
 _atom_site_fract_y
 _atom_site_fract_z
 _atom_site_occupancy
  Co  Co0  1  -0.00000000  0.50000000  0.50000000  1.0
  Co  Co1  1  0.00000000  0.00000000  0.00000000  1.0
  F  F2  1  0.76843280  0.77465868  0.43065052  1.0
  F  F3  1  0.76843280  0.72534132  0.93065052  1.0
  F  F4  1  0.23156720  0.27465868  0.06934948  1.0
  F  F5  1  0.23156720  0.22534132  0.56934948  1.0
  F  F6  1  0.65820351  0.32353766  0.44605647  1.0
  F  F7  1  0.65820351  0.17646234  0.94605647  1.0
  F  F8  1  0.34179649  0.82353766  0.05394353  1.0
  F  F9  1  0.34179649  0.67646234  0.55394353  1.0
  F  F10  1  0.88931072  0.44178774  0.27273762  1.0
  F  F11  1  0.88931072  0.05821226  0.77273762  1.0
  F  F12  1  0.11068928  0.94178774  0.22726238  1.0
  F  F13  1  0.11068928  0.55821226  0.72726238  1.0
  Na  Na14  1  0.73039862  0.05690515  0.24294686  1.0
  Na  Na15  1  0.73039862  0.44309485  0.74294686  1.0
  Na  Na16  1  0.26960138  0.55690515  0.25705314  1.0
  Na  Na17  1  0.26960138  0.94309485  0.75705314  1.0
  Na  Na18  1  0.50000000  0.50000000  0.00000000  1.0
  Na  Na19  1  0.50000000  0.00000000  0.50000000  1.0
