# generated using pymatgen
data_Bi(BO2)3
_symmetry_space_group_name_H-M   'P 1'
_cell_length_a   4.30172563
_cell_length_b   11.81700680
_cell_length_c   7.34523645
_cell_angle_alpha   90.00000000
_cell_angle_beta   90.99968520
_cell_angle_gamma   90.00000000
_symmetry_Int_Tables_number   1
_chemical_formula_structural   Bi(BO2)3
_chemical_formula_sum   'Bi4 B12 O24'
_cell_volume   373.32739910
_cell_formula_units_Z   4
loop_
 _symmetry_equiv_pos_site_id
 _symmetry_equiv_pos_as_xyz
  1  'x, y, z'
loop_
 _atom_site_type_symbol
 _atom_site_label
 _atom_site_symmetry_multiplicity
 _atom_site_fract_x
 _atom_site_fract_y
 _atom_site_fract_z
 _atom_site_occupancy
  Bi  Bi0  1  0.33833339  0.11402225  0.13129629  1.0
  Bi  Bi1  1  0.33833339  0.38597775  0.63129629  1.0
  Bi  Bi2  1  0.66166661  0.61402225  0.36870371  1.0
  Bi  Bi3  1  0.66166661  0.88597775  0.86870371  1.0
  B  B4  1  0.81739342  0.33734597  0.29239720  1.0
  B  B5  1  0.81739342  0.16265403  0.79239720  1.0
  B  B6  1  0.18260658  0.83734597  0.20760280  1.0
  B  B7  1  0.18260658  0.66265403  0.70760280  1.0
  B  B8  1  0.80921708  0.12500357  0.43427246  1.0
  B  B9  1  0.80921708  0.37499643  0.93427246  1.0
  B  B10  1  0.19078292  0.62500357  0.06572754  1.0
  B  B11  1  0.19078292  0.87499643  0.56572754  1.0
  B  B12  1  0.70201294  0.90669208  0.36986324  1.0
  B  B13  1  0.70201294  0.59330792  0.86986324  1.0
  B  B14  1  0.29798706  0.40669208  0.13013676  1.0
  B  B15  1  0.29798706  0.09330792  0.63013676  1.0
  O  O16  1  0.84638911  0.84104187  0.22795791  1.0
  O  O17  1  0.84638911  0.65895813  0.72795791  1.0
  O  O18  1  0.15361089  0.34104187  0.27204209  1.0
  O  O19  1  0.15361089  0.15895813  0.77204209  1.0
  O  O20  1  0.73020479  0.41845893  0.43811806  1.0
  O  O21  1  0.73020479  0.08154107  0.93811806  1.0
  O  O22  1  0.26979521  0.91845893  0.06188194  1.0
  O  O23  1  0.26979521  0.58154107  0.56188194  1.0
  O  O24  1  0.71201786  0.22093538  0.32186498  1.0
  O  O25  1  0.71201786  0.27906462  0.82186498  1.0
  O  O26  1  0.28798214  0.72093538  0.17813502  1.0
  O  O27  1  0.28798214  0.77906462  0.67813502  1.0
  O  O28  1  0.69330603  0.02871447  0.32274343  1.0
  O  O29  1  0.69330603  0.47128553  0.82274343  1.0
  O  O30  1  0.30669397  0.52871447  0.17725657  1.0
  O  O31  1  0.30669397  0.97128553  0.67725657  1.0
  O  O32  1  0.64551911  0.37207083  0.11619789  1.0
  O  O33  1  0.64551911  0.12792917  0.61619789  1.0
  O  O34  1  0.35448089  0.87207083  0.38380211  1.0
  O  O35  1  0.35448089  0.62792917  0.88380211  1.0
  O  O36  1  0.14176945  0.11644358  0.45849633  1.0
  O  O37  1  0.14176945  0.38355642  0.95849633  1.0
  O  O38  1  0.85823055  0.61644358  0.04150367  1.0
  O  O39  1  0.85823055  0.88355642  0.54150367  1.0
