# generated using pymatgen
data_LiAuF6
_symmetry_space_group_name_H-M   'P 1'
_cell_length_a   5.49496996
_cell_length_b   5.49496996
_cell_length_c   5.49496996
_cell_angle_alpha   56.38166556
_cell_angle_beta   56.38166556
_cell_angle_gamma   56.38166556
_symmetry_Int_Tables_number   1
_chemical_formula_structural   LiAuF6
_chemical_formula_sum   'Li1 Au1 F6'
_cell_volume   107.50496302
_cell_formula_units_Z   1
loop_
 _symmetry_equiv_pos_site_id
 _symmetry_equiv_pos_as_xyz
  1  'x, y, z'
loop_
 _atom_site_type_symbol
 _atom_site_label
 _atom_site_symmetry_multiplicity
 _atom_site_fract_x
 _atom_site_fract_y
 _atom_site_fract_z
 _atom_site_occupancy
  Li  Li0  1  0.50000000  0.50000000  -0.50000000  1.0
  Au  Au1  1  0.00000000  0.00000000  0.00000000  1.0
  F  F2  1  0.11179505  0.76327233  -0.63200351  1.0
  F  F3  1  0.63200351  -0.11179505  0.23672767  1.0
  F  F4  1  1.23672767  -0.36799649  -0.11179505  1.0
  F  F5  1  0.88820495  0.23672767  -0.36799649  1.0
  F  F6  1  0.36799649  0.11179505  -0.23672767  1.0
  F  F7  1  0.76327233  0.36799649  -0.88820495  1.0
