# generated using pymatgen
data_La5Ge3
_symmetry_space_group_name_H-M   'P 1'
_cell_length_a   11.84621471
_cell_length_b   11.84621471
_cell_length_c   6.82693462
_cell_angle_alpha   90.00000000
_cell_angle_beta   90.00000000
_cell_angle_gamma   90.00000000
_symmetry_Int_Tables_number   1
_chemical_formula_structural   La5Ge3
_chemical_formula_sum   'La20 Ge12'
_cell_volume   958.04287156
_cell_formula_units_Z   4
loop_
 _symmetry_equiv_pos_site_id
 _symmetry_equiv_pos_as_xyz
  1  'x, y, z'
loop_
 _atom_site_type_symbol
 _atom_site_label
 _atom_site_symmetry_multiplicity
 _atom_site_fract_x
 _atom_site_fract_y
 _atom_site_fract_z
 _atom_site_occupancy
  La  La0  1  0.91270858  0.28782384  0.14335445  1.0
  La  La1  1  0.08729142  0.28782384  0.64335445  1.0
  La  La2  1  0.91270858  0.71217616  0.64335445  1.0
  La  La3  1  0.08729142  0.71217616  0.14335445  1.0
  La  La4  1  0.78782384  0.41270858  0.64335445  1.0
  La  La5  1  0.21217616  0.41270858  0.14335445  1.0
  La  La6  1  0.78782384  0.58729142  0.14335445  1.0
  La  La7  1  0.21217616  0.58729142  0.64335445  1.0
  La  La8  1  0.58729142  0.21217616  0.85664555  1.0
  La  La9  1  0.41270858  0.21217616  0.35664555  1.0
  La  La10  1  0.58729142  0.78782384  0.35664555  1.0
  La  La11  1  0.41270858  0.78782384  0.85664555  1.0
  La  La12  1  0.71217616  0.08729142  0.35664555  1.0
  La  La13  1  0.28782384  0.08729142  0.85664555  1.0
  La  La14  1  0.71217616  0.91270858  0.85664555  1.0
  La  La15  1  0.28782384  0.91270858  0.35664555  1.0
  La  La16  1  0.00000000  0.00000000  0.50000000  1.0
  La  La17  1  0.00000000  0.00000000  0.00000000  1.0
  La  La18  1  0.50000000  0.50000000  0.00000000  1.0
  La  La19  1  0.50000000  0.50000000  0.50000000  1.0
  Ge  Ge20  1  0.34074747  0.65925253  0.25000000  1.0
  Ge  Ge21  1  0.65925253  0.65925253  0.75000000  1.0
  Ge  Ge22  1  0.34074747  0.34074747  0.75000000  1.0
  Ge  Ge23  1  0.65925253  0.34074747  0.25000000  1.0
  Ge  Ge24  1  0.15925253  0.84074747  0.75000000  1.0
  Ge  Ge25  1  0.84074747  0.84074747  0.25000000  1.0
  Ge  Ge26  1  0.15925253  0.15925253  0.25000000  1.0
  Ge  Ge27  1  0.84074747  0.15925253  0.75000000  1.0
  Ge  Ge28  1  0.00000000  0.50000000  0.39741426  1.0
  Ge  Ge29  1  0.00000000  0.50000000  0.89741426  1.0
  Ge  Ge30  1  0.50000000  0.00000000  0.60258574  1.0
  Ge  Ge31  1  0.50000000  0.00000000  0.10258574  1.0
