# generated using pymatgen
data_LuTl(WO4)2
_symmetry_space_group_name_H-M   'P 1'
_cell_length_a   7.55985753
_cell_length_b   7.55985753
_cell_length_c   7.56961859
_cell_angle_alpha   61.74632065
_cell_angle_beta   118.25367935
_cell_angle_gamma   92.38316818
_symmetry_Int_Tables_number   1
_chemical_formula_structural   LuTl(WO4)2
_chemical_formula_sum   'Lu2 Tl2 W4 O16'
_cell_volume   326.25474649
_cell_formula_units_Z   2
loop_
 _symmetry_equiv_pos_site_id
 _symmetry_equiv_pos_as_xyz
  1  'x, y, z'
loop_
 _atom_site_type_symbol
 _atom_site_label
 _atom_site_symmetry_multiplicity
 _atom_site_fract_x
 _atom_site_fract_y
 _atom_site_fract_z
 _atom_site_occupancy
  Lu  Lu0  1  0.77526647  0.77526647  0.25000000  1.0
  Lu  Lu1  1  0.22473353  0.22473353  0.75000000  1.0
  Tl  Tl2  1  0.20608887  0.20608887  0.25000000  1.0
  Tl  Tl3  1  0.79391113  0.79391113  0.75000000  1.0
  W  W4  1  0.69655898  0.30424137  0.22925311  1.0
  W  W5  1  0.69575863  0.30344102  0.72925311  1.0
  W  W6  1  1.30424137  -0.30344102  0.27074689  1.0
  W  W7  1  1.30344102  -0.30424137  0.77074689  1.0
  O  O8  1  1.59121485  -0.37256775  0.03828634  1.0
  O  O9  1  1.37256775  -0.59121485  0.53828634  1.0
  O  O10  1  0.62743225  0.59121485  0.46171366  1.0
  O  O11  1  0.40878515  0.37256775  0.96171366  1.0
  O  O12  1  0.77392926  0.04434178  0.30112903  1.0
  O  O13  1  0.95565822  0.22607074  0.80112903  1.0
  O  O14  1  1.04434178  -0.22607074  0.19887097  1.0
  O  O15  1  1.22607074  -0.04434178  0.69887097  1.0
  O  O16  1  1.36524438  -0.05977091  0.11778609  1.0
  O  O17  1  1.05977091  -0.36524438  0.61778609  1.0
  O  O18  1  0.94022909  0.36524438  0.38221391  1.0
  O  O19  1  0.63475562  0.05977091  0.88221391  1.0
  O  O20  1  0.61820099  0.23894943  0.44148158  1.0
  O  O21  1  0.76105057  0.38179901  0.94148158  1.0
  O  O22  1  1.23894943  -0.38179901  0.05851842  1.0
  O  O23  1  1.38179901  -0.23894943  0.55851842  1.0
