# generated using pymatgen
data_ZrFeP
_symmetry_space_group_name_H-M   'P 1'
_cell_length_a   6.31877994
_cell_length_b   3.75898016
_cell_length_c   7.06325126
_cell_angle_alpha   90.00000000
_cell_angle_beta   90.00000000
_cell_angle_gamma   90.00000000
_symmetry_Int_Tables_number   1
_chemical_formula_structural   ZrFeP
_chemical_formula_sum   'Zr4 Fe4 P4'
_cell_volume   167.76753340
_cell_formula_units_Z   4
loop_
 _symmetry_equiv_pos_site_id
 _symmetry_equiv_pos_as_xyz
  1  'x, y, z'
loop_
 _atom_site_type_symbol
 _atom_site_label
 _atom_site_symmetry_multiplicity
 _atom_site_fract_x
 _atom_site_fract_y
 _atom_site_fract_z
 _atom_site_occupancy
  Zr  Zr0  1  0.98552732  0.75000000  0.68593130  1.0
  Zr  Zr1  1  0.48552732  0.75000000  0.81406870  1.0
  Zr  Zr2  1  0.01447268  0.25000000  0.31406870  1.0
  Zr  Zr3  1  0.51447268  0.25000000  0.18593130  1.0
  Fe  Fe4  1  0.85397343  0.75000000  0.06243070  1.0
  Fe  Fe5  1  0.35397343  0.75000000  0.43756930  1.0
  Fe  Fe6  1  0.14602657  0.25000000  0.93756930  1.0
  Fe  Fe7  1  0.64602657  0.25000000  0.56243070  1.0
  P  P8  1  0.71708092  0.75000000  0.38821805  1.0
  P  P9  1  0.21708092  0.75000000  0.11178195  1.0
  P  P10  1  0.28291908  0.25000000  0.61178195  1.0
  P  P11  1  0.78291908  0.25000000  0.88821805  1.0
