# generated using pymatgen
data_CaTi2O4
_symmetry_space_group_name_H-M   'P 1'
_cell_length_a   6.72793978
_cell_length_b   6.72793978
_cell_length_c   10.12231057
_cell_angle_alpha   90.00000000
_cell_angle_beta   90.00000000
_cell_angle_gamma   93.53305537
_symmetry_Int_Tables_number   1
_chemical_formula_structural   CaTi2O4
_chemical_formula_sum   'Ca6 Ti12 O24'
_cell_volume   457.31731912
_cell_formula_units_Z   6
loop_
 _symmetry_equiv_pos_site_id
 _symmetry_equiv_pos_as_xyz
  1  'x, y, z'
loop_
 _atom_site_type_symbol
 _atom_site_label
 _atom_site_symmetry_multiplicity
 _atom_site_fract_x
 _atom_site_fract_y
 _atom_site_fract_z
 _atom_site_occupancy
  Ca  Ca0  1  0.04669461  0.28664694  0.25000000  1.0
  Ca  Ca1  1  -0.71335306  1.04669461  0.75000000  1.0
  Ca  Ca2  1  0.71335306  0.95330539  0.25000000  1.0
  Ca  Ca3  1  -0.04669461  1.71335306  0.75000000  1.0
  Ca  Ca4  1  0.37998207  0.62001793  0.25000000  1.0
  Ca  Ca5  1  -0.37998207  1.37998207  0.75000000  1.0
  Ti  Ti6  1  -0.20924731  1.54256201  0.43532770  1.0
  Ti  Ti7  1  -0.20924731  1.54256201  0.06467230  1.0
  Ti  Ti8  1  0.54256201  0.79075269  0.93532770  1.0
  Ti  Ti9  1  0.54256201  0.79075269  0.56467230  1.0
  Ti  Ti10  1  -0.54256201  1.20924731  0.43532770  1.0
  Ti  Ti11  1  -0.54256201  1.20924731  0.06467230  1.0
  Ti  Ti12  1  0.20924731  0.45743799  0.93532770  1.0
  Ti  Ti13  1  0.20924731  0.45743799  0.56467230  1.0
  Ti  Ti14  1  0.12407910  0.87592090  0.43533686  1.0
  Ti  Ti15  1  0.12407910  0.87592090  0.06466314  1.0
  Ti  Ti16  1  -0.12407910  1.12407910  0.93533686  1.0
  Ti  Ti17  1  -0.12407910  1.12407910  0.56466314  1.0
  O  O18  1  0.10050008  0.56615960  0.39332336  1.0
  O  O19  1  0.10050008  0.56615960  0.10667664  1.0
  O  O20  1  -0.43384040  1.10050008  0.89332336  1.0
  O  O21  1  -0.43384040  1.10050008  0.60667664  1.0
  O  O22  1  0.43384040  0.89949992  0.39332336  1.0
  O  O23  1  0.43384040  0.89949992  0.10667664  1.0
  O  O24  1  -0.10050008  1.43384040  0.89332336  1.0
  O  O25  1  -0.10050008  1.43384040  0.60667664  1.0
  O  O26  1  -0.27168398  1.60498753  0.25000000  1.0
  O  O27  1  0.60498753  0.72831602  0.75000000  1.0
  O  O28  1  -0.60498753  1.27168398  0.25000000  1.0
  O  O29  1  0.27168398  0.39501247  0.75000000  1.0
  O  O30  1  0.23281442  0.76718558  0.89331746  1.0
  O  O31  1  0.23281442  0.76718558  0.60668254  1.0
  O  O32  1  -0.23281442  1.23281442  0.39331746  1.0
  O  O33  1  -0.23281442  1.23281442  0.10668254  1.0
  O  O34  1  0.83331800  0.83331800  0.50000000  1.0
  O  O35  1  0.83331800  0.83331800  0.00000000  1.0
  O  O36  1  0.16668200  0.16668200  0.50000000  1.0
  O  O37  1  0.16668200  0.16668200  -0.00000000  1.0
  O  O38  1  0.06166758  0.93833242  0.25000000  1.0
  O  O39  1  -0.06166758  1.06166758  0.75000000  1.0
  O  O40  1  0.50000000  0.50000000  0.50000000  1.0
  O  O41  1  0.50000000  0.50000000  -0.00000000  1.0
