# generated using pymatgen
data_KVSO9
_symmetry_space_group_name_H-M   'P 1'
_cell_length_a   6.21059979
_cell_length_b   11.28848349
_cell_length_c   6.23034539
_cell_angle_alpha   90.00000000
_cell_angle_beta   107.13826821
_cell_angle_gamma   90.00000000
_symmetry_Int_Tables_number   1
_chemical_formula_structural   KVSO9
_chemical_formula_sum   'K2 V2 S2 O18'
_cell_volume   417.40320452
_cell_formula_units_Z   2
loop_
 _symmetry_equiv_pos_site_id
 _symmetry_equiv_pos_as_xyz
  1  'x, y, z'
loop_
 _atom_site_type_symbol
 _atom_site_label
 _atom_site_symmetry_multiplicity
 _atom_site_fract_x
 _atom_site_fract_y
 _atom_site_fract_z
 _atom_site_occupancy
  K  K0  1  0.73218202  0.82101169  0.81269553  1.0
  K  K1  1  0.26781798  0.32101169  0.18730447  1.0
  V  V2  1  0.91575750  0.13075101  0.60079441  1.0
  V  V3  1  0.08424250  0.63075101  0.39920559  1.0
  O  O4  1  0.78046074  0.63675947  0.46363460  1.0
  O  O5  1  0.21953926  0.13675947  0.53636540  1.0
  O  O6  1  0.66440746  0.46127271  0.79519087  1.0
  O  O7  1  0.33559254  -0.03872729  0.20480913  1.0
  O  O8  1  0.91726905  0.24734850  0.37845669  1.0
  O  O9  1  0.08273095  0.74734850  0.62154331  1.0
  O  O10  1  0.85308768  0.42792478  0.81221836  1.0
  O  O11  1  0.14691232  0.92792478  0.18778164  1.0
  O  O12  1  0.52045639  0.03733581  0.81483310  1.0
  O  O13  1  0.47954361  0.53733581  0.18516690  1.0
  O  O14  1  0.86745001  -0.01027029  0.54475366  1.0
  O  O15  1  0.13254999  0.48972971  0.45524634  1.0
  O  O16  1  0.45578481  0.25042802  0.86354149  1.0
  O  O17  1  0.54421519  0.75042802  0.13645851  1.0
  O  O18  1  1.01685646  0.15089834  0.87298000  1.0
  O  O19  1  -0.01685646  0.65089834  0.12702000  1.0
  O  O20  1  0.59964693  0.18681946  0.55639396  1.0
  O  O21  1  0.40035307  0.68681946  0.44360604  1.0
  S  S22  1  0.45652887  0.15292049  0.71051253  1.0
  S  S23  1  0.54347113  0.65292049  0.28948747  1.0
