# generated using pymatgen
data_Bi2Rh
_symmetry_space_group_name_H-M   'P 1'
_cell_length_a   6.88333122
_cell_length_b   7.17184563
_cell_length_c   7.12961003
_cell_angle_alpha   104.71240246
_cell_angle_beta   105.84090988
_cell_angle_gamma   99.05379269
_symmetry_Int_Tables_number   1
_chemical_formula_structural   Bi2Rh
_chemical_formula_sum   'Bi8 Rh4'
_cell_volume   317.62638567
_cell_formula_units_Z   4
loop_
 _symmetry_equiv_pos_site_id
 _symmetry_equiv_pos_as_xyz
  1  'x, y, z'
loop_
 _atom_site_type_symbol
 _atom_site_label
 _atom_site_symmetry_multiplicity
 _atom_site_fract_x
 _atom_site_fract_y
 _atom_site_fract_z
 _atom_site_occupancy
  Bi  Bi0  1  -0.78318959  -0.49277885  -0.56666680  1.0
  Bi  Bi1  1  -0.21681041  -0.50722115  -0.43333320  1.0
  Bi  Bi2  1  -0.74003007  -0.95875774  -0.66875082  1.0
  Bi  Bi3  1  -0.25996993  -0.04124226  -0.33124918  1.0
  Bi  Bi4  1  -0.24595100  -0.98370357  -0.80871068  1.0
  Bi  Bi5  1  -0.75404900  -0.01629643  -0.19128932  1.0
  Bi  Bi6  1  -0.23505911  -0.52760495  -0.94887384  1.0
  Bi  Bi7  1  -0.76494089  -0.47239505  -0.05112616  1.0
  Rh  Rh8  1  -0.95801766  -0.78654288  -0.96214559  1.0
  Rh  Rh9  1  -0.04198234  -0.21345712  -0.03785441  1.0
  Rh  Rh10  1  -0.95655768  -0.78382847  -0.40451666  1.0
  Rh  Rh11  1  -0.04344232  -0.21617153  -0.59548334  1.0
