# generated using pymatgen
data_Na4Hf2(GeO4)3
_symmetry_space_group_name_H-M   'P 1'
_cell_length_a   9.34594537
_cell_length_b   9.34594537
_cell_length_c   9.34594537
_cell_angle_alpha   61.34283865
_cell_angle_beta   61.34283865
_cell_angle_gamma   61.34283865
_symmetry_Int_Tables_number   1
_chemical_formula_structural   Na4Hf2(GeO4)3
_chemical_formula_sum   'Na8 Hf4 Ge6 O24'
_cell_volume   594.65664985
_cell_formula_units_Z   2
loop_
 _symmetry_equiv_pos_site_id
 _symmetry_equiv_pos_as_xyz
  1  'x, y, z'
loop_
 _atom_site_type_symbol
 _atom_site_label
 _atom_site_symmetry_multiplicity
 _atom_site_fract_x
 _atom_site_fract_y
 _atom_site_fract_z
 _atom_site_occupancy
  Na  Na0  1  0.62874606  0.25000000  -0.12874606  1.0
  Na  Na1  1  0.12874606  0.37125394  -0.25000000  1.0
  Na  Na2  1  0.75000000  0.12874606  -0.62874606  1.0
  Na  Na3  1  0.25000000  0.87125394  -0.37125394  1.0
  Na  Na4  1  0.37125394  0.75000000  -0.87125394  1.0
  Na  Na5  1  0.87125394  -0.37125394  0.25000000  1.0
  Na  Na6  1  0.50000000  0.50000000  -0.50000000  1.0
  Na  Na7  1  -0.00000000  0.00000000  -0.00000000  1.0
  Hf  Hf8  1  0.35594166  0.35594166  -0.64405834  1.0
  Hf  Hf9  1  0.85594166  0.85594166  -0.14405834  1.0
  Hf  Hf10  1  1.14405834  1.14405834  0.14405834  1.0
  Hf  Hf11  1  0.64405834  0.64405834  -0.35594166  1.0
  Ge  Ge12  1  0.95709852  0.25000000  -0.45709852  1.0
  Ge  Ge13  1  0.45709852  0.04290148  -0.25000000  1.0
  Ge  Ge14  1  0.75000000  -0.54290148  0.04290148  1.0
  Ge  Ge15  1  0.25000000  0.54290148  -0.04290148  1.0
  Ge  Ge16  1  1.04290148  -0.25000000  -0.54290148  1.0
  Ge  Ge17  1  0.54290148  -0.04290148  0.25000000  1.0
  O  O18  1  1.29358822  1.50978640  0.13662109  1.0
  O  O19  1  0.79358822  -0.36337891  0.00978640  1.0
  O  O20  1  0.36337891  0.99021360  -0.79358822  1.0
  O  O21  1  0.86337891  0.70641178  -0.50978640  1.0
  O  O22  1  0.49021360  0.86337891  -0.29358822  1.0
  O  O23  1  0.99021360  0.20641178  -0.63662109  1.0
  O  O24  1  0.70641178  0.49021360  -0.13662109  1.0
  O  O25  1  0.20641178  0.36337891  -0.00978640  1.0
  O  O26  1  1.13662109  1.29358822  0.50978640  1.0
  O  O27  1  0.63662109  0.00978640  -0.20641178  1.0
  O  O28  1  1.00978640  -0.20641178  -0.36337891  1.0
  O  O29  1  1.50978640  1.13662109  0.29358822  1.0
  O  O30  1  0.23829570  0.57597845  -0.56119769  1.0
  O  O31  1  0.73829570  -0.06119769  0.07597845  1.0
  O  O32  1  1.06119769  -0.07597845  -0.73829570  1.0
  O  O33  1  0.56119769  0.76170430  -0.57597845  1.0
  O  O34  1  0.42402155  0.56119769  -0.23829570  1.0
  O  O35  1  0.92402155  -0.73829570  0.06119769  1.0
  O  O36  1  0.76170430  0.42402155  -0.43880231  1.0
  O  O37  1  0.26170430  0.06119769  -0.07597845  1.0
  O  O38  1  0.43880231  0.23829570  -0.42402155  1.0
  O  O39  1  0.93880231  0.07597845  -0.26170430  1.0
  O  O40  1  1.07597845  -0.26170430  -0.06119769  1.0
  O  O41  1  0.57597845  0.43880231  -0.76170430  1.0
