# generated using pymatgen
data_LiSnSb
_symmetry_space_group_name_H-M   'P 1'
_cell_length_a   9.11179911
_cell_length_b   9.11179911
_cell_length_c   8.58406896
_cell_angle_alpha   90.00000000
_cell_angle_beta   90.00000000
_cell_angle_gamma   120.00000000
_symmetry_Int_Tables_number   1
_chemical_formula_structural   LiSnSb
_chemical_formula_sum   'Li8 Sn8 Sb8'
_cell_volume   617.20878847
_cell_formula_units_Z   8
loop_
 _symmetry_equiv_pos_site_id
 _symmetry_equiv_pos_as_xyz
  1  'x, y, z'
loop_
 _atom_site_type_symbol
 _atom_site_label
 _atom_site_symmetry_multiplicity
 _atom_site_fract_x
 _atom_site_fract_y
 _atom_site_fract_z
 _atom_site_occupancy
  Li  Li0  1  0.82625825  0.17374175  0.59590462  1.0
  Li  Li1  1  0.82625825  0.65251651  0.59590462  1.0
  Li  Li2  1  0.34748349  0.17374175  0.59590462  1.0
  Li  Li3  1  0.17374175  0.82625825  0.09590462  1.0
  Li  Li4  1  0.17374175  0.34748349  0.09590462  1.0
  Li  Li5  1  0.65251651  0.82625825  0.09590462  1.0
  Li  Li6  1  0.66666667  0.33333333  0.45780728  1.0
  Li  Li7  1  0.33333333  0.66666667  0.95780728  1.0
  Sn  Sn8  1  0.83266044  0.16733956  0.25327173  1.0
  Sn  Sn9  1  0.83266044  0.66532088  0.25327173  1.0
  Sn  Sn10  1  0.33467912  0.16733956  0.25327173  1.0
  Sn  Sn11  1  0.16733956  0.83266044  0.75327173  1.0
  Sn  Sn12  1  0.16733956  0.33467912  0.75327173  1.0
  Sn  Sn13  1  0.66532088  0.83266044  0.75327173  1.0
  Sn  Sn14  1  0.66666667  0.33333333  0.82942696  1.0
  Sn  Sn15  1  0.33333333  0.66666667  0.32942696  1.0
  Sb  Sb16  1  0.48230337  0.51769663  0.54643463  1.0
  Sb  Sb17  1  0.48230337  0.96460673  0.54643463  1.0
  Sb  Sb18  1  0.03539327  0.51769663  0.54643463  1.0
  Sb  Sb19  1  0.51769663  0.48230337  0.04643463  1.0
  Sb  Sb20  1  0.51769663  0.03539327  0.04643463  1.0
  Sb  Sb21  1  0.96460673  0.48230337  0.04643463  1.0
  Sb  Sb22  1  -0.00000000  -0.00000000  0.55493281  1.0
  Sb  Sb23  1  0.00000000  0.00000000  0.05493281  1.0
