# generated using pymatgen
data_Li6Cu(B2O5)2
_symmetry_space_group_name_H-M   'P 1'
_cell_length_a   4.89561879
_cell_length_b   14.11731003
_cell_length_c   9.36070130
_cell_angle_alpha   104.99382339
_cell_angle_beta   93.37898610
_cell_angle_gamma   97.43374126
_symmetry_Int_Tables_number   1
_chemical_formula_structural   Li6Cu(B2O5)2
_chemical_formula_sum   'Li18 Cu3 B12 O30'
_cell_volume   616.77654948
_cell_formula_units_Z   3
loop_
 _symmetry_equiv_pos_site_id
 _symmetry_equiv_pos_as_xyz
  1  'x, y, z'
loop_
 _atom_site_type_symbol
 _atom_site_label
 _atom_site_symmetry_multiplicity
 _atom_site_fract_x
 _atom_site_fract_y
 _atom_site_fract_z
 _atom_site_occupancy
  Li  Li0  1  -0.95106668  -0.18417447  -0.19559372  1.0
  Li  Li1  1  -0.04893332  -0.81582553  -0.80440628  1.0
  Li  Li2  1  -0.93138643  -0.96957819  -0.62179855  1.0
  Li  Li3  1  -0.06861357  -0.03042181  -0.37820145  1.0
  Li  Li4  1  -0.91205854  -0.18589384  -0.91945825  1.0
  Li  Li5  1  -0.08794146  -0.81410616  -0.08054175  1.0
  Li  Li6  1  -0.79273635  -0.36781309  -0.06008646  1.0
  Li  Li7  1  -0.20726365  -0.63218691  -0.93991354  1.0
  Li  Li8  1  -0.66623086  -0.51220662  -0.85661688  1.0
  Li  Li9  1  -0.33376914  -0.48779338  -0.14338312  1.0
  Li  Li10  1  -0.63435879  -0.08866639  -0.56488943  1.0
  Li  Li11  1  -0.36564121  -0.91133361  -0.43511057  1.0
  Li  Li12  1  -0.61982602  -0.68819496  -0.82732652  1.0
  Li  Li13  1  -0.38017398  -0.31180504  -0.17267348  1.0
  Li  Li14  1  -0.55843299  -0.39495352  -0.42823564  1.0
  Li  Li15  1  -0.44156701  -0.60504648  -0.57176436  1.0
  Li  Li16  1  -0.51352063  -0.80218805  -0.59529417  1.0
  Li  Li17  1  -0.48647937  -0.19781195  -0.40470583  1.0
  Cu  Cu18  1  0.00000000  0.00000000  0.00000000  1.0
  Cu  Cu19  1  -0.69859134  -0.33090847  -0.68259596  1.0
  Cu  Cu20  1  -0.30140866  -0.66909153  -0.31740404  1.0
  B  B21  1  -0.92143679  -0.66811105  -0.54928823  1.0
  B  B22  1  -0.07856321  -0.33188895  -0.45071177  1.0
  B  B23  1  -0.82498682  -0.52002818  -0.31558206  1.0
  B  B24  1  -0.17501318  -0.47997182  -0.68441794  1.0
  B  B25  1  -0.79725363  -0.81695956  -0.34078658  1.0
  B  B26  1  -0.20274637  -0.18304044  -0.65921342  1.0
  B  B27  1  -0.72018181  -0.67004276  -0.10367197  1.0
  B  B28  1  -0.27981819  -0.32995724  -0.89632803  1.0
  B  B29  1  -0.59007760  -0.00461359  -0.22696648  1.0
  B  B30  1  -0.40992240  -0.99538641  -0.77303352  1.0
  B  B31  1  -0.54228715  -0.85227027  -0.00168477  1.0
  B  B32  1  -0.45771285  -0.14772973  -0.99831523  1.0
  O  O33  1  -0.97361115  -0.89945793  -0.41264246  1.0
  O  O34  1  -0.02638885  -0.10054207  -0.58735754  1.0
  O  O35  1  -0.94240947  -0.45474049  -0.74581264  1.0
  O  O36  1  -0.05759053  -0.54525951  -0.25418736  1.0
  O  O37  1  -0.87780335  -0.75312874  -0.21141956  1.0
  O  O38  1  -0.12219665  -0.24687126  -0.78858044  1.0
  O  O39  1  -0.84272491  -0.04677961  -0.19710097  1.0
  O  O40  1  -0.15727509  -0.95322039  -0.80289903  1.0
  O  O41  1  -0.83308308  -0.64292670  -0.97336786  1.0
  O  O42  1  -0.16691692  -0.35707330  -0.02663214  1.0
  O  O43  1  -0.80847574  -0.30464073  -0.47134932  1.0
  O  O44  1  -0.19152426  -0.69535927  -0.52865068  1.0
  O  O45  1  -0.81182017  -0.86568216  -0.96833406  1.0
  O  O46  1  -0.18817983  -0.13431784  -0.03166594  1.0
  O  O47  1  -0.78269368  -0.71960768  -0.65857653  1.0
  O  O48  1  -0.21730632  -0.28039232  -0.34142347  1.0
  O  O49  1  -0.76143990  -0.57935244  -0.45543881  1.0
  O  O50  1  -0.23856010  -0.42064756  -0.54456119  1.0
  O  O51  1  -0.63811945  -0.43750090  -0.25044144  1.0
  O  O52  1  -0.36188055  -0.56249910  -0.74955856  1.0
  O  O53  1  -0.64740915  -0.22612259  -0.07508761  1.0
  O  O54  1  -0.35259085  -0.77387741  -0.92491239  1.0
  O  O55  1  -0.55627413  -0.08243614  -0.87589567  1.0
  O  O56  1  -0.44372587  -0.91756386  -0.12410433  1.0
  O  O57  1  -0.53442947  -0.37433142  -0.87384964  1.0
  O  O58  1  -0.46557053  -0.62566858  -0.12615036  1.0
  O  O59  1  -0.52733548  -0.95805131  -0.64612152  1.0
  O  O60  1  -0.47266452  -0.04194870  -0.35387848  1.0
  O  O61  1  -0.54137365  -0.79428727  -0.38665734  1.0
  O  O62  1  -0.45862635  -0.20571273  -0.61334266  1.0
