# generated using pymatgen
data_Ba3In2O5F2
_symmetry_space_group_name_H-M   'P 1'
_cell_length_a   11.94699094
_cell_length_b   11.94699094
_cell_length_c   11.94699094
_cell_angle_alpha   159.54376796
_cell_angle_beta   159.54376796
_cell_angle_gamma   29.08743270
_symmetry_Int_Tables_number   1
_chemical_formula_structural   Ba3In2O5F2
_chemical_formula_sum   'Ba3 In2 O5 F2'
_cell_volume   208.17050596
_cell_formula_units_Z   1
loop_
 _symmetry_equiv_pos_site_id
 _symmetry_equiv_pos_as_xyz
  1  'x, y, z'
loop_
 _atom_site_type_symbol
 _atom_site_label
 _atom_site_symmetry_multiplicity
 _atom_site_fract_x
 _atom_site_fract_y
 _atom_site_fract_z
 _atom_site_occupancy
  Ba  Ba0  1  0.67637335  0.67637335  1.00000000  1.0
  Ba  Ba1  1  0.32362665  0.32362665  0.00000000  1.0
  Ba  Ba2  1  0.50000000  0.50000000  1.00000000  1.0
  In  In3  1  0.90857386  0.90857386  1.00000000  1.0
  In  In4  1  0.09142614  0.09142614  0.00000000  1.0
  O  O5  1  0.39577627  0.89577627  0.50000000  1.0
  O  O6  1  0.60422373  0.10422373  0.50000000  1.0
  O  O7  1  0.89577627  0.39577627  0.50000000  1.0
  O  O8  1  0.10422373  0.60422373  0.50000000  1.0
  O  O9  1  0.00000000  0.00000000  0.00000000  1.0
  F  F10  1  0.79418905  0.79418905  1.00000000  1.0
  F  F11  1  0.20581095  0.20581095  0.00000000  1.0
