# generated using pymatgen
data_NaSrP
_symmetry_space_group_name_H-M   'P 1'
_cell_length_a   7.71829561
_cell_length_b   7.71829561
_cell_length_c   4.47475167
_cell_angle_alpha   90.00000000
_cell_angle_beta   90.00000000
_cell_angle_gamma   120.00000000
_symmetry_Int_Tables_number   1
_chemical_formula_structural   NaSrP
_chemical_formula_sum   'Na3 Sr3 P3'
_cell_volume   230.85664841
_cell_formula_units_Z   3
loop_
 _symmetry_equiv_pos_site_id
 _symmetry_equiv_pos_as_xyz
  1  'x, y, z'
loop_
 _atom_site_type_symbol
 _atom_site_label
 _atom_site_symmetry_multiplicity
 _atom_site_fract_x
 _atom_site_fract_y
 _atom_site_fract_z
 _atom_site_occupancy
  Na  Na0  1  0.75768775  0.75768775  0.50000000  1.0
  Na  Na1  1  -0.00000000  0.24231225  0.50000000  1.0
  Na  Na2  1  0.24231225  0.00000000  0.50000000  1.0
  Sr  Sr3  1  0.41430018  0.41430018  0.00000000  1.0
  Sr  Sr4  1  -0.00000000  0.58569982  0.00000000  1.0
  Sr  Sr5  1  0.58569982  0.00000000  0.00000000  1.0
  P  P6  1  0.33333333  0.66666667  0.50000000  1.0
  P  P7  1  0.66666667  0.33333333  0.50000000  1.0
  P  P8  1  0.00000000  0.00000000  0.00000000  1.0
