# generated using pymatgen
data_YNb(SeO4)2
_symmetry_space_group_name_H-M   'P 1'
_cell_length_a   5.55049685
_cell_length_b   5.55049685
_cell_length_c   22.05559881
_cell_angle_alpha   89.99998061
_cell_angle_beta   90.00001939
_cell_angle_gamma   93.06856072
_symmetry_Int_Tables_number   1
_chemical_formula_structural   YNb(SeO4)2
_chemical_formula_sum   'Y4 Nb4 Se8 O32'
_cell_volume   678.51497053
_cell_formula_units_Z   4
loop_
 _symmetry_equiv_pos_site_id
 _symmetry_equiv_pos_as_xyz
  1  'x, y, z'
loop_
 _atom_site_type_symbol
 _atom_site_label
 _atom_site_symmetry_multiplicity
 _atom_site_fract_x
 _atom_site_fract_y
 _atom_site_fract_z
 _atom_site_occupancy
  Y  Y0  1  0.74477785  -0.25522215  0.50000000  1.0
  Y  Y1  1  1.25522215  0.25522215  0.50000000  1.0
  Y  Y2  1  0.75522197  -0.24477803  -0.00000000  1.0
  Y  Y3  1  1.24477803  0.24477803  -0.00000000  1.0
  Nb  Nb4  1  1.24248420  0.25753099  0.74999916  1.0
  Nb  Nb5  1  0.74246901  -0.24248420  0.74999916  1.0
  Nb  Nb6  1  1.25753099  0.24248420  0.25000084  1.0
  Nb  Nb7  1  0.75751580  -0.25753099  0.25000084  1.0
  Se  Se8  1  0.85131777  -0.85131777  0.86816013  1.0
  Se  Se9  1  0.14868223  -0.14868223  0.13183987  1.0
  Se  Se10  1  0.81520442  -0.81520442  0.59554189  1.0
  Se  Se11  1  0.18479558  -0.18479558  0.40445811  1.0
  Se  Se12  1  0.64870702  -0.64870702  0.36816557  1.0
  Se  Se13  1  0.35129298  -0.35129298  0.63183443  1.0
  Se  Se14  1  0.31520218  -0.31520218  0.90445867  1.0
  Se  Se15  1  0.68479782  -0.68479782  0.09554133  1.0
  O  O16  1  0.78630788  -0.14147467  0.84091627  1.0
  O  O17  1  1.14147467  0.21369212  0.84091627  1.0
  O  O18  1  0.85852533  -0.21369212  0.15908373  1.0
  O  O19  1  1.21369212  0.14147467  0.15908373  1.0
  O  O20  1  0.64144216  -0.28625485  0.65908083  1.0
  O  O21  1  1.28625485  0.35855784  0.65908083  1.0
  O  O22  1  0.71374515  -0.35855784  0.34091917  1.0
  O  O23  1  1.35855784  0.28625485  0.34091917  1.0
  O  O24  1  0.42456413  -0.07101802  0.94726606  1.0
  O  O25  1  1.07101802  0.57543587  0.94726606  1.0
  O  O26  1  0.92898198  -0.57543587  0.05273394  1.0
  O  O27  1  1.57543587  0.07101802  0.05273394  1.0
  O  O28  1  1.57101670  0.07543850  0.55273468  1.0
  O  O29  1  0.92456150  -0.57101670  0.55273468  1.0
  O  O30  1  1.07543850  0.57101670  0.44726532  1.0
  O  O31  1  0.42898330  -0.07543850  0.44726532  1.0
  O  O32  1  1.46628088  0.03394508  0.75000869  1.0
  O  O33  1  0.96605492  -0.46628088  0.75000869  1.0
  O  O34  1  1.03394508  0.46628088  0.24999131  1.0
  O  O35  1  0.53371912  -0.03394508  0.24999131  1.0
  O  O36  1  0.98570095  -0.98570095  0.43584134  1.0
  O  O37  1  0.01429905  -0.01429905  0.56415866  1.0
  O  O38  1  0.96584088  -0.96584088  0.72942512  1.0
  O  O39  1  0.03415912  -0.03415912  0.27057488  1.0
  O  O40  1  0.93122085  -0.93122085  0.94118992  1.0
  O  O41  1  0.06877915  -0.06877915  0.05881008  1.0
  O  O42  1  0.56878407  -0.56878407  0.44119241  1.0
  O  O43  1  0.43121593  -0.43121593  0.55880759  1.0
  O  O44  1  0.51429930  -0.51429930  0.93584003  1.0
  O  O45  1  0.48570070  -0.48570070  0.06415997  1.0
  O  O46  1  0.46564338  -0.46564338  0.77055732  1.0
  O  O47  1  0.53435662  -0.53435662  0.22944268  1.0
