# generated using pymatgen
data_CsPb
_symmetry_space_group_name_H-M   'P 1'
_cell_length_a   13.51577040
_cell_length_b   13.51577040
_cell_length_c   13.51577040
_cell_angle_alpha   124.82360579
_cell_angle_beta   124.82360579
_cell_angle_gamma   81.83040549
_symmetry_Int_Tables_number   1
_chemical_formula_structural   CsPb
_chemical_formula_sum   'Cs16 Pb16'
_cell_volume   1600.64489655
_cell_formula_units_Z   16
loop_
 _symmetry_equiv_pos_site_id
 _symmetry_equiv_pos_as_xyz
  1  'x, y, z'
loop_
 _atom_site_type_symbol
 _atom_site_label
 _atom_site_symmetry_multiplicity
 _atom_site_fract_x
 _atom_site_fract_y
 _atom_site_fract_z
 _atom_site_occupancy
  Cs  Cs0  1  0.76482089  1.37500000  0.88982089  1.0
  Cs  Cs1  1  1.26482089  1.37500000  1.38982089  1.0
  Cs  Cs2  1  1.62500000  1.51482089  1.38982089  1.0
  Cs  Cs3  1  1.12500000  1.73517911  1.11017911  1.0
  Cs  Cs4  1  0.98517911  0.87500000  0.61017911  1.0
  Cs  Cs5  1  1.48517911  0.87500000  1.11017911  1.0
  Cs  Cs6  1  1.62500000  1.01482089  0.88982089  1.0
  Cs  Cs7  1  1.12500000  1.23517911  0.61017911  1.0
  Cs  Cs8  1  0.87006399  0.87006399  0.24012799  1.0
  Cs  Cs9  1  1.37006399  1.12993601  1.00000000  1.0
  Cs  Cs10  1  0.12006399  0.62006399  0.74012799  1.0
  Cs  Cs11  1  0.62006399  0.87993601  1.50000000  1.0
  Cs  Cs12  1  0.87993601  0.37993601  1.25987201  1.0
  Cs  Cs13  1  0.37993601  0.12006399  0.50000000  1.0
  Cs  Cs14  1  1.62993601  1.62993601  1.75987201  1.0
  Cs  Cs15  1  1.12993601  1.37006399  1.00000000  1.0
  Pb  Pb16  1  1.50521038  1.33531004  0.95097916  1.0
  Pb  Pb17  1  1.00521038  1.05423122  0.16990034  1.0
  Pb  Pb18  1  1.58531004  1.25521038  1.45097916  1.0
  Pb  Pb19  1  1.08531004  1.63433088  1.33009966  1.0
  Pb  Pb20  1  1.24478962  0.91468996  0.54902084  1.0
  Pb  Pb21  1  1.74478962  1.19576878  1.33009966  1.0
  Pb  Pb22  1  0.16468996  0.99478962  1.04902084  1.0
  Pb  Pb23  1  0.66468996  0.61566912  1.16990034  1.0
  Pb  Pb24  1  1.88433088  1.83531004  1.83009966  1.0
  Pb  Pb25  1  1.38433088  1.55423122  1.04902084  1.0
  Pb  Pb26  1  1.30423122  0.75521038  0.66990034  1.0
  Pb  Pb27  1  0.80423122  1.13433088  0.54902084  1.0
  Pb  Pb28  1  0.86566912  1.41468996  0.66990034  1.0
  Pb  Pb29  1  1.36566912  1.69576878  1.45097916  1.0
  Pb  Pb30  1  0.44576878  0.49478962  0.83009966  1.0
  Pb  Pb31  1  0.94576878  0.11566912  0.95097916  1.0
