# generated using pymatgen
data_KHgSbS3
_symmetry_space_group_name_H-M   'P 1'
_cell_length_a   6.43007808
_cell_length_b   6.43007808
_cell_length_c   17.65189752
_cell_angle_alpha   79.77466589
_cell_angle_beta   100.22533411
_cell_angle_gamma   88.96566901
_symmetry_Int_Tables_number   1
_chemical_formula_structural   KHgSbS3
_chemical_formula_sum   'K4 Hg4 Sb4 S12'
_cell_volume   705.90792716
_cell_formula_units_Z   4
loop_
 _symmetry_equiv_pos_site_id
 _symmetry_equiv_pos_as_xyz
  1  'x, y, z'
loop_
 _atom_site_type_symbol
 _atom_site_label
 _atom_site_symmetry_multiplicity
 _atom_site_fract_x
 _atom_site_fract_y
 _atom_site_fract_z
 _atom_site_occupancy
  K  K0  1  0.58590714  0.22927180  0.58491298  1.0
  K  K1  1  0.77072820  0.41409286  0.08491298  1.0
  K  K2  1  1.22927180  -0.41409286  0.91508702  1.0
  K  K3  1  1.41409286  -0.22927180  0.41508702  1.0
  Hg  Hg4  1  0.63109192  0.63109192  0.75000000  1.0
  Hg  Hg5  1  0.36890808  0.36890808  0.25000000  1.0
  Hg  Hg6  1  0.15897444  0.15897444  0.75000000  1.0
  Hg  Hg7  1  0.84102556  0.84102556  0.25000000  1.0
  Sb  Sb8  1  0.70173855  0.05229469  0.89981190  1.0
  Sb  Sb9  1  0.94770531  0.29826145  0.39981190  1.0
  Sb  Sb10  1  1.05229469  -0.29826145  0.60018810  1.0
  Sb  Sb11  1  1.29826145  -0.05229469  0.10018810  1.0
  S  S12  1  1.67149090  -0.27231990  0.60793014  1.0
  S  S13  1  1.27231990  -0.67149090  0.10793014  1.0
  S  S14  1  0.72768010  0.67149090  0.89206986  1.0
  S  S15  1  0.32850910  0.27231990  0.39206986  1.0
  S  S16  1  0.72518875  0.20559200  0.76631445  1.0
  S  S17  1  0.79440800  0.27481125  0.26631445  1.0
  S  S18  1  1.20559200  -0.27481125  0.73368555  1.0
  S  S19  1  1.27481125  -0.20559200  0.23368555  1.0
  S  S20  1  0.31278807  0.10169448  0.89074917  1.0
  S  S21  1  0.89830552  0.68721193  0.39074917  1.0
  S  S22  1  1.10169448  -0.68721193  0.60925083  1.0
  S  S23  1  1.68721193  -0.10169448  0.10925083  1.0
