# generated using pymatgen
data_Nb3Tl2Br9
_symmetry_space_group_name_H-M   'P 1'
_cell_length_a   10.43029987
_cell_length_b   10.43029987
_cell_length_c   10.27425250
_cell_angle_alpha   77.50009433
_cell_angle_beta   102.49990567
_cell_angle_gamma   62.72571593
_symmetry_Int_Tables_number   1
_chemical_formula_structural   Nb3Tl2Br9
_chemical_formula_sum   'Nb6 Tl4 Br18'
_cell_volume   903.49817505
_cell_formula_units_Z   2
loop_
 _symmetry_equiv_pos_site_id
 _symmetry_equiv_pos_as_xyz
  1  'x, y, z'
loop_
 _atom_site_type_symbol
 _atom_site_label
 _atom_site_symmetry_multiplicity
 _atom_site_fract_x
 _atom_site_fract_y
 _atom_site_fract_z
 _atom_site_occupancy
  Nb  Nb0  1  0.45793358  -0.29149512  0.86518315  1.0
  Nb  Nb1  1  1.29149512  0.54206642  0.86518315  1.0
  Nb  Nb2  1  0.70850489  -0.54206642  0.13481685  1.0
  Nb  Nb3  1  1.54206642  0.29149512  0.13481685  1.0
  Nb  Nb4  1  0.61766634  -0.61766634  0.88029096  1.0
  Nb  Nb5  1  0.38233366  -0.38233366  0.11970904  1.0
  Tl  Tl6  1  0.72900626  -0.04951733  0.66381222  1.0
  Tl  Tl7  1  1.04951733  0.27099374  0.66381222  1.0
  Tl  Tl8  1  0.95048267  -0.27099374  0.33618778  1.0
  Tl  Tl9  1  1.27099374  0.04951733  0.33618778  1.0
  Br  Br10  1  0.59117766  -0.38741289  0.68923173  1.0
  Br  Br11  1  1.38741289  0.40882234  0.68923173  1.0
  Br  Br12  1  0.61258711  -0.40882234  0.31076827  1.0
  Br  Br13  1  1.40882234  0.38741289  0.31076827  1.0
  Br  Br14  1  0.30649891  -0.10060607  0.98147204  1.0
  Br  Br15  1  1.10060607  0.69350109  0.98147204  1.0
  Br  Br16  1  0.89939393  -0.69350109  0.01852796  1.0
  Br  Br17  1  1.69350109  0.10060607  0.01852796  1.0
  Br  Br18  1  1.39785467  -0.00403271  0.67674991  1.0
  Br  Br19  1  1.00403271  -0.39785467  0.67674991  1.0
  Br  Br20  1  0.99596729  0.39785467  0.32325009  1.0
  Br  Br21  1  0.60214533  0.00403271  0.32325009  1.0
  Br  Br22  1  0.80939411  -0.80939411  0.32944481  1.0
  Br  Br23  1  0.19060589  -0.19060589  0.67055519  1.0
  Br  Br24  1  0.77595384  -0.77595384  0.71896605  1.0
  Br  Br25  1  0.22404616  -0.22404616  0.28103395  1.0
  Br  Br26  1  0.70455654  -0.29544346  0.00000000  1.0
  Br  Br27  1  1.29544346  0.29544346  0.00000000  1.0
