# generated using pymatgen
data_ScCd7
_symmetry_space_group_name_H-M   'P 1'
_cell_length_a   6.29036292
_cell_length_b   6.29036292
_cell_length_c   9.41337674
_cell_angle_alpha   90.00000000
_cell_angle_beta   90.00000000
_cell_angle_gamma   107.81917667
_symmetry_Int_Tables_number   1
_chemical_formula_structural   ScCd7
_chemical_formula_sum   'Sc2 Cd14'
_cell_volume   354.60603426
_cell_formula_units_Z   2
loop_
 _symmetry_equiv_pos_site_id
 _symmetry_equiv_pos_as_xyz
  1  'x, y, z'
loop_
 _atom_site_type_symbol
 _atom_site_label
 _atom_site_symmetry_multiplicity
 _atom_site_fract_x
 _atom_site_fract_y
 _atom_site_fract_z
 _atom_site_occupancy
  Sc  Sc0  1  -0.47796965  1.47796965  0.25000000  1.0
  Sc  Sc1  1  0.47796965  0.52203035  0.75000000  1.0
  Cd  Cd2  1  0.29119902  0.70880098  0.48259767  1.0
  Cd  Cd3  1  0.29119902  0.70880098  0.01740233  1.0
  Cd  Cd4  1  -0.29119902  1.29119902  0.98259767  1.0
  Cd  Cd5  1  -0.29119902  1.29119902  0.51740233  1.0
  Cd  Cd6  1  0.78879377  0.78879377  0.50000000  1.0
  Cd  Cd7  1  0.78879377  0.78879377  0.00000000  1.0
  Cd  Cd8  1  0.21120623  0.21120623  0.50000000  1.0
  Cd  Cd9  1  0.21120623  0.21120623  0.00000000  1.0
  Cd  Cd10  1  0.08566489  0.91433511  0.25000000  1.0
  Cd  Cd11  1  -0.08566489  1.08566489  0.75000000  1.0
  Cd  Cd12  1  0.00304614  0.40241452  0.25000000  1.0
  Cd  Cd13  1  -0.59758548  1.00304614  0.75000000  1.0
  Cd  Cd14  1  0.59758548  0.99695386  0.25000000  1.0
  Cd  Cd15  1  -0.00304614  1.59758548  0.75000000  1.0
