# generated using pymatgen
data_Mn(GaS2)2
_symmetry_space_group_name_H-M   'P 1'
_cell_length_a   6.48714066
_cell_length_b   6.48714066
_cell_length_c   6.48714066
_cell_angle_alpha   130.12879481
_cell_angle_beta   130.12879481
_cell_angle_gamma   73.20094897
_symmetry_Int_Tables_number   1
_chemical_formula_structural   Mn(GaS2)2
_chemical_formula_sum   'Mn1 Ga2 S4'
_cell_volume   155.82385823
_cell_formula_units_Z   1
loop_
 _symmetry_equiv_pos_site_id
 _symmetry_equiv_pos_as_xyz
  1  'x, y, z'
loop_
 _atom_site_type_symbol
 _atom_site_label
 _atom_site_symmetry_multiplicity
 _atom_site_fract_x
 _atom_site_fract_y
 _atom_site_fract_z
 _atom_site_occupancy
  Mn  Mn0  1  0.50000000  0.50000000  1.00000000  1.0
  Ga  Ga1  1  0.25000000  0.75000000  0.50000000  1.0
  Ga  Ga2  1  0.00000000  0.00000000  0.00000000  1.0
  S  S3  1  0.37368896  0.88854298  1.00203513  1.0
  S  S4  1  1.11145702  1.11349214  1.48514598  1.0
  S  S5  1  0.88650786  0.37165384  0.99796487  1.0
  S  S6  1  0.62834616  0.62631104  0.51485402  1.0
