# generated using pymatgen
data_K2NaAlF6
_symmetry_space_group_name_H-M   'P 1'
_cell_length_a   8.27551747
_cell_length_b   8.27551747
_cell_length_c   8.27551747
_cell_angle_alpha   90.00000000
_cell_angle_beta   90.00000000
_cell_angle_gamma   90.00000000
_symmetry_Int_Tables_number   1
_chemical_formula_structural   K2NaAlF6
_chemical_formula_sum   'K8 Na4 Al4 F24'
_cell_volume   566.74210542
_cell_formula_units_Z   4
loop_
 _symmetry_equiv_pos_site_id
 _symmetry_equiv_pos_as_xyz
  1  'x, y, z'
loop_
 _atom_site_type_symbol
 _atom_site_label
 _atom_site_symmetry_multiplicity
 _atom_site_fract_x
 _atom_site_fract_y
 _atom_site_fract_z
 _atom_site_occupancy
  K  K0  1  0.24999333  0.74999333  0.75000667  1.0
  K  K1  1  0.24999333  0.75000667  0.25000667  1.0
  K  K2  1  0.74999333  0.74999333  0.74999333  1.0
  K  K3  1  0.74999333  0.75000667  0.24999333  1.0
  K  K4  1  0.75000667  0.24999333  0.74999333  1.0
  K  K5  1  0.75000667  0.25000667  0.24999333  1.0
  K  K6  1  0.25000667  0.24999333  0.75000667  1.0
  K  K7  1  0.25000667  0.25000667  0.25000667  1.0
  Na  Na8  1  0.00000000  0.50000000  0.00000000  1.0
  Na  Na9  1  0.00000000  0.00000000  0.50000000  1.0
  Na  Na10  1  0.50000000  0.50000000  0.50000000  1.0
  Na  Na11  1  0.50000000  0.00000000  0.00000000  1.0
  Al  Al12  1  0.50000000  0.00000000  0.50000000  1.0
  Al  Al13  1  0.50000000  0.50000000  0.00000000  1.0
  Al  Al14  1  0.00000000  0.00000000  0.00000000  1.0
  Al  Al15  1  0.00000000  0.50000000  0.50000000  1.0
  F  F16  1  0.49989479  0.77757724  0.49993205  1.0
  F  F17  1  0.49989479  0.72242276  -0.00006795  1.0
  F  F18  1  0.99989479  0.77757724  1.00006795  1.0
  F  F19  1  0.99989479  0.72242276  0.50006795  1.0
  F  F20  1  0.27757724  1.00006795  0.50010521  1.0
  F  F21  1  0.27757724  0.49993205  0.00010521  1.0
  F  F22  1  0.77757724  1.00006795  0.99989479  1.0
  F  F23  1  0.77757724  0.49993205  0.49989479  1.0
  F  F24  1  0.50006795  0.99989479  0.72242276  1.0
  F  F25  1  0.50006795  0.50010521  0.22242276  1.0
  F  F26  1  1.00006795  0.99989479  0.77757724  1.0
  F  F27  1  1.00006795  0.50010521  0.27757724  1.0
  F  F28  1  0.50010521  0.27757724  1.00006795  1.0
  F  F29  1  0.50010521  0.22242276  0.50006795  1.0
  F  F30  1  0.00010521  0.27757724  0.49993205  1.0
  F  F31  1  0.00010521  0.22242276  -0.00006795  1.0
  F  F32  1  0.72242276  0.50006795  0.99989479  1.0
  F  F33  1  0.72242276  -0.00006795  0.49989479  1.0
  F  F34  1  0.22242276  0.50006795  0.50010521  1.0
  F  F35  1  0.22242276  -0.00006795  0.00010521  1.0
  F  F36  1  0.49993205  0.49989479  0.77757724  1.0
  F  F37  1  0.49993205  0.00010521  0.27757724  1.0
  F  F38  1  -0.00006795  0.49989479  0.72242276  1.0
  F  F39  1  -0.00006795  0.00010521  0.22242276  1.0
