# generated using pymatgen
data_ZrPbS3
_symmetry_space_group_name_H-M   'P 1'
_cell_length_a   9.31534993
_cell_length_b   3.80752572
_cell_length_c   14.11284410
_cell_angle_alpha   90.00000000
_cell_angle_beta   90.00000000
_cell_angle_gamma   90.00000000
_symmetry_Int_Tables_number   1
_chemical_formula_structural   ZrPbS3
_chemical_formula_sum   'Zr4 Pb4 S12'
_cell_volume   500.56048540
_cell_formula_units_Z   4
loop_
 _symmetry_equiv_pos_site_id
 _symmetry_equiv_pos_as_xyz
  1  'x, y, z'
loop_
 _atom_site_type_symbol
 _atom_site_label
 _atom_site_symmetry_multiplicity
 _atom_site_fract_x
 _atom_site_fract_y
 _atom_site_fract_z
 _atom_site_occupancy
  Zr  Zr0  1  0.83564213  0.75000000  0.45280813  1.0
  Zr  Zr1  1  0.33564213  0.75000000  0.04719187  1.0
  Zr  Zr2  1  0.16435787  0.25000000  0.54719187  1.0
  Zr  Zr3  1  0.66435787  0.25000000  0.95280813  1.0
  Pb  Pb4  1  0.46913855  0.75000000  0.67136413  1.0
  Pb  Pb5  1  0.96913855  0.75000000  0.82863587  1.0
  Pb  Pb6  1  0.53086145  0.25000000  0.32863587  1.0
  Pb  Pb7  1  0.03086145  0.25000000  0.17136413  1.0
  S  S8  1  0.99235848  0.75000000  0.60447558  1.0
  S  S9  1  0.49235848  0.75000000  0.89552442  1.0
  S  S10  1  0.00764152  0.25000000  0.39552442  1.0
  S  S11  1  0.50764152  0.25000000  0.10447558  1.0
  S  S12  1  0.82723271  0.75000000  0.01160667  1.0
  S  S13  1  0.32723271  0.75000000  0.48839333  1.0
  S  S14  1  0.17276729  0.25000000  0.98839333  1.0
  S  S15  1  0.67276729  0.25000000  0.51160667  1.0
  S  S16  1  0.73267400  0.75000000  0.28705175  1.0
  S  S17  1  0.23267400  0.75000000  0.21294825  1.0
  S  S18  1  0.26732600  0.25000000  0.71294825  1.0
  S  S19  1  0.76732600  0.25000000  0.78705175  1.0
