# generated using pymatgen
data_Al2(SeO4)3
_symmetry_space_group_name_H-M   'P 1'
_cell_length_a   8.97471215
_cell_length_b   8.97471215
_cell_length_c   8.97471215
_cell_angle_alpha   56.06080344
_cell_angle_beta   56.06080344
_cell_angle_gamma   56.06080344
_symmetry_Int_Tables_number   1
_chemical_formula_structural   Al2(SeO4)3
_chemical_formula_sum   'Al4 Se6 O24'
_cell_volume   464.51358738
_cell_formula_units_Z   2
loop_
 _symmetry_equiv_pos_site_id
 _symmetry_equiv_pos_as_xyz
  1  'x, y, z'
loop_
 _atom_site_type_symbol
 _atom_site_label
 _atom_site_symmetry_multiplicity
 _atom_site_fract_x
 _atom_site_fract_y
 _atom_site_fract_z
 _atom_site_occupancy
  Al  Al0  1  0.14307812  0.14307812  0.14307812  1.0
  Al  Al1  1  0.85692188  -0.14307812  -0.14307812  1.0
  Al  Al2  1  0.35097572  0.35097572  -0.64902428  1.0
  Al  Al3  1  0.64902428  0.64902428  -0.35097572  1.0
  Se  Se4  1  0.53815845  0.24866996  -0.03398445  1.0
  Se  Se5  1  1.03398445  -0.53815845  -0.24866996  1.0
  Se  Se6  1  0.75133004  0.03398445  -0.53815845  1.0
  Se  Se7  1  0.46184155  -0.24866996  0.03398445  1.0
  Se  Se8  1  0.96601555  -0.46184155  0.24866996  1.0
  Se  Se9  1  1.24866996  -0.03398445  -0.46184155  1.0
  O  O10  1  0.20604233  0.98624318  -0.63094456  1.0
  O  O11  1  0.63094456  -0.20604233  0.01375682  1.0
  O  O12  1  1.01375682  -0.36905544  -0.20604233  1.0
  O  O13  1  0.79395767  0.01375682  -0.36905544  1.0
  O  O14  1  0.36905544  0.20604233  -0.01375682  1.0
  O  O15  1  0.98624318  0.36905544  -0.79395767  1.0
  O  O16  1  0.52639945  0.18783349  -0.51354869  1.0
  O  O17  1  0.51354869  0.47360055  -0.18783349  1.0
  O  O18  1  0.81216651  0.51354869  -0.52639945  1.0
  O  O19  1  0.47360055  0.81216651  -0.48645131  1.0
  O  O20  1  0.48645131  0.52639945  -0.81216651  1.0
  O  O21  1  0.18783349  0.48645131  -0.47360055  1.0
  O  O22  1  0.24636036  0.90016955  -0.87989119  1.0
  O  O23  1  0.87989119  -0.24636036  0.09983045  1.0
  O  O24  1  1.09983045  -0.12010881  -0.24636036  1.0
  O  O25  1  0.75363964  0.09983045  -0.12010881  1.0
  O  O26  1  0.12010881  0.24636036  -0.09983045  1.0
  O  O27  1  0.90016955  0.12010881  -0.75363964  1.0
  O  O28  1  0.51882344  0.21185863  0.17927638  1.0
  O  O29  1  0.82072362  -0.51882344  -0.21185863  1.0
  O  O30  1  0.78814137  -0.17927638  -0.51882344  1.0
  O  O31  1  0.48117656  -0.21185863  -0.17927638  1.0
  O  O32  1  1.17927638  -0.48117656  0.21185863  1.0
  O  O33  1  1.21185863  0.17927638  -0.48117656  1.0
