# generated using pymatgen
data_Li6Br3N
_symmetry_space_group_name_H-M   'P 1'
_cell_length_a   6.36807864
_cell_length_b   6.36807864
_cell_length_c   6.36807864
_cell_angle_alpha   60.00000000
_cell_angle_beta   60.00000000
_cell_angle_gamma   60.00000000
_symmetry_Int_Tables_number   1
_chemical_formula_structural   Li6Br3N
_chemical_formula_sum   'Li6 Br3 N1'
_cell_volume   182.60398735
_cell_formula_units_Z   1
loop_
 _symmetry_equiv_pos_site_id
 _symmetry_equiv_pos_as_xyz
  1  'x, y, z'
loop_
 _atom_site_type_symbol
 _atom_site_label
 _atom_site_symmetry_multiplicity
 _atom_site_fract_x
 _atom_site_fract_y
 _atom_site_fract_z
 _atom_site_occupancy
  Li  Li0  1  -0.78902834  0.78902834  0.78902834  1.0
  Li  Li1  1  -0.21097166  0.21097166  0.78902834  1.0
  Li  Li2  1  0.78902834  0.78902834  -0.78902834  1.0
  Li  Li3  1  0.21097166  1.21097166  -0.21097166  1.0
  Li  Li4  1  0.21097166  -0.21097166  1.21097166  1.0
  Li  Li5  1  -0.21097166  0.21097166  0.21097166  1.0
  Br  Br6  1  0.75000000  0.75000000  -0.25000000  1.0
  Br  Br7  1  1.25000000  0.25000000  0.25000000  1.0
  Br  Br8  1  -0.50000000  0.50000000  0.50000000  1.0
  N  N9  1  0.00000000  0.00000000  0.00000000  1.0
