# generated using pymatgen
data_Ti4Ga3Ni2
_symmetry_space_group_name_H-M   'P 1'
_cell_length_a   7.35769663
_cell_length_b   7.35769663
_cell_length_c   5.59184698
_cell_angle_alpha   90.00000000
_cell_angle_beta   90.00000000
_cell_angle_gamma   120.00000000
_symmetry_Int_Tables_number   1
_chemical_formula_structural   Ti4Ga3Ni2
_chemical_formula_sum   'Ti8 Ga6 Ni4'
_cell_volume   262.16195338
_cell_formula_units_Z   2
loop_
 _symmetry_equiv_pos_site_id
 _symmetry_equiv_pos_as_xyz
  1  'x, y, z'
loop_
 _atom_site_type_symbol
 _atom_site_label
 _atom_site_symmetry_multiplicity
 _atom_site_fract_x
 _atom_site_fract_y
 _atom_site_fract_z
 _atom_site_occupancy
  Ti  Ti0  1  0.36647852  0.36647852  0.50000000  1.0
  Ti  Ti1  1  -0.00000000  0.63352148  0.50000000  1.0
  Ti  Ti2  1  0.63352148  0.00000000  0.50000000  1.0
  Ti  Ti3  1  0.36647893  0.36647893  -0.00000000  1.0
  Ti  Ti4  1  -0.00000000  0.63352107  -0.00000000  1.0
  Ti  Ti5  1  0.63352107  0.00000000  -0.00000000  1.0
  Ti  Ti6  1  0.00000000  -0.00000000  0.50000000  1.0
  Ti  Ti7  1  0.00000000  -0.00000000  0.00000000  1.0
  Ga  Ga8  1  0.68670415  0.68670415  0.74999974  1.0
  Ga  Ga9  1  0.68670415  0.68670415  0.25000026  1.0
  Ga  Ga10  1  0.00000000  0.31329585  0.74999974  1.0
  Ga  Ga11  1  0.00000000  0.31329585  0.25000026  1.0
  Ga  Ga12  1  0.31329585  0.00000000  0.74999974  1.0
  Ga  Ga13  1  0.31329585  0.00000000  0.25000026  1.0
  Ni  Ni14  1  0.33333333  0.66666667  0.75000261  1.0
  Ni  Ni15  1  0.33333333  0.66666667  0.24999739  1.0
  Ni  Ni16  1  0.66666667  0.33333333  0.75000261  1.0
  Ni  Ni17  1  0.66666667  0.33333333  0.24999739  1.0
