# generated using pymatgen
data_BPPbO5
_symmetry_space_group_name_H-M   'P 1'
_cell_length_a   7.02490238
_cell_length_b   7.02490238
_cell_length_c   6.93984334
_cell_angle_alpha   90.00000000
_cell_angle_beta   90.00000000
_cell_angle_gamma   120.00000000
_symmetry_Int_Tables_number   1
_chemical_formula_structural   BPPbO5
_chemical_formula_sum   'B3 P3 Pb3 O15'
_cell_volume   296.59299229
_cell_formula_units_Z   3
loop_
 _symmetry_equiv_pos_site_id
 _symmetry_equiv_pos_as_xyz
  1  'x, y, z'
loop_
 _atom_site_type_symbol
 _atom_site_label
 _atom_site_symmetry_multiplicity
 _atom_site_fract_x
 _atom_site_fract_y
 _atom_site_fract_z
 _atom_site_occupancy
  B  B0  1  0.90215653  0.90215653  0.00000000  1.0
  B  B1  1  -0.00000000  0.09784347  0.66666667  1.0
  B  B2  1  0.09784347  0.00000000  0.33333333  1.0
  P  P3  1  0.39937125  0.39937125  0.50000000  1.0
  P  P4  1  0.00000000  0.60062875  0.16666667  1.0
  P  P5  1  0.60062875  0.00000000  0.83333333  1.0
  Pb  Pb6  1  0.38729741  0.38729741  0.00000000  1.0
  Pb  Pb7  1  0.00000000  0.61270259  0.66666667  1.0
  Pb  Pb8  1  0.61270259  0.00000000  0.33333333  1.0
  O  O9  1  0.41908562  0.86171038  0.68989921  1.0
  O  O10  1  0.86171038  0.41908562  0.31010079  1.0
  O  O11  1  0.44262476  0.58091438  0.35656588  1.0
  O  O12  1  0.13828962  0.55737524  0.02323255  1.0
  O  O13  1  0.58091438  0.44262476  0.64343412  1.0
  O  O14  1  0.55737524  0.13828962  0.97676745  1.0
  O  O15  1  0.85375358  0.66890688  0.03782721  1.0
  O  O16  1  0.66890688  0.85375358  0.96217279  1.0
  O  O17  1  0.81515330  0.14624642  0.70449388  1.0
  O  O18  1  0.33109312  0.18484670  0.37116055  1.0
  O  O19  1  0.14624642  0.81515330  0.29550612  1.0
  O  O20  1  0.18484670  0.33109312  0.62883945  1.0
  O  O21  1  0.95782060  0.95782060  0.50000000  1.0
  O  O22  1  -0.00000000  0.04217940  0.16666667  1.0
  O  O23  1  0.04217940  0.00000000  0.83333333  1.0
