# generated using pymatgen
data_H4C3N8O
_symmetry_space_group_name_H-M   'P 1'
_cell_length_a   10.91033103
_cell_length_b   7.92145840
_cell_length_c   9.87593150
_cell_angle_alpha   90.00000000
_cell_angle_beta   112.34902614
_cell_angle_gamma   90.00000000
_symmetry_Int_Tables_number   1
_chemical_formula_structural   H4C3N8O
_chemical_formula_sum   'H16 C12 N32 O4'
_cell_volume   789.42110653
_cell_formula_units_Z   4
loop_
 _symmetry_equiv_pos_site_id
 _symmetry_equiv_pos_as_xyz
  1  'x, y, z'
loop_
 _atom_site_type_symbol
 _atom_site_label
 _atom_site_symmetry_multiplicity
 _atom_site_fract_x
 _atom_site_fract_y
 _atom_site_fract_z
 _atom_site_occupancy
  H  H0  1  0.91839747  0.74817754  0.70941824  1.0
  H  H1  1  0.91839747  0.75182246  0.20941824  1.0
  H  H2  1  0.08160253  0.24817754  0.79058176  1.0
  H  H3  1  0.08160253  0.25182246  0.29058176  1.0
  H  H4  1  0.84987416  0.26089320  0.78165423  1.0
  H  H5  1  0.84987416  0.23910680  0.28165423  1.0
  H  H6  1  0.15012584  0.76089320  0.71834577  1.0
  H  H7  1  0.15012584  0.73910680  0.21834577  1.0
  H  H8  1  0.72965759  0.37788310  0.81964386  1.0
  H  H9  1  0.72965759  0.12211690  0.31964386  1.0
  H  H10  1  0.27034241  0.87788310  0.68035614  1.0
  H  H11  1  0.27034241  0.62211690  0.18035614  1.0
  H  H12  1  0.72188376  0.98717698  0.62386235  1.0
  H  H13  1  0.72188376  0.51282302  0.12386235  1.0
  H  H14  1  0.27811624  0.48717698  0.87613765  1.0
  H  H15  1  0.27811624  0.01282302  0.37613765  1.0
  C  C16  1  0.97632741  0.75736701  0.94531809  1.0
  C  C17  1  0.97632741  0.74263299  0.44531809  1.0
  C  C18  1  0.02367259  0.25736701  0.55468191  1.0
  C  C19  1  0.02367259  0.24263299  0.05468191  1.0
  C  C20  1  0.89023694  0.31536296  1.00123933  1.0
  C  C21  1  0.89023694  0.18463704  0.50123933  1.0
  C  C22  1  0.10976306  0.81536296  0.49876067  1.0
  C  C23  1  0.10976306  0.68463704  -0.00123933  1.0
  C  C24  1  0.79372013  0.86336175  0.92803658  1.0
  C  C25  1  0.79372013  0.63663825  0.42803658  1.0
  C  C26  1  0.20627987  0.36336175  0.57196342  1.0
  C  C27  1  0.20627987  0.13663825  0.07196342  1.0
  N  N28  1  0.91056542  0.69156458  0.52854407  1.0
  N  N29  1  0.91056542  0.80843542  0.02854407  1.0
  N  N30  1  0.08943458  0.19156458  0.97145593  1.0
  N  N31  1  0.08943458  0.30843542  0.47145593  1.0
  N  N32  1  0.90054189  0.78141034  0.80316527  1.0
  N  N33  1  0.90054189  0.71858966  0.30316527  1.0
  N  N34  1  0.09945811  0.28141034  0.69683473  1.0
  N  N35  1  0.09945811  0.21858966  0.19683473  1.0
  N  N36  1  0.82019640  0.32240159  0.85522110  1.0
  N  N37  1  0.82019640  0.17759841  0.35522110  1.0
  N  N38  1  0.17980360  0.82240159  0.64477890  1.0
  N  N39  1  0.17980360  0.67759841  0.14477890  1.0
  N  N40  1  0.78272157  0.84985353  0.78921682  1.0
  N  N41  1  0.78272157  0.65014647  0.28921682  1.0
  N  N42  1  0.21727843  0.34985353  0.71078318  1.0
  N  N43  1  0.21727843  0.15014647  0.21078318  1.0
  N  N44  1  0.69680615  0.92784537  0.97299667  1.0
  N  N45  1  0.69680615  0.57215463  0.47299667  1.0
  N  N46  1  0.30319385  0.42784537  0.52700333  1.0
  N  N47  1  0.30319385  0.07215463  0.02700333  1.0
  N  N48  1  0.51682331  0.50397609  0.69450478  1.0
  N  N49  1  0.51682331  0.99602391  0.19450478  1.0
  N  N50  1  0.48317669  0.00397609  0.80549522  1.0
  N  N51  1  0.48317669  0.49602391  0.30549522  1.0
  N  N52  1  0.41192348  0.46439794  0.62123132  1.0
  N  N53  1  0.41192348  1.03560206  0.12123132  1.0
  N  N54  1  0.58807652  -0.03560206  0.87876868  1.0
  N  N55  1  0.58807652  0.53560206  0.37876868  1.0
  N  N56  1  0.14736077  0.62748299  0.89645668  1.0
  N  N57  1  0.14736077  0.87251701  0.39645668  1.0
  N  N58  1  0.85263923  0.12748299  0.60354332  1.0
  N  N59  1  0.85263923  0.37251701  0.10354332  1.0
  O  O60  1  0.27532180  0.55784403  0.95816587  1.0
  O  O61  1  0.27532180  0.94215597  0.45816587  1.0
  O  O62  1  0.72467820  0.05784403  0.54183413  1.0
  O  O63  1  0.72467820  0.44215597  0.04183413  1.0
