# generated using pymatgen
data_KGdF4
_symmetry_space_group_name_H-M   'P 1'
_cell_length_a   6.22339810
_cell_length_b   3.70027574
_cell_length_c   15.69697536
_cell_angle_alpha   90.00000000
_cell_angle_beta   90.00000000
_cell_angle_gamma   90.00000000
_symmetry_Int_Tables_number   1
_chemical_formula_structural   KGdF4
_chemical_formula_sum   'K4 Gd4 F16'
_cell_volume   361.47448492
_cell_formula_units_Z   4
loop_
 _symmetry_equiv_pos_site_id
 _symmetry_equiv_pos_as_xyz
  1  'x, y, z'
loop_
 _atom_site_type_symbol
 _atom_site_label
 _atom_site_symmetry_multiplicity
 _atom_site_fract_x
 _atom_site_fract_y
 _atom_site_fract_z
 _atom_site_occupancy
  K  K0  1  0.77770106  0.75000000  0.20163379  1.0
  K  K1  1  0.27770106  0.75000000  0.29836621  1.0
  K  K2  1  0.22229894  0.25000000  0.79836621  1.0
  K  K3  1  0.72229894  0.25000000  0.70163379  1.0
  Gd  Gd4  1  0.24864165  0.75000000  0.55986580  1.0
  Gd  Gd5  1  0.74864165  0.75000000  0.94013420  1.0
  Gd  Gd6  1  0.75135835  0.25000000  0.44013420  1.0
  Gd  Gd7  1  0.25135835  0.25000000  0.05986580  1.0
  F  F8  1  0.99541478  0.75000000  0.05717298  1.0
  F  F9  1  0.49541478  0.75000000  0.44282702  1.0
  F  F10  1  0.00458522  0.25000000  0.94282702  1.0
  F  F11  1  0.50458522  0.25000000  0.55717298  1.0
  F  F12  1  0.90701651  0.75000000  0.81033678  1.0
  F  F13  1  0.40701651  0.75000000  0.68966322  1.0
  F  F14  1  0.09298349  0.25000000  0.18966322  1.0
  F  F15  1  0.59298349  0.25000000  0.31033678  1.0
  F  F16  1  0.89369430  0.75000000  0.36753367  1.0
  F  F17  1  0.39369430  0.75000000  0.13246633  1.0
  F  F18  1  0.10630570  0.25000000  0.63246633  1.0
  F  F19  1  0.60630570  0.25000000  0.86753367  1.0
  F  F20  1  0.86659966  0.75000000  0.53604321  1.0
  F  F21  1  0.36659966  0.75000000  0.96395679  1.0
  F  F22  1  0.13340034  0.25000000  0.46395679  1.0
  F  F23  1  0.63340034  0.25000000  0.03604321  1.0
