# generated using pymatgen
data_LiB2O3
_symmetry_space_group_name_H-M   'P 1'
_cell_length_a   9.57590922
_cell_length_b   9.57590922
_cell_length_c   9.57590922
_cell_angle_alpha   111.73973891
_cell_angle_beta   111.73973891
_cell_angle_gamma   105.02365527
_symmetry_Int_Tables_number   1
_chemical_formula_structural   LiB2O3
_chemical_formula_sum   'Li8 B16 O24'
_cell_volume   672.93201039
_cell_formula_units_Z   8
loop_
 _symmetry_equiv_pos_site_id
 _symmetry_equiv_pos_as_xyz
  1  'x, y, z'
loop_
 _atom_site_type_symbol
 _atom_site_label
 _atom_site_symmetry_multiplicity
 _atom_site_fract_x
 _atom_site_fract_y
 _atom_site_fract_z
 _atom_site_occupancy
  B  B0  1  0.94720547  1.21431756  1.06373007  1.0
  B  B1  1  0.65058749  0.71431756  1.26711209  1.0
  B  B2  1  1.63347540  1.19720547  1.23288791  1.0
  B  B3  1  1.13347540  0.90058749  1.43626993  1.0
  B  B4  1  0.15058749  0.88347540  0.93626993  1.0
  B  B5  1  1.44720547  1.38347540  1.73288791  1.0
  B  B6  1  0.96431756  0.40058749  0.76711209  1.0
  B  B7  1  1.46431756  1.69720547  1.56373007  1.0
  B  B8  1  0.99512737  1.02119853  1.89826468  1.0
  B  B9  1  0.62293385  0.52119853  1.02607116  1.0
  B  B10  1  0.84686269  1.24512737  1.47392884  1.0
  B  B11  1  0.34686269  0.87293385  0.60173532  1.0
  B  B12  1  0.12293385  0.09686269  0.10173532  1.0
  B  B13  1  1.49512737  0.59686269  0.97392884  1.0
  B  B14  1  1.77119853  1.37293385  1.52607116  1.0
  B  B15  1  1.27119853  0.74512737  1.39826468  1.0
  Li  Li16  1  1.26403590  0.67438656  1.02203631  1.0
  Li  Li17  1  1.15235025  1.17438656  1.41035066  1.0
  Li  Li18  1  0.99199959  0.51403590  1.08964934  1.0
  Li  Li19  1  1.49199959  1.40235025  1.47796369  1.0
  Li  Li20  1  1.65235025  1.24199959  0.97796369  1.0
  Li  Li21  1  1.76403590  1.74199959  1.58964934  1.0
  Li  Li22  1  1.42438656  0.90235025  0.91035066  1.0
  Li  Li23  1  0.92438656  1.01403590  1.52203631  1.0
  O  O24  1  0.88981975  1.32405580  1.09994692  1.0
  O  O25  1  1.72410888  1.82405580  1.43423605  1.0
  O  O26  1  0.53987283  1.13981975  1.06576395  1.0
  O  O27  1  1.03987283  0.97410888  1.40005308  1.0
  O  O28  1  1.22410888  1.78987283  0.90005308  1.0
  O  O29  1  1.38981975  1.28987283  1.56576395  1.0
  O  O30  1  1.07405580  0.47410888  0.93423605  1.0
  O  O31  1  0.57405580  0.63981975  0.59994692  1.0
  O  O32  1  0.88231086  0.08628290  0.88026484  1.0
  O  O33  1  0.70601806  0.58628290  1.20397204  1.0
  O  O34  1  0.75204602  1.13231086  1.29602796  1.0
  O  O35  1  1.25204602  0.95601806  1.61973516  1.0
  O  O36  1  0.20601806  1.00204602  1.11973516  1.0
  O  O37  1  1.38231086  1.50204602  1.79602796  1.0
  O  O38  1  0.83628290  1.45601806  0.70397204  1.0
  O  O39  1  0.33628290  0.63231086  0.38026484  1.0
  O  O40  1  1.08192383  1.20707578  1.20203749  1.0
  O  O41  1  0.50503829  0.70707578  1.12515195  1.0
  O  O42  1  1.62988634  1.33192383  1.37484805  1.0
  O  O43  1  1.12988634  0.75503829  1.29796251  1.0
  O  O44  1  1.00503829  0.87988634  1.79796251  1.0
  O  O45  1  0.58192383  0.37988634  0.87484805  1.0
  O  O46  1  0.95707578  1.25503829  1.62515195  1.0
  O  O47  1  1.45707578  0.83192383  0.70203749  1.0
