# generated using pymatgen
data_Ta3Al2C
_symmetry_space_group_name_H-M   'P 1'
_cell_length_a   7.08089990
_cell_length_b   7.08089990
_cell_length_c   7.08089990
_cell_angle_alpha   90.00000000
_cell_angle_beta   90.00000000
_cell_angle_gamma   90.00000000
_symmetry_Int_Tables_number   1
_chemical_formula_structural   Ta3Al2C
_chemical_formula_sum   'Ta12 Al8 C4'
_cell_volume   355.03025497
_cell_formula_units_Z   4
loop_
 _symmetry_equiv_pos_site_id
 _symmetry_equiv_pos_as_xyz
  1  'x, y, z'
loop_
 _atom_site_type_symbol
 _atom_site_label
 _atom_site_symmetry_multiplicity
 _atom_site_fract_x
 _atom_site_fract_y
 _atom_site_fract_z
 _atom_site_occupancy
  Ta  Ta0  1  0.37500000  0.79497629  0.95502371  1.0
  Ta  Ta1  1  0.12500000  0.20502371  0.45502371  1.0
  Ta  Ta2  1  0.62500000  0.29497629  0.54497629  1.0
  Ta  Ta3  1  0.87500000  0.70502371  0.04497629  1.0
  Ta  Ta4  1  0.29497629  0.54497629  0.62500000  1.0
  Ta  Ta5  1  0.04497629  0.87500000  0.70502371  1.0
  Ta  Ta6  1  0.54497629  0.62500000  0.29497629  1.0
  Ta  Ta7  1  0.79497629  0.95502371  0.37500000  1.0
  Ta  Ta8  1  0.70502371  0.04497629  0.87500000  1.0
  Ta  Ta9  1  0.45502371  0.12500000  0.20502371  1.0
  Ta  Ta10  1  0.95502371  0.37500000  0.79497629  1.0
  Ta  Ta11  1  0.20502371  0.45502371  0.12500000  1.0
  Al  Al12  1  0.43003217  0.93003217  0.56996783  1.0
  Al  Al13  1  0.18003217  0.81996783  0.31996783  1.0
  Al  Al14  1  0.68003217  0.68003217  0.68003217  1.0
  Al  Al15  1  0.93003217  0.56996783  0.43003217  1.0
  Al  Al16  1  0.56996783  0.43003217  0.93003217  1.0
  Al  Al17  1  0.31996783  0.18003217  0.81996783  1.0
  Al  Al18  1  0.81996783  0.31996783  0.18003217  1.0
  Al  Al19  1  0.06996783  0.06996783  0.06996783  1.0
  C  C20  1  0.12500000  0.62500000  0.87500000  1.0
  C  C21  1  0.87500000  0.12500000  0.62500000  1.0
  C  C22  1  0.37500000  0.37500000  0.37500000  1.0
  C  C23  1  0.62500000  0.87500000  0.12500000  1.0
