# generated using pymatgen
data_Li2GeF6
_symmetry_space_group_name_H-M   'P 1'
_cell_length_a   8.55293483
_cell_length_b   8.55293483
_cell_length_c   4.70365050
_cell_angle_alpha   90.00000000
_cell_angle_beta   90.00000000
_cell_angle_gamma   120.00000000
_symmetry_Int_Tables_number   1
_chemical_formula_structural   Li2GeF6
_chemical_formula_sum   'Li6 Ge3 F18'
_cell_volume   297.98609732
_cell_formula_units_Z   3
loop_
 _symmetry_equiv_pos_site_id
 _symmetry_equiv_pos_as_xyz
  1  'x, y, z'
loop_
 _atom_site_type_symbol
 _atom_site_label
 _atom_site_symmetry_multiplicity
 _atom_site_fract_x
 _atom_site_fract_y
 _atom_site_fract_z
 _atom_site_occupancy
  Li  Li0  1  0.70437435  0.70437435  0.50000000  1.0
  Li  Li1  1  -0.00000000  0.29562565  0.50000000  1.0
  Li  Li2  1  0.29562565  0.00000000  0.50000000  1.0
  Li  Li3  1  0.36893991  0.36893991  0.00000000  1.0
  Li  Li4  1  -0.00000000  0.63106009  0.00000000  1.0
  Li  Li5  1  0.63106009  0.00000000  0.00000000  1.0
  Ge  Ge6  1  0.00000000  0.00000000  0.00000000  1.0
  Ge  Ge7  1  0.33333333  0.66666667  0.48435072  1.0
  Ge  Ge8  1  0.66666667  0.33333333  0.51564928  1.0
  F  F9  1  0.09649745  0.89235450  0.21862957  1.0
  F  F10  1  0.89235450  0.09649745  0.78137043  1.0
  F  F11  1  0.79585705  0.90350255  0.21862957  1.0
  F  F12  1  0.10764550  0.20414295  0.21862957  1.0
  F  F13  1  0.90350255  0.79585705  0.78137043  1.0
  F  F14  1  0.20414295  0.10764550  0.78137043  1.0
  F  F15  1  0.42184047  0.87032776  0.26426328  1.0
  F  F16  1  0.87032776  0.42184047  0.73573672  1.0
  F  F17  1  0.44848729  0.57815953  0.26426328  1.0
  F  F18  1  0.12967224  0.55151271  0.26426328  1.0
  F  F19  1  0.57815953  0.44848729  0.73573672  1.0
  F  F20  1  0.55151271  0.12967224  0.73573672  1.0
  F  F21  1  0.77476506  0.53788648  0.29644966  1.0
  F  F22  1  0.53788648  0.77476506  0.70355034  1.0
  F  F23  1  0.76312142  0.22523494  0.29644966  1.0
  F  F24  1  0.46211352  0.23687858  0.29644966  1.0
  F  F25  1  0.22523494  0.76312142  0.70355034  1.0
  F  F26  1  0.23687858  0.46211352  0.70355034  1.0
