# generated using pymatgen
data_Na5AuSe12
_symmetry_space_group_name_H-M   'P 1'
_cell_length_a   7.17226472
_cell_length_b   17.50149356
_cell_length_c   8.44264301
_cell_angle_alpha   90.00000000
_cell_angle_beta   105.82102234
_cell_angle_gamma   90.00000000
_symmetry_Int_Tables_number   1
_chemical_formula_structural   Na5AuSe12
_chemical_formula_sum   'Na10 Au2 Se24'
_cell_volume   1019.61965962
_cell_formula_units_Z   2
loop_
 _symmetry_equiv_pos_site_id
 _symmetry_equiv_pos_as_xyz
  1  'x, y, z'
loop_
 _atom_site_type_symbol
 _atom_site_label
 _atom_site_symmetry_multiplicity
 _atom_site_fract_x
 _atom_site_fract_y
 _atom_site_fract_z
 _atom_site_occupancy
  Na  Na0  1  0.87619409  0.00882224  0.40575028  1.0
  Na  Na1  1  0.12380591  0.50882224  0.59424972  1.0
  Na  Na2  1  0.76925212  0.21210501  0.16941117  1.0
  Na  Na3  1  0.23074788  0.71210501  0.83058883  1.0
  Na  Na4  1  0.70071289  0.42761833  0.96621965  1.0
  Na  Na5  1  0.29928711  0.92761833  0.03378035  1.0
  Na  Na6  1  0.33390813  0.12639047  0.80020609  1.0
  Na  Na7  1  0.66609187  0.62639047  0.19979391  1.0
  Na  Na8  1  0.21846127  0.30251901  0.53748992  1.0
  Na  Na9  1  0.78153873  0.80251901  0.46251008  1.0
  Au  Au10  1  0.78323203  0.21702768  0.67572718  1.0
  Au  Au11  1  0.21676797  0.71702768  0.32427282  1.0
  Se  Se12  1  0.98606946  0.15405983  0.93765904  1.0
  Se  Se13  1  0.01393054  0.65405983  0.06234096  1.0
  Se  Se14  1  0.94943569  0.34510355  0.76357948  1.0
  Se  Se15  1  0.05056431  0.84510355  0.23642052  1.0
  Se  Se16  1  0.95776018  0.40890708  0.30295337  1.0
  Se  Se17  1  0.04223982  0.90890708  0.69704663  1.0
  Se  Se18  1  0.90389593  0.64783709  0.55009922  1.0
  Se  Se19  1  0.09610407  0.14783709  0.44990078  1.0
  Se  Se20  1  0.84237616  0.02897308  0.93981933  1.0
  Se  Se21  1  0.15762384  0.52897308  0.06018067  1.0
  Se  Se22  1  0.69316254  0.40773208  0.42304812  1.0
  Se  Se23  1  0.30683746  0.90773208  0.57695188  1.0
  Se  Se24  1  0.63204392  0.62186869  0.65505434  1.0
  Se  Se25  1  0.36795608  0.12186869  0.34494566  1.0
  Se  Se26  1  0.61277593  0.09020989  0.59340899  1.0
  Se  Se27  1  0.38722407  0.59020989  0.40659101  1.0
  Se  Se28  1  0.57800731  0.27793935  0.41301178  1.0
  Se  Se29  1  0.42199269  0.77793935  0.58698822  1.0
  Se  Se30  1  0.46950048  0.28835237  0.88528690  1.0
  Se  Se31  1  0.53049952  0.78835237  0.11471310  1.0
  Se  Se32  1  0.39857257  0.54923900  0.91376920  1.0
  Se  Se33  1  0.60142743  0.04923900  0.08623080  1.0
  Se  Se34  1  0.20746849  0.31179526  1.00202465  1.0
  Se  Se35  1  0.79253151  0.81179526  -0.00202465  1.0
