# generated using pymatgen
data_Rb2Hg(BSe)9
_symmetry_space_group_name_H-M   'P 1'
_cell_length_a   10.09384647
_cell_length_b   11.41514700
_cell_length_c   10.99837275
_cell_angle_alpha   103.07583211
_cell_angle_beta   117.11177563
_cell_angle_gamma   90.36753885
_symmetry_Int_Tables_number   1
_chemical_formula_structural   Rb2Hg(BSe)9
_chemical_formula_sum   'Rb4 Hg2 B18 Se18'
_cell_volume   1089.96631334
_cell_formula_units_Z   2
loop_
 _symmetry_equiv_pos_site_id
 _symmetry_equiv_pos_as_xyz
  1  'x, y, z'
loop_
 _atom_site_type_symbol
 _atom_site_label
 _atom_site_symmetry_multiplicity
 _atom_site_fract_x
 _atom_site_fract_y
 _atom_site_fract_z
 _atom_site_occupancy
  Rb  Rb0  1  -0.81230526  -0.98562350  -0.65164253  1.0
  Rb  Rb1  1  -0.18769474  -0.01437650  -0.34835747  1.0
  Rb  Rb2  1  -0.21570537  -0.48899871  -0.83672452  1.0
  Rb  Rb3  1  -0.78429463  -0.51100129  -0.16327548  1.0
  Hg  Hg4  1  -0.68587145  -0.41246467  -0.69948675  1.0
  Hg  Hg5  1  -0.31412855  -0.58753533  -0.30051325  1.0
  B  B6  1  -0.74734796  -0.72070268  -0.91472583  1.0
  B  B7  1  -0.25265204  -0.27929732  -0.08527417  1.0
  B  B8  1  -0.66052686  -0.96240512  -0.99460294  1.0
  B  B9  1  -0.33947314  -0.03759488  -0.00539706  1.0
  B  B10  1  -0.61734708  -0.93666611  -0.12710412  1.0
  B  B11  1  -0.38265292  -0.06333389  -0.87289588  1.0
  B  B12  1  -0.58034186  -0.09469577  -0.94691600  1.0
  B  B13  1  -0.41965814  -0.90530423  -0.05308400  1.0
  B  B14  1  -0.56008736  -0.76613847  -0.26772386  1.0
  B  B15  1  -0.43991264  -0.23386153  -0.73227614  1.0
  B  B16  1  -0.51085298  -0.85148821  -0.94972846  1.0
  B  B17  1  -0.48914702  -0.14851179  -0.05027154  1.0
  B  B18  1  -0.48620432  -0.94824532  -0.83835375  1.0
  B  B19  1  -0.51379568  -0.05175468  -0.16164625  1.0
  B  B20  1  -0.33745497  -0.91212111  -0.87274321  1.0
  B  B21  1  -0.66254503  -0.08787889  -0.12725679  1.0
  B  B22  1  -0.24679876  -0.79194796  -0.57324448  1.0
  B  B23  1  -0.75320124  -0.20805204  -0.42675552  1.0
  Se  Se24  1  -0.87371605  -0.59975545  -0.89107605  1.0
  Se  Se25  1  -0.12628395  -0.40024455  -0.10892395  1.0
  Se  Se26  1  -0.87576343  -0.29605748  -0.62322539  1.0
  Se  Se27  1  -0.12423657  -0.70394252  -0.37677461  1.0
  Se  Se28  1  -0.83559966  -0.89216797  -0.97669799  1.0
  Se  Se29  1  -0.16440034  -0.10783203  -0.02330201  1.0
  Se  Se30  1  -0.73622518  -0.85030634  -0.27671229  1.0
  Se  Se31  1  -0.26377482  -0.14969366  -0.72328771  1.0
  Se  Se32  1  -0.64485431  -0.21007158  -0.86391257  1.0
  Se  Se33  1  -0.35514569  -0.78992842  -0.13608743  1.0
  Se  Se34  1  -0.59536792  -0.65869280  -0.39049170  1.0
  Se  Se35  1  -0.40463208  -0.34130720  -0.60950830  1.0
  Se  Se36  1  -0.54594741  -0.67960925  -0.88927553  1.0
  Se  Se37  1  -0.45405259  -0.32039075  -0.11072447  1.0
  Se  Se38  1  -0.44706302  -0.87503056  -0.63901330  1.0
  Se  Se39  1  -0.55293698  -0.12496944  -0.36098670  1.0
  Se  Se40  1  -0.16025091  -0.80380045  -0.70419158  1.0
  Se  Se41  1  -0.83974909  -0.19619955  -0.29580842  1.0
