# generated using pymatgen
data_BaSe3
_symmetry_space_group_name_H-M   'P 1'
_cell_length_a   7.40496977
_cell_length_b   7.40496977
_cell_length_c   4.27551840
_cell_angle_alpha   90.00000000
_cell_angle_beta   90.00000000
_cell_angle_gamma   90.00000000
_symmetry_Int_Tables_number   1
_chemical_formula_structural   BaSe3
_chemical_formula_sum   'Ba2 Se6'
_cell_volume   234.44196869
_cell_formula_units_Z   2
loop_
 _symmetry_equiv_pos_site_id
 _symmetry_equiv_pos_as_xyz
  1  'x, y, z'
loop_
 _atom_site_type_symbol
 _atom_site_label
 _atom_site_symmetry_multiplicity
 _atom_site_fract_x
 _atom_site_fract_y
 _atom_site_fract_z
 _atom_site_occupancy
  Ba  Ba0  1  0.50000000  0.50000000  0.00000000  1.0
  Ba  Ba1  1  0.00000000  0.00000000  0.00000000  1.0
  Se  Se2  1  0.80835285  0.30835285  0.51352750  1.0
  Se  Se3  1  0.69164715  0.80835285  0.48647250  1.0
  Se  Se4  1  0.19164715  0.69164715  0.51352750  1.0
  Se  Se5  1  0.30835285  0.19164715  0.48647250  1.0
  Se  Se6  1  0.00000000  0.50000000  0.82523318  1.0
  Se  Se7  1  0.50000000  0.00000000  0.17476682  1.0
