# generated using pymatgen
data_CuPt(NCl)4
_symmetry_space_group_name_H-M   'P 1'
_cell_length_a   7.24775984
_cell_length_b   7.24775984
_cell_length_c   7.25223526
_cell_angle_alpha   90.00000000
_cell_angle_beta   90.00000000
_cell_angle_gamma   90.00000000
_symmetry_Int_Tables_number   1
_chemical_formula_structural   CuPt(NCl)4
_chemical_formula_sum   'Cu2 Pt2 N8 Cl8'
_cell_volume   380.96008328
_cell_formula_units_Z   2
loop_
 _symmetry_equiv_pos_site_id
 _symmetry_equiv_pos_as_xyz
  1  'x, y, z'
loop_
 _atom_site_type_symbol
 _atom_site_label
 _atom_site_symmetry_multiplicity
 _atom_site_fract_x
 _atom_site_fract_y
 _atom_site_fract_z
 _atom_site_occupancy
  Cu  Cu0  1  0.50000000  0.50000000  0.50000000  1.0
  Cu  Cu1  1  0.00000000  0.00000000  0.00000000  1.0
  Pt  Pt2  1  0.50000000  0.50000000  0.00000000  1.0
  Pt  Pt3  1  0.00000000  0.00000000  0.50000000  1.0
  N  N4  1  0.35693095  0.72070321  0.50000000  1.0
  N  N5  1  0.85693095  0.77929679  0.00000000  1.0
  N  N6  1  0.27929679  0.35693095  0.50000000  1.0
  N  N7  1  0.77929679  0.14306905  0.00000000  1.0
  N  N8  1  0.64306905  0.27929679  0.50000000  1.0
  N  N9  1  0.14306905  0.22070321  0.00000000  1.0
  N  N10  1  0.72070321  0.64306905  0.50000000  1.0
  N  N11  1  0.22070321  0.85693095  0.00000000  1.0
  Cl  Cl12  1  0.29723032  1.12830275  0.50000000  1.0
  Cl  Cl13  1  0.79723032  0.37169725  0.00000000  1.0
  Cl  Cl14  1  -0.12830275  0.29723032  0.50000000  1.0
  Cl  Cl15  1  0.37169725  0.20276968  0.00000000  1.0
  Cl  Cl16  1  0.70276968  -0.12830275  0.50000000  1.0
  Cl  Cl17  1  0.20276968  0.62830275  0.00000000  1.0
  Cl  Cl18  1  1.12830275  0.70276968  0.50000000  1.0
  Cl  Cl19  1  0.62830275  0.79723032  0.00000000  1.0
