# generated using pymatgen
data_Ta11(SiSe4)2
_symmetry_space_group_name_H-M   'P 1'
_cell_length_a   11.95077151
_cell_length_b   19.58910223
_cell_length_c   3.48327990
_cell_angle_alpha   90.00000000
_cell_angle_beta   90.00000000
_cell_angle_gamma   90.00000000
_symmetry_Int_Tables_number   1
_chemical_formula_structural   Ta11(SiSe4)2
_chemical_formula_sum   'Ta22 Si4 Se16'
_cell_volume   815.45283918
_cell_formula_units_Z   2
loop_
 _symmetry_equiv_pos_site_id
 _symmetry_equiv_pos_as_xyz
  1  'x, y, z'
loop_
 _atom_site_type_symbol
 _atom_site_label
 _atom_site_symmetry_multiplicity
 _atom_site_fract_x
 _atom_site_fract_y
 _atom_site_fract_z
 _atom_site_occupancy
  Ta  Ta0  1  0.44699510  0.75947165  0.50000000  1.0
  Ta  Ta1  1  0.94699510  0.74052835  0.00000000  1.0
  Ta  Ta2  1  0.55300490  0.24052835  0.50000000  1.0
  Ta  Ta3  1  0.05300490  0.25947165  0.00000000  1.0
  Ta  Ta4  1  0.17736479  0.54782333  0.50000000  1.0
  Ta  Ta5  1  0.67736479  0.95217667  0.00000000  1.0
  Ta  Ta6  1  0.82263521  0.45217667  0.50000000  1.0
  Ta  Ta7  1  0.32263521  0.04782333  0.00000000  1.0
  Ta  Ta8  1  0.18156888  0.14535683  0.50000000  1.0
  Ta  Ta9  1  0.68156888  0.35464317  0.00000000  1.0
  Ta  Ta10  1  0.81843112  0.85464317  0.50000000  1.0
  Ta  Ta11  1  0.31843112  0.64535683  0.00000000  1.0
  Ta  Ta12  1  0.15768198  0.71327327  0.50000000  1.0
  Ta  Ta13  1  0.65768198  0.78672673  0.00000000  1.0
  Ta  Ta14  1  0.84231802  0.28672673  0.50000000  1.0
  Ta  Ta15  1  0.34231802  0.21327327  0.00000000  1.0
  Ta  Ta16  1  0.93341127  0.61289082  0.50000000  1.0
  Ta  Ta17  1  0.43341127  0.88710918  0.00000000  1.0
  Ta  Ta18  1  0.06658873  0.38710918  0.50000000  1.0
  Ta  Ta19  1  0.56658873  0.11289082  0.00000000  1.0
  Ta  Ta20  1  0.50000000  0.00000000  0.50000000  1.0
  Ta  Ta21  1  0.00000000  0.50000000  0.00000000  1.0
  Si  Si22  1  0.41040540  0.12798941  0.50000000  1.0
  Si  Si23  1  0.91040540  0.37201059  0.00000000  1.0
  Si  Si24  1  0.58959460  0.87201059  0.50000000  1.0
  Si  Si25  1  0.08959460  0.62798941  0.00000000  1.0
  Se  Se26  1  0.78016322  0.71213314  0.50000000  1.0
  Se  Se27  1  0.28016322  0.78786686  0.00000000  1.0
  Se  Se28  1  0.21983678  0.28786686  0.50000000  1.0
  Se  Se29  1  0.71983678  0.21213314  0.00000000  1.0
  Se  Se30  1  0.39063487  0.55542881  0.50000000  1.0
  Se  Se31  1  0.89063487  0.94457119  0.00000000  1.0
  Se  Se32  1  0.60936513  0.44457119  0.50000000  1.0
  Se  Se33  1  0.10936513  0.05542881  0.00000000  1.0
  Se  Se34  1  0.28585676  0.94387920  0.50000000  1.0
  Se  Se35  1  0.78585676  0.55612080  0.00000000  1.0
  Se  Se36  1  0.71414324  0.05612080  0.50000000  1.0
  Se  Se37  1  0.21414324  0.44387920  0.00000000  1.0
  Se  Se38  1  0.03579621  0.82561829  0.50000000  1.0
  Se  Se39  1  0.53579621  0.67438171  0.00000000  1.0
  Se  Se40  1  0.96420379  0.17438171  0.50000000  1.0
  Se  Se41  1  0.46420379  0.32561829  0.00000000  1.0
