# generated using pymatgen
data_Al19Co6
_symmetry_space_group_name_H-M   'P 1'
_cell_length_a   8.59156386
_cell_length_b   8.59156386
_cell_length_c   12.42962283
_cell_angle_alpha   73.85200587
_cell_angle_beta   106.14799413
_cell_angle_gamma   123.53151036
_symmetry_Int_Tables_number   1
_chemical_formula_structural   Al19Co6
_chemical_formula_sum   'Al38 Co12'
_cell_volume   725.69775861
_cell_formula_units_Z   2
loop_
 _symmetry_equiv_pos_site_id
 _symmetry_equiv_pos_as_xyz
  1  'x, y, z'
loop_
 _atom_site_type_symbol
 _atom_site_label
 _atom_site_symmetry_multiplicity
 _atom_site_fract_x
 _atom_site_fract_y
 _atom_site_fract_z
 _atom_site_occupancy
  Al  Al0  1  0.67848514  -0.06660953  0.47634759  1.0
  Al  Al1  1  1.06660953  0.32151486  0.47634759  1.0
  Al  Al2  1  0.93339047  0.67848514  0.52365241  1.0
  Al  Al3  1  0.32151486  0.06660953  0.52365241  1.0
  Al  Al4  1  0.53773334  -0.09210354  0.88600791  1.0
  Al  Al5  1  1.09210354  0.46226666  0.88600791  1.0
  Al  Al6  1  0.90789646  0.53773334  0.11399209  1.0
  Al  Al7  1  0.46226666  0.09210354  0.11399209  1.0
  Al  Al8  1  0.54522410  -0.09833143  0.66404835  1.0
  Al  Al9  1  1.09833143  0.45477590  0.66404835  1.0
  Al  Al10  1  0.90166857  0.54522410  0.33595165  1.0
  Al  Al11  1  0.45477590  0.09833143  0.33595165  1.0
  Al  Al12  1  0.34404489  0.08615695  0.89003627  1.0
  Al  Al13  1  0.91384305  0.65595511  0.89003627  1.0
  Al  Al14  1  1.08615695  0.34404489  0.10996373  1.0
  Al  Al15  1  0.65595511  -0.08615695  0.10996373  1.0
  Al  Al16  1  0.22786143  0.21307560  0.66918100  1.0
  Al  Al17  1  0.78692440  0.77213857  0.66918100  1.0
  Al  Al18  1  1.21307560  0.22786143  0.33081900  1.0
  Al  Al19  1  0.77213857  -0.21307560  0.33081900  1.0
  Al  Al20  1  0.97322864  0.02677136  0.83131276  1.0
  Al  Al21  1  0.02677136  -0.02677136  0.16868724  1.0
  Al  Al22  1  0.82047341  0.17952659  0.27206595  1.0
  Al  Al23  1  0.17952659  -0.17952659  0.72793405  1.0
  Al  Al24  1  0.78833708  0.21166292  0.76265663  1.0
  Al  Al25  1  0.21166292  -0.21166292  0.23734337  1.0
  Al  Al26  1  0.74359562  0.25640438  0.97649885  1.0
  Al  Al27  1  0.25640438  -0.25640438  0.02350115  1.0
  Al  Al28  1  0.73366783  0.26633217  0.51817005  1.0
  Al  Al29  1  0.26633217  -0.26633217  0.48182995  1.0
  Al  Al30  1  0.58977160  0.41022840  0.78487548  1.0
  Al  Al31  1  0.41022840  -0.41022840  0.21512452  1.0
  Al  Al32  1  0.57822536  0.42177464  0.57940503  1.0
  Al  Al33  1  0.42177464  -0.42177464  0.42059497  1.0
  Al  Al34  1  0.43319220  -0.43319220  0.82651752  1.0
  Al  Al35  1  0.56680780  0.43319220  0.17348248  1.0
  Al  Al36  1  0.74957915  0.74957915  -0.00000000  1.0
  Al  Al37  1  0.25042085  0.25042085  0.00000000  1.0
  Co  Co38  1  0.45082769  0.10150897  0.71976134  1.0
  Co  Co39  1  0.89849103  0.54917231  0.71976134  1.0
  Co  Co40  1  1.10150897  0.45082769  0.28023866  1.0
  Co  Co41  1  0.54917231  -0.10150897  0.28023866  1.0
  Co  Co42  1  0.89980117  0.10019883  -0.01665089  1.0
  Co  Co43  1  0.10019883  -0.10019883  0.01665089  1.0
  Co  Co44  1  0.89105365  0.10894635  0.63132590  1.0
  Co  Co45  1  0.10894635  -0.10894635  0.36867410  1.0
  Co  Co46  1  0.59104575  0.40895425  -0.01557614  1.0
  Co  Co47  1  0.40895425  -0.40895425  0.01557614  1.0
  Co  Co48  1  0.41938247  -0.41938247  0.62041679  1.0
  Co  Co49  1  0.58061753  0.41938247  0.37958321  1.0
