# generated using pymatgen
data_Cs3In2Cl9
_symmetry_space_group_name_H-M   'P 1'
_cell_length_a   9.87727448
_cell_length_b   9.87727448
_cell_length_c   9.87727448
_cell_angle_alpha   82.27848059
_cell_angle_beta   82.27848059
_cell_angle_gamma   82.27848059
_symmetry_Int_Tables_number   1
_chemical_formula_structural   Cs3In2Cl9
_chemical_formula_sum   'Cs6 In4 Cl18'
_cell_volume   939.57583035
_cell_formula_units_Z   2
loop_
 _symmetry_equiv_pos_site_id
 _symmetry_equiv_pos_as_xyz
  1  'x, y, z'
loop_
 _atom_site_type_symbol
 _atom_site_label
 _atom_site_symmetry_multiplicity
 _atom_site_fract_x
 _atom_site_fract_y
 _atom_site_fract_z
 _atom_site_occupancy
  Cs  Cs0  1  0.59121445  0.25000000  -0.09121445  1.0
  Cs  Cs1  1  0.09121445  0.40878555  -0.25000000  1.0
  Cs  Cs2  1  0.75000000  0.09121445  -0.59121445  1.0
  Cs  Cs3  1  0.25000000  0.90878555  -0.40878555  1.0
  Cs  Cs4  1  0.40878555  0.75000000  -0.90878555  1.0
  Cs  Cs5  1  0.90878555  -0.40878555  0.25000000  1.0
  In  In6  1  0.34512724  0.34512724  -0.65487276  1.0
  In  In7  1  0.84512724  0.84512724  -0.15487276  1.0
  In  In8  1  1.15487276  1.15487276  0.15487276  1.0
  In  In9  1  0.65487276  0.65487276  -0.34512724  1.0
  Cl  Cl10  1  0.23348075  0.57046668  -0.59176057  1.0
  Cl  Cl11  1  0.73348075  -0.09176057  0.07046668  1.0
  Cl  Cl12  1  1.09176057  -0.07046668  -0.73348075  1.0
  Cl  Cl13  1  0.59176057  0.76651925  -0.57046668  1.0
  Cl  Cl14  1  0.42953332  0.59176057  -0.23348075  1.0
  Cl  Cl15  1  0.92953332  -0.73348075  0.09176057  1.0
  Cl  Cl16  1  0.76651925  0.42953332  -0.40823943  1.0
  Cl  Cl17  1  0.26651925  0.09176057  -0.07046668  1.0
  Cl  Cl18  1  0.40823943  0.23348075  -0.42953332  1.0
  Cl  Cl19  1  0.90823943  0.07046668  -0.26651925  1.0
  Cl  Cl20  1  1.07046668  -0.26651925  -0.09176057  1.0
  Cl  Cl21  1  0.57046668  0.40823943  -0.76651925  1.0
  Cl  Cl22  1  1.09892220  1.25000000  0.40107780  1.0
  Cl  Cl23  1  0.59892220  0.90107780  -0.25000000  1.0
  Cl  Cl24  1  0.75000000  0.59892220  -0.09892220  1.0
  Cl  Cl25  1  1.25000000  1.40107780  0.09892220  1.0
  Cl  Cl26  1  0.90107780  0.75000000  -0.40107780  1.0
  Cl  Cl27  1  1.40107780  1.09892220  0.25000000  1.0
