# generated using pymatgen
data_Na4AsHO5
_symmetry_space_group_name_H-M   'P 1'
_cell_length_a   9.10810988
_cell_length_b   7.53631559
_cell_length_c   8.41748467
_cell_angle_alpha   90.00000000
_cell_angle_beta   90.00000000
_cell_angle_gamma   90.00000000
_symmetry_Int_Tables_number   1
_chemical_formula_structural   Na4AsHO5
_chemical_formula_sum   'Na16 As4 H4 O20'
_cell_volume   577.78953527
_cell_formula_units_Z   4
loop_
 _symmetry_equiv_pos_site_id
 _symmetry_equiv_pos_as_xyz
  1  'x, y, z'
loop_
 _atom_site_type_symbol
 _atom_site_label
 _atom_site_symmetry_multiplicity
 _atom_site_fract_x
 _atom_site_fract_y
 _atom_site_fract_z
 _atom_site_occupancy
  Na  Na0  1  0.37146195  0.48638961  0.84780299  1.0
  Na  Na1  1  0.37146195  0.01361039  0.84780299  1.0
  Na  Na2  1  0.87146195  0.48638961  0.65219701  1.0
  Na  Na3  1  0.87146195  0.01361039  0.65219701  1.0
  Na  Na4  1  0.62853805  0.98638961  0.15219701  1.0
  Na  Na5  1  0.62853805  0.51361039  0.15219701  1.0
  Na  Na6  1  0.12853805  0.98638961  0.34780299  1.0
  Na  Na7  1  0.12853805  0.51361039  0.34780299  1.0
  Na  Na8  1  0.37084898  0.75000000  0.23664904  1.0
  Na  Na9  1  0.87084898  0.75000000  0.26335096  1.0
  Na  Na10  1  0.62915102  0.25000000  0.76335096  1.0
  Na  Na11  1  0.12915102  0.25000000  0.73664904  1.0
  Na  Na12  1  0.50000000  0.00000000  0.50000000  1.0
  Na  Na13  1  0.50000000  0.50000000  0.50000000  1.0
  Na  Na14  1  -0.00000000  -0.00000000  0.00000000  1.0
  Na  Na15  1  -0.00000000  0.50000000  0.00000000  1.0
  As  As16  1  0.13795434  0.75000000  0.64837300  1.0
  As  As17  1  0.63795434  0.75000000  0.85162700  1.0
  As  As18  1  0.86204566  0.25000000  0.35162700  1.0
  As  As19  1  0.36204566  0.25000000  0.14837300  1.0
  H  H20  1  0.16126967  0.75000000  0.05012191  1.0
  H  H21  1  0.66126967  0.75000000  0.44987809  1.0
  H  H22  1  0.83873033  0.25000000  0.94987809  1.0
  H  H23  1  0.33873033  0.25000000  0.55012191  1.0
  O  O24  1  0.13072429  0.93883914  0.76662781  1.0
  O  O25  1  0.13072429  0.56116086  0.76662781  1.0
  O  O26  1  0.63072429  0.93883914  0.73337219  1.0
  O  O27  1  0.63072429  0.56116086  0.73337219  1.0
  O  O28  1  0.86927571  0.43883914  0.23337219  1.0
  O  O29  1  0.86927571  0.06116086  0.23337219  1.0
  O  O30  1  0.36927571  0.43883914  0.26662781  1.0
  O  O31  1  0.36927571  0.06116086  0.26662781  1.0
  O  O32  1  0.48213857  0.75000000  0.97473355  1.0
  O  O33  1  0.98213857  0.75000000  0.52526645  1.0
  O  O34  1  0.51786143  0.25000000  0.02526645  1.0
  O  O35  1  0.01786143  0.25000000  0.47473355  1.0
  O  O36  1  0.29148575  0.75000000  0.52587918  1.0
  O  O37  1  0.79148575  0.75000000  0.97412082  1.0
  O  O38  1  0.70851425  0.25000000  0.47412082  1.0
  O  O39  1  0.20851425  0.25000000  0.02587918  1.0
  O  O40  1  0.11525381  0.75000000  0.15440651  1.0
  O  O41  1  0.61525381  0.75000000  0.34559349  1.0
  O  O42  1  0.88474619  0.25000000  0.84559349  1.0
  O  O43  1  0.38474619  0.25000000  0.65440651  1.0
