# generated using pymatgen
data_CaRhF6
_symmetry_space_group_name_H-M   'P 1'
_cell_length_a   5.83761177
_cell_length_b   5.83761177
_cell_length_c   5.83761177
_cell_angle_alpha   57.40857892
_cell_angle_beta   57.40857892
_cell_angle_gamma   57.40857892
_symmetry_Int_Tables_number   1
_chemical_formula_structural   CaRhF6
_chemical_formula_sum   'Ca1 Rh1 F6'
_cell_volume   132.27862975
_cell_formula_units_Z   1
loop_
 _symmetry_equiv_pos_site_id
 _symmetry_equiv_pos_as_xyz
  1  'x, y, z'
loop_
 _atom_site_type_symbol
 _atom_site_label
 _atom_site_symmetry_multiplicity
 _atom_site_fract_x
 _atom_site_fract_y
 _atom_site_fract_z
 _atom_site_occupancy
  Ca  Ca0  1  0.50000000  0.50000000  -0.50000000  1.0
  Rh  Rh1  1  0.00000000  0.00000000  0.00000000  1.0
  F  F2  1  0.12494849  0.77472732  -0.66888297  1.0
  F  F3  1  0.66888297  -0.12494849  0.22527268  1.0
  F  F4  1  1.22527268  -0.33111703  -0.12494849  1.0
  F  F5  1  0.87505151  0.22527268  -0.33111703  1.0
  F  F6  1  0.33111703  0.12494849  -0.22527268  1.0
  F  F7  1  0.77472732  0.33111703  -0.87505151  1.0
