# generated using pymatgen
data_Hg3HN2O7
_symmetry_space_group_name_H-M   'P 1'
_cell_length_a   8.86925830
_cell_length_b   10.15462290
_cell_length_c   10.74500132
_cell_angle_alpha   90.00000000
_cell_angle_beta   113.83491898
_cell_angle_gamma   90.00000000
_symmetry_Int_Tables_number   1
_chemical_formula_structural   Hg3HN2O7
_chemical_formula_sum   'Hg12 H4 N8 O28'
_cell_volume   885.20262260
_cell_formula_units_Z   4
loop_
 _symmetry_equiv_pos_site_id
 _symmetry_equiv_pos_as_xyz
  1  'x, y, z'
loop_
 _atom_site_type_symbol
 _atom_site_label
 _atom_site_symmetry_multiplicity
 _atom_site_fract_x
 _atom_site_fract_y
 _atom_site_fract_z
 _atom_site_occupancy
  Hg  Hg0  1  0.63580940  0.54136433  0.59072012  1.0
  Hg  Hg1  1  0.63580940  0.95863567  0.09072012  1.0
  Hg  Hg2  1  0.36419060  0.45863567  0.40927988  1.0
  Hg  Hg3  1  0.36419060  0.04136433  0.90927988  1.0
  Hg  Hg4  1  0.79442185  0.07544623  0.74552531  1.0
  Hg  Hg5  1  0.79442185  0.42455377  0.24552531  1.0
  Hg  Hg6  1  0.20557815  0.92455377  0.25447469  1.0
  Hg  Hg7  1  0.20557815  0.57544623  0.75447469  1.0
  Hg  Hg8  1  0.82926527  0.82447777  0.75437209  1.0
  Hg  Hg9  1  0.82926527  0.67552223  0.25437209  1.0
  Hg  Hg10  1  0.17073473  0.17552223  0.24562791  1.0
  Hg  Hg11  1  0.17073473  0.32447777  0.74562791  1.0
  H  H12  1  0.87358757  0.56902287  0.82437898  1.0
  H  H13  1  0.87358757  0.93097713  0.32437898  1.0
  H  H14  1  0.12641243  0.43097713  0.17562102  1.0
  H  H15  1  0.12641243  0.06902287  0.67562102  1.0
  N  N16  1  0.83879353  0.31830357  0.90724030  1.0
  N  N17  1  0.83879353  0.18169643  0.40724030  1.0
  N  N18  1  0.16120647  0.68169643  0.09275970  1.0
  N  N19  1  0.16120647  0.81830357  0.59275970  1.0
  N  N20  1  0.43260220  0.18836360  0.60473055  1.0
  N  N21  1  0.43260220  0.31163640  0.10473055  1.0
  N  N22  1  0.56739780  0.81163640  0.39526945  1.0
  N  N23  1  0.56739780  0.68836360  0.89526945  1.0
  O  O24  1  0.81715823  0.29591416  0.78067874  1.0
  O  O25  1  0.81715823  0.20408584  0.28067874  1.0
  O  O26  1  0.18284177  0.70408584  0.21932126  1.0
  O  O27  1  0.18284177  0.79591416  0.71932126  1.0
  O  O28  1  0.85795026  0.22309768  0.98540466  1.0
  O  O29  1  0.85795026  0.27690232  0.48540466  1.0
  O  O30  1  0.14204974  0.77690232  0.01459534  1.0
  O  O31  1  0.14204974  0.72309768  0.51459534  1.0
  O  O32  1  0.83953430  0.43489868  0.94283593  1.0
  O  O33  1  0.83953430  0.06510132  0.44283593  1.0
  O  O34  1  0.16046570  0.56510132  0.05716407  1.0
  O  O35  1  0.16046570  0.93489868  0.55716407  1.0
  O  O36  1  0.86537439  0.61407153  0.74032375  1.0
  O  O37  1  0.86537439  0.88592847  0.24032375  1.0
  O  O38  1  0.13462561  0.38592847  0.25967625  1.0
  O  O39  1  0.13462561  0.11407153  0.75967625  1.0
  O  O40  1  0.48797509  0.15414374  0.72850667  1.0
  O  O41  1  0.48797509  0.34585626  0.22850667  1.0
  O  O42  1  0.51202491  0.84585626  0.27149333  1.0
  O  O43  1  0.51202491  0.65414374  0.77149333  1.0
  O  O44  1  0.29108621  0.24204420  0.54935054  1.0
  O  O45  1  0.29108621  0.25795580  0.04935054  1.0
  O  O46  1  0.70891379  0.75795580  0.45064946  1.0
  O  O47  1  0.70891379  0.74204420  0.95064946  1.0
  O  O48  1  0.51802383  0.17183993  0.53669899  1.0
  O  O49  1  0.51802383  0.32816007  0.03669899  1.0
  O  O50  1  0.48197617  0.82816007  0.46330101  1.0
  O  O51  1  0.48197617  0.67183993  0.96330101  1.0
