# generated using pymatgen
data_Na4Ti5O12
_symmetry_space_group_name_H-M   'P 1'
_cell_length_a   5.36911772
_cell_length_b   5.36911772
_cell_length_c   9.63572152
_cell_angle_alpha   90.00000000
_cell_angle_beta   90.00000000
_cell_angle_gamma   120.00000000
_symmetry_Int_Tables_number   1
_chemical_formula_structural   Na4Ti5O12
_chemical_formula_sum   'Na4 Ti5 O12'
_cell_volume   240.55850947
_cell_formula_units_Z   1
loop_
 _symmetry_equiv_pos_site_id
 _symmetry_equiv_pos_as_xyz
  1  'x, y, z'
loop_
 _atom_site_type_symbol
 _atom_site_label
 _atom_site_symmetry_multiplicity
 _atom_site_fract_x
 _atom_site_fract_y
 _atom_site_fract_z
 _atom_site_occupancy
  Na  Na0  1  0.00000000  0.00000000  0.78486576  1.0
  Na  Na1  1  0.66666667  0.33333333  0.20311800  1.0
  Na  Na2  1  0.66666667  0.33333333  0.57702639  1.0
  Na  Na3  1  0.33333333  0.66666667  -0.00460328  1.0
  Ti  Ti4  1  0.00000000  0.00000000  0.10634272  1.0
  Ti  Ti5  1  0.00000000  0.00000000  0.41827986  1.0
  Ti  Ti6  1  0.66666667  0.33333333  0.89007852  1.0
  Ti  Ti7  1  0.33333333  0.66666667  0.36192436  1.0
  Ti  Ti8  1  0.33333333  0.66666667  0.67384654  1.0
  O  O9  1  0.76952210  0.66574393  0.01114430  1.0
  O  O10  1  0.89622182  0.23047790  0.01114430  1.0
  O  O11  1  0.33425607  0.10377818  0.01114430  1.0
  O  O12  1  0.43712287  0.43621563  0.76904173  1.0
  O  O13  1  -0.00090723  0.56287713  0.76904173  1.0
  O  O14  1  0.56378437  1.00090723  0.76904173  1.0
  O  O15  1  0.09953146  0.34818689  0.51251726  1.0
  O  O16  1  0.24865543  0.90046854  0.51251726  1.0
  O  O17  1  0.65181311  0.75134457  0.51251726  1.0
  O  O18  1  0.23379373  0.31848617  0.26767042  1.0
  O  O19  1  0.08469244  0.76620627  0.26767042  1.0
  O  O20  1  0.68151383  0.91530756  0.26767042  1.0
