# generated using pymatgen
data_Sc2Fe3Si5
_symmetry_space_group_name_H-M   'P 1'
_cell_length_a   10.16082497
_cell_length_b   10.16082497
_cell_length_c   5.27430748
_cell_angle_alpha   90.00000000
_cell_angle_beta   90.00000000
_cell_angle_gamma   90.00000000
_symmetry_Int_Tables_number   1
_chemical_formula_structural   Sc2Fe3Si5
_chemical_formula_sum   'Sc8 Fe12 Si20'
_cell_volume   544.53197276
_cell_formula_units_Z   4
loop_
 _symmetry_equiv_pos_site_id
 _symmetry_equiv_pos_as_xyz
  1  'x, y, z'
loop_
 _atom_site_type_symbol
 _atom_site_label
 _atom_site_symmetry_multiplicity
 _atom_site_fract_x
 _atom_site_fract_y
 _atom_site_fract_z
 _atom_site_occupancy
  Fe  Fe0  1  0.35639827  0.62246452  0.50000000  1.0
  Fe  Fe1  1  0.85639827  0.87753548  0.00000000  1.0
  Fe  Fe2  1  0.37753548  0.35639827  0.50000000  1.0
  Fe  Fe3  1  0.87753548  0.14360173  0.00000000  1.0
  Fe  Fe4  1  0.64360173  0.37753548  0.50000000  1.0
  Fe  Fe5  1  0.14360173  0.12246452  0.00000000  1.0
  Fe  Fe6  1  0.62246452  0.64360173  0.50000000  1.0
  Fe  Fe7  1  0.12246452  0.85639827  0.00000000  1.0
  Fe  Fe8  1  0.50000000  0.00000000  0.25000000  1.0
  Fe  Fe9  1  0.50000000  0.00000000  0.75000000  1.0
  Fe  Fe10  1  0.00000000  0.50000000  0.75000000  1.0
  Fe  Fe11  1  0.00000000  0.50000000  0.25000000  1.0
  Si  Si12  1  0.47154409  0.81850012  0.50000000  1.0
  Si  Si13  1  0.97154409  0.68149988  0.00000000  1.0
  Si  Si14  1  0.18149988  0.47154409  0.50000000  1.0
  Si  Si15  1  0.68149988  0.02845591  0.00000000  1.0
  Si  Si16  1  0.52845591  0.18149988  0.50000000  1.0
  Si  Si17  1  0.02845591  0.31850012  0.00000000  1.0
  Si  Si18  1  0.81850012  0.52845591  0.50000000  1.0
  Si  Si19  1  0.31850012  0.97154409  0.00000000  1.0
  Si  Si20  1  0.32238158  0.17761842  0.25000000  1.0
  Si  Si21  1  0.32238158  0.17761842  0.75000000  1.0
  Si  Si22  1  0.82238158  0.32238158  0.75000000  1.0
  Si  Si23  1  0.82238158  0.32238158  0.25000000  1.0
  Si  Si24  1  0.67761842  0.82238158  0.25000000  1.0
  Si  Si25  1  0.67761842  0.82238158  0.75000000  1.0
  Si  Si26  1  0.17761842  0.67761842  0.75000000  1.0
  Si  Si27  1  0.17761842  0.67761842  0.25000000  1.0
  Si  Si28  1  0.50000000  0.50000000  0.24634803  1.0
  Si  Si29  1  0.50000000  0.50000000  0.75365197  1.0
  Si  Si30  1  0.00000000  0.00000000  0.74634803  1.0
  Si  Si31  1  0.00000000  0.00000000  0.25365197  1.0
  Sc  Sc32  1  0.23595523  0.93131732  0.50000000  1.0
  Sc  Sc33  1  0.73595523  0.56868268  0.00000000  1.0
  Sc  Sc34  1  0.06868268  0.23595523  0.50000000  1.0
  Sc  Sc35  1  0.56868268  0.26404477  0.00000000  1.0
  Sc  Sc36  1  0.76404477  0.06868268  0.50000000  1.0
  Sc  Sc37  1  0.26404477  0.43131732  0.00000000  1.0
  Sc  Sc38  1  0.93131732  0.76404477  0.50000000  1.0
  Sc  Sc39  1  0.43131732  0.73595523  0.00000000  1.0
