# generated using pymatgen
data_Sr5P3O12F
_symmetry_space_group_name_H-M   'P 1'
_cell_length_a   9.84750208
_cell_length_b   9.84750208
_cell_length_c   7.35551957
_cell_angle_alpha   90.00000000
_cell_angle_beta   90.00000000
_cell_angle_gamma   120.00000000
_symmetry_Int_Tables_number   1
_chemical_formula_structural   Sr5P3O12F
_chemical_formula_sum   'Sr10 P6 O24 F2'
_cell_volume   617.72638165
_cell_formula_units_Z   2
loop_
 _symmetry_equiv_pos_site_id
 _symmetry_equiv_pos_as_xyz
  1  'x, y, z'
loop_
 _atom_site_type_symbol
 _atom_site_label
 _atom_site_symmetry_multiplicity
 _atom_site_fract_x
 _atom_site_fract_y
 _atom_site_fract_z
 _atom_site_occupancy
  Sr  Sr0  1  0.01075834  0.75801777  0.25000000  1.0
  Sr  Sr1  1  0.75801777  0.74725943  0.75000000  1.0
  Sr  Sr2  1  0.74725943  -0.01075834  0.25000000  1.0
  Sr  Sr3  1  0.24198223  0.25274057  0.25000000  1.0
  Sr  Sr4  1  -0.01075834  0.24198223  0.75000000  1.0
  Sr  Sr5  1  0.25274057  0.01075834  0.75000000  1.0
  Sr  Sr6  1  0.33333333  0.66666667  0.50050745  1.0
  Sr  Sr7  1  0.33333333  0.66666667  -0.00050745  1.0
  Sr  Sr8  1  0.66666667  0.33333333  0.00050745  1.0
  Sr  Sr9  1  0.66666667  0.33333333  0.49949255  1.0
  P  P10  1  0.63204246  0.60105517  0.25000000  1.0
  P  P11  1  0.60105517  0.96901271  0.75000000  1.0
  P  P12  1  0.96901271  0.36795754  0.25000000  1.0
  P  P13  1  0.39894483  0.03098729  0.25000000  1.0
  P  P14  1  0.36795754  0.39894483  0.75000000  1.0
  P  P15  1  0.03098729  0.63204246  0.75000000  1.0
  O  O16  1  0.73977209  0.65612166  0.42167912  1.0
  O  O17  1  0.73977209  0.65612166  0.07832088  1.0
  O  O18  1  0.65612166  0.91634957  0.92167912  1.0
  O  O19  1  0.65612166  0.91634957  0.57832088  1.0
  O  O20  1  0.91634957  0.26022791  0.42167912  1.0
  O  O21  1  0.91634957  0.26022791  0.07832088  1.0
  O  O22  1  0.34387834  0.08365043  0.42167912  1.0
  O  O23  1  0.34387834  0.08365043  0.07832088  1.0
  O  O24  1  0.26022791  0.34387834  0.92167912  1.0
  O  O25  1  0.26022791  0.34387834  0.57832088  1.0
  O  O26  1  0.08365043  0.73977209  0.92167912  1.0
  O  O27  1  0.08365043  0.73977209  0.57832088  1.0
  O  O28  1  0.32984574  0.84945937  0.25000000  1.0
  O  O29  1  0.84945937  0.51961362  0.75000000  1.0
  O  O30  1  0.51961362  0.67015426  0.25000000  1.0
  O  O31  1  0.15054063  0.48038638  0.25000000  1.0
  O  O32  1  0.67015426  0.15054063  0.75000000  1.0
  O  O33  1  0.48038638  0.32984574  0.75000000  1.0
  O  O34  1  0.53648068  0.41747981  0.25000000  1.0
  O  O35  1  0.41747981  0.88099914  0.75000000  1.0
  O  O36  1  0.88099914  0.46351932  0.25000000  1.0
  O  O37  1  0.58252019  0.11900086  0.25000000  1.0
  O  O38  1  0.46351932  0.58252019  0.75000000  1.0
  O  O39  1  0.11900086  0.53648068  0.75000000  1.0
  F  F40  1  0.00000000  0.00000000  0.25000000  1.0
  F  F41  1  0.00000000  0.00000000  0.75000000  1.0
