# generated using pymatgen
data_NiPH6NO5
_symmetry_space_group_name_H-M   'P 1'
_cell_length_a   5.59594220
_cell_length_b   8.95369462
_cell_length_c   4.76325049
_cell_angle_alpha   90.00000000
_cell_angle_beta   90.00000000
_cell_angle_gamma   90.00000000
_symmetry_Int_Tables_number   1
_chemical_formula_structural   NiPH6NO5
_chemical_formula_sum   'Ni2 P2 H12 N2 O10'
_cell_volume   238.65960575
_cell_formula_units_Z   2
loop_
 _symmetry_equiv_pos_site_id
 _symmetry_equiv_pos_as_xyz
  1  'x, y, z'
loop_
 _atom_site_type_symbol
 _atom_site_label
 _atom_site_symmetry_multiplicity
 _atom_site_fract_x
 _atom_site_fract_y
 _atom_site_fract_z
 _atom_site_occupancy
  O  O0  1  0.27788373  0.61331949  0.70074103  1.0
  O  O1  1  0.77788373  0.38668051  0.20074103  1.0
  O  O2  1  0.72211627  0.61331949  0.70074103  1.0
  O  O3  1  0.22211627  0.38668051  0.20074103  1.0
  O  O4  1  0.50000000  0.86060370  0.60865019  1.0
  O  O5  1  0.00000000  0.13939630  0.10865019  1.0
  O  O6  1  0.50000000  0.66454204  0.23181654  1.0
  O  O7  1  0.00000000  0.33545796  0.73181654  1.0
  O  O8  1  0.50000000  0.30197666  0.68562251  1.0
  O  O9  1  0.00000000  0.69802334  0.18562251  1.0
  N  N10  1  0.50000000  0.02145864  0.10849021  1.0
  N  N11  1  0.00000000  0.97854136  0.60849021  1.0
  Ni  Ni12  1  0.50000000  0.48173280  0.97651150  1.0
  Ni  Ni13  1  0.00000000  0.51826720  0.47651150  1.0
  H  H14  1  0.15228587  0.91276384  0.60416172  1.0
  H  H15  1  0.65228587  0.08723616  0.10416172  1.0
  H  H16  1  0.84771413  0.91276384  0.60416172  1.0
  H  H17  1  0.34771413  0.08723616  0.10416172  1.0
  H  H18  1  0.50000000  0.95625547  0.29280752  1.0
  H  H19  1  0.00000000  0.04374453  -0.20719248  1.0
  H  H20  1  0.13973599  0.68195255  0.06288873  1.0
  H  H21  1  0.63973599  0.31804745  0.56288873  1.0
  H  H22  1  0.86026401  0.68195255  0.06288873  1.0
  H  H23  1  0.36026401  0.31804745  0.56288873  1.0
  H  H24  1  0.50000000  0.95100222  0.93134675  1.0
  H  H25  1  0.00000000  0.04899778  0.43134675  1.0
  P  P26  1  0.50000000  0.68883402  0.55087183  1.0
  P  P27  1  0.00000000  0.31116598  0.05087183  1.0
