# generated using pymatgen
data_SbH3SO6
_symmetry_space_group_name_H-M   'P 1'
_cell_length_a   6.05741043
_cell_length_b   13.63026097
_cell_length_c   6.89332438
_cell_angle_alpha   90.00000000
_cell_angle_beta   117.36764492
_cell_angle_gamma   90.00000000
_symmetry_Int_Tables_number   1
_chemical_formula_structural   SbH3SO6
_chemical_formula_sum   'Sb4 H12 S4 O24'
_cell_volume   505.43997902
_cell_formula_units_Z   4
loop_
 _symmetry_equiv_pos_site_id
 _symmetry_equiv_pos_as_xyz
  1  'x, y, z'
loop_
 _atom_site_type_symbol
 _atom_site_label
 _atom_site_symmetry_multiplicity
 _atom_site_fract_x
 _atom_site_fract_y
 _atom_site_fract_z
 _atom_site_occupancy
  Sb  Sb0  1  0.43426691  0.11109252  0.09790024  1.0
  Sb  Sb1  1  0.43426691  0.38890748  0.59790024  1.0
  Sb  Sb2  1  0.56573309  0.61109252  0.40209976  1.0
  Sb  Sb3  1  0.56573309  0.88890748  0.90209976  1.0
  H  H4  1  0.71725394  0.42554324  0.36291791  1.0
  H  H5  1  0.71725394  0.07445676  0.86291791  1.0
  H  H6  1  0.28274606  0.92554324  0.13708209  1.0
  H  H7  1  0.28274606  0.57445676  0.63708209  1.0
  H  H8  1  0.22186981  0.13293700  0.41598274  1.0
  H  H9  1  0.22186981  0.36706300  0.91598274  1.0
  H  H10  1  0.77813019  0.63293700  0.08401726  1.0
  H  H11  1  0.77813019  0.86706300  0.58401726  1.0
  H  H12  1  0.17758090  0.02320185  0.31861363  1.0
  H  H13  1  0.17758090  0.47679815  0.81861363  1.0
  H  H14  1  0.82241910  0.52320185  0.18138637  1.0
  H  H15  1  0.82241910  0.97679815  0.68138637  1.0
  S  S16  1  0.88751764  0.34008051  0.06649702  1.0
  S  S17  1  0.88751764  0.15991949  0.56649702  1.0
  S  S18  1  0.11248236  0.84008051  0.43350298  1.0
  S  S19  1  0.11248236  0.65991949  0.93350298  1.0
  O  O20  1  0.92948730  0.40054725  0.26341655  1.0
  O  O21  1  0.92948730  0.09945275  0.76341655  1.0
  O  O22  1  0.07051270  0.90054725  0.23658345  1.0
  O  O23  1  0.07051270  0.59945275  0.73658345  1.0
  O  O24  1  0.87061646  0.80599708  0.41221842  1.0
  O  O25  1  0.87061646  0.69400292  0.91221842  1.0
  O  O26  1  0.12938354  0.30599708  0.08778158  1.0
  O  O27  1  0.12938354  0.19400292  0.58778158  1.0
  O  O28  1  0.77989862  0.08637314  0.37063499  1.0
  O  O29  1  0.77989862  0.41362686  0.87063499  1.0
  O  O30  1  0.22010138  0.58637314  0.12936501  1.0
  O  O31  1  0.22010138  0.91362686  0.62936501  1.0
  O  O32  1  0.70345907  0.26185777  0.02124065  1.0
  O  O33  1  0.70345907  0.23814223  0.52124065  1.0
  O  O34  1  0.29654093  0.76185777  0.47875935  1.0
  O  O35  1  0.29654093  0.73814223  0.97875935  1.0
  O  O36  1  0.61631040  0.46021825  0.42199386  1.0
  O  O37  1  0.61631040  0.03978175  0.92199386  1.0
  O  O38  1  0.38368960  0.96021825  0.07800614  1.0
  O  O39  1  0.38368960  0.53978175  0.57800614  1.0
  O  O40  1  0.27357307  0.08431601  0.33670877  1.0
  O  O41  1  0.27357307  0.41568399  0.83670877  1.0
  O  O42  1  0.72642693  0.58431601  0.16329123  1.0
  O  O43  1  0.72642693  0.91568399  0.66329123  1.0
