# generated using pymatgen
data_Sr2GeN2
_symmetry_space_group_name_H-M   'P 1'
_cell_length_a   11.84404393
_cell_length_b   11.84404393
_cell_length_c   5.41551838
_cell_angle_alpha   90.00000000
_cell_angle_beta   90.00000000
_cell_angle_gamma   90.00000000
_symmetry_Int_Tables_number   1
_chemical_formula_structural   Sr2GeN2
_chemical_formula_sum   'Sr16 Ge8 N16'
_cell_volume   759.69637376
_cell_formula_units_Z   8
loop_
 _symmetry_equiv_pos_site_id
 _symmetry_equiv_pos_as_xyz
  1  'x, y, z'
loop_
 _atom_site_type_symbol
 _atom_site_label
 _atom_site_symmetry_multiplicity
 _atom_site_fract_x
 _atom_site_fract_y
 _atom_site_fract_z
 _atom_site_occupancy
  Sr  Sr0  1  0.15150385  0.52198121  0.00000000  1.0
  Sr  Sr1  1  0.65150385  0.97801879  0.00000000  1.0
  Sr  Sr2  1  0.47801879  0.15150385  0.50000000  1.0
  Sr  Sr3  1  0.97801879  0.34849615  0.50000000  1.0
  Sr  Sr4  1  0.84849615  0.47801879  0.00000000  1.0
  Sr  Sr5  1  0.34849615  0.02198121  0.00000000  1.0
  Sr  Sr6  1  0.52198121  0.84849615  0.50000000  1.0
  Sr  Sr7  1  0.02198121  0.65150385  0.50000000  1.0
  Sr  Sr8  1  0.07986135  0.86618938  0.00000000  1.0
  Sr  Sr9  1  0.57986135  0.63381062  0.00000000  1.0
  Sr  Sr10  1  0.13381062  0.07986135  0.50000000  1.0
  Sr  Sr11  1  0.63381062  0.42013865  0.50000000  1.0
  Sr  Sr12  1  0.92013865  0.13381062  0.00000000  1.0
  Sr  Sr13  1  0.42013865  0.36618938  0.00000000  1.0
  Sr  Sr14  1  0.86618938  0.92013865  0.50000000  1.0
  Sr  Sr15  1  0.36618938  0.57986135  0.50000000  1.0
  Ge  Ge16  1  0.34912954  0.75626547  0.00000000  1.0
  Ge  Ge17  1  0.84912954  0.74373453  0.00000000  1.0
  Ge  Ge18  1  0.24373453  0.34912954  0.50000000  1.0
  Ge  Ge19  1  0.74373453  0.15087046  0.50000000  1.0
  Ge  Ge20  1  0.65087046  0.24373453  0.00000000  1.0
  Ge  Ge21  1  0.15087046  0.25626547  0.00000000  1.0
  Ge  Ge22  1  0.75626547  0.65087046  0.50000000  1.0
  Ge  Ge23  1  0.25626547  0.84912954  0.50000000  1.0
  N  N24  1  0.48917916  0.83481470  0.00000000  1.0
  N  N25  1  0.98917916  0.66518530  0.00000000  1.0
  N  N26  1  0.16518530  0.48917916  0.50000000  1.0
  N  N27  1  0.66518530  0.01082084  0.50000000  1.0
  N  N28  1  0.51082084  0.16518530  0.00000000  1.0
  N  N29  1  0.01082084  0.33481470  0.00000000  1.0
  N  N30  1  0.83481470  0.51082084  0.50000000  1.0
  N  N31  1  0.33481470  0.98917916  0.50000000  1.0
  N  N32  1  0.36622545  0.59863612  0.00000000  1.0
  N  N33  1  0.86622545  0.90136388  0.00000000  1.0
  N  N34  1  0.40136388  0.36622545  0.50000000  1.0
  N  N35  1  0.90136388  0.13377455  0.50000000  1.0
  N  N36  1  0.63377455  0.40136388  0.00000000  1.0
  N  N37  1  0.13377455  0.09863612  0.00000000  1.0
  N  N38  1  0.59863612  0.63377455  0.50000000  1.0
  N  N39  1  0.09863612  0.86622545  0.50000000  1.0
