# generated using pymatgen
data_CsYP2O7
_symmetry_space_group_name_H-M   'P 1'
_cell_length_a   8.06270544
_cell_length_b   11.06144328
_cell_length_c   8.91636003
_cell_angle_alpha   90.00000000
_cell_angle_beta   104.96742161
_cell_angle_gamma   90.00000000
_symmetry_Int_Tables_number   1
_chemical_formula_structural   CsYP2O7
_chemical_formula_sum   'Cs4 Y4 P8 O28'
_cell_volume   768.22786780
_cell_formula_units_Z   4
loop_
 _symmetry_equiv_pos_site_id
 _symmetry_equiv_pos_as_xyz
  1  'x, y, z'
loop_
 _atom_site_type_symbol
 _atom_site_label
 _atom_site_symmetry_multiplicity
 _atom_site_fract_x
 _atom_site_fract_y
 _atom_site_fract_z
 _atom_site_occupancy
  Cs  Cs0  1  0.80374036  0.81297830  0.44177883  1.0
  Cs  Cs1  1  0.80374036  0.68702170  0.94177883  1.0
  Cs  Cs2  1  0.19625964  0.31297830  0.05822117  1.0
  Cs  Cs3  1  0.19625964  0.18702170  0.55822117  1.0
  Y  Y4  1  0.76150731  0.39963768  0.24694568  1.0
  Y  Y5  1  0.76150731  0.10036232  0.74694568  1.0
  Y  Y6  1  0.23849269  0.89963768  0.25305432  1.0
  Y  Y7  1  0.23849269  0.60036232  0.75305432  1.0
  P  P8  1  0.87190152  0.09777545  0.17848732  1.0
  P  P9  1  0.87190152  0.40222455  0.67848732  1.0
  P  P10  1  0.12809848  0.59777545  0.32151268  1.0
  P  P11  1  0.12809848  0.90222455  0.82151268  1.0
  P  P12  1  0.57704961  0.12795162  0.31586247  1.0
  P  P13  1  0.57704961  0.37204838  0.81586247  1.0
  P  P14  1  0.42295039  0.62795162  0.18413753  1.0
  P  P15  1  0.42295039  0.87204838  0.68413753  1.0
  O  O16  1  -0.00243081  0.50519992  0.23012478  1.0
  O  O17  1  -0.00243081  0.99480008  0.73012478  1.0
  O  O18  1  1.00243081  0.00519992  0.26987522  1.0
  O  O19  1  1.00243081  0.49480008  0.76987522  1.0
  O  O20  1  0.91652555  0.22678387  0.24194630  1.0
  O  O21  1  0.91652555  0.27321613  0.74194630  1.0
  O  O22  1  0.08347445  0.72678387  0.25805370  1.0
  O  O23  1  0.08347445  0.77321613  0.75805370  1.0
  O  O24  1  0.84806992  0.41075729  0.50361639  1.0
  O  O25  1  0.84806992  0.08924271  0.00361639  1.0
  O  O26  1  0.15193008  0.91075729  0.99638361  1.0
  O  O27  1  0.15193008  0.58924271  0.49638361  1.0
  O  O28  1  0.67424068  0.10505376  0.48520602  1.0
  O  O29  1  0.67424068  0.39494624  0.98520602  1.0
  O  O30  1  0.32575932  0.60505376  0.01479398  1.0
  O  O31  1  0.32575932  0.89494624  0.51479398  1.0
  O  O32  1  0.68731073  0.05922792  0.20933442  1.0
  O  O33  1  0.68731073  0.44077208  0.70933442  1.0
  O  O34  1  0.31268927  0.55922792  0.29066558  1.0
  O  O35  1  0.31268927  0.94077208  0.79066558  1.0
  O  O36  1  0.56281552  0.26213179  0.26937736  1.0
  O  O37  1  0.56281552  0.23786821  0.76937736  1.0
  O  O38  1  0.43718448  0.76213179  0.23062264  1.0
  O  O39  1  0.43718448  0.73786821  0.73062264  1.0
  O  O40  1  0.40045331  0.06652249  0.26932011  1.0
  O  O41  1  0.40045331  0.43347751  0.76932011  1.0
  O  O42  1  0.59954669  0.56652249  0.23067989  1.0
  O  O43  1  0.59954669  0.93347751  0.73067989  1.0
