# generated using pymatgen
data_SrI2
_symmetry_space_group_name_H-M   'P 1'
_cell_length_a   8.02372526
_cell_length_b   15.65505187
_cell_length_c   8.29762102
_cell_angle_alpha   90.00000000
_cell_angle_beta   90.00000000
_cell_angle_gamma   90.00000000
_symmetry_Int_Tables_number   1
_chemical_formula_structural   SrI2
_chemical_formula_sum   'Sr8 I16'
_cell_volume   1042.27940379
_cell_formula_units_Z   8
loop_
 _symmetry_equiv_pos_site_id
 _symmetry_equiv_pos_as_xyz
  1  'x, y, z'
loop_
 _atom_site_type_symbol
 _atom_site_label
 _atom_site_symmetry_multiplicity
 _atom_site_fract_x
 _atom_site_fract_y
 _atom_site_fract_z
 _atom_site_occupancy
  Sr  Sr0  1  0.27275351  0.11140554  0.04896472  1.0
  Sr  Sr1  1  0.27275351  0.38859446  0.54896472  1.0
  Sr  Sr2  1  0.77275351  0.11140554  0.45103528  1.0
  Sr  Sr3  1  0.77275351  0.38859446  0.95103528  1.0
  Sr  Sr4  1  0.72724649  0.61140554  0.45103528  1.0
  Sr  Sr5  1  0.72724649  0.88859446  0.95103528  1.0
  Sr  Sr6  1  0.22724649  0.61140554  0.04896472  1.0
  Sr  Sr7  1  0.22724649  0.88859446  0.54896472  1.0
  I  I8  1  0.49589574  0.46981577  0.23477052  1.0
  I  I9  1  0.49589574  0.03018423  0.73477052  1.0
  I  I10  1  0.99589574  0.46981577  0.26522948  1.0
  I  I11  1  0.99589574  0.03018423  0.76522948  1.0
  I  I12  1  0.50410426  0.96981577  0.26522948  1.0
  I  I13  1  0.50410426  0.53018423  0.76522948  1.0
  I  I14  1  0.00410426  0.96981577  0.23477052  1.0
  I  I15  1  0.00410426  0.53018423  0.73477052  1.0
  I  I16  1  0.14893228  0.20555403  0.38734011  1.0
  I  I17  1  0.14893228  0.29444597  0.88734011  1.0
  I  I18  1  0.64893228  0.20555403  0.11265989  1.0
  I  I19  1  0.64893228  0.29444597  0.61265989  1.0
  I  I20  1  0.85106772  0.70555403  0.11265989  1.0
  I  I21  1  0.85106772  0.79444597  0.61265989  1.0
  I  I22  1  0.35106772  0.70555403  0.38734011  1.0
  I  I23  1  0.35106772  0.79444597  0.88734011  1.0
