# generated using pymatgen
data_Sr4Mn2CoO9
_symmetry_space_group_name_H-M   'P 1'
_cell_length_a   9.66092481
_cell_length_b   9.66092481
_cell_length_c   7.77607907
_cell_angle_alpha   90.00000000
_cell_angle_beta   90.00000000
_cell_angle_gamma   120.00000000
_symmetry_Int_Tables_number   1
_chemical_formula_structural   Sr4Mn2CoO9
_chemical_formula_sum   'Sr12 Mn6 Co3 O27'
_cell_volume   628.53389610
_cell_formula_units_Z   3
loop_
 _symmetry_equiv_pos_site_id
 _symmetry_equiv_pos_as_xyz
  1  'x, y, z'
loop_
 _atom_site_type_symbol
 _atom_site_label
 _atom_site_symmetry_multiplicity
 _atom_site_fract_x
 _atom_site_fract_y
 _atom_site_fract_z
 _atom_site_occupancy
  Mn  Mn0  1  0.00000000  0.00000000  0.33415871  1.0
  Mn  Mn1  1  0.00000000  0.00000000  0.66584129  1.0
  Mn  Mn2  1  0.33333333  0.66666667  0.09386098  1.0
  Mn  Mn3  1  0.66666667  0.33333333  0.90613902  1.0
  Mn  Mn4  1  0.33333333  0.66666667  0.42902892  1.0
  Mn  Mn5  1  0.66666667  0.33333333  0.57097108  1.0
  Co  Co6  1  0.33333333  0.66666667  0.75900386  1.0
  Co  Co7  1  0.66666667  0.33333333  0.24099614  1.0
  Co  Co8  1  0.00000000  0.00000000  0.00000000  1.0
  Sr  Sr9  1  0.30868467  0.97476116  0.25030173  1.0
  Sr  Sr10  1  0.97476116  0.30868467  0.74969827  1.0
  Sr  Sr11  1  0.66607648  0.69131533  0.25030173  1.0
  Sr  Sr12  1  0.02523884  0.33392352  0.25030173  1.0
  Sr  Sr13  1  0.69131533  0.66607648  0.74969827  1.0
  Sr  Sr14  1  0.33392352  0.02523884  0.74969827  1.0
  Sr  Sr15  1  0.32578895  0.32578895  0.50000000  1.0
  Sr  Sr16  1  0.00000000  0.67421105  0.50000000  1.0
  Sr  Sr17  1  0.67421105  0.00000000  0.50000000  1.0
  Sr  Sr18  1  0.35921998  0.35921998  0.00000000  1.0
  Sr  Sr19  1  0.00000000  0.64078002  0.00000000  1.0
  Sr  Sr20  1  0.64078002  0.00000000  0.00000000  1.0
  O  O21  1  0.99213905  0.83610476  0.19614290  1.0
  O  O22  1  0.83610476  0.99213905  0.80385710  1.0
  O  O23  1  0.84396571  0.00786095  0.19614290  1.0
  O  O24  1  0.16389524  0.15603429  0.19614290  1.0
  O  O25  1  0.00786095  0.84396571  0.80385710  1.0
  O  O26  1  0.15603429  0.16389524  0.80385710  1.0
  O  O27  1  0.16987402  0.64952092  0.26000747  1.0
  O  O28  1  0.64952092  0.16987402  0.73999253  1.0
  O  O29  1  0.47964690  0.83012598  0.26000747  1.0
  O  O30  1  0.35047908  0.52035310  0.26000747  1.0
  O  O31  1  0.83012598  0.47964690  0.73999253  1.0
  O  O32  1  0.52035310  0.35047908  0.73999253  1.0
  O  O33  1  0.84840584  0.84840584  0.50000000  1.0
  O  O34  1  0.00000000  0.15159416  0.50000000  1.0
  O  O35  1  0.15159416  0.00000000  0.50000000  1.0
  O  O36  1  0.68252261  0.50042987  0.04462584  1.0
  O  O37  1  0.50042987  0.68252261  0.95537416  1.0
  O  O38  1  0.81790727  0.31747739  0.04462584  1.0
  O  O39  1  0.49957013  0.18209273  0.04462584  1.0
  O  O40  1  0.31747739  0.81790727  0.95537416  1.0
  O  O41  1  0.18209273  0.49957013  0.95537416  1.0
  O  O42  1  0.68492855  0.49845061  0.43326750  1.0
  O  O43  1  0.49845061  0.68492855  0.56673250  1.0
  O  O44  1  0.81352206  0.31507145  0.43326750  1.0
  O  O45  1  0.50154939  0.18647794  0.43326750  1.0
  O  O46  1  0.31507145  0.81352206  0.56673250  1.0
  O  O47  1  0.18647794  0.50154939  0.56673250  1.0
