# generated using pymatgen
data_BaEu2O4
_symmetry_space_group_name_H-M   'P 1'
_cell_length_a   10.60062216
_cell_length_b   3.57476078
_cell_length_c   12.44146468
_cell_angle_alpha   90.00000000
_cell_angle_beta   90.00000000
_cell_angle_gamma   90.00000000
_symmetry_Int_Tables_number   1
_chemical_formula_structural   BaEu2O4
_chemical_formula_sum   'Ba4 Eu8 O16'
_cell_volume   471.46542624
_cell_formula_units_Z   4
loop_
 _symmetry_equiv_pos_site_id
 _symmetry_equiv_pos_as_xyz
  1  'x, y, z'
loop_
 _atom_site_type_symbol
 _atom_site_label
 _atom_site_symmetry_multiplicity
 _atom_site_fract_x
 _atom_site_fract_y
 _atom_site_fract_z
 _atom_site_occupancy
  Ba  Ba0  1  0.75331762  0.75000000  0.64952543  1.0
  Ba  Ba1  1  0.25331762  0.75000000  0.85047457  1.0
  Ba  Ba2  1  0.24668238  0.25000000  0.35047457  1.0
  Ba  Ba3  1  0.74668238  0.25000000  0.14952543  1.0
  Eu  Eu4  1  0.42566993  0.75000000  0.61195560  1.0
  Eu  Eu5  1  0.92566993  0.75000000  0.88804440  1.0
  Eu  Eu6  1  0.57433007  0.25000000  0.38804440  1.0
  Eu  Eu7  1  0.07433007  0.25000000  0.11195560  1.0
  Eu  Eu8  1  0.92152137  0.75000000  0.39079643  1.0
  Eu  Eu9  1  0.42152137  0.75000000  0.10920357  1.0
  Eu  Eu10  1  0.07847863  0.25000000  0.60920357  1.0
  Eu  Eu11  1  0.57847863  0.25000000  0.89079643  1.0
  O  O12  1  0.92710077  0.75000000  0.07536013  1.0
  O  O13  1  0.42710077  0.75000000  0.42463987  1.0
  O  O14  1  0.07289923  0.25000000  0.92463987  1.0
  O  O15  1  0.57289923  0.25000000  0.57536013  1.0
  O  O16  1  0.71152937  0.75000000  0.33189268  1.0
  O  O17  1  0.21152937  0.75000000  0.16810732  1.0
  O  O18  1  0.28847063  0.25000000  0.66810732  1.0
  O  O19  1  0.78847063  0.25000000  0.83189268  1.0
  O  O20  1  0.61836386  0.75000000  0.01907252  1.0
  O  O21  1  0.11836386  0.75000000  0.48092748  1.0
  O  O22  1  0.38163614  0.25000000  0.98092748  1.0
  O  O23  1  0.88163614  0.25000000  0.51907252  1.0
  O  O24  1  0.51529459  0.75000000  0.78438437  1.0
  O  O25  1  0.01529459  0.75000000  0.71561563  1.0
  O  O26  1  0.48470541  0.25000000  0.21561563  1.0
  O  O27  1  0.98470541  0.25000000  0.28438437  1.0
