# generated using pymatgen
data_B
_symmetry_space_group_name_H-M   'P 1'
_cell_length_a   5.21397553
_cell_length_b   5.21397553
_cell_length_c   5.21397553
_cell_angle_alpha   67.60496534
_cell_angle_beta   67.60496534
_cell_angle_gamma   67.60496534
_symmetry_Int_Tables_number   1
_chemical_formula_structural   B
_chemical_formula_sum   B15
_cell_volume   116.46756735
_cell_formula_units_Z   15
loop_
 _symmetry_equiv_pos_site_id
 _symmetry_equiv_pos_as_xyz
  1  'x, y, z'
loop_
 _atom_site_type_symbol
 _atom_site_label
 _atom_site_symmetry_multiplicity
 _atom_site_fract_x
 _atom_site_fract_y
 _atom_site_fract_z
 _atom_site_occupancy
  B  B0  1  0.50592480  0.50592480  -0.16929448  1.0
  B  B1  1  0.50592480  0.83070552  -0.49407520  1.0
  B  B2  1  0.16929448  0.49407520  -0.50592480  1.0
  B  B3  1  0.49407520  0.16929448  -0.50592480  1.0
  B  B4  1  0.49407520  0.49407520  -0.83070552  1.0
  B  B5  1  0.83070552  0.50592480  -0.49407520  1.0
  B  B6  1  0.30663406  0.30663406  -0.19887930  1.0
  B  B7  1  0.30663406  0.80112070  -0.69336594  1.0
  B  B8  1  1.19887930  -0.30663406  -0.30663406  1.0
  B  B9  1  0.69336594  0.19887930  -0.30663406  1.0
  B  B10  1  0.69336594  -0.30663406  0.19887930  1.0
  B  B11  1  0.80112070  0.30663406  -0.69336594  1.0
  B  B12  1  0.86530336  0.86530336  -0.13469664  1.0
  B  B13  1  1.13469664  1.13469664  0.13469664  1.0
  B  B14  1  -0.00000000  0.00000000  -0.00000000  1.0
