# generated using pymatgen
data_LiBeB
_symmetry_space_group_name_H-M   'P 1'
_cell_length_a   3.28323158
_cell_length_b   3.28323158
_cell_length_c   12.41588856
_cell_angle_alpha   90.00000000
_cell_angle_beta   90.00000000
_cell_angle_gamma   120.00000000
_symmetry_Int_Tables_number   1
_chemical_formula_structural   LiBeB
_chemical_formula_sum   'Li4 Be4 B4'
_cell_volume   115.90748151
_cell_formula_units_Z   4
loop_
 _symmetry_equiv_pos_site_id
 _symmetry_equiv_pos_as_xyz
  1  'x, y, z'
loop_
 _atom_site_type_symbol
 _atom_site_label
 _atom_site_symmetry_multiplicity
 _atom_site_fract_x
 _atom_site_fract_y
 _atom_site_fract_z
 _atom_site_occupancy
  Li  Li0  1  0.00000000  0.00000000  0.57468302  1.0
  Li  Li1  1  0.66666667  0.33333333  0.90153650  1.0
  Li  Li2  1  0.66666667  0.33333333  0.70292696  1.0
  Li  Li3  1  0.33333333  0.66666667  0.24954891  1.0
  Be  Be4  1  0.33333333  0.66666667  0.44377364  1.0
  Be  Be5  1  0.66666667  0.33333333  0.10804646  1.0
  Be  Be6  1  0.33333333  0.66666667  0.06439249  1.0
  Be  Be7  1  0.00000000  0.00000000  0.39487130  1.0
  B  B8  1  0.00000000  0.00000000  0.78385874  1.0
  B  B9  1  0.66666667  0.33333333  0.42773949  1.0
  B  B10  1  0.33333333  0.66666667  0.78386517  1.0
  B  B11  1  0.00000000  0.00000000  0.09525431  1.0
