# generated using pymatgen
data_IrN2
_symmetry_space_group_name_H-M   'P 1'
_cell_length_a   4.86426048
_cell_length_b   4.91845147
_cell_length_c   4.90299435
_cell_angle_alpha   90.00000000
_cell_angle_beta   107.97410534
_cell_angle_gamma   90.00000000
_symmetry_Int_Tables_number   1
_chemical_formula_structural   IrN2
_chemical_formula_sum   'Ir4 N8'
_cell_volume   111.57750816
_cell_formula_units_Z   4
loop_
 _symmetry_equiv_pos_site_id
 _symmetry_equiv_pos_as_xyz
  1  'x, y, z'
loop_
 _atom_site_type_symbol
 _atom_site_label
 _atom_site_symmetry_multiplicity
 _atom_site_fract_x
 _atom_site_fract_y
 _atom_site_fract_z
 _atom_site_occupancy
  Ir  Ir0  1  0.76687145  0.50034848  0.27919801  1.0
  Ir  Ir1  1  0.76687145  -0.00034848  0.77919801  1.0
  Ir  Ir2  1  0.23312855  0.00034848  0.22080199  1.0
  Ir  Ir3  1  0.23312855  0.49965152  0.72080199  1.0
  N  N4  1  0.81454389  0.90256425  0.20028278  1.0
  N  N5  1  0.81454389  0.59743575  0.70028278  1.0
  N  N6  1  0.18545611  0.40256425  0.29971722  1.0
  N  N7  1  0.18545611  0.09743575  0.79971722  1.0
  N  N8  1  0.67529733  0.08641724  0.34080514  1.0
  N  N9  1  0.67529733  0.41358276  0.84080514  1.0
  N  N10  1  0.32470267  0.58641724  0.15919486  1.0
  N  N11  1  0.32470267  0.91358276  0.65919486  1.0
