# generated using pymatgen
data_CaMoO2
_symmetry_space_group_name_H-M   'P 1'
_cell_length_a   7.17839829
_cell_length_b   7.17839829
_cell_length_c   7.17839829
_cell_angle_alpha   129.93588547
_cell_angle_beta   129.93588547
_cell_angle_gamma   73.50928308
_symmetry_Int_Tables_number   1
_chemical_formula_structural   CaMoO2
_chemical_formula_sum   'Ca4 Mo4 O8'
_cell_volume   212.23862583
_cell_formula_units_Z   4
loop_
 _symmetry_equiv_pos_site_id
 _symmetry_equiv_pos_as_xyz
  1  'x, y, z'
loop_
 _atom_site_type_symbol
 _atom_site_label
 _atom_site_symmetry_multiplicity
 _atom_site_fract_x
 _atom_site_fract_y
 _atom_site_fract_z
 _atom_site_occupancy
  Ca  Ca0  1  0.37500000  0.62500000  0.75000000  1.0
  Ca  Ca1  1  0.87500000  0.62500000  1.25000000  1.0
  Ca  Ca2  1  0.37500000  1.12500000  0.75000000  1.0
  Ca  Ca3  1  0.37500000  0.62500000  0.25000000  1.0
  Mo  Mo4  1  0.87500000  0.12500000  0.75000000  1.0
  Mo  Mo5  1  0.37500000  0.12500000  0.25000000  1.0
  Mo  Mo6  1  0.87500000  0.62500000  0.75000000  1.0
  Mo  Mo7  1  0.87500000  1.12500000  1.25000000  1.0
  O  O8  1  1.17611113  0.96226251  1.78615475  1.0
  O  O9  1  0.57389225  0.86004363  1.28615475  1.0
  O  O10  1  1.03773749  0.82389225  1.21384862  1.0
  O  O11  1  1.13995637  1.42611113  1.71384862  1.0
  O  O12  1  0.17610775  0.38995637  0.21384525  1.0
  O  O13  1  0.57388887  0.28773749  0.71384525  1.0
  O  O14  1  0.61004363  0.82388887  0.78615138  1.0
  O  O15  1  0.71226251  0.42610775  0.28615138  1.0
