# generated using pymatgen
data_RbCu2Br3
_symmetry_space_group_name_H-M   'P 1'
_cell_length_a   8.45591898
_cell_length_b   8.45591898
_cell_length_c   5.21149248
_cell_angle_alpha   90.00000000
_cell_angle_beta   90.00000000
_cell_angle_gamma   104.31983551
_symmetry_Int_Tables_number   1
_chemical_formula_structural   RbCu2Br3
_chemical_formula_sum   'Rb2 Cu4 Br6'
_cell_volume   361.05737322
_cell_formula_units_Z   2
loop_
 _symmetry_equiv_pos_site_id
 _symmetry_equiv_pos_as_xyz
  1  'x, y, z'
loop_
 _atom_site_type_symbol
 _atom_site_label
 _atom_site_symmetry_multiplicity
 _atom_site_fract_x
 _atom_site_fract_y
 _atom_site_fract_z
 _atom_site_occupancy
  Rb  Rb0  1  -0.29129861  1.29129861  0.25000000  1.0
  Rb  Rb1  1  0.29129861  0.70870139  0.75000000  1.0
  Cu  Cu2  1  0.82535122  0.82535122  0.50000000  1.0
  Cu  Cu3  1  0.82535122  0.82535122  0.00000000  1.0
  Cu  Cu4  1  0.17464878  0.17464878  0.50000000  1.0
  Cu  Cu5  1  0.17464878  0.17464878  0.00000000  1.0
  Br  Br6  1  0.16328265  0.41556551  0.25000000  1.0
  Br  Br7  1  -0.58443449  1.16328265  0.75000000  1.0
  Br  Br8  1  0.58443449  0.83671735  0.25000000  1.0
  Br  Br9  1  -0.16328265  1.58443449  0.75000000  1.0
  Br  Br10  1  0.10231311  0.89768689  0.25000000  1.0
  Br  Br11  1  -0.10231311  1.10231311  0.75000000  1.0
