# generated using pymatgen
data_RbNaLaNbO5
_symmetry_space_group_name_H-M   'P 1'
_cell_length_a   5.88205862
_cell_length_b   5.88205862
_cell_length_c   8.43533574
_cell_angle_alpha   90.00000000
_cell_angle_beta   90.00000000
_cell_angle_gamma   90.00000000
_symmetry_Int_Tables_number   1
_chemical_formula_structural   RbNaLaNbO5
_chemical_formula_sum   'Rb2 Na2 La2 Nb2 O10'
_cell_volume   291.85092182
_cell_formula_units_Z   2
loop_
 _symmetry_equiv_pos_site_id
 _symmetry_equiv_pos_as_xyz
  1  'x, y, z'
loop_
 _atom_site_type_symbol
 _atom_site_label
 _atom_site_symmetry_multiplicity
 _atom_site_fract_x
 _atom_site_fract_y
 _atom_site_fract_z
 _atom_site_occupancy
  Rb  Rb0  1  0.00000000  0.00000000  0.00000000  1.0
  Rb  Rb1  1  0.50000000  0.50000000  0.00000000  1.0
  Na  Na2  1  0.50000000  0.00000000  0.75875783  1.0
  Na  Na3  1  0.00000000  0.50000000  0.24124217  1.0
  La  La4  1  0.00000000  0.00000000  0.50000000  1.0
  La  La5  1  0.50000000  0.50000000  0.50000000  1.0
  Nb  Nb6  1  0.50000000  0.00000000  0.25861571  1.0
  Nb  Nb7  1  0.00000000  0.50000000  0.74138429  1.0
  O  O8  1  0.72698616  0.22698616  0.32784540  1.0
  O  O9  1  0.72698616  0.77301384  0.32784540  1.0
  O  O10  1  0.22698616  0.72698616  0.67215460  1.0
  O  O11  1  0.22698616  0.27301384  0.67215460  1.0
  O  O12  1  0.77301384  0.72698616  0.67215460  1.0
  O  O13  1  0.77301384  0.27301384  0.67215460  1.0
  O  O14  1  0.27301384  0.22698616  0.32784540  1.0
  O  O15  1  0.27301384  0.77301384  0.32784540  1.0
  O  O16  1  0.50000000  0.00000000  0.03954535  1.0
  O  O17  1  0.00000000  0.50000000  0.96045465  1.0
