# generated using pymatgen
data_Ba(PO3)2
_symmetry_space_group_name_H-M   'P 1'
_cell_length_a   4.54120629
_cell_length_b   8.62945618
_cell_length_c   13.83327396
_cell_angle_alpha   90.00000000
_cell_angle_beta   90.00000000
_cell_angle_gamma   90.00000000
_symmetry_Int_Tables_number   1
_chemical_formula_structural   Ba(PO3)2
_chemical_formula_sum   'Ba4 P8 O24'
_cell_volume   542.10028621
_cell_formula_units_Z   4
loop_
 _symmetry_equiv_pos_site_id
 _symmetry_equiv_pos_as_xyz
  1  'x, y, z'
loop_
 _atom_site_type_symbol
 _atom_site_label
 _atom_site_symmetry_multiplicity
 _atom_site_fract_x
 _atom_site_fract_y
 _atom_site_fract_z
 _atom_site_occupancy
  Ba  Ba0  1  0.49658768  0.47624537  0.63861999  1.0
  Ba  Ba1  1  0.99658768  0.02375463  0.36138001  1.0
  Ba  Ba2  1  0.50341232  0.97624537  0.86138001  1.0
  Ba  Ba3  1  0.00341232  0.52375463  0.13861999  1.0
  P  P4  1  0.45943951  0.54661748  0.91230801  1.0
  P  P5  1  0.95943951  0.95338252  0.08769199  1.0
  P  P6  1  0.54056049  0.04661748  0.58769199  1.0
  P  P7  1  0.04056049  0.45338252  0.41230801  1.0
  P  P8  1  0.03634121  0.85188357  0.64885621  1.0
  P  P9  1  0.53634121  0.64811643  0.35114379  1.0
  P  P10  1  0.96365879  0.35188357  0.85114379  1.0
  P  P11  1  0.46365879  0.14811643  0.14885621  1.0
  O  O12  1  0.47670336  0.65136929  0.82534647  1.0
  O  O13  1  0.97670336  0.84863071  0.17465353  1.0
  O  O14  1  0.52329664  0.15136929  0.67465353  1.0
  O  O15  1  0.02329664  0.34863071  0.32534647  1.0
  O  O16  1  0.37301858  0.88260061  0.61358125  1.0
  O  O17  1  0.87301858  0.61739939  0.38641875  1.0
  O  O18  1  0.62698142  0.38260061  0.88641875  1.0
  O  O19  1  0.12698142  0.11739939  0.11358125  1.0
  O  O20  1  0.04111681  0.89377576  -0.01073030  1.0
  O  O21  1  0.54111681  0.60622424  1.01073030  1.0
  O  O22  1  0.95888319  0.39377576  0.51073030  1.0
  O  O23  1  0.45888319  0.10622424  0.48926970  1.0
  O  O24  1  -0.00500004  0.90674190  0.75122361  1.0
  O  O25  1  0.49499996  0.59325810  0.24877639  1.0
  O  O26  1  1.00500004  0.40674190  0.74877639  1.0
  O  O27  1  0.50500004  0.09325810  0.25122361  1.0
  O  O28  1  0.97118491  0.68686602  0.62202993  1.0
  O  O29  1  0.47118491  0.81313398  0.37797007  1.0
  O  O30  1  0.02881509  0.18686602  0.87797007  1.0
  O  O31  1  0.52881509  0.31313398  0.12202993  1.0
  O  O32  1  0.86948695  0.97147183  0.57405775  1.0
  O  O33  1  0.36948695  0.52852817  0.42594225  1.0
  O  O34  1  0.13051305  0.47147183  0.92594225  1.0
  O  O35  1  0.63051305  0.02852817  0.07405775  1.0
