# generated using pymatgen
data_CaSiPt
_symmetry_space_group_name_H-M   'P 1'
_cell_length_a   7.16268584
_cell_length_b   4.37821841
_cell_length_c   7.23706806
_cell_angle_alpha   90.00000000
_cell_angle_beta   90.00000000
_cell_angle_gamma   90.00000000
_symmetry_Int_Tables_number   1
_chemical_formula_structural   CaSiPt
_chemical_formula_sum   'Ca4 Si4 Pt4'
_cell_volume   226.95302861
_cell_formula_units_Z   4
loop_
 _symmetry_equiv_pos_site_id
 _symmetry_equiv_pos_as_xyz
  1  'x, y, z'
loop_
 _atom_site_type_symbol
 _atom_site_label
 _atom_site_symmetry_multiplicity
 _atom_site_fract_x
 _atom_site_fract_y
 _atom_site_fract_z
 _atom_site_occupancy
  Ca  Ca0  1  0.99418994  0.75000000  0.68854409  1.0
  Ca  Ca1  1  0.49418994  0.75000000  0.81145591  1.0
  Ca  Ca2  1  0.00581006  0.25000000  0.31145591  1.0
  Ca  Ca3  1  0.50581006  0.25000000  0.18854409  1.0
  Si  Si4  1  0.82666555  0.75000000  0.08178909  1.0
  Si  Si5  1  0.32666555  0.75000000  0.41821091  1.0
  Si  Si6  1  0.17333445  0.25000000  0.91821091  1.0
  Si  Si7  1  0.67333445  0.25000000  0.58178909  1.0
  Pt  Pt8  1  0.69051848  0.75000000  0.40274761  1.0
  Pt  Pt9  1  0.19051848  0.75000000  0.09725239  1.0
  Pt  Pt10  1  0.30948152  0.25000000  0.59725239  1.0
  Pt  Pt11  1  0.80948152  0.25000000  0.90274761  1.0
