# generated using pymatgen
data_ScNiP
_symmetry_space_group_name_H-M   'P 1'
_cell_length_a   6.34398783
_cell_length_b   3.74141519
_cell_length_c   7.10251340
_cell_angle_alpha   90.00000000
_cell_angle_beta   90.00000000
_cell_angle_gamma   90.00000000
_symmetry_Int_Tables_number   1
_chemical_formula_structural   ScNiP
_chemical_formula_sum   'Sc4 Ni4 P4'
_cell_volume   168.58165287
_cell_formula_units_Z   4
loop_
 _symmetry_equiv_pos_site_id
 _symmetry_equiv_pos_as_xyz
  1  'x, y, z'
loop_
 _atom_site_type_symbol
 _atom_site_label
 _atom_site_symmetry_multiplicity
 _atom_site_fract_x
 _atom_site_fract_y
 _atom_site_fract_z
 _atom_site_occupancy
  Sc  Sc0  1  0.97871761  0.75000000  0.68444526  1.0
  Sc  Sc1  1  0.47871761  0.75000000  0.81555474  1.0
  Sc  Sc2  1  0.02128239  0.25000000  0.31555474  1.0
  Sc  Sc3  1  0.52128239  0.25000000  0.18444526  1.0
  Ni  Ni4  1  0.85983718  0.75000000  0.06076707  1.0
  Ni  Ni5  1  0.35983718  0.75000000  0.43923293  1.0
  Ni  Ni6  1  0.14016282  0.25000000  0.93923293  1.0
  Ni  Ni7  1  0.64016282  0.25000000  0.56076707  1.0
  P  P8  1  0.73406017  0.75000000  0.38098269  1.0
  P  P9  1  0.23406017  0.75000000  0.11901731  1.0
  P  P10  1  0.26593983  0.25000000  0.61901731  1.0
  P  P11  1  0.76593983  0.25000000  0.88098269  1.0
