# generated using pymatgen
data_Sb2O3
_symmetry_space_group_name_H-M   'P 1'
_cell_length_a   8.12840243
_cell_length_b   8.12840243
_cell_length_c   8.12840243
_cell_angle_alpha   60.00000000
_cell_angle_beta   60.00000000
_cell_angle_gamma   60.00000000
_symmetry_Int_Tables_number   1
_chemical_formula_structural   Sb2O3
_chemical_formula_sum   'Sb8 O12'
_cell_volume   379.75245722
_cell_formula_units_Z   4
loop_
 _symmetry_equiv_pos_site_id
 _symmetry_equiv_pos_as_xyz
  1  'x, y, z'
loop_
 _atom_site_type_symbol
 _atom_site_label
 _atom_site_symmetry_multiplicity
 _atom_site_fract_x
 _atom_site_fract_y
 _atom_site_fract_z
 _atom_site_occupancy
  Sb  Sb0  1  -0.13752073  0.86247927  0.41256220  1.0
  Sb  Sb1  1  0.86247927  -0.58743780  0.86247927  1.0
  Sb  Sb2  1  -0.58743780  0.86247927  0.86247927  1.0
  Sb  Sb3  1  0.86247927  -0.13752073  0.86247927  1.0
  Sb  Sb4  1  0.38752073  0.38752073  -0.16256220  1.0
  Sb  Sb5  1  0.38752073  -0.16256220  0.38752073  1.0
  Sb  Sb6  1  -0.16256220  0.38752073  0.38752073  1.0
  Sb  Sb7  1  0.38752073  0.38752073  0.38752073  1.0
  O  O8  1  0.56442507  -0.43557493  0.93557493  1.0
  O  O9  1  0.93557493  -0.43557493  0.93557493  1.0
  O  O10  1  0.56442507  -0.06442507  0.93557493  1.0
  O  O11  1  0.93557493  -0.06442507  0.56442507  1.0
  O  O12  1  0.56442507  -0.06442507  0.56442507  1.0
  O  O13  1  0.93557493  -0.43557493  0.56442507  1.0
  O  O14  1  -0.31442507  0.68557493  0.31442507  1.0
  O  O15  1  0.31442507  0.68557493  0.31442507  1.0
  O  O16  1  -0.31442507  1.31442507  0.31442507  1.0
  O  O17  1  0.31442507  0.31442507  -0.31442507  1.0
  O  O18  1  0.68557493  0.31442507  0.68557493  1.0
  O  O19  1  0.31442507  0.68557493  -0.31442507  1.0
