# generated using pymatgen
data_ZnAs2C12(NF)12
_symmetry_space_group_name_H-M   'P 1'
_cell_length_a   9.91410816
_cell_length_b   9.91410816
_cell_length_c   9.91410816
_cell_angle_alpha   58.87813555
_cell_angle_beta   58.87813555
_cell_angle_gamma   58.87813555
_symmetry_Int_Tables_number   1
_chemical_formula_structural   ZnAs2C12(NF)12
_chemical_formula_sum   'Zn1 As2 C12 N12 F12'
_cell_volume   671.39715973
_cell_formula_units_Z   1
loop_
 _symmetry_equiv_pos_site_id
 _symmetry_equiv_pos_as_xyz
  1  'x, y, z'
loop_
 _atom_site_type_symbol
 _atom_site_label
 _atom_site_symmetry_multiplicity
 _atom_site_fract_x
 _atom_site_fract_y
 _atom_site_fract_z
 _atom_site_occupancy
  Zn  Zn0  1  0.00000000  0.00000000  0.00000000  1.0
  As  As1  1  0.36261264  0.36261264  -0.63738736  1.0
  As  As2  1  0.63738736  0.63738736  -0.36261264  1.0
  C  C3  1  0.37543559  0.03006530  -0.17155858  1.0
  C  C4  1  1.17155858  -0.37543559  -0.03006530  1.0
  C  C5  1  0.96993470  0.17155858  -0.37543559  1.0
  C  C6  1  0.62456441  -0.03006530  0.17155858  1.0
  C  C7  1  0.82844142  -0.62456441  0.03006530  1.0
  C  C8  1  1.03006530  -0.17155858  -0.62456441  1.0
  C  C9  1  0.47101568  0.95404385  -0.76351600  1.0
  C  C10  1  0.76351600  -0.47101568  0.04595615  1.0
  C  C11  1  1.04595615  -0.23648400  -0.47101568  1.0
  C  C12  1  0.52898432  0.04595615  -0.23648400  1.0
  C  C13  1  0.23648400  0.47101568  -0.04595615  1.0
  C  C14  1  0.95404385  0.23648400  -0.52898432  1.0
  N  N15  1  0.34130532  0.94305764  -0.71654660  1.0
  N  N16  1  0.71654660  -0.34130532  0.05694236  1.0
  N  N17  1  1.05694236  -0.28345340  -0.34130532  1.0
  N  N18  1  0.65869468  0.05694236  -0.28345340  1.0
  N  N19  1  0.28345340  0.34130532  -0.05694236  1.0
  N  N20  1  0.94305764  0.28345340  -0.65869468  1.0
  N  N21  1  0.24583300  0.01441864  -0.10899177  1.0
  N  N22  1  1.10899177  -0.24583300  -0.01441864  1.0
  N  N23  1  0.98558136  0.10899177  -0.24583300  1.0
  N  N24  1  0.75416700  -0.01441864  0.10899177  1.0
  N  N25  1  0.89100823  -0.75416700  0.01441864  1.0
  N  N26  1  1.01441864  -0.10899177  -0.75416700  1.0
  F  F27  1  0.36839774  1.15118044  -0.56116505  1.0
  F  F28  1  0.56116505  -0.36839774  -0.15118044  1.0
  F  F29  1  0.84881956  -0.43883495  -0.36839774  1.0
  F  F30  1  0.63160226  -0.15118044  -0.43883495  1.0
  F  F31  1  0.43883495  0.36839774  0.15118044  1.0
  F  F32  1  1.15118044  0.43883495  -0.63160226  1.0
  F  F33  1  0.57469401  0.28601417  -0.64746488  1.0
  F  F34  1  0.64746488  0.42530599  -0.28601417  1.0
  F  F35  1  0.71398583  0.64746488  -0.57469401  1.0
  F  F36  1  0.42530599  0.71398583  -0.35253512  1.0
  F  F37  1  0.35253512  0.57469401  -0.71398583  1.0
  F  F38  1  0.28601417  0.35253512  -0.42530599  1.0
