# generated using pymatgen
data_Cu4H3C2N5
_symmetry_space_group_name_H-M   'P 1'
_cell_length_a   5.73040261
_cell_length_b   5.73040261
_cell_length_c   11.07451324
_cell_angle_alpha   90.00000000
_cell_angle_beta   90.00000000
_cell_angle_gamma   120.00000000
_symmetry_Int_Tables_number   1
_chemical_formula_structural   Cu4H3C2N5
_chemical_formula_sum   'Cu8 H6 C4 N10'
_cell_volume   314.93835173
_cell_formula_units_Z   2
loop_
 _symmetry_equiv_pos_site_id
 _symmetry_equiv_pos_as_xyz
  1  'x, y, z'
loop_
 _atom_site_type_symbol
 _atom_site_label
 _atom_site_symmetry_multiplicity
 _atom_site_fract_x
 _atom_site_fract_y
 _atom_site_fract_z
 _atom_site_occupancy
  Cu  Cu0  1  0.33579690  0.16789845  0.31455455  1.0
  Cu  Cu1  1  0.16789845  0.33579690  0.81455455  1.0
  Cu  Cu2  1  0.16789845  0.83210155  0.81455455  1.0
  Cu  Cu3  1  0.83210155  0.16789845  0.31455455  1.0
  Cu  Cu4  1  0.83210155  0.66420310  0.31455455  1.0
  Cu  Cu5  1  0.66420310  0.83210155  0.81455455  1.0
  Cu  Cu6  1  0.33333333  0.66666667  0.29271248  1.0
  Cu  Cu7  1  0.66666667  0.33333333  0.79271248  1.0
  H  H8  1  0.47322211  0.23661105  0.00246904  1.0
  H  H9  1  0.23661105  0.47322211  0.50246904  1.0
  H  H10  1  0.23661105  0.76338895  0.50246904  1.0
  H  H11  1  0.76338895  0.23661105  0.00246904  1.0
  H  H12  1  0.76338895  0.52677789  0.00246904  1.0
  H  H13  1  0.52677789  0.76338895  0.50246904  1.0
  C  C14  1  0.33333333  0.66666667  0.01848821  1.0
  C  C15  1  0.66666667  0.33333333  0.51848821  1.0
  C  C16  1  0.00000000  0.00000000  0.11359413  1.0
  C  C17  1  0.00000000  0.00000000  0.61359413  1.0
  N  N18  1  0.33333333  0.66666667  0.12561126  1.0
  N  N19  1  0.66666667  0.33333333  0.62561126  1.0
  N  N20  1  0.33333333  0.66666667  0.46939506  1.0
  N  N21  1  0.66666667  0.33333333  0.96939506  1.0
  N  N22  1  0.33333333  0.66666667  0.90185620  1.0
  N  N23  1  0.66666667  0.33333333  0.40185620  1.0
  N  N24  1  0.00000000  0.00000000  0.00575051  1.0
  N  N25  1  0.00000000  0.00000000  0.50575051  1.0
  N  N26  1  0.00000000  0.00000000  0.23032137  1.0
  N  N27  1  0.00000000  0.00000000  0.73032137  1.0
