# generated using pymatgen
data_AuC2S2BrN4
_symmetry_space_group_name_H-M   'P 1'
_cell_length_a   10.13031597
_cell_length_b   10.13031597
_cell_length_c   8.86270918
_cell_angle_alpha   81.66973475
_cell_angle_beta   98.33026525
_cell_angle_gamma   47.64255166
_symmetry_Int_Tables_number   1
_chemical_formula_structural   AuC2S2BrN4
_chemical_formula_sum   'Au2 C4 S4 Br2 N8'
_cell_volume   627.36612762
_cell_formula_units_Z   2
loop_
 _symmetry_equiv_pos_site_id
 _symmetry_equiv_pos_as_xyz
  1  'x, y, z'
loop_
 _atom_site_type_symbol
 _atom_site_label
 _atom_site_symmetry_multiplicity
 _atom_site_fract_x
 _atom_site_fract_y
 _atom_site_fract_z
 _atom_site_occupancy
  Br  Br0  1  0.71375552  -0.28624448  0.75000000  1.0
  Br  Br1  1  0.28624448  0.28624448  0.25000000  1.0
  S  S2  1  0.91953819  -0.16317232  0.04897698  1.0
  S  S3  1  1.16317232  -0.91953819  0.54897698  1.0
  S  S4  1  0.83682768  -0.08046181  0.45102302  1.0
  S  S5  1  0.08046181  0.16317232  -0.04897698  1.0
  C  C6  1  0.71198576  -0.03340589  0.91262031  1.0
  C  C7  1  1.03340589  -0.71198576  0.41262031  1.0
  C  C8  1  0.96659411  -0.28801424  0.58737969  1.0
  C  C9  1  0.28801424  0.03340589  0.08737969  1.0
  Au  Au10  1  0.00000000  0.00000000  0.00000000  1.0
  Au  Au11  1  -0.00000000  0.00000000  0.50000000  1.0
  N  N12  1  0.57026071  -0.02389463  0.85442111  1.0
  N  N13  1  1.02389463  -0.57026071  0.35442111  1.0
  N  N14  1  0.97610537  -0.42973929  0.64557889  1.0
  N  N15  1  0.42973929  0.02389463  0.14557889  1.0
  N  N16  1  0.56349778  0.11163121  0.78234396  1.0
  N  N17  1  0.88836879  -0.56349778  0.28234396  1.0
  N  N18  1  1.11163121  -0.43650222  0.71765604  1.0
  N  N19  1  0.43650222  -0.11163121  0.21765604  1.0
