# generated using pymatgen
data_Co2SiO4
_symmetry_space_group_name_H-M   'P 1'
_cell_length_a   7.67767380
_cell_length_b   7.67767380
_cell_length_c   7.67767380
_cell_angle_alpha   135.86226740
_cell_angle_beta   82.85939246
_cell_angle_gamma   113.99374466
_symmetry_Int_Tables_number   1
_chemical_formula_structural   Co2SiO4
_chemical_formula_sum   'Co8 Si4 O16'
_cell_volume   277.77069684
_cell_formula_units_Z   4
loop_
 _symmetry_equiv_pos_site_id
 _symmetry_equiv_pos_as_xyz
  1  'x, y, z'
loop_
 _atom_site_type_symbol
 _atom_site_label
 _atom_site_symmetry_multiplicity
 _atom_site_fract_x
 _atom_site_fract_y
 _atom_site_fract_z
 _atom_site_occupancy
  O  O0  1  1.46852840  0.71852840  0.75000000  1.0
  O  O1  1  0.53147160  0.28147160  0.25000000  1.0
  O  O2  1  0.97465025  1.22465025  0.75000000  1.0
  O  O3  1  1.02534975  0.77534975  1.25000000  1.0
  O  O4  1  0.87006204  0.72988496  0.61211745  1.0
  O  O5  1  1.38223250  0.74205541  1.11211745  1.0
  O  O6  1  1.12993796  0.74205541  0.85982291  1.0
  O  O7  1  0.61776750  0.72988496  0.35982291  1.0
  O  O8  1  0.87006204  1.25794459  1.14017709  1.0
  O  O9  1  1.38223250  1.27011504  1.64017709  1.0
  O  O10  1  1.12993796  1.27011504  1.38788255  1.0
  O  O11  1  0.61776750  1.25794459  0.88788255  1.0
  O  O12  1  1.73067752  0.74432670  0.98635082  1.0
  O  O13  1  1.74202412  1.25567330  1.48635082  1.0
  O  O14  1  0.26932248  0.25567330  0.01364918  1.0
  O  O15  1  0.25797588  0.74432670  0.51364918  1.0
  Co  Co16  1  1.12836184  0.50000000  1.12836184  1.0
  Co  Co17  1  1.12836184  1.00000000  1.62836184  1.0
  Co  Co18  1  0.87163816  1.00000000  0.37163816  1.0
  Co  Co19  1  0.87163816  1.50000000  0.87163816  1.0
  Co  Co20  1  0.00000000  0.00000000  0.00000000  1.0
  Co  Co21  1  0.50000000  1.00000000  0.50000000  1.0
  Co  Co22  1  0.73434233  0.98434233  0.75000000  1.0
  Co  Co23  1  1.26565767  1.01565767  1.25000000  1.0
  Si  Si24  1  1.49429040  0.61706412  0.87722627  1.0
  Si  Si25  1  0.76016215  0.38293588  0.37722627  1.0
  Si  Si26  1  0.50570960  0.38293588  0.12277373  1.0
  Si  Si27  1  1.23983785  0.61706412  0.62277373  1.0
