# generated using pymatgen
data_H4C2N7
_symmetry_space_group_name_H-M   'P 1'
_cell_length_a   7.88944168
_cell_length_b   7.88944168
_cell_length_c   6.39326881
_cell_angle_alpha   62.32599277
_cell_angle_beta   117.67400723
_cell_angle_gamma   85.03072976
_symmetry_Int_Tables_number   1
_chemical_formula_structural   H4C2N7
_chemical_formula_sum   'H8 C4 N14'
_cell_volume   287.98121331
_cell_formula_units_Z   2
loop_
 _symmetry_equiv_pos_site_id
 _symmetry_equiv_pos_as_xyz
  1  'x, y, z'
loop_
 _atom_site_type_symbol
 _atom_site_label
 _atom_site_symmetry_multiplicity
 _atom_site_fract_x
 _atom_site_fract_y
 _atom_site_fract_z
 _atom_site_occupancy
  H  H0  1  0.66352955  -0.13793990  0.43793542  1.0
  H  H1  1  1.13793990  0.33647045  0.43793542  1.0
  H  H2  1  0.86206010  -0.33647045  0.56206458  1.0
  H  H3  1  1.33647045  0.13793990  0.56206458  1.0
  H  H4  1  1.39014995  0.29488872  0.67546146  1.0
  H  H5  1  0.70511128  -0.39014995  0.67546146  1.0
  H  H6  1  1.29488872  0.39014995  0.32453854  1.0
  H  H7  1  0.60985005  -0.29488872  0.32453854  1.0
  C  C8  1  0.90932795  -0.90932795  0.72805188  1.0
  C  C9  1  0.09067205  -0.09067205  0.27194812  1.0
  C  C10  1  0.80619550  -0.80619550  0.41958666  1.0
  C  C11  1  0.19380450  -0.19380450  0.58041334  1.0
  N  N12  1  0.85054299  -0.05683727  0.86095552  1.0
  N  N13  1  1.05683727  0.14945701  0.86095552  1.0
  N  N14  1  0.94316273  -0.14945701  0.13904448  1.0
  N  N15  1  1.14945701  0.05683727  0.13904448  1.0
  N  N16  1  0.34351902  -0.15187857  0.74143497  1.0
  N  N17  1  1.15187857  0.65648098  0.74143497  1.0
  N  N18  1  0.84812143  -0.65648098  0.25856503  1.0
  N  N19  1  1.65648098  0.15187857  0.25856503  1.0
  N  N20  1  1.60514683  0.28018650  0.99295094  1.0
  N  N21  1  0.71981350  -0.60514683  0.99295094  1.0
  N  N22  1  1.28018650  0.60514683  0.00704906  1.0
  N  N23  1  0.39485317  -0.28018650  0.00704906  1.0
  N  N24  1  0.70956831  -0.29043169  0.50000000  1.0
  N  N25  1  1.29043169  0.29043169  0.50000000  1.0
