# generated using pymatgen
data_In2Au3
_symmetry_space_group_name_H-M   'P 1'
_cell_length_a   4.69001293
_cell_length_b   4.69001293
_cell_length_c   5.76318652
_cell_angle_alpha   90.00000000
_cell_angle_beta   90.00000000
_cell_angle_gamma   120.00000000
_symmetry_Int_Tables_number   1
_chemical_formula_structural   In2Au3
_chemical_formula_sum   'In2 Au3'
_cell_volume   109.78459068
_cell_formula_units_Z   1
loop_
 _symmetry_equiv_pos_site_id
 _symmetry_equiv_pos_as_xyz
  1  'x, y, z'
loop_
 _atom_site_type_symbol
 _atom_site_label
 _atom_site_symmetry_multiplicity
 _atom_site_fract_x
 _atom_site_fract_y
 _atom_site_fract_z
 _atom_site_occupancy
  In  In0  1  0.33333333  0.66666667  0.32145092  1.0
  In  In1  1  0.66666667  0.33333333  0.67854908  1.0
  Au  Au2  1  -0.00000000  -0.00000000  0.00000000  1.0
  Au  Au3  1  0.33333333  0.66666667  0.80910452  1.0
  Au  Au4  1  0.66666667  0.33333333  0.19089548  1.0
