# generated using pymatgen
data_Sr6MnIn(BO3)6
_symmetry_space_group_name_H-M   'P 1'
_cell_length_a   7.69624284
_cell_length_b   7.69624284
_cell_length_c   7.69624284
_cell_angle_alpha   105.22230507
_cell_angle_beta   105.22230507
_cell_angle_gamma   105.22230507
_symmetry_Int_Tables_number   1
_chemical_formula_structural   Sr6MnIn(BO3)6
_chemical_formula_sum   'Sr6 Mn1 In1 B6 O18'
_cell_volume   396.62263381
_cell_formula_units_Z   1
loop_
 _symmetry_equiv_pos_site_id
 _symmetry_equiv_pos_as_xyz
  1  'x, y, z'
loop_
 _atom_site_type_symbol
 _atom_site_label
 _atom_site_symmetry_multiplicity
 _atom_site_fract_x
 _atom_site_fract_y
 _atom_site_fract_z
 _atom_site_occupancy
  Sr  Sr0  1  0.76545682  0.66506601  0.15281707  1.0
  Sr  Sr1  1  1.33493399  -0.15281707  0.23454318  1.0
  Sr  Sr2  1  0.84718293  0.23454318  0.33493399  1.0
  Sr  Sr3  1  1.23454318  0.33493399  -0.15281707  1.0
  Sr  Sr4  1  0.66506601  1.15281707  -0.23454318  1.0
  Sr  Sr5  1  1.15281707  0.76545682  -0.33493399  1.0
  Mn  Mn6  1  0.00000000  0.00000000  0.00000000  1.0
  In  In7  1  0.50000000  0.50000000  0.50000000  1.0
  B  B8  1  1.54733287  0.79198781  -0.12627655  1.0
  B  B9  1  1.20801219  0.12627655  -0.54733287  1.0
  B  B10  1  1.12627655  -0.54733287  0.20801219  1.0
  B  B11  1  0.45266713  0.20801219  0.12627655  1.0
  B  B12  1  0.79198781  0.87372345  0.54733287  1.0
  B  B13  1  0.87372345  1.54733287  -0.20801219  1.0
  O  O14  1  0.72575266  0.93054018  -0.00054141  1.0
  O  O15  1  1.06945982  0.00054141  -0.72575266  1.0
  O  O16  1  1.00054141  -0.72575266  0.06945982  1.0
  O  O17  1  0.27424734  0.06945982  0.00054141  1.0
  O  O18  1  0.93054018  0.99945859  -0.27424734  1.0
  O  O19  1  0.99945859  0.72575266  -0.06945982  1.0
  O  O20  1  1.48883658  0.77038386  -0.32104672  1.0
  O  O21  1  1.22961614  0.32104672  -0.48883658  1.0
  O  O22  1  1.32104672  -0.48883658  0.22961614  1.0
  O  O23  1  0.51116342  0.22961614  0.32104672  1.0
  O  O24  1  0.77038386  0.67895328  0.48883658  1.0
  O  O25  1  0.67895328  1.48883658  -0.22961614  1.0
  O  O26  1  0.57320527  0.30620559  0.05328265  1.0
  O  O27  1  0.69379441  0.94671735  0.42679473  1.0
  O  O28  1  0.94671735  1.42679473  -0.30620559  1.0
  O  O29  1  1.42679473  0.69379441  -0.05328265  1.0
  O  O30  1  1.30620559  0.05328265  -0.42679473  1.0
  O  O31  1  1.05328265  -0.42679473  0.30620559  1.0
