# generated using pymatgen
data_ReSi
_symmetry_space_group_name_H-M   'P 1'
_cell_length_a   4.79673317
_cell_length_b   4.79673317
_cell_length_c   4.79673317
_cell_angle_alpha   90.00000000
_cell_angle_beta   90.00000000
_cell_angle_gamma   90.00000000
_symmetry_Int_Tables_number   1
_chemical_formula_structural   ReSi
_chemical_formula_sum   'Re4 Si4'
_cell_volume   110.36635020
_cell_formula_units_Z   4
loop_
 _symmetry_equiv_pos_site_id
 _symmetry_equiv_pos_as_xyz
  1  'x, y, z'
loop_
 _atom_site_type_symbol
 _atom_site_label
 _atom_site_symmetry_multiplicity
 _atom_site_fract_x
 _atom_site_fract_y
 _atom_site_fract_z
 _atom_site_occupancy
  Re  Re0  1  0.11562717  0.61562717  0.88437283  1.0
  Re  Re1  1  0.61562717  0.88437283  0.11562717  1.0
  Re  Re2  1  0.88437283  0.11562717  0.61562717  1.0
  Re  Re3  1  0.38437283  0.38437283  0.38437283  1.0
  Si  Si4  1  0.40547459  0.90547459  0.59452541  1.0
  Si  Si5  1  0.90547459  0.59452541  0.40547459  1.0
  Si  Si6  1  0.59452541  0.40547459  0.90547459  1.0
  Si  Si7  1  0.09452541  0.09452541  0.09452541  1.0
