# generated using pymatgen
data_Rb2Cd(IBr)2
_symmetry_space_group_name_H-M   'P 1'
_cell_length_a   7.48048824
_cell_length_b   7.48048824
_cell_length_c   11.90978879
_cell_angle_alpha   90.00000000
_cell_angle_beta   90.00000000
_cell_angle_gamma   70.61952200
_symmetry_Int_Tables_number   1
_chemical_formula_structural   Rb2Cd(IBr)2
_chemical_formula_sum   'Rb4 Cd2 I4 Br4'
_cell_volume   628.68088386
_cell_formula_units_Z   2
loop_
 _symmetry_equiv_pos_site_id
 _symmetry_equiv_pos_as_xyz
  1  'x, y, z'
loop_
 _atom_site_type_symbol
 _atom_site_label
 _atom_site_symmetry_multiplicity
 _atom_site_fract_x
 _atom_site_fract_y
 _atom_site_fract_z
 _atom_site_occupancy
  Rb  Rb0  1  -0.63553649  1.28410537  0.25000000  1.0
  Rb  Rb1  1  -0.28410537  1.63553649  0.75000000  1.0
  Rb  Rb2  1  -0.00071401  0.00071401  0.50000000  1.0
  Rb  Rb3  1  -0.00071401  0.00071401  0.00000000  1.0
  Cd  Cd4  1  -0.24162923  1.67983205  0.25000000  1.0
  Cd  Cd5  1  -0.67983205  1.24162923  0.75000000  1.0
  I  I6  1  0.14110117  0.43896022  0.94315745  1.0
  I  I7  1  0.56103978  0.85889883  0.44315745  1.0
  I  I8  1  0.56103978  0.85889883  0.05684255  1.0
  I  I9  1  0.14110117  0.43896022  0.55684255  1.0
  Br  Br10  1  0.08782071  0.74518226  0.25000000  1.0
  Br  Br11  1  0.25481774  0.91217929  0.75000000  1.0
  Br  Br12  1  -0.16430167  1.30748752  0.25000000  1.0
  Br  Br13  1  -0.30748752  1.16430167  0.75000000  1.0
