# generated using pymatgen
data_Ba2Mn3(PO)2
_symmetry_space_group_name_H-M   'P 1'
_cell_length_a   10.52341933
_cell_length_b   10.52341933
_cell_length_c   10.52341933
_cell_angle_alpha   158.49494561
_cell_angle_beta   158.49494561
_cell_angle_gamma   30.59679882
_symmetry_Int_Tables_number   1
_chemical_formula_structural   Ba2Mn3(PO)2
_chemical_formula_sum   'Ba2 Mn3 P2 O2'
_cell_volume   156.50686843
_cell_formula_units_Z   1
loop_
 _symmetry_equiv_pos_site_id
 _symmetry_equiv_pos_as_xyz
  1  'x, y, z'
loop_
 _atom_site_type_symbol
 _atom_site_label
 _atom_site_symmetry_multiplicity
 _atom_site_fract_x
 _atom_site_fract_y
 _atom_site_fract_z
 _atom_site_occupancy
  Ba  Ba0  1  0.59696482  0.59696482  1.00000000  1.0
  Ba  Ba1  1  0.40303518  0.40303518  0.00000000  1.0
  Mn  Mn2  1  0.25000000  0.75000000  0.50000000  1.0
  Mn  Mn3  1  0.75000000  0.25000000  0.50000000  1.0
  Mn  Mn4  1  0.00000000  0.00000000  0.00000000  1.0
  P  P5  1  0.80763181  0.80763181  1.00000000  1.0
  P  P6  1  0.19236819  0.19236819  0.00000000  1.0
  O  O7  1  0.50000000  0.00000000  0.50000000  1.0
  O  O8  1  0.00000000  0.50000000  0.50000000  1.0
