# generated using pymatgen
data_Cr3(P2O7)2
_symmetry_space_group_name_H-M   'P 1'
_cell_length_a   12.80065039
_cell_length_b   8.01096800
_cell_length_c   4.78147131
_cell_angle_alpha   87.46439871
_cell_angle_beta   89.65470131
_cell_angle_gamma   89.54830504
_symmetry_Int_Tables_number   1
_chemical_formula_structural   Cr3(P2O7)2
_chemical_formula_sum   'Cr6 P8 O28'
_cell_volume   489.81565602
_cell_formula_units_Z   2
loop_
 _symmetry_equiv_pos_site_id
 _symmetry_equiv_pos_as_xyz
  1  'x, y, z'
loop_
 _atom_site_type_symbol
 _atom_site_label
 _atom_site_symmetry_multiplicity
 _atom_site_fract_x
 _atom_site_fract_y
 _atom_site_fract_z
 _atom_site_occupancy
  Cr  Cr0  1  -0.23218815  -0.99269864  -0.77101077  1.0
  Cr  Cr1  1  -0.76781185  -0.00730136  -0.22898923  1.0
  Cr  Cr2  1  -0.73745930  -0.51104595  -0.28675933  1.0
  Cr  Cr3  1  -0.26254070  -0.48895405  -0.71324067  1.0
  Cr  Cr4  1  -0.50000000  -0.50000000  -0.50000000  1.0
  Cr  Cr5  1  0.00000000  0.00000000  0.00000000  1.0
  P  P6  1  -0.43688101  -0.74890243  -0.96916609  1.0
  P  P7  1  -0.56311899  -0.25109757  -0.03083391  1.0
  P  P8  1  -0.84870885  -0.29483298  -0.77041722  1.0
  P  P9  1  -0.15129115  -0.70516702  -0.22958278  1.0
  P  P10  1  -0.65634254  -0.76277883  -0.75370460  1.0
  P  P11  1  -0.34365746  -0.23722117  -0.24629540  1.0
  P  P12  1  -0.93794574  -0.74769076  -0.49435898  1.0
  P  P13  1  -0.06205426  -0.25230924  -0.50564102  1.0
  O  O14  1  -0.82195840  -0.41928493  -0.98927040  1.0
  O  O15  1  -0.17804160  -0.58071507  -0.01072960  1.0
  O  O16  1  -0.29084969  -0.27791869  -0.96256880  1.0
  O  O17  1  -0.70915031  -0.72208131  -0.03743120  1.0
  O  O18  1  -0.35398751  -0.88216217  -0.94005514  1.0
  O  O19  1  -0.64601249  -0.11783783  -0.05994486  1.0
  O  O20  1  -0.86137199  -0.11088897  -0.89984489  1.0
  O  O21  1  -0.13862801  -0.88911103  -0.10015511  1.0
  O  O22  1  -0.53780230  -0.82521903  -0.80801988  1.0
  O  O23  1  -0.46219770  -0.17478097  -0.19198012  1.0
  O  O24  1  -0.40722724  -0.58773262  -0.80529130  1.0
  O  O25  1  -0.59277276  -0.41226738  -0.19470870  1.0
  O  O26  1  -0.96665266  -0.79580969  -0.78812510  1.0
  O  O27  1  -0.03334734  -0.20419031  -0.21187490  1.0
  O  O28  1  -0.53328408  -0.29960705  -0.73091515  1.0
  O  O29  1  -0.46671592  -0.70039295  -0.26908485  1.0
  O  O30  1  -0.96515548  -0.33996568  -0.65859768  1.0
  O  O31  1  -0.03484452  -0.66003432  -0.34140232  1.0
  O  O32  1  -0.70703290  -0.90137547  -0.58011465  1.0
  O  O33  1  -0.29296710  -0.09862453  -0.41988535  1.0
  O  O34  1  -0.63982327  -0.59723115  -0.58936962  1.0
  O  O35  1  -0.36017673  -0.40276885  -0.41063038  1.0
  O  O36  1  -0.77492201  -0.29881557  -0.51732390  1.0
  O  O37  1  -0.22507799  -0.70118443  -0.48267610  1.0
  O  O38  1  -0.84964647  -0.62389235  -0.47858243  1.0
  O  O39  1  -0.15035353  -0.37610765  -0.52141757  1.0
  O  O40  1  -0.91298692  -0.91137685  -0.31104457  1.0
  O  O41  1  -0.08701308  -0.08862315  -0.68895543  1.0
