# generated using pymatgen
data_Hf2Si4Ru3
_symmetry_space_group_name_H-M   'P 1'
_cell_length_a   9.86461511
_cell_length_b   9.86461511
_cell_length_c   13.29439341
_cell_angle_alpha   54.01777795
_cell_angle_beta   125.98222205
_cell_angle_gamma   148.54470204
_symmetry_Int_Tables_number   1
_chemical_formula_structural   Hf2Si4Ru3
_chemical_formula_sum   'Hf8 Si16 Ru12'
_cell_volume   534.73990487
_cell_formula_units_Z   4
loop_
 _symmetry_equiv_pos_site_id
 _symmetry_equiv_pos_as_xyz
  1  'x, y, z'
loop_
 _atom_site_type_symbol
 _atom_site_label
 _atom_site_symmetry_multiplicity
 _atom_site_fract_x
 _atom_site_fract_y
 _atom_site_fract_z
 _atom_site_occupancy
  Hf  Hf0  1  1.70605664  0.03794154  0.13782857  1.0
  Hf  Hf1  1  0.96205846  -0.70605664  0.63782857  1.0
  Hf  Hf2  1  1.03794154  0.70605664  0.36217143  1.0
  Hf  Hf3  1  0.29394336  -0.03794154  0.86217143  1.0
  Hf  Hf4  1  0.44509311  0.29831344  0.14821070  1.0
  Hf  Hf5  1  0.70168656  0.55490689  0.64821070  1.0
  Hf  Hf6  1  1.29831344  -0.55490689  0.35178930  1.0
  Hf  Hf7  1  1.55490689  -0.29831344  0.85178930  1.0
  Si  Si8  1  0.74456250  -0.02896051  0.39427889  1.0
  Si  Si9  1  1.02896051  -0.74456250  0.89427889  1.0
  Si  Si10  1  0.97103949  0.74456250  0.10572111  1.0
  Si  Si11  1  1.25543750  0.02896051  0.60572111  1.0
  Si  Si12  1  0.61160872  0.14231311  0.39555943  1.0
  Si  Si13  1  0.85768689  -0.61160872  0.89555943  1.0
  Si  Si14  1  1.14231311  0.61160872  0.10444057  1.0
  Si  Si15  1  1.38839128  -0.14231311  0.60444057  1.0
  Si  Si16  1  0.42768214  0.08646168  0.06437242  1.0
  Si  Si17  1  0.91353832  -0.42768214  0.56437242  1.0
  Si  Si18  1  1.08646168  0.42768214  0.43562758  1.0
  Si  Si19  1  1.57231786  -0.08646168  0.93562758  1.0
  Si  Si20  1  0.61934814  0.61934814  0.25000000  1.0
  Si  Si21  1  0.38065186  0.38065186  0.75000000  1.0
  Si  Si22  1  0.12781937  0.12781937  0.25000000  1.0
  Si  Si23  1  0.87218063  0.87218063  0.75000000  1.0
  Ru  Ru24  1  1.86670761  -0.09104074  0.08429870  1.0
  Ru  Ru25  1  1.09104074  -0.86670761  0.58429870  1.0
  Ru  Ru26  1  0.90895926  0.86670761  0.41570130  1.0
  Ru  Ru27  1  0.13329239  0.09104074  0.91570130  1.0
  Ru  Ru28  1  0.35005054  -0.17411445  0.28032529  1.0
  Ru  Ru29  1  1.17411445  -0.35005054  0.78032529  1.0
  Ru  Ru30  1  0.82588555  0.35005054  0.21967471  1.0
  Ru  Ru31  1  1.64994946  0.17411445  0.71967471  1.0
  Ru  Ru32  1  0.47917608  0.23372668  0.43256503  1.0
  Ru  Ru33  1  0.76627332  0.52082392  0.93256503  1.0
  Ru  Ru34  1  1.23372668  -0.52082392  0.06743497  1.0
  Ru  Ru35  1  1.52082392  -0.23372668  0.56743497  1.0
