# generated using pymatgen
data_Ba2TiS4
_symmetry_space_group_name_H-M   'P 1'
_cell_length_a   9.10563791
_cell_length_b   6.90170845
_cell_length_c   12.62226240
_cell_angle_alpha   90.00000000
_cell_angle_beta   90.00000000
_cell_angle_gamma   90.00000000
_symmetry_Int_Tables_number   1
_chemical_formula_structural   Ba2TiS4
_chemical_formula_sum   'Ba8 Ti4 S16'
_cell_volume   793.23923987
_cell_formula_units_Z   4
loop_
 _symmetry_equiv_pos_site_id
 _symmetry_equiv_pos_as_xyz
  1  'x, y, z'
loop_
 _atom_site_type_symbol
 _atom_site_label
 _atom_site_symmetry_multiplicity
 _atom_site_fract_x
 _atom_site_fract_y
 _atom_site_fract_z
 _atom_site_occupancy
  Ba  Ba0  1  0.86850886  0.75000000  0.42667653  1.0
  Ba  Ba1  1  0.36850886  0.75000000  0.07332347  1.0
  Ba  Ba2  1  0.13149114  0.25000000  0.57332347  1.0
  Ba  Ba3  1  0.63149114  0.25000000  0.92667653  1.0
  Ba  Ba4  1  0.52244199  0.75000000  0.67543491  1.0
  Ba  Ba5  1  0.02244199  0.75000000  0.82456509  1.0
  Ba  Ba6  1  0.47755801  0.25000000  0.32456509  1.0
  Ba  Ba7  1  0.97755801  0.25000000  0.17543491  1.0
  Ti  Ti8  1  0.77387329  0.75000000  0.07269357  1.0
  Ti  Ti9  1  0.27387329  0.75000000  0.42730643  1.0
  Ti  Ti10  1  0.22612671  0.25000000  0.92730643  1.0
  Ti  Ti11  1  0.72612671  0.25000000  0.57269357  1.0
  S  S12  1  0.19196700  0.75000000  0.59677373  1.0
  S  S13  1  0.69196700  0.75000000  0.90322627  1.0
  S  S14  1  0.80803300  0.25000000  0.40322627  1.0
  S  S15  1  0.30803300  0.25000000  0.09677373  1.0
  S  S16  1  0.66939703  0.00830206  0.14906195  1.0
  S  S17  1  0.66939703  0.49169794  0.14906195  1.0
  S  S18  1  0.16939703  0.00830206  0.35093805  1.0
  S  S19  1  0.16939703  0.49169794  0.35093805  1.0
  S  S20  1  0.33060297  0.50830206  0.85093805  1.0
  S  S21  1  0.33060297  0.99169794  0.85093805  1.0
  S  S22  1  0.83060297  0.50830206  0.64906195  1.0
  S  S23  1  0.83060297  0.99169794  0.64906195  1.0
  S  S24  1  0.02060721  0.75000000  0.08765265  1.0
  S  S25  1  0.52060721  0.75000000  0.41234735  1.0
  S  S26  1  0.97939279  0.25000000  0.91234735  1.0
  S  S27  1  0.47939279  0.25000000  0.58765265  1.0
