# generated using pymatgen
data_Gd2HfS5
_symmetry_space_group_name_H-M   'P 1'
_cell_length_a   11.54944006
_cell_length_b   7.83377888
_cell_length_c   7.29986124
_cell_angle_alpha   90.00000000
_cell_angle_beta   90.00000000
_cell_angle_gamma   90.00000000
_symmetry_Int_Tables_number   1
_chemical_formula_structural   Gd2HfS5
_chemical_formula_sum   'Gd8 Hf4 S20'
_cell_volume   660.46049037
_cell_formula_units_Z   4
loop_
 _symmetry_equiv_pos_site_id
 _symmetry_equiv_pos_as_xyz
  1  'x, y, z'
loop_
 _atom_site_type_symbol
 _atom_site_label
 _atom_site_symmetry_multiplicity
 _atom_site_fract_x
 _atom_site_fract_y
 _atom_site_fract_z
 _atom_site_occupancy
  Gd  Gd0  1  0.32208019  0.49793792  0.52659569  1.0
  Gd  Gd1  1  0.82208019  0.00206208  0.97340431  1.0
  Gd  Gd2  1  0.67791981  -0.00206208  0.47340431  1.0
  Gd  Gd3  1  0.17791981  0.50206208  0.02659569  1.0
  Gd  Gd4  1  0.67791981  0.50206208  0.47340431  1.0
  Gd  Gd5  1  0.17791981  -0.00206208  0.02659569  1.0
  Gd  Gd6  1  0.32208019  0.00206208  0.52659569  1.0
  Gd  Gd7  1  0.82208019  0.49793792  0.97340431  1.0
  Hf  Hf8  1  0.49329610  0.75000000  0.07523393  1.0
  Hf  Hf9  1  0.99329610  0.75000000  0.42476607  1.0
  Hf  Hf10  1  0.50670390  0.25000000  0.92476607  1.0
  Hf  Hf11  1  0.00670390  0.25000000  0.57523393  1.0
  S  S12  1  0.59023939  0.96372302  0.83748127  1.0
  S  S13  1  0.09023939  0.53627698  0.66251873  1.0
  S  S14  1  0.40976061  0.46372302  0.16251873  1.0
  S  S15  1  0.90976061  0.03627698  0.33748127  1.0
  S  S16  1  0.40976061  0.03627698  0.16251873  1.0
  S  S17  1  0.90976061  0.46372302  0.33748127  1.0
  S  S18  1  0.59023939  0.53627698  0.83748127  1.0
  S  S19  1  0.09023939  0.96372302  0.66251873  1.0
  S  S20  1  0.31771376  0.75000000  0.83729581  1.0
  S  S21  1  0.81771376  0.75000000  0.66270419  1.0
  S  S22  1  0.68228624  0.25000000  0.16270419  1.0
  S  S23  1  0.18228624  0.25000000  0.33729581  1.0
  S  S24  1  0.49578236  0.75000000  0.44583384  1.0
  S  S25  1  0.99578236  0.75000000  0.05416616  1.0
  S  S26  1  0.50421764  0.25000000  0.55416616  1.0
  S  S27  1  0.00421764  0.25000000  0.94583384  1.0
  S  S28  1  0.70677405  0.75000000  0.18511375  1.0
  S  S29  1  0.20677405  0.75000000  0.31488625  1.0
  S  S30  1  0.29322595  0.25000000  0.81488625  1.0
  S  S31  1  0.79322595  0.25000000  0.68511375  1.0
