# generated using pymatgen
data_SiH2(C2F5)2
_symmetry_space_group_name_H-M   'P 1'
_cell_length_a   10.13610985
_cell_length_b   10.09545932
_cell_length_c   13.73029624
_cell_angle_alpha   47.38592699
_cell_angle_beta   47.13675133
_cell_angle_gamma   85.47732168
_symmetry_Int_Tables_number   1
_chemical_formula_structural   SiH2(C2F5)2
_chemical_formula_sum   'Si2 H4 C8 F20'
_cell_volume   535.50726061
_cell_formula_units_Z   2
loop_
 _symmetry_equiv_pos_site_id
 _symmetry_equiv_pos_as_xyz
  1  'x, y, z'
loop_
 _atom_site_type_symbol
 _atom_site_label
 _atom_site_symmetry_multiplicity
 _atom_site_fract_x
 _atom_site_fract_y
 _atom_site_fract_z
 _atom_site_occupancy
  Si  Si0  1  0.82926800  0.82926800  0.17073200  1.0
  Si  Si1  1  1.07926800  0.07926800  0.42073200  1.0
  H  H2  1  0.64051888  0.73733579  0.38834642  1.0
  H  H3  1  0.73733579  0.64051888  0.23379891  1.0
  H  H4  1  0.86165358  0.01620109  0.60948112  1.0
  H  H5  1  0.01620109  0.86165358  0.51266421  1.0
  C  C6  1  0.13663244  -0.05652682  1.01725571  1.0
  C  C7  1  -0.05652682  0.13663244  0.90263867  1.0
  C  C8  1  0.23274429  0.34736133  1.11336756  1.0
  C  C9  1  0.34736133  0.23274429  0.30652682  1.0
  C  C10  1  1.08832693  0.75873642  0.20966296  1.0
  C  C11  1  0.75873642  1.08832693  -0.05672632  1.0
  C  C12  1  0.04033704  0.30672632  1.16167307  1.0
  C  C13  1  0.30672632  0.04033704  0.49126358  1.0
  F  F14  1  0.28677421  -0.02368131  0.85292046  1.0
  F  F15  1  -0.02368131  0.28677421  0.88398665  1.0
  F  F16  1  0.39707954  0.36601335  0.96322579  1.0
  F  F17  1  0.36601335  0.39707954  0.27368131  1.0
  F  F18  1  0.28016410  0.17654624  0.87509110  1.0
  F  F19  1  0.17654624  0.28016410  0.66819855  1.0
  F  F20  1  1.37490890  0.58180145  -0.03016410  1.0
  F  F21  1  0.58180145  1.37490890  0.07345376  1.0
  F  F22  1  0.93807514  0.52283386  0.36249341  1.0
  F  F23  1  0.52283386  0.93807514  0.17659758  1.0
  F  F24  1  0.88750659  1.07340242  0.31192486  1.0
  F  F25  1  1.07340242  0.88750659  -0.27283386  1.0
  F  F26  1  0.30741678  -0.16331079  1.09103248  1.0
  F  F27  1  -0.16331079  0.30741678  0.76486154  1.0
  F  F28  1  0.15896752  0.48513846  0.94258322  1.0
  F  F29  1  0.48513846  0.15896752  0.41331079  1.0
  F  F30  1  0.96581115  0.74062897  0.35878975  1.0
  F  F31  1  0.74062897  0.96581115  -0.06522987  1.0
  F  F32  1  0.89121025  0.31522987  0.28418885  1.0
  F  F33  1  0.31522987  0.89121025  0.50937103  1.0
