# generated using pymatgen
data_H4OF2
_symmetry_space_group_name_H-M   'P 1'
_cell_length_a   3.91100365
_cell_length_b   6.18254438
_cell_length_c   11.25517194
_cell_angle_alpha   90.00000000
_cell_angle_beta   97.43445615
_cell_angle_gamma   90.00000000
_symmetry_Int_Tables_number   1
_chemical_formula_structural   H4OF2
_chemical_formula_sum   'H16 O4 F8'
_cell_volume   269.86171880
_cell_formula_units_Z   4
loop_
 _symmetry_equiv_pos_site_id
 _symmetry_equiv_pos_as_xyz
  1  'x, y, z'
loop_
 _atom_site_type_symbol
 _atom_site_label
 _atom_site_symmetry_multiplicity
 _atom_site_fract_x
 _atom_site_fract_y
 _atom_site_fract_z
 _atom_site_occupancy
  H  H0  1  0.77221887  0.79540511  0.55624662  1.0
  H  H1  1  0.77221887  0.70459489  0.05624662  1.0
  H  H2  1  0.22778113  0.29540511  0.94375338  1.0
  H  H3  1  0.22778113  0.20459489  0.44375338  1.0
  H  H4  1  0.92059675  0.17937459  0.84608653  1.0
  H  H5  1  0.92059675  0.32062541  0.34608653  1.0
  H  H6  1  0.07940325  0.67937459  0.65391347  1.0
  H  H7  1  0.07940325  0.82062541  0.15391347  1.0
  H  H8  1  0.84657945  0.88649991  0.69993152  1.0
  H  H9  1  0.84657945  0.61350009  0.19993152  1.0
  H  H10  1  0.15342055  0.38649991  0.80006848  1.0
  H  H11  1  0.15342055  0.11350009  0.30006848  1.0
  H  H12  1  0.61337533  0.85455212  0.88543288  1.0
  H  H13  1  0.61337533  0.64544788  0.38543288  1.0
  H  H14  1  0.38662467  0.35455212  0.61456712  1.0
  H  H15  1  0.38662467  0.14544788  0.11456712  1.0
  O  O16  1  0.95266141  0.82145535  0.62861468  1.0
  O  O17  1  0.95266141  0.67854465  0.12861468  1.0
  O  O18  1  0.04733859  0.32145535  0.87138532  1.0
  O  O19  1  0.04733859  0.17854465  0.37138533  1.0
  F  F20  1  0.73336424  0.98207799  0.80650658  1.0
  F  F21  1  0.73336424  0.51792201  0.30650658  1.0
  F  F22  1  0.26663576  0.48207799  0.69349342  1.0
  F  F23  1  0.26663576  0.01792201  0.19349342  1.0
  F  F24  1  0.51685329  0.75586719  0.94748382  1.0
  F  F25  1  0.51685329  0.74413281  0.44748382  1.0
  F  F26  1  0.48314671  0.25586719  0.55251618  1.0
  F  F27  1  0.48314671  0.24413281  0.05251618  1.0
