# generated using pymatgen
data_RbZrCdF7
_symmetry_space_group_name_H-M   'P 1'
_cell_length_a   6.63644286
_cell_length_b   6.63644286
_cell_length_c   8.64056759
_cell_angle_alpha   90.00000000
_cell_angle_beta   90.00000000
_cell_angle_gamma   117.21025379
_symmetry_Int_Tables_number   1
_chemical_formula_structural   RbZrCdF7
_chemical_formula_sum   'Rb2 Zr2 Cd2 F14'
_cell_volume   338.43725068
_cell_formula_units_Z   2
loop_
 _symmetry_equiv_pos_site_id
 _symmetry_equiv_pos_as_xyz
  1  'x, y, z'
loop_
 _atom_site_type_symbol
 _atom_site_label
 _atom_site_symmetry_multiplicity
 _atom_site_fract_x
 _atom_site_fract_y
 _atom_site_fract_z
 _atom_site_occupancy
  Rb  Rb0  1  0.00000000  0.00000000  0.50000000  1.0
  Rb  Rb1  1  0.00000000  0.00000000  0.00000000  1.0
  Zr  Zr2  1  0.30787007  0.69212993  0.25000000  1.0
  Zr  Zr3  1  -0.30787007  1.30787007  0.75000000  1.0
  Cd  Cd4  1  -0.30885394  1.30885394  0.25000000  1.0
  Cd  Cd5  1  0.30885394  0.69114606  0.75000000  1.0
  F  F6  1  -0.02283975  1.67017432  0.25000000  1.0
  F  F7  1  0.67017432  0.97716025  0.75000000  1.0
  F  F8  1  -0.67017432  1.02283975  0.25000000  1.0
  F  F9  1  0.02283975  0.32982568  0.75000000  1.0
  F  F10  1  0.06384432  0.34794855  0.25000000  1.0
  F  F11  1  -0.65205145  1.06384432  0.75000000  1.0
  F  F12  1  0.65205145  0.93615568  0.25000000  1.0
  F  F13  1  -0.06384432  1.65205145  0.75000000  1.0
  F  F14  1  0.29901213  0.70098787  0.48487813  1.0
  F  F15  1  0.29901213  0.70098787  0.01512187  1.0
  F  F16  1  -0.29901213  1.29901213  0.98487813  1.0
  F  F17  1  -0.29901213  1.29901213  0.51512187  1.0
  F  F18  1  0.48909736  0.51090264  0.25000000  1.0
  F  F19  1  -0.48909736  1.48909736  0.75000000  1.0
