# generated using pymatgen
data_NClO
_symmetry_space_group_name_H-M   'P 1'
_cell_length_a   11.93600718
_cell_length_b   5.03994709
_cell_length_c   4.30719262
_cell_angle_alpha   90.00000000
_cell_angle_beta   90.00000000
_cell_angle_gamma   90.00000000
_symmetry_Int_Tables_number   1
_chemical_formula_structural   NClO
_chemical_formula_sum   'N4 Cl4 O4'
_cell_volume   259.10711711
_cell_formula_units_Z   4
loop_
 _symmetry_equiv_pos_site_id
 _symmetry_equiv_pos_as_xyz
  1  'x, y, z'
loop_
 _atom_site_type_symbol
 _atom_site_label
 _atom_site_symmetry_multiplicity
 _atom_site_fract_x
 _atom_site_fract_y
 _atom_site_fract_z
 _atom_site_occupancy
  N  N0  1  0.83442693  0.25000000  0.20679790  1.0
  N  N1  1  0.33442693  0.25000000  0.29320210  1.0
  N  N2  1  0.16557307  0.75000000  0.79320210  1.0
  N  N3  1  0.66557307  0.75000000  0.70679790  1.0
  Cl  Cl4  1  0.65689023  0.25000000  0.03302141  1.0
  Cl  Cl5  1  0.15689023  0.25000000  0.46697859  1.0
  Cl  Cl6  1  0.34310977  0.75000000  0.96697859  1.0
  Cl  Cl7  1  0.84310977  0.75000000  0.53302141  1.0
  O  O8  1  0.39743862  0.25000000  0.48679009  1.0
  O  O9  1  0.89743862  0.25000000  1.01320991  1.0
  O  O10  1  0.60256138  0.75000000  0.51320991  1.0
  O  O11  1  0.10256138  0.75000000  -0.01320991  1.0
