# generated using pymatgen
data_Al5Mo
_symmetry_space_group_name_H-M   'P 1'
_cell_length_a   9.21618751
_cell_length_b   9.21618751
_cell_length_c   9.21618751
_cell_angle_alpha   31.15115574
_cell_angle_beta   31.15115574
_cell_angle_gamma   31.15115574
_symmetry_Int_Tables_number   1
_chemical_formula_structural   Al5Mo
_chemical_formula_sum   'Al10 Mo2'
_cell_volume   185.87291680
_cell_formula_units_Z   2
loop_
 _symmetry_equiv_pos_site_id
 _symmetry_equiv_pos_as_xyz
  1  'x, y, z'
loop_
 _atom_site_type_symbol
 _atom_site_label
 _atom_site_symmetry_multiplicity
 _atom_site_fract_x
 _atom_site_fract_y
 _atom_site_fract_z
 _atom_site_occupancy
  Al  Al0  1  0.83081743  0.83081743  -0.16918257  1.0
  Al  Al1  1  0.33081743  0.33081743  0.33081743  1.0
  Al  Al2  1  0.66918257  0.66918257  -0.33081743  1.0
  Al  Al3  1  0.16918257  0.16918257  0.16918257  1.0
  Al  Al4  1  0.40439769  0.75000000  0.09560231  1.0
  Al  Al5  1  0.90439769  -0.40439769  0.25000000  1.0
  Al  Al6  1  0.25000000  0.90439769  -0.40439769  1.0
  Al  Al7  1  0.75000000  1.09560231  -0.59560231  1.0
  Al  Al8  1  0.59560231  0.25000000  -0.09560231  1.0
  Al  Al9  1  1.09560231  0.40439769  -0.25000000  1.0
  Mo  Mo10  1  1.00000000  0.00000000  0.00000000  1.0
  Mo  Mo11  1  0.50000000  0.50000000  0.50000000  1.0
