# generated using pymatgen
data_Rb2WO4
_symmetry_space_group_name_H-M   'P 1'
_cell_length_a   7.26980544
_cell_length_b   7.26980544
_cell_length_c   8.01777357
_cell_angle_alpha   66.75701427
_cell_angle_beta   113.24298573
_cell_angle_gamma   127.42477332
_symmetry_Int_Tables_number   1
_chemical_formula_structural   Rb2WO4
_chemical_formula_sum   'Rb4 W2 O8'
_cell_volume   302.16382893
_cell_formula_units_Z   2
loop_
 _symmetry_equiv_pos_site_id
 _symmetry_equiv_pos_as_xyz
  1  'x, y, z'
loop_
 _atom_site_type_symbol
 _atom_site_label
 _atom_site_symmetry_multiplicity
 _atom_site_fract_x
 _atom_site_fract_y
 _atom_site_fract_z
 _atom_site_occupancy
  Rb  Rb0  1  0.84409145  0.15590855  0.25221020  1.0
  Rb  Rb1  1  0.15590855  -0.15590855  0.74778980  1.0
  Rb  Rb2  1  0.48823397  -0.48823397  0.76337914  1.0
  Rb  Rb3  1  0.51176603  0.48823397  0.23662086  1.0
  W  W4  1  0.82343429  0.17656571  0.77310357  1.0
  W  W5  1  0.17656571  -0.17656571  0.22689643  1.0
  O  O6  1  0.62789202  -0.08516591  0.91667386  1.0
  O  O7  1  1.08516591  0.37210798  0.91667386  1.0
  O  O8  1  0.91483409  0.62789202  0.08332614  1.0
  O  O9  1  0.37210798  0.08516591  0.08332614  1.0
  O  O10  1  0.90564447  0.09435553  0.64178918  1.0
  O  O11  1  0.09435553  -0.09435553  0.35821082  1.0
  O  O12  1  0.67187732  0.32812268  0.62410271  1.0
  O  O13  1  0.32812268  -0.32812268  0.37589729  1.0
