# generated using pymatgen
data_Eu2(MoO4)3
_symmetry_space_group_name_H-M   'P 1'
_cell_length_a   6.98881598
_cell_length_b   6.98881598
_cell_length_c   11.93732541
_cell_angle_alpha   80.12577576
_cell_angle_beta   99.87422424
_cell_angle_gamma   65.07458862
_symmetry_Int_Tables_number   1
_chemical_formula_structural   Eu2(MoO4)3
_chemical_formula_sum   'Eu4 Mo6 O24'
_cell_volume   501.15752343
_cell_formula_units_Z   2
loop_
 _symmetry_equiv_pos_site_id
 _symmetry_equiv_pos_as_xyz
  1  'x, y, z'
loop_
 _atom_site_type_symbol
 _atom_site_label
 _atom_site_symmetry_multiplicity
 _atom_site_fract_x
 _atom_site_fract_y
 _atom_site_fract_z
 _atom_site_occupancy
  Eu  Eu0  1  1.20520068  -0.45725654  0.41267111  1.0
  Eu  Eu1  1  1.45725654  -0.20520068  0.91267111  1.0
  Eu  Eu2  1  1.54274346  0.20520068  0.08732889  1.0
  Eu  Eu3  1  0.79479932  -0.54274346  0.58732889  1.0
  Mo  Mo4  1  1.04085285  -0.27856694  0.07644684  1.0
  Mo  Mo5  1  1.27856694  -0.04085285  0.57644684  1.0
  Mo  Mo6  1  1.72143306  0.04085285  0.42355316  1.0
  Mo  Mo7  1  0.95914715  -0.72143306  0.92355316  1.0
  Mo  Mo8  1  0.62663380  0.62663380  0.25000000  1.0
  Mo  Mo9  1  1.37336620  0.37336620  0.75000000  1.0
  O  O10  1  1.43444436  0.17567800  0.40139320  1.0
  O  O11  1  0.82432200  0.56555564  0.90139320  1.0
  O  O12  1  1.17567800  0.43444436  0.09860680  1.0
  O  O13  1  1.56555564  -0.17567800  0.59860680  1.0
  O  O14  1  0.55532949  0.53850272  0.38228639  1.0
  O  O15  1  1.46149728  0.44467051  0.88228639  1.0
  O  O16  1  1.53850272  -0.44467051  0.11771361  1.0
  O  O17  1  1.44467051  0.46149728  0.61771361  1.0
  O  O18  1  1.51556108  -0.08645492  0.21491636  1.0
  O  O19  1  1.08645492  0.48443892  0.71491636  1.0
  O  O20  1  0.91354508  0.51556108  0.28508364  1.0
  O  O21  1  1.48443892  0.08645492  0.78508364  1.0
  O  O22  1  1.14365702  -0.24684340  0.21472651  1.0
  O  O23  1  1.24684340  -0.14365702  0.71472651  1.0
  O  O24  1  1.75315660  0.14365702  0.28527349  1.0
  O  O25  1  0.85634298  -0.75315660  0.78527349  1.0
  O  O26  1  1.74097651  -0.15474884  0.04263486  1.0
  O  O27  1  1.15474884  0.25902349  0.54263486  1.0
  O  O28  1  0.84525116  0.74097651  0.45736514  1.0
  O  O29  1  1.25902349  0.15474884  0.95736514  1.0
  O  O30  1  0.87175970  -0.83097195  0.03901251  1.0
  O  O31  1  1.83097195  0.12824030  0.53901251  1.0
  O  O32  1  1.16902805  -0.12824030  0.46098749  1.0
  O  O33  1  1.12824030  -0.16902805  0.96098749  1.0
