# generated using pymatgen
data_BaOsO3
_symmetry_space_group_name_H-M   'P 1'
_cell_length_a   8.11448566
_cell_length_b   8.11448566
_cell_length_c   8.11448566
_cell_angle_alpha   41.88171810
_cell_angle_beta   41.88171810
_cell_angle_gamma   41.88171810
_symmetry_Int_Tables_number   1
_chemical_formula_structural   BaOsO3
_chemical_formula_sum   'Ba3 Os3 O9'
_cell_volume   215.35195550
_cell_formula_units_Z   3
loop_
 _symmetry_equiv_pos_site_id
 _symmetry_equiv_pos_as_xyz
  1  'x, y, z'
loop_
 _atom_site_type_symbol
 _atom_site_label
 _atom_site_symmetry_multiplicity
 _atom_site_fract_x
 _atom_site_fract_y
 _atom_site_fract_z
 _atom_site_occupancy
  Ba  Ba0  1  0.78197166  0.78197166  0.78197166  1.0
  Ba  Ba1  1  1.21802834  1.21802834  0.21802834  1.0
  Ba  Ba2  1  -0.00000000  0.00000000  0.00000000  1.0
  Os  Os3  1  1.50000000  0.50000000  0.50000000  1.0
  Os  Os4  1  1.61767701  0.61767701  0.61767701  1.0
  Os  Os5  1  1.38232299  0.38232299  0.38232299  1.0
  O  O6  1  1.28501221  0.28501221  0.75084997  1.0
  O  O7  1  1.28501221  0.75084997  0.28501221  1.0
  O  O8  1  1.24915003  0.71498779  0.71498779  1.0
  O  O9  1  1.71498779  0.24915003  0.71498779  1.0
  O  O10  1  1.71498779  0.71498779  0.24915003  1.0
  O  O11  1  1.75084997  0.28501221  0.28501221  1.0
  O  O12  1  0.50000000  -0.00000000  -0.50000000  1.0
  O  O13  1  0.50000000  -0.50000000  -0.00000000  1.0
  O  O14  1  -0.00000000  0.50000000  -0.50000000  1.0
