# generated using pymatgen
data_Ga2S3
_symmetry_space_group_name_H-M   'P 1'
_cell_length_a   6.56893496
_cell_length_b   6.56893496
_cell_length_c   7.11768277
_cell_angle_alpha   63.38139302
_cell_angle_beta   116.61860698
_cell_angle_gamma   120.37188926
_symmetry_Int_Tables_number   1
_chemical_formula_structural   Ga2S3
_chemical_formula_sum   'Ga4 S6'
_cell_volume   226.91860278
_cell_formula_units_Z   2
loop_
 _symmetry_equiv_pos_site_id
 _symmetry_equiv_pos_as_xyz
  1  'x, y, z'
loop_
 _atom_site_type_symbol
 _atom_site_label
 _atom_site_symmetry_multiplicity
 _atom_site_fract_x
 _atom_site_fract_y
 _atom_site_fract_z
 _atom_site_occupancy
  Ga  Ga0  1  0.90293354  0.90173553  0.49950839  1.0
  Ga  Ga1  1  0.09826447  0.09706646  -0.00049161  1.0
  Ga  Ga2  1  1.59472676  0.27486560  0.48955810  1.0
  Ga  Ga3  1  0.72513440  -0.59472676  0.98955810  1.0
  S  S4  1  1.54896692  -0.36784272  0.35320559  1.0
  S  S5  1  1.36784272  -0.54896692  0.85320559  1.0
  S  S6  1  1.70957202  0.11504472  0.87345861  1.0
  S  S7  1  0.88495528  -0.70957202  0.37345861  1.0
  S  S8  1  1.21766143  -0.04194248  0.38326931  1.0
  S  S9  1  1.04194248  -0.21766143  0.88326931  1.0
