# generated using pymatgen
data_YAg2
_symmetry_space_group_name_H-M   'P 1'
_cell_length_a   5.33413096
_cell_length_b   5.33413096
_cell_length_c   5.33413096
_cell_angle_alpha   138.88840702
_cell_angle_beta   138.88840702
_cell_angle_gamma   59.54504996
_symmetry_Int_Tables_number   1
_chemical_formula_structural   YAg2
_chemical_formula_sum   'Y1 Ag2'
_cell_volume   64.96540775
_cell_formula_units_Z   1
loop_
 _symmetry_equiv_pos_site_id
 _symmetry_equiv_pos_as_xyz
  1  'x, y, z'
loop_
 _atom_site_type_symbol
 _atom_site_label
 _atom_site_symmetry_multiplicity
 _atom_site_fract_x
 _atom_site_fract_y
 _atom_site_fract_z
 _atom_site_occupancy
  Y  Y0  1  0.00000000  0.00000000  0.00000000  1.0
  Ag  Ag1  1  0.66969804  0.66969804  1.00000000  1.0
  Ag  Ag2  1  0.33030196  0.33030196  -0.00000000  1.0
