# generated using pymatgen
data_NF2
_symmetry_space_group_name_H-M   'P 1'
_cell_length_a   6.83539627
_cell_length_b   5.17061414
_cell_length_c   5.45150193
_cell_angle_alpha   90.00000000
_cell_angle_beta   90.00000000
_cell_angle_gamma   90.00000000
_symmetry_Int_Tables_number   1
_chemical_formula_structural   NF2
_chemical_formula_sum   'N4 F8'
_cell_volume   192.67350476
_cell_formula_units_Z   4
loop_
 _symmetry_equiv_pos_site_id
 _symmetry_equiv_pos_as_xyz
  1  'x, y, z'
loop_
 _atom_site_type_symbol
 _atom_site_label
 _atom_site_symmetry_multiplicity
 _atom_site_fract_x
 _atom_site_fract_y
 _atom_site_fract_z
 _atom_site_occupancy
  F  F0  1  0.50000000  1.29506434  0.74995600  1.0
  F  F1  1  0.50000000  -0.29506434  0.25004400  1.0
  F  F2  1  -0.00000000  1.29506434  0.75004400  1.0
  F  F3  1  -0.00000000  -0.29506434  0.24995600  1.0
  F  F4  1  0.24998997  0.00000000  0.50000000  1.0
  F  F5  1  0.74998997  0.00000000  0.00000000  1.0
  F  F6  1  0.75001003  -0.00000000  0.50000000  1.0
  F  F7  1  0.25001003  -0.00000000  0.00000000  1.0
  N  N8  1  0.25000000  0.20872120  0.75000000  1.0
  N  N9  1  0.25000000  0.79127880  0.25000000  1.0
  N  N10  1  0.75000000  0.20872120  0.75000000  1.0
  N  N11  1  0.75000000  0.79127880  0.25000000  1.0
