# generated using pymatgen
data_Gd5P12Ru19
_symmetry_space_group_name_H-M   'P 1'
_cell_length_a   12.54851813
_cell_length_b   12.54851813
_cell_length_c   3.98494290
_cell_angle_alpha   90.00000000
_cell_angle_beta   90.00000000
_cell_angle_gamma   120.00000000
_symmetry_Int_Tables_number   1
_chemical_formula_structural   Gd5P12Ru19
_chemical_formula_sum   'Gd5 P12 Ru19'
_cell_volume   543.42250438
_cell_formula_units_Z   1
loop_
 _symmetry_equiv_pos_site_id
 _symmetry_equiv_pos_as_xyz
  1  'x, y, z'
loop_
 _atom_site_type_symbol
 _atom_site_label
 _atom_site_symmetry_multiplicity
 _atom_site_fract_x
 _atom_site_fract_y
 _atom_site_fract_z
 _atom_site_occupancy
  Gd  Gd0  1  0.00000000  0.18352523  0.50000000  1.0
  Gd  Gd1  1  0.81647477  0.81647477  0.50000000  1.0
  Gd  Gd2  1  0.18352523  0.00000000  0.50000000  1.0
  Gd  Gd3  1  0.66666667  0.33333333  0.00000000  1.0
  Gd  Gd4  1  0.33333333  0.66666667  0.00000000  1.0
  P  P5  1  -0.00000000  0.81447808  0.00000000  1.0
  P  P6  1  0.18552192  0.18552192  0.00000000  1.0
  P  P7  1  0.81447808  0.00000000  0.00000000  1.0
  P  P8  1  0.69418276  0.17135997  0.50000000  1.0
  P  P9  1  0.82864003  0.52282279  0.50000000  1.0
  P  P10  1  0.47717721  0.30581724  0.50000000  1.0
  P  P11  1  0.17135997  0.69418276  0.50000000  1.0
  P  P12  1  0.52282279  0.82864003  0.50000000  1.0
  P  P13  1  0.30581724  0.47717721  0.50000000  1.0
  P  P14  1  -0.00000000  0.37357843  0.00000000  1.0
  P  P15  1  0.62642157  0.62642157  0.00000000  1.0
  P  P16  1  0.37357843  0.00000000  0.00000000  1.0
  Ru  Ru17  1  0.00000000  0.55470055  0.00000000  1.0
  Ru  Ru18  1  0.44529945  0.44529945  0.00000000  1.0
  Ru  Ru19  1  0.55470055  0.00000000  0.00000000  1.0
  Ru  Ru20  1  -0.00000000  0.71612432  0.50000000  1.0
  Ru  Ru21  1  0.28387568  0.28387568  0.50000000  1.0
  Ru  Ru22  1  0.71612432  0.00000000  0.50000000  1.0
  Ru  Ru23  1  0.80733425  0.18481091  0.00000000  1.0
  Ru  Ru24  1  0.81518909  0.62252334  0.00000000  1.0
  Ru  Ru25  1  0.37747666  0.19266575  0.00000000  1.0
  Ru  Ru26  1  0.18481091  0.80733425  0.00000000  1.0
  Ru  Ru27  1  0.62252334  0.81518909  0.00000000  1.0
  Ru  Ru28  1  0.19266575  0.37747666  0.00000000  1.0
  Ru  Ru29  1  0.87480012  0.36652978  0.50000000  1.0
  Ru  Ru30  1  0.63347022  0.50827034  0.50000000  1.0
  Ru  Ru31  1  0.49172966  0.12519988  0.50000000  1.0
  Ru  Ru32  1  0.36652978  0.87480012  0.50000000  1.0
  Ru  Ru33  1  0.50827034  0.63347022  0.50000000  1.0
  Ru  Ru34  1  0.12519988  0.49172966  0.50000000  1.0
  Ru  Ru35  1  0.00000000  0.00000000  0.00000000  1.0
