# generated using pymatgen
data_K2Si3SnO9
_symmetry_space_group_name_H-M   'P 1'
_cell_length_a   7.77310771
_cell_length_b   7.77310771
_cell_length_c   7.77310771
_cell_angle_alpha   83.13881389
_cell_angle_beta   83.13881389
_cell_angle_gamma   83.13881389
_symmetry_Int_Tables_number   1
_chemical_formula_structural   K2Si3SnO9
_chemical_formula_sum   'K4 Si6 Sn2 O18'
_cell_volume   460.31398241
_cell_formula_units_Z   2
loop_
 _symmetry_equiv_pos_site_id
 _symmetry_equiv_pos_as_xyz
  1  'x, y, z'
loop_
 _atom_site_type_symbol
 _atom_site_label
 _atom_site_symmetry_multiplicity
 _atom_site_fract_x
 _atom_site_fract_y
 _atom_site_fract_z
 _atom_site_occupancy
  K  K0  1  1.00143438  0.76493516  -0.45282902  1.0
  K  K1  1  0.76493516  0.54717098  0.00143438  1.0
  K  K2  1  0.54717098  1.00143438  -0.23506484  1.0
  K  K3  1  1.27220390  1.27220390  0.27220390  1.0
  Si  Si4  1  0.66907532  0.87515366  -0.71367019  1.0
  Si  Si5  1  0.87515366  0.28632981  -0.33092468  1.0
  Si  Si6  1  0.28632981  0.66907532  -0.12484634  1.0
  Si  Si7  1  0.32230923  0.79215347  -0.78119584  1.0
  Si  Si8  1  0.79215347  0.21880416  -0.67769077  1.0
  Si  Si9  1  0.21880416  0.32230923  -0.20784653  1.0
  Sn  Sn10  1  0.00009162  0.00009162  0.00009162  1.0
  Sn  Sn11  1  0.51905867  0.51905867  -0.48094133  1.0
  O  O12  1  0.45984945  0.92760122  -0.74220425  1.0
  O  O13  1  0.92760122  0.25779575  -0.54015055  1.0
  O  O14  1  0.25779575  0.45984945  -0.07239878  1.0
  O  O15  1  0.69167228  0.40844174  -0.30399735  1.0
  O  O16  1  0.40844174  0.69600265  -0.30832772  1.0
  O  O17  1  0.69600265  0.69167228  -0.59155826  1.0
  O  O18  1  0.12943091  0.89851754  -0.78268371  1.0
  O  O19  1  0.89851754  0.21731629  -0.87056909  1.0
  O  O20  1  0.21731629  0.12943091  -0.10148246  1.0
  O  O21  1  0.36326060  0.32178685  -0.37749733  1.0
  O  O22  1  0.32178685  0.62250267  -0.63673940  1.0
  O  O23  1  0.62250267  0.36326060  -0.67821315  1.0
  O  O24  1  0.72752911  0.02439682  -0.60279413  1.0
  O  O25  1  1.02439682  -0.60279413  -0.27247089  1.0
  O  O26  1  0.39720587  -0.27247089  0.02439682  1.0
  O  O27  1  0.87441219  0.09540844  -0.21895071  1.0
  O  O28  1  1.09540844  -0.21895071  -0.12558781  1.0
  O  O29  1  0.78104929  -0.12558781  0.09540844  1.0
