# generated using pymatgen
data_Rb2LiLa(BO3)2
_symmetry_space_group_name_H-M   'P 1'
_cell_length_a   7.31506332
_cell_length_b   9.90055579
_cell_length_c   10.29981927
_cell_angle_alpha   90.00000000
_cell_angle_beta   90.75453447
_cell_angle_gamma   90.00000000
_symmetry_Int_Tables_number   1
_chemical_formula_structural   Rb2LiLa(BO3)2
_chemical_formula_sum   'Rb8 Li4 La4 B8 O24'
_cell_volume   745.88111271
_cell_formula_units_Z   4
loop_
 _symmetry_equiv_pos_site_id
 _symmetry_equiv_pos_as_xyz
  1  'x, y, z'
loop_
 _atom_site_type_symbol
 _atom_site_label
 _atom_site_symmetry_multiplicity
 _atom_site_fract_x
 _atom_site_fract_y
 _atom_site_fract_z
 _atom_site_occupancy
  Rb  Rb0  1  0.25629789  0.41204413  0.45574814  1.0
  Rb  Rb1  1  0.74370211  0.91204413  0.04425186  1.0
  Rb  Rb2  1  0.74370211  0.58795587  0.54425186  1.0
  Rb  Rb3  1  0.25629789  0.08795587  0.95574814  1.0
  Rb  Rb4  1  0.18423462  0.42435458  0.07954308  1.0
  Rb  Rb5  1  0.81576538  0.92435458  0.42045692  1.0
  Rb  Rb6  1  0.81576538  0.57564542  0.92045692  1.0
  Rb  Rb7  1  0.18423462  0.07564542  0.57954308  1.0
  Li  Li8  1  0.06091752  0.15572734  0.25484832  1.0
  Li  Li9  1  0.93908248  0.65572734  0.24515168  1.0
  Li  Li10  1  0.93908248  0.84427266  0.74515168  1.0
  Li  Li11  1  0.06091752  0.34427266  0.75484832  1.0
  La  La12  1  0.64629840  0.26806150  0.23930994  1.0
  La  La13  1  0.35370160  0.76806150  0.26069006  1.0
  La  La14  1  0.35370160  0.73193850  0.76069006  1.0
  La  La15  1  0.64629840  0.23193850  0.73930994  1.0
  B  B16  1  0.82453713  0.27100782  0.49426688  1.0
  B  B17  1  0.17546287  0.77100782  0.00573312  1.0
  B  B18  1  0.17546287  0.72899218  0.50573312  1.0
  B  B19  1  0.82453713  0.22899218  0.99426688  1.0
  B  B20  1  0.64976657  0.56714218  0.23199676  1.0
  B  B21  1  0.35023343  0.06714218  0.26800324  1.0
  B  B22  1  0.35023343  0.43285782  0.76800324  1.0
  B  B23  1  0.64976657  0.93285782  0.73199676  1.0
  O  O24  1  0.91356698  0.18490047  0.10556761  1.0
  O  O25  1  0.08643302  0.68490047  0.39443239  1.0
  O  O26  1  0.08643302  0.81509953  0.89443239  1.0
  O  O27  1  0.91356698  0.31509953  0.60556761  1.0
  O  O28  1  0.91303228  0.21773081  0.38842338  1.0
  O  O29  1  0.08696772  0.71773081  0.11157662  1.0
  O  O30  1  0.08696772  0.78226919  0.61157662  1.0
  O  O31  1  0.91303228  0.28226919  0.88842338  1.0
  O  O32  1  0.63291322  0.27951579  0.48945330  1.0
  O  O33  1  0.36708678  0.77951579  0.01054670  1.0
  O  O34  1  0.36708678  0.72048421  0.51054670  1.0
  O  O35  1  0.63291322  0.22048421  0.98945330  1.0
  O  O36  1  0.47724468  0.51060649  0.24256814  1.0
  O  O37  1  0.52275532  0.01060649  0.25743186  1.0
  O  O38  1  0.52275532  0.48939351  0.75743186  1.0
  O  O39  1  0.47724468  0.98939351  0.74256814  1.0
  O  O40  1  0.32266185  0.20489077  0.24554377  1.0
  O  O41  1  0.67733815  0.70489077  0.25445623  1.0
  O  O42  1  0.67733815  0.79510923  0.75445623  1.0
  O  O43  1  0.32266185  0.29510923  0.74554377  1.0
  O  O44  1  0.79980426  0.48678713  0.20386226  1.0
  O  O45  1  0.20019574  0.98678713  0.29613774  1.0
  O  O46  1  0.20019574  0.51321287  0.79613774  1.0
  O  O47  1  0.79980426  0.01321287  0.70386226  1.0
