# generated using pymatgen
data_Zr13Ni4O
_symmetry_space_group_name_H-M   'P 1'
_cell_length_a   10.73880822
_cell_length_b   10.73880822
_cell_length_c   10.73880822
_cell_angle_alpha   60.00000000
_cell_angle_beta   60.00000000
_cell_angle_gamma   60.00000000
_symmetry_Int_Tables_number   1
_chemical_formula_structural   Zr13Ni4O
_chemical_formula_sum   'Zr26 Ni8 O2'
_cell_volume   875.69579078
_cell_formula_units_Z   2
loop_
 _symmetry_equiv_pos_site_id
 _symmetry_equiv_pos_as_xyz
  1  'x, y, z'
loop_
 _atom_site_type_symbol
 _atom_site_label
 _atom_site_symmetry_multiplicity
 _atom_site_fract_x
 _atom_site_fract_y
 _atom_site_fract_z
 _atom_site_occupancy
  Zr  Zr0  1  0.95012996  -0.58883729  0.68857738  1.0
  Zr  Zr1  1  -0.04987004  0.68857738  0.41116271  1.0
  Zr  Zr2  1  -0.16116271  0.29987004  0.29987004  1.0
  Zr  Zr3  1  0.56142262  0.29987004  0.29987004  1.0
  Zr  Zr4  1  -0.58883729  0.95012996  0.68857738  1.0
  Zr  Zr5  1  0.95012996  -0.04987004  0.68857738  1.0
  Zr  Zr6  1  0.95012996  -0.31142262  0.95012996  1.0
  Zr  Zr7  1  -0.58883729  0.68857738  0.95012996  1.0
  Zr  Zr8  1  0.29987004  -0.16116271  0.29987004  1.0
  Zr  Zr9  1  0.29987004  0.29987004  -0.16116271  1.0
  Zr  Zr10  1  0.56142262  0.29987004  -0.16116271  1.0
  Zr  Zr11  1  0.56142262  -0.16116271  0.29987004  1.0
  Zr  Zr12  1  0.68857738  -0.04987004  0.95012996  1.0
  Zr  Zr13  1  -0.58883729  0.95012996  0.95012996  1.0
  Zr  Zr14  1  0.29987004  0.56142262  -0.16116271  1.0
  Zr  Zr15  1  0.29987004  -0.16116271  0.56142262  1.0
  Zr  Zr16  1  -0.31142262  0.95012996  0.41116271  1.0
  Zr  Zr17  1  0.68857738  -0.58883729  0.95012996  1.0
  Zr  Zr18  1  0.95012996  -0.58883729  0.95012996  1.0
  Zr  Zr19  1  -0.04987004  0.95012996  0.41116271  1.0
  Zr  Zr20  1  0.29987004  0.56142262  0.29987004  1.0
  Zr  Zr21  1  -0.16116271  0.56142262  0.29987004  1.0
  Zr  Zr22  1  -0.16116271  0.29987004  0.56142262  1.0
  Zr  Zr23  1  0.29987004  0.29987004  0.56142262  1.0
  Zr  Zr24  1  0.50000000  0.50000000  -0.50000000  1.0
  Zr  Zr25  1  0.75000000  -0.25000000  0.75000000  1.0
  Ni  Ni26  1  0.66350646  -0.33649354  1.00948062  1.0
  Ni  Ni27  1  0.66350646  0.00948062  0.66350646  1.0
  Ni  Ni28  1  0.58649354  -0.41350646  0.58649354  1.0
  Ni  Ni29  1  1.24051938  -0.41350646  0.58649354  1.0
  Ni  Ni30  1  1.00948062  -0.33649354  0.66350646  1.0
  Ni  Ni31  1  0.66350646  -0.33649354  0.66350646  1.0
  Ni  Ni32  1  0.58649354  0.24051938  0.58649354  1.0
  Ni  Ni33  1  0.58649354  -0.41350646  1.24051938  1.0
  O  O34  1  -0.00000000  1.00000000  0.00000000  1.0
  O  O35  1  0.25000000  0.25000000  0.25000000  1.0
