# generated using pymatgen
data_SrHfO3
_symmetry_space_group_name_H-M   'P 1'
_cell_length_a   5.83598275
_cell_length_b   5.83598275
_cell_length_c   5.83598275
_cell_angle_alpha   120.65123954
_cell_angle_beta   120.65123954
_cell_angle_gamma   88.87567321
_symmetry_Int_Tables_number   1
_chemical_formula_structural   SrHfO3
_chemical_formula_sum   'Sr2 Hf2 O6'
_cell_volume   139.13620983
_cell_formula_units_Z   2
loop_
 _symmetry_equiv_pos_site_id
 _symmetry_equiv_pos_as_xyz
  1  'x, y, z'
loop_
 _atom_site_type_symbol
 _atom_site_label
 _atom_site_symmetry_multiplicity
 _atom_site_fract_x
 _atom_site_fract_y
 _atom_site_fract_z
 _atom_site_occupancy
  Sr  Sr0  1  0.25000000  0.75000000  0.50000000  1.0
  Sr  Sr1  1  0.75000000  0.25000000  0.50000000  1.0
  Hf  Hf2  1  0.00000000  0.00000000  0.00000000  1.0
  Hf  Hf3  1  0.50000000  0.50000000  1.00000000  1.0
  O  O4  1  0.30416165  0.80416165  1.10832330  1.0
  O  O5  1  0.19583835  0.30416165  0.50000000  1.0
  O  O6  1  0.80416165  0.69583835  1.50000000  1.0
  O  O7  1  0.69583835  0.19583835  0.89167670  1.0
  O  O8  1  0.75000000  0.75000000  1.00000000  1.0
  O  O9  1  0.25000000  0.25000000  -0.00000000  1.0
