# generated using pymatgen
data_Na4Si3(SnO6)2
_symmetry_space_group_name_H-M   'P 1'
_cell_length_a   9.09100542
_cell_length_b   9.09100542
_cell_length_c   9.09100542
_cell_angle_alpha   60.56247448
_cell_angle_beta   60.56247448
_cell_angle_gamma   60.56247448
_symmetry_Int_Tables_number   1
_chemical_formula_structural   Na4Si3(SnO6)2
_chemical_formula_sum   'Na8 Si6 Sn4 O24'
_cell_volume   538.02743341
_cell_formula_units_Z   2
loop_
 _symmetry_equiv_pos_site_id
 _symmetry_equiv_pos_as_xyz
  1  'x, y, z'
loop_
 _atom_site_type_symbol
 _atom_site_label
 _atom_site_symmetry_multiplicity
 _atom_site_fract_x
 _atom_site_fract_y
 _atom_site_fract_z
 _atom_site_occupancy
  Na  Na0  1  0.50000000  0.50000000  -0.50000000  1.0
  Na  Na1  1  0.00000000  0.00000000  0.00000000  1.0
  Na  Na2  1  0.11778996  0.38221004  -0.25000000  1.0
  Na  Na3  1  0.38221004  0.75000000  -0.88221004  1.0
  Na  Na4  1  0.75000000  0.11778996  -0.61778996  1.0
  Na  Na5  1  0.61778996  0.25000000  -0.11778996  1.0
  Na  Na6  1  0.25000000  0.88221004  -0.38221004  1.0
  Na  Na7  1  0.88221004  -0.38221004  0.25000000  1.0
  Si  Si8  1  0.45558803  0.04441197  -0.25000000  1.0
  Si  Si9  1  1.04441197  -0.25000000  -0.54441197  1.0
  Si  Si10  1  0.75000000  -0.54441197  0.04441197  1.0
  Si  Si11  1  0.95558803  0.25000000  -0.45558803  1.0
  Si  Si12  1  0.25000000  0.54441197  -0.04441197  1.0
  Si  Si13  1  0.54441197  -0.04441197  0.25000000  1.0
  Sn  Sn14  1  0.35335510  0.35335510  -0.64664490  1.0
  Sn  Sn15  1  0.85335510  0.85335510  -0.14664490  1.0
  Sn  Sn16  1  0.64664490  0.64664490  -0.35335510  1.0
  Sn  Sn17  1  1.14664490  1.14664490  0.14664490  1.0
  O  O18  1  0.43543871  0.23119516  -0.42141644  1.0
  O  O19  1  0.23119516  0.57858356  -0.56456129  1.0
  O  O20  1  0.57858356  0.43543871  -0.76880484  1.0
  O  O21  1  0.93543871  0.07858356  -0.26880484  1.0
  O  O22  1  1.07858356  -0.26880484  -0.06456129  1.0
  O  O23  1  0.73119516  -0.06456129  0.07858356  1.0
  O  O24  1  0.56456129  0.76880484  -0.57858356  1.0
  O  O25  1  0.76880484  0.42141644  -0.43543871  1.0
  O  O26  1  0.42141644  0.56456129  -0.23119516  1.0
  O  O27  1  1.06456129  -0.07858356  -0.73119516  1.0
  O  O28  1  0.92141644  -0.73119516  0.06456129  1.0
  O  O29  1  0.26880484  0.06456129  -0.07858356  1.0
  O  O30  1  1.12912248  1.28294144  0.51997626  1.0
  O  O31  1  1.28294144  1.51997626  0.12912248  1.0
  O  O32  1  1.51997626  1.12912248  0.28294144  1.0
  O  O33  1  0.62912248  0.01997626  -0.21705856  1.0
  O  O34  1  1.01997626  -0.21705856  -0.37087752  1.0
  O  O35  1  0.78294144  -0.37087752  0.01997626  1.0
  O  O36  1  0.87087752  0.71705856  -0.51997626  1.0
  O  O37  1  0.71705856  0.48002374  -0.12912248  1.0
  O  O38  1  0.48002374  0.87087752  -0.28294144  1.0
  O  O39  1  0.37087752  0.98002374  -0.78294144  1.0
  O  O40  1  0.98002374  0.21705856  -0.62912248  1.0
  O  O41  1  0.21705856  0.37087752  -0.01997626  1.0
