# generated using pymatgen
data_Cs3Na(MoO4)2
_symmetry_space_group_name_H-M   'P 1'
_cell_length_a   6.45905518
_cell_length_b   6.45905518
_cell_length_c   8.35445841
_cell_angle_alpha   90.00000000
_cell_angle_beta   90.00000000
_cell_angle_gamma   120.00000000
_symmetry_Int_Tables_number   1
_chemical_formula_structural   Cs3Na(MoO4)2
_chemical_formula_sum   'Cs3 Na1 Mo2 O8'
_cell_volume   301.84704048
_cell_formula_units_Z   1
loop_
 _symmetry_equiv_pos_site_id
 _symmetry_equiv_pos_as_xyz
  1  'x, y, z'
loop_
 _atom_site_type_symbol
 _atom_site_label
 _atom_site_symmetry_multiplicity
 _atom_site_fract_x
 _atom_site_fract_y
 _atom_site_fract_z
 _atom_site_occupancy
  Cs  Cs0  1  0.33333333  0.66666667  0.67423070  1.0
  Cs  Cs1  1  0.66666667  0.33333333  0.32576930  1.0
  Cs  Cs2  1  -0.00000000  -0.00000000  0.00000000  1.0
  Na  Na3  1  0.00000000  -0.00000000  0.50000000  1.0
  Mo  Mo4  1  0.33333333  0.66666667  0.23634743  1.0
  Mo  Mo5  1  0.66666667  0.33333333  0.76365257  1.0
  O  O6  1  0.63395315  0.81697657  0.31035904  1.0
  O  O7  1  0.81697657  0.63395315  0.68964096  1.0
  O  O8  1  0.81697657  0.18302343  0.68964096  1.0
  O  O9  1  0.18302343  0.81697657  0.31035904  1.0
  O  O10  1  0.18302343  0.36604685  0.31035904  1.0
  O  O11  1  0.36604685  0.18302343  0.68964096  1.0
  O  O12  1  0.33333333  0.66666667  0.02496359  1.0
  O  O13  1  0.66666667  0.33333333  0.97503641  1.0
