# generated using pymatgen
data_GaAg(PSe3)2
_symmetry_space_group_name_H-M   'P 1'
_cell_length_a   6.45020488
_cell_length_b   6.45020488
_cell_length_c   14.85840636
_cell_angle_alpha   90.00000000
_cell_angle_beta   90.00000000
_cell_angle_gamma   120.00000000
_symmetry_Int_Tables_number   1
_chemical_formula_structural   GaAg(PSe3)2
_chemical_formula_sum   'Ga2 Ag2 P4 Se12'
_cell_volume   535.36488525
_cell_formula_units_Z   2
loop_
 _symmetry_equiv_pos_site_id
 _symmetry_equiv_pos_as_xyz
  1  'x, y, z'
loop_
 _atom_site_type_symbol
 _atom_site_label
 _atom_site_symmetry_multiplicity
 _atom_site_fract_x
 _atom_site_fract_y
 _atom_site_fract_z
 _atom_site_occupancy
  Ga  Ga0  1  0.00000000  0.00000000  0.25000000  1.0
  Ga  Ga1  1  0.00000000  0.00000000  0.75000000  1.0
  Ag  Ag2  1  0.66666667  0.33333333  0.25000000  1.0
  Ag  Ag3  1  0.33333333  0.66666667  0.75000000  1.0
  P  P4  1  0.33333333  0.66666667  0.17393350  1.0
  P  P5  1  0.33333333  0.66666667  0.32606650  1.0
  P  P6  1  0.66666667  0.33333333  0.67393350  1.0
  P  P7  1  0.66666667  0.33333333  0.82606650  1.0
  Se  Se8  1  0.29999036  0.98100536  0.13336766  1.0
  Se  Se9  1  0.29999036  0.31898500  0.36663234  1.0
  Se  Se10  1  0.98100536  0.29999036  0.63336766  1.0
  Se  Se11  1  0.98100536  0.68101500  0.86663234  1.0
  Se  Se12  1  0.68101500  0.98100536  0.36663234  1.0
  Se  Se13  1  0.68101500  0.70000964  0.13336766  1.0
  Se  Se14  1  0.01899464  0.70000964  0.36663234  1.0
  Se  Se15  1  0.01899464  0.31898500  0.13336766  1.0
  Se  Se16  1  0.70000964  0.68101500  0.63336766  1.0
  Se  Se17  1  0.70000964  0.01899464  0.86663234  1.0
  Se  Se18  1  0.31898500  0.29999036  0.86663234  1.0
  Se  Se19  1  0.31898500  0.01899464  0.63336766  1.0
