# generated using pymatgen
data_K2TeOF4
_symmetry_space_group_name_H-M   'P 1'
_cell_length_a   7.95962427
_cell_length_b   7.95962427
_cell_length_c   6.74265338
_cell_angle_alpha   90.00000000
_cell_angle_beta   90.00000000
_cell_angle_gamma   131.88842658
_symmetry_Int_Tables_number   1
_chemical_formula_structural   K2TeOF4
_chemical_formula_sum   'K4 Te2 O2 F8'
_cell_volume   318.01632987
_cell_formula_units_Z   2
loop_
 _symmetry_equiv_pos_site_id
 _symmetry_equiv_pos_as_xyz
  1  'x, y, z'
loop_
 _atom_site_type_symbol
 _atom_site_label
 _atom_site_symmetry_multiplicity
 _atom_site_fract_x
 _atom_site_fract_y
 _atom_site_fract_z
 _atom_site_occupancy
  K  K0  1  -0.57523593  0.57523593  0.25000000  1.0
  K  K1  1  -0.42476407  1.42476407  0.75000000  1.0
  K  K2  1  -0.25130307  1.25130307  0.25000000  1.0
  K  K3  1  -0.74869693  0.74869693  0.75000000  1.0
  Te  Te4  1  -0.88939452  0.88939452  0.25000000  1.0
  Te  Te5  1  -0.11060548  1.11060548  0.75000000  1.0
  O  O6  1  -0.76094940  0.76094940  0.25000000  1.0
  O  O7  1  -0.23905060  1.23905060  0.75000000  1.0
  F  F8  1  -0.12490388  1.65132733  0.46970291  1.0
  F  F9  1  -0.12490388  1.65132733  0.03029709  1.0
  F  F10  1  -0.34867267  0.87509612  0.96970291  1.0
  F  F11  1  -0.34867267  0.87509612  0.53029709  1.0
  F  F12  1  -0.65132733  1.12490388  0.46970291  1.0
  F  F13  1  -0.65132733  1.12490388  0.03029709  1.0
  F  F14  1  0.12490388  1.34867267  0.96970291  1.0
  F  F15  1  0.12490388  1.34867267  0.53029709  1.0
