# generated using pymatgen
data_Cs2Se
_symmetry_space_group_name_H-M   'P 1'
_cell_length_a   10.54692367
_cell_length_b   5.99691225
_cell_length_c   11.47613767
_cell_angle_alpha   65.79810734
_cell_angle_beta   31.23958654
_cell_angle_gamma   82.96230612
_symmetry_Int_Tables_number   1
_chemical_formula_structural   Cs2Se
_chemical_formula_sum   'Cs4 Se2'
_cell_volume   300.84205255
_cell_formula_units_Z   2
loop_
 _symmetry_equiv_pos_site_id
 _symmetry_equiv_pos_as_xyz
  1  'x, y, z'
loop_
 _atom_site_type_symbol
 _atom_site_label
 _atom_site_symmetry_multiplicity
 _atom_site_fract_x
 _atom_site_fract_y
 _atom_site_fract_z
 _atom_site_occupancy
  Cs  Cs0  1  0.30706111  -0.21210576  0.56510170  1.0
  Cs  Cs1  1  0.68489830  0.91005705  -0.05706111  1.0
  Cs  Cs2  1  -0.21210576  0.30706111  0.33994295  1.0
  Cs  Cs3  1  0.91005705  0.68489830  -0.53789424  1.0
  Se  Se4  1  1.02864465  0.02864465  -0.02864465  1.0
  Se  Se5  1  0.27864465  0.27864465  0.22135535  1.0
