# generated using pymatgen
data_Ba2ZrF8
_symmetry_space_group_name_H-M   'P 1'
_cell_length_a   9.99870469
_cell_length_b   5.70761904
_cell_length_c   11.99261348
_cell_angle_alpha   90.00000000
_cell_angle_beta   90.00000000
_cell_angle_gamma   90.00000000
_symmetry_Int_Tables_number   1
_chemical_formula_structural   Ba2ZrF8
_chemical_formula_sum   'Ba8 Zr4 F32'
_cell_volume   684.40402764
_cell_formula_units_Z   4
loop_
 _symmetry_equiv_pos_site_id
 _symmetry_equiv_pos_as_xyz
  1  'x, y, z'
loop_
 _atom_site_type_symbol
 _atom_site_label
 _atom_site_symmetry_multiplicity
 _atom_site_fract_x
 _atom_site_fract_y
 _atom_site_fract_z
 _atom_site_occupancy
  Ba  Ba0  1  0.95387357  0.75000000  0.65933885  1.0
  Ba  Ba1  1  0.45387357  0.75000000  0.84066115  1.0
  Ba  Ba2  1  0.04612643  0.25000000  0.34066115  1.0
  Ba  Ba3  1  0.54612643  0.25000000  0.15933885  1.0
  Ba  Ba4  1  0.86270613  0.75000000  0.05950265  1.0
  Ba  Ba5  1  0.36270613  0.75000000  0.44049735  1.0
  Ba  Ba6  1  0.13729387  0.25000000  0.94049735  1.0
  Ba  Ba7  1  0.63729387  0.25000000  0.55950265  1.0
  Zr  Zr8  1  0.74098985  0.75000000  0.35946777  1.0
  Zr  Zr9  1  0.24098985  0.75000000  0.14053223  1.0
  Zr  Zr10  1  0.25901015  0.25000000  0.64053223  1.0
  Zr  Zr11  1  0.75901015  0.25000000  0.85946777  1.0
  F  F12  1  0.85214333  0.98119857  0.46590907  1.0
  F  F13  1  0.85214333  0.51880143  0.46590907  1.0
  F  F14  1  0.35214333  0.98119857  0.03409093  1.0
  F  F15  1  0.35214333  0.51880143  0.03409093  1.0
  F  F16  1  0.14785667  0.48119857  0.53409093  1.0
  F  F17  1  0.14785667  0.01880143  0.53409093  1.0
  F  F18  1  0.64785667  0.48119857  0.96590907  1.0
  F  F19  1  0.64785667  0.01880143  0.96590907  1.0
  F  F20  1  0.84674222  0.98353668  0.25738927  1.0
  F  F21  1  0.84674222  0.51646332  0.25738927  1.0
  F  F22  1  0.34674222  0.98353668  0.24261073  1.0
  F  F23  1  0.34674222  0.51646332  0.24261073  1.0
  F  F24  1  0.15325778  0.48353668  0.74261073  1.0
  F  F25  1  0.15325778  0.01646332  0.74261073  1.0
  F  F26  1  0.65325778  0.48353668  0.75738927  1.0
  F  F27  1  0.65325778  0.01646332  0.75738927  1.0
  F  F28  1  0.59648274  0.48718794  0.36052894  1.0
  F  F29  1  0.59648274  0.01281206  0.36052894  1.0
  F  F30  1  0.09648274  0.48718794  0.13947106  1.0
  F  F31  1  0.09648274  0.01281206  0.13947106  1.0
  F  F32  1  0.40351726  0.98718794  0.63947106  1.0
  F  F33  1  0.40351726  0.51281206  0.63947106  1.0
  F  F34  1  0.90351726  0.98718794  0.86052894  1.0
  F  F35  1  0.90351726  0.51281206  0.86052894  1.0
  F  F36  1  0.64104318  0.75000000  0.52293253  1.0
  F  F37  1  0.14104318  0.75000000  0.97706747  1.0
  F  F38  1  0.35895682  0.25000000  0.47706747  1.0
  F  F39  1  0.85895682  0.25000000  0.02293253  1.0
  F  F40  1  0.64317838  0.75000000  0.19211580  1.0
  F  F41  1  0.14317838  0.75000000  0.30788420  1.0
  F  F42  1  0.35682162  0.25000000  0.80788420  1.0
  F  F43  1  0.85682162  0.25000000  0.69211580  1.0
