# generated using pymatgen
data_CaCrF6
_symmetry_space_group_name_H-M   'P 1'
_cell_length_a   5.80477319
_cell_length_b   5.80477319
_cell_length_c   5.80477319
_cell_angle_alpha   59.82586383
_cell_angle_beta   59.82586383
_cell_angle_gamma   59.82586383
_symmetry_Int_Tables_number   1
_chemical_formula_structural   CaCrF6
_chemical_formula_sum   'Ca1 Cr1 F6'
_cell_volume   137.75927805
_cell_formula_units_Z   1
loop_
 _symmetry_equiv_pos_site_id
 _symmetry_equiv_pos_as_xyz
  1  'x, y, z'
loop_
 _atom_site_type_symbol
 _atom_site_label
 _atom_site_symmetry_multiplicity
 _atom_site_fract_x
 _atom_site_fract_y
 _atom_site_fract_z
 _atom_site_occupancy
  Ca  Ca0  1  0.50000000  0.50000000  -0.50000000  1.0
  Cr  Cr1  1  0.00000000  0.00000000  0.00000000  1.0
  F  F2  1  0.20113550  0.77612623  -0.75320933  1.0
  F  F3  1  0.75320933  -0.20113550  0.22387377  1.0
  F  F4  1  1.22387377  -0.24679067  -0.20113550  1.0
  F  F5  1  0.79886450  0.22387377  -0.24679067  1.0
  F  F6  1  0.24679067  0.20113550  -0.22387377  1.0
  F  F7  1  0.77612623  0.24679067  -0.79886450  1.0
