# generated using pymatgen
data_LiH4C2N4O5
_symmetry_space_group_name_H-M   'P 1'
_cell_length_a   7.30623254
_cell_length_b   3.68885590
_cell_length_c   12.61623455
_cell_angle_alpha   98.56419022
_cell_angle_beta   100.84725922
_cell_angle_gamma   88.02595040
_symmetry_Int_Tables_number   1
_chemical_formula_structural   LiH4C2N4O5
_chemical_formula_sum   'Li2 H8 C4 N8 O10'
_cell_volume   330.22178713
_cell_formula_units_Z   2
loop_
 _symmetry_equiv_pos_site_id
 _symmetry_equiv_pos_as_xyz
  1  'x, y, z'
loop_
 _atom_site_type_symbol
 _atom_site_label
 _atom_site_symmetry_multiplicity
 _atom_site_fract_x
 _atom_site_fract_y
 _atom_site_fract_z
 _atom_site_occupancy
  Li  Li0  1  -0.42632899  -0.96432711  -0.70420796  1.0
  Li  Li1  1  -0.57367101  -0.03567289  -0.29579204  1.0
  H  H2  1  -0.66954388  -0.89274601  -0.49957302  1.0
  H  H3  1  -0.33045612  -0.10725399  -0.50042698  1.0
  H  H4  1  -0.20853647  -0.78363219  -0.50731709  1.0
  H  H5  1  -0.79146353  -0.21636781  -0.49268291  1.0
  H  H6  1  -0.27057282  -0.58129115  -0.81740919  1.0
  H  H7  1  -0.72942718  -0.41870885  -0.18259081  1.0
  H  H8  1  -0.81911359  -0.52286611  -0.30358374  1.0
  H  H9  1  -0.18088641  -0.47713389  -0.69641626  1.0
  C  C10  1  -0.82245420  -0.92469669  -0.85871471  1.0
  C  C11  1  -0.17754580  -0.07530331  -0.14128529  1.0
  C  C12  1  -0.90566870  -0.03241993  -0.97253257  1.0
  C  C13  1  -0.09433130  -0.96758007  -0.02746743  1.0
  N  N14  1  -0.22055419  -0.78983559  -0.97718051  1.0
  N  N15  1  -0.77944581  -0.21016441  -0.02281949  1.0
  N  N16  1  -0.92108210  -0.73126579  -0.78789819  1.0
  N  N17  1  -0.07891790  -0.26873421  -0.21210181  1.0
  N  N18  1  -0.84080100  -0.66113803  -0.68418064  1.0
  N  N19  1  -0.15919900  -0.33886197  -0.31581936  1.0
  N  N20  1  -0.64695142  -0.04330440  -0.84437327  1.0
  N  N21  1  -0.35304858  -0.95669560  -0.15562673  1.0
  O  O22  1  -0.29715097  -0.96270144  -0.55305575  1.0
  O  O23  1  -0.70284903  -0.03729856  -0.44694425  1.0
  O  O24  1  -0.67695706  -0.76000389  -0.64639308  1.0
  O  O25  1  -0.32304294  -0.23999611  -0.35360692  1.0
  O  O26  1  -0.30426594  -0.50965849  -0.74534682  1.0
  O  O27  1  -0.69573406  -0.49034151  -0.25465318  1.0
  O  O28  1  -0.93949947  -0.48449392  -0.62112756  1.0
  O  O29  1  -0.06050053  -0.51550608  -0.37887244  1.0
  O  O30  1  -0.62144960  -0.21956998  -0.94581036  1.0
  O  O31  1  -0.37855040  -0.78043002  -0.05418964  1.0
