# generated using pymatgen
data_CsSn
_symmetry_space_group_name_H-M   'P 1'
_cell_length_a   13.34361647
_cell_length_b   13.34361647
_cell_length_c   13.34361647
_cell_angle_alpha   124.88266154
_cell_angle_beta   124.88266154
_cell_angle_gamma   81.73247512
_symmetry_Int_Tables_number   1
_chemical_formula_structural   CsSn
_chemical_formula_sum   'Cs16 Sn16'
_cell_volume   1538.35798666
_cell_formula_units_Z   16
loop_
 _symmetry_equiv_pos_site_id
 _symmetry_equiv_pos_as_xyz
  1  'x, y, z'
loop_
 _atom_site_type_symbol
 _atom_site_label
 _atom_site_symmetry_multiplicity
 _atom_site_fract_x
 _atom_site_fract_y
 _atom_site_fract_z
 _atom_site_occupancy
  Cs  Cs0  1  0.76565323  1.37500000  0.89065323  1.0
  Cs  Cs1  1  1.26565323  1.37500000  1.39065323  1.0
  Cs  Cs2  1  1.62500000  1.51565323  1.39065323  1.0
  Cs  Cs3  1  1.12500000  1.73434677  1.10934677  1.0
  Cs  Cs4  1  0.98434677  0.87500000  0.60934677  1.0
  Cs  Cs5  1  1.48434677  0.87500000  1.10934677  1.0
  Cs  Cs6  1  1.62500000  1.01565323  0.89065323  1.0
  Cs  Cs7  1  1.12500000  1.23434677  0.60934677  1.0
  Cs  Cs8  1  0.87097416  0.87097416  0.24194833  1.0
  Cs  Cs9  1  1.37097416  1.12902584  1.00000000  1.0
  Cs  Cs10  1  0.12097416  0.62097416  0.74194833  1.0
  Cs  Cs11  1  0.62097416  0.87902584  1.50000000  1.0
  Cs  Cs12  1  0.87902584  0.37902584  1.25805167  1.0
  Cs  Cs13  1  0.37902584  0.12097416  0.50000000  1.0
  Cs  Cs14  1  1.62902584  1.62902584  1.75805167  1.0
  Cs  Cs15  1  1.12902584  1.37097416  1.00000000  1.0
  Sn  Sn16  1  1.50888568  1.34312235  0.95779733  1.0
  Sn  Sn17  1  1.00888568  1.05108835  0.16576333  1.0
  Sn  Sn18  1  1.59312235  1.25888568  1.45779733  1.0
  Sn  Sn19  1  1.09312235  1.63532502  1.33423667  1.0
  Sn  Sn20  1  1.24111432  0.90687765  0.54220267  1.0
  Sn  Sn21  1  1.74111432  1.19891165  1.33423667  1.0
  Sn  Sn22  1  0.15687765  0.99111432  1.04220267  1.0
  Sn  Sn23  1  0.65687765  0.61467498  1.16576333  1.0
  Sn  Sn24  1  1.88532502  1.84312235  1.83423667  1.0
  Sn  Sn25  1  1.38532502  1.55108835  1.04220267  1.0
  Sn  Sn26  1  1.30108835  0.75888568  0.66576333  1.0
  Sn  Sn27  1  0.80108835  1.13532502  0.54220267  1.0
  Sn  Sn28  1  0.86467498  1.40687765  0.66576333  1.0
  Sn  Sn29  1  1.36467498  1.69891165  1.45779733  1.0
  Sn  Sn30  1  0.44891165  0.49111432  0.83423667  1.0
  Sn  Sn31  1  0.94891165  0.11467498  0.95779733  1.0
