# generated using pymatgen
data_Ba5Pb3
_symmetry_space_group_name_H-M   'P 1'
_cell_length_a   10.88946357
_cell_length_b   10.88946357
_cell_length_c   10.88946357
_cell_angle_alpha   130.41544169
_cell_angle_beta   130.41544169
_cell_angle_gamma   72.74348079
_symmetry_Int_Tables_number   1
_chemical_formula_structural   Ba5Pb3
_chemical_formula_sum   'Ba10 Pb6'
_cell_volume   731.28594910
_cell_formula_units_Z   2
loop_
 _symmetry_equiv_pos_site_id
 _symmetry_equiv_pos_as_xyz
  1  'x, y, z'
loop_
 _atom_site_type_symbol
 _atom_site_label
 _atom_site_symmetry_multiplicity
 _atom_site_fract_x
 _atom_site_fract_y
 _atom_site_fract_z
 _atom_site_occupancy
  Ba  Ba0  1  1.18014093  0.68014093  1.14685420  1.0
  Ba  Ba1  1  0.46671327  0.96671327  1.14685420  1.0
  Ba  Ba2  1  1.03328673  1.18014093  1.50000000  1.0
  Ba  Ba3  1  0.31985907  0.46671327  0.50000000  1.0
  Ba  Ba4  1  0.68014093  0.53328673  0.50000000  1.0
  Ba  Ba5  1  0.96671327  0.81985907  1.50000000  1.0
  Ba  Ba6  1  0.53328673  1.03328673  0.85314580  1.0
  Ba  Ba7  1  0.81985907  0.31985907  0.85314580  1.0
  Ba  Ba8  1  -0.00000000  -0.00000000  -0.00000000  1.0
  Ba  Ba9  1  0.50000000  0.50000000  1.00000000  1.0
  Pb  Pb10  1  0.87987966  0.37987966  1.25975932  1.0
  Pb  Pb11  1  0.62012034  0.87987966  1.50000000  1.0
  Pb  Pb12  1  0.37987966  0.12012034  0.50000000  1.0
  Pb  Pb13  1  0.12012034  0.62012034  0.74024068  1.0
  Pb  Pb14  1  0.75000000  0.75000000  1.00000000  1.0
  Pb  Pb15  1  0.25000000  0.25000000  -0.00000000  1.0
