# generated using pymatgen
data_B3H5N3
_symmetry_space_group_name_H-M   'P 1'
_cell_length_a   11.28437875
_cell_length_b   11.28437875
_cell_length_c   5.91750904
_cell_angle_alpha   79.11278253
_cell_angle_beta   100.88721747
_cell_angle_gamma   49.60149907
_symmetry_Int_Tables_number   1
_chemical_formula_structural   B3H5N3
_chemical_formula_sum   'B12 H20 N12'
_cell_volume   512.38013342
_cell_formula_units_Z   4
loop_
 _symmetry_equiv_pos_site_id
 _symmetry_equiv_pos_as_xyz
  1  'x, y, z'
loop_
 _atom_site_type_symbol
 _atom_site_label
 _atom_site_symmetry_multiplicity
 _atom_site_fract_x
 _atom_site_fract_y
 _atom_site_fract_z
 _atom_site_occupancy
  B  B0  1  1.60223504  -0.23695926  0.86703240  1.0
  B  B1  1  1.23695926  0.39776496  0.36703240  1.0
  B  B2  1  0.76304074  0.60223504  0.63296760  1.0
  B  B3  1  1.39776496  0.23695926  0.13296760  1.0
  B  B4  1  1.81595766  -0.01938069  0.86583113  1.0
  B  B5  1  1.01938069  0.18404234  0.36583113  1.0
  B  B6  1  0.98061931  0.81595766  0.63416887  1.0
  B  B7  1  1.18404234  0.01938069  0.13416887  1.0
  B  B8  1  0.79121220  0.79121220  0.75000000  1.0
  B  B9  1  1.20878780  0.20878780  0.25000000  1.0
  B  B10  1  0.57618050  0.57618050  0.75000000  1.0
  B  B11  1  1.42381950  0.42381950  0.25000000  1.0
  H  H12  1  1.45365446  -0.27570042  0.94991537  1.0
  H  H13  1  1.27570042  0.54634554  0.44991537  1.0
  H  H14  1  0.72429958  0.45365446  0.55008463  1.0
  H  H15  1  1.54634554  0.27570042  0.05008463  1.0
  H  H16  1  1.66643964  -0.05742093  0.94592899  1.0
  H  H17  1  1.05742093  0.33356036  0.44592899  1.0
  H  H18  1  0.94257907  0.66643964  0.55407101  1.0
  H  H19  1  1.33356036  0.05742093  0.05407101  1.0
  H  H20  1  1.55970800  -0.14033870  0.96744996  1.0
  H  H21  1  1.14033870  0.44029200  0.46744996  1.0
  H  H22  1  0.85966130  0.55970800  0.53255004  1.0
  H  H23  1  1.44029200  0.14033870  0.03255004  1.0
  H  H24  1  1.77619334  0.07876655  0.96283872  1.0
  H  H25  1  0.92123345  0.22380666  0.46283872  1.0
  H  H26  1  1.07876655  0.77619334  0.53716128  1.0
  H  H27  1  1.22380666  -0.07876655  0.03716128  1.0
  H  H28  1  0.98183092  0.98183092  0.75000000  1.0
  H  H29  1  1.01816908  0.01816908  0.25000000  1.0
  H  H30  1  0.51762387  0.51762387  0.75000000  1.0
  H  H31  1  1.48237613  0.48237613  0.25000000  1.0
  N  N32  1  1.53529999  -0.30910910  0.86606925  1.0
  N  N33  1  1.30910910  0.46470001  0.36606925  1.0
  N  N34  1  0.69089090  0.53529999  0.63393075  1.0
  N  N35  1  1.46470001  0.30910910  0.13393075  1.0
  N  N36  1  1.74906874  -0.09158814  0.86391924  1.0
  N  N37  1  1.09158814  0.25093126  0.36391924  1.0
  N  N38  1  0.90841186  0.74906874  0.63608076  1.0
  N  N39  1  1.25093126  0.09158814  0.13608076  1.0
  N  N40  1  0.93232622  0.93232622  0.75000000  1.0
  N  N41  1  1.06767378  0.06767378  0.25000000  1.0
  N  N42  1  0.71914037  0.71914037  0.75000000  1.0
  N  N43  1  1.28085963  0.28085963  0.25000000  1.0
