# generated using pymatgen
data_MnV2HPb2O9
_symmetry_space_group_name_H-M   'P 1'
_cell_length_a   7.76885163
_cell_length_b   6.30457901
_cell_length_c   8.70925535
_cell_angle_alpha   90.00000000
_cell_angle_beta   110.11880718
_cell_angle_gamma   90.00000000
_symmetry_Int_Tables_number   1
_chemical_formula_structural   MnV2HPb2O9
_chemical_formula_sum   'Mn2 V4 H2 Pb4 O18'
_cell_volume   400.54464577
_cell_formula_units_Z   2
loop_
 _symmetry_equiv_pos_site_id
 _symmetry_equiv_pos_as_xyz
  1  'x, y, z'
loop_
 _atom_site_type_symbol
 _atom_site_label
 _atom_site_symmetry_multiplicity
 _atom_site_fract_x
 _atom_site_fract_y
 _atom_site_fract_z
 _atom_site_occupancy
  O  O0  1  0.83858370  0.75000000  0.92518937  1.0
  O  O1  1  0.16141630  0.25000000  0.07481063  1.0
  O  O2  1  0.97788208  0.98001753  0.21022071  1.0
  O  O3  1  0.02211792  0.48001753  0.78977929  1.0
  O  O4  1  0.02211792  0.01998247  0.78977929  1.0
  O  O5  1  0.97788208  0.51998247  0.21022071  1.0
  O  O6  1  0.91389985  0.75000000  0.46142910  1.0
  O  O7  1  0.08610015  0.25000000  0.53857090  1.0
  O  O8  1  0.25883641  0.75000000  0.45218488  1.0
  O  O9  1  0.74116359  0.25000000  0.54781512  1.0
  O  O10  1  0.55075664  0.75000000  0.02943353  1.0
  O  O11  1  0.44924336  0.25000000  0.97056647  1.0
  O  O12  1  0.51636921  0.96960410  0.30091845  1.0
  O  O13  1  0.48363079  0.46960410  0.69908155  1.0
  O  O14  1  0.48363079  0.03039590  0.69908155  1.0
  O  O15  1  0.51636921  0.53039590  0.30091845  1.0
  O  O16  1  0.21264109  0.75000000  0.06622463  1.0
  O  O17  1  0.78735891  0.25000000  0.93377537  1.0
  V  V18  1  0.03348403  0.75000000  0.33427060  1.0
  V  V19  1  0.96651597  0.25000000  0.66572940  1.0
  V  V20  1  0.44787174  0.75000000  0.17222897  1.0
  V  V21  1  0.55212826  0.25000000  0.82777103  1.0
  Mn  Mn22  1  0.00000000  0.00000000  0.00000000  1.0
  Mn  Mn23  1  0.00000000  0.50000000  0.00000000  1.0
  H  H24  1  0.73766432  0.75000000  0.97344862  1.0
  H  H25  1  0.26233568  0.25000000  0.02655138  1.0
  Pb  Pb26  1  0.27878528  0.75000000  0.75114749  1.0
  Pb  Pb27  1  0.72121472  0.25000000  0.24885251  1.0
  Pb  Pb28  1  0.65982657  0.75000000  0.57192245  1.0
  Pb  Pb29  1  0.34017343  0.25000000  0.42807755  1.0
