# generated using pymatgen
data_Hf3NiSb7
_symmetry_space_group_name_H-M   'P 1'
_cell_length_a   17.49086579
_cell_length_b   3.96184688
_cell_length_c   14.50505949
_cell_angle_alpha   90.00000000
_cell_angle_beta   90.00000000
_cell_angle_gamma   90.00000000
_symmetry_Int_Tables_number   1
_chemical_formula_structural   Hf3NiSb7
_chemical_formula_sum   'Hf12 Ni4 Sb28'
_cell_volume   1005.14451864
_cell_formula_units_Z   4
loop_
 _symmetry_equiv_pos_site_id
 _symmetry_equiv_pos_as_xyz
  1  'x, y, z'
loop_
 _atom_site_type_symbol
 _atom_site_label
 _atom_site_symmetry_multiplicity
 _atom_site_fract_x
 _atom_site_fract_y
 _atom_site_fract_z
 _atom_site_occupancy
  Hf  Hf0  1  0.84705751  0.25000000  0.30966131  1.0
  Hf  Hf1  1  0.34705751  0.25000000  0.19033869  1.0
  Hf  Hf2  1  0.15294249  0.75000000  0.69033869  1.0
  Hf  Hf3  1  0.65294249  0.75000000  0.80966131  1.0
  Hf  Hf4  1  0.87036694  0.25000000  0.02909845  1.0
  Hf  Hf5  1  0.37036694  0.25000000  0.47090155  1.0
  Hf  Hf6  1  0.12963306  0.75000000  0.97090155  1.0
  Hf  Hf7  1  0.62963306  0.75000000  0.52909845  1.0
  Hf  Hf8  1  0.89291980  0.25000000  0.59014632  1.0
  Hf  Hf9  1  0.39291980  0.25000000  0.90985368  1.0
  Hf  Hf10  1  0.10708020  0.75000000  0.40985368  1.0
  Hf  Hf11  1  0.60708020  0.75000000  0.09014632  1.0
  Ni  Ni12  1  0.93728270  0.25000000  0.81083287  1.0
  Ni  Ni13  1  0.43728270  0.25000000  0.68916713  1.0
  Ni  Ni14  1  0.06271730  0.75000000  0.18916713  1.0
  Ni  Ni15  1  0.56271730  0.75000000  0.31083287  1.0
  Sb  Sb16  1  0.52165305  0.25000000  0.20225641  1.0
  Sb  Sb17  1  0.02165305  0.25000000  0.29774359  1.0
  Sb  Sb18  1  0.47834695  0.75000000  0.79774359  1.0
  Sb  Sb19  1  0.97834695  0.75000000  0.70225641  1.0
  Sb  Sb20  1  0.53765814  0.25000000  0.42355882  1.0
  Sb  Sb21  1  0.03765814  0.25000000  0.07644118  1.0
  Sb  Sb22  1  0.46234186  0.75000000  0.57644118  1.0
  Sb  Sb23  1  0.96234186  0.75000000  0.92355882  1.0
  Sb  Sb24  1  0.57121658  0.25000000  0.94028984  1.0
  Sb  Sb25  1  0.07121658  0.25000000  0.55971016  1.0
  Sb  Sb26  1  0.42878342  0.75000000  0.05971016  1.0
  Sb  Sb27  1  0.92878342  0.75000000  0.44028984  1.0
  Sb  Sb28  1  0.59310646  0.25000000  0.67472099  1.0
  Sb  Sb29  1  0.09310646  0.25000000  0.82527901  1.0
  Sb  Sb30  1  0.40689354  0.75000000  0.32527901  1.0
  Sb  Sb31  1  0.90689354  0.75000000  0.17472099  1.0
  Sb  Sb32  1  0.72773618  0.25000000  0.14641464  1.0
  Sb  Sb33  1  0.22773618  0.25000000  0.35358536  1.0
  Sb  Sb34  1  0.27226382  0.75000000  0.85358536  1.0
  Sb  Sb35  1  0.77226382  0.75000000  0.64641464  1.0
  Sb  Sb36  1  0.74810221  0.25000000  0.47867429  1.0
  Sb  Sb37  1  0.24810221  0.25000000  0.02132571  1.0
  Sb  Sb38  1  0.25189779  0.75000000  0.52132571  1.0
  Sb  Sb39  1  0.75189779  0.75000000  0.97867429  1.0
  Sb  Sb40  1  0.78915346  0.25000000  0.81584447  1.0
  Sb  Sb41  1  0.28915346  0.25000000  0.68415553  1.0
  Sb  Sb42  1  0.21084654  0.75000000  0.18415553  1.0
  Sb  Sb43  1  0.71084654  0.75000000  0.31584447  1.0
