# generated using pymatgen
data_Mg6Ni16As7
_symmetry_space_group_name_H-M   'P 1'
_cell_length_a   8.19012137
_cell_length_b   8.19012137
_cell_length_c   8.19012137
_cell_angle_alpha   60.00000000
_cell_angle_beta   60.00000000
_cell_angle_gamma   60.00000000
_symmetry_Int_Tables_number   1
_chemical_formula_structural   Mg6Ni16As7
_chemical_formula_sum   'Mg6 Ni16 As7'
_cell_volume   388.46868498
_cell_formula_units_Z   1
loop_
 _symmetry_equiv_pos_site_id
 _symmetry_equiv_pos_as_xyz
  1  'x, y, z'
loop_
 _atom_site_type_symbol
 _atom_site_label
 _atom_site_symmetry_multiplicity
 _atom_site_fract_x
 _atom_site_fract_y
 _atom_site_fract_z
 _atom_site_occupancy
  Mg  Mg0  1  -0.70033031  0.70033031  0.70033031  1.0
  Mg  Mg1  1  -0.29966969  0.29966969  0.70033031  1.0
  Mg  Mg2  1  0.70033031  0.70033031  -0.70033031  1.0
  Mg  Mg3  1  0.29966969  1.29966969  -0.29966969  1.0
  Mg  Mg4  1  0.29966969  -0.29966969  1.29966969  1.0
  Mg  Mg5  1  -0.29966969  0.29966969  0.29966969  1.0
  Ni  Ni6  1  0.88181397  0.88181397  -0.11818603  1.0
  Ni  Ni7  1  1.11818603  0.11818603  0.64544191  1.0
  Ni  Ni8  1  1.11818603  0.64544191  0.11818603  1.0
  Ni  Ni9  1  0.35455809  0.88181397  -0.11818603  1.0
  Ni  Ni10  1  1.64544191  0.11818603  0.11818603  1.0
  Ni  Ni11  1  0.88181397  0.35455809  -0.11818603  1.0
  Ni  Ni12  1  0.88181397  0.88181397  -0.64544191  1.0
  Ni  Ni13  1  1.11818603  0.11818603  0.11818603  1.0
  Ni  Ni14  1  0.66732271  0.66732271  -0.33267729  1.0
  Ni  Ni15  1  1.33267729  0.33267729  0.00196812  1.0
  Ni  Ni16  1  1.33267729  0.00196812  0.33267729  1.0
  Ni  Ni17  1  0.99803188  0.66732271  -0.33267729  1.0
  Ni  Ni18  1  1.00196812  0.33267729  0.33267729  1.0
  Ni  Ni19  1  0.66732271  0.99803188  -0.33267729  1.0
  Ni  Ni20  1  0.66732271  0.66732271  -0.00196812  1.0
  Ni  Ni21  1  1.33267729  0.33267729  0.33267729  1.0
  As  As22  1  1.50000000  -0.00000000  0.00000000  1.0
  As  As23  1  1.00000000  0.50000000  -0.50000000  1.0
  As  As24  1  -0.00000000  1.50000000  0.00000000  1.0
  As  As25  1  0.50000000  1.00000000  -0.50000000  1.0
  As  As26  1  -0.00000000  0.00000000  0.50000000  1.0
  As  As27  1  0.50000000  -0.50000000  1.00000000  1.0
  As  As28  1  -0.00000000  0.00000000  0.00000000  1.0
