# generated using pymatgen
data_HfTl2PbSe4
_symmetry_space_group_name_H-M   'P 1'
_cell_length_a   9.15068112
_cell_length_b   9.15068112
_cell_length_c   7.11170851
_cell_angle_alpha   73.39821535
_cell_angle_beta   106.60178465
_cell_angle_gamma   123.98969344
_symmetry_Int_Tables_number   1
_chemical_formula_structural   HfTl2PbSe4
_chemical_formula_sum   'Hf2 Tl4 Pb2 Se8'
_cell_volume   467.18197861
_cell_formula_units_Z   2
loop_
 _symmetry_equiv_pos_site_id
 _symmetry_equiv_pos_as_xyz
  1  'x, y, z'
loop_
 _atom_site_type_symbol
 _atom_site_label
 _atom_site_symmetry_multiplicity
 _atom_site_fract_x
 _atom_site_fract_y
 _atom_site_fract_z
 _atom_site_occupancy
  Hf  Hf0  1  0.87577889  0.87577889  0.25000000  1.0
  Hf  Hf1  1  0.12422111  0.12422111  0.75000000  1.0
  Tl  Tl2  1  0.37918729  -0.12180433  0.26608132  1.0
  Tl  Tl3  1  1.12180433  0.62081271  0.76608132  1.0
  Tl  Tl4  1  0.87819567  0.37918729  0.23391868  1.0
  Tl  Tl5  1  0.62081271  0.12180433  0.73391868  1.0
  Pb  Pb6  1  0.37470442  0.37470442  0.25000000  1.0
  Pb  Pb7  1  0.62529558  0.62529558  0.75000000  1.0
  Se  Se8  1  0.80097000  -0.00372516  0.49630641  1.0
  Se  Se9  1  1.00372516  0.19903000  0.99630641  1.0
  Se  Se10  1  0.99627484  0.80097000  0.00369359  1.0
  Se  Se11  1  0.19903000  0.00372516  0.50369359  1.0
  Se  Se12  1  0.55087913  -0.23490220  0.03642228  1.0
  Se  Se13  1  1.23490220  0.44912087  0.53642228  1.0
  Se  Se14  1  0.76509780  0.55087913  0.46357772  1.0
  Se  Se15  1  0.44912087  0.23490220  0.96357772  1.0
