# generated using pymatgen
data_LaCoGe2
_symmetry_space_group_name_H-M   'P 1'
_cell_length_a   8.71335646
_cell_length_b   8.71335646
_cell_length_c   4.26571640
_cell_angle_alpha   90.00000000
_cell_angle_beta   90.00000000
_cell_angle_gamma   151.28231269
_symmetry_Int_Tables_number   1
_chemical_formula_structural   LaCoGe2
_chemical_formula_sum   'La2 Co2 Ge4'
_cell_volume   155.61488518
_cell_formula_units_Z   2
loop_
 _symmetry_equiv_pos_site_id
 _symmetry_equiv_pos_as_xyz
  1  'x, y, z'
loop_
 _atom_site_type_symbol
 _atom_site_label
 _atom_site_symmetry_multiplicity
 _atom_site_fract_x
 _atom_site_fract_y
 _atom_site_fract_z
 _atom_site_occupancy
  La  La0  1  0.39049804  0.60950196  0.75000000  1.0
  La  La1  1  -0.39049804  0.39049804  0.25000000  1.0
  Co  Co2  1  0.18272259  0.81727741  0.75000000  1.0
  Co  Co3  1  -0.18272259  0.18272259  0.25000000  1.0
  Ge  Ge4  1  0.04561846  0.95438154  0.75000000  1.0
  Ge  Ge5  1  -0.04561846  0.04561846  0.25000000  1.0
  Ge  Ge6  1  -0.24995182  0.24995182  0.75000000  1.0
  Ge  Ge7  1  0.24995182  0.75004818  0.25000000  1.0
