# generated using pymatgen
data_Lu4MgPd
_symmetry_space_group_name_H-M   'P 1'
_cell_length_a   9.56327263
_cell_length_b   9.56327263
_cell_length_c   9.56327263
_cell_angle_alpha   60.00000000
_cell_angle_beta   60.00000000
_cell_angle_gamma   60.00000000
_symmetry_Int_Tables_number   1
_chemical_formula_structural   Lu4MgPd
_chemical_formula_sum   'Lu16 Mg4 Pd4'
_cell_volume   618.45002636
_cell_formula_units_Z   4
loop_
 _symmetry_equiv_pos_site_id
 _symmetry_equiv_pos_as_xyz
  1  'x, y, z'
loop_
 _atom_site_type_symbol
 _atom_site_label
 _atom_site_symmetry_multiplicity
 _atom_site_fract_x
 _atom_site_fract_y
 _atom_site_fract_z
 _atom_site_occupancy
  Lu  Lu0  1  0.06679852  0.43320148  0.43320148  1.0
  Lu  Lu1  1  0.43320148  0.43320148  0.06679852  1.0
  Lu  Lu2  1  0.43320148  0.06679852  0.43320148  1.0
  Lu  Lu3  1  0.06679852  0.06679852  0.43320148  1.0
  Lu  Lu4  1  0.06679852  0.43320148  0.06679852  1.0
  Lu  Lu5  1  0.43320148  0.06679852  0.06679852  1.0
  Lu  Lu6  1  -0.81082621  0.81082621  0.81082621  1.0
  Lu  Lu7  1  -0.18917379  0.81082621  0.18917379  1.0
  Lu  Lu8  1  -0.18917379  0.18917379  0.81082621  1.0
  Lu  Lu9  1  0.18917379  1.18917379  -0.18917379  1.0
  Lu  Lu10  1  0.18917379  -0.18917379  0.18917379  1.0
  Lu  Lu11  1  -0.18917379  0.18917379  0.18917379  1.0
  Lu  Lu12  1  -0.35163958  0.64836042  0.64836042  1.0
  Lu  Lu13  1  1.05491875  0.64836042  -0.35163958  1.0
  Lu  Lu14  1  -0.35163958  0.64836042  1.05491875  1.0
  Lu  Lu15  1  0.64836042  1.05491875  -0.35163958  1.0
  Mg  Mg16  1  0.41966602  1.41966602  0.41966602  1.0
  Mg  Mg17  1  -0.25899807  0.41966602  0.41966602  1.0
  Mg  Mg18  1  0.41966602  1.41966602  -0.25899807  1.0
  Mg  Mg19  1  0.41966602  -0.25899807  0.41966602  1.0
  Pd  Pd20  1  0.85617052  0.85617052  -0.14382948  1.0
  Pd  Pd21  1  0.43148843  0.85617052  -0.14382948  1.0
  Pd  Pd22  1  0.85617052  0.85617052  -0.56851157  1.0
  Pd  Pd23  1  0.85617052  0.43148843  -0.14382948  1.0
