# generated using pymatgen
data_AgBi2S3Cl
_symmetry_space_group_name_H-M   'P 1'
_cell_length_a   7.90609481
_cell_length_b   4.04297790
_cell_length_c   10.82724432
_cell_angle_alpha   90.00000000
_cell_angle_beta   102.73428433
_cell_angle_gamma   90.00000000
_symmetry_Int_Tables_number   1
_chemical_formula_structural   AgBi2S3Cl
_chemical_formula_sum   'Ag2 Bi4 S6 Cl2'
_cell_volume   337.57115403
_cell_formula_units_Z   2
loop_
 _symmetry_equiv_pos_site_id
 _symmetry_equiv_pos_as_xyz
  1  'x, y, z'
loop_
 _atom_site_type_symbol
 _atom_site_label
 _atom_site_symmetry_multiplicity
 _atom_site_fract_x
 _atom_site_fract_y
 _atom_site_fract_z
 _atom_site_occupancy
  Ag  Ag0  1  0.93715010  0.25000000  0.09371282  1.0
  Ag  Ag1  1  0.06284990  0.75000000  0.90628718  1.0
  Bi  Bi2  1  0.81238433  0.25000000  0.57141845  1.0
  Bi  Bi3  1  0.18761567  0.75000000  0.42858155  1.0
  Bi  Bi4  1  0.45417363  0.25000000  0.15288074  1.0
  Bi  Bi5  1  0.54582637  0.75000000  0.84711926  1.0
  S  S6  1  0.96306999  0.25000000  0.35355328  1.0
  S  S7  1  0.03693001  0.75000000  0.64644672  1.0
  S  S8  1  0.80167989  0.25000000  0.83985470  1.0
  S  S9  1  0.19832011  0.75000000  0.16014530  1.0
  S  S10  1  0.32040157  0.25000000  0.91085037  1.0
  S  S11  1  0.67959843  0.75000000  0.08914963  1.0
  Cl  Cl12  1  0.40417318  0.25000000  0.60034935  1.0
  Cl  Cl13  1  0.59582682  0.75000000  0.39965065  1.0
