# generated using pymatgen
data_SbOsS
_symmetry_space_group_name_H-M   'P 1'
_cell_length_a   6.28528193
_cell_length_b   6.19618931
_cell_length_c   6.29172511
_cell_angle_alpha   90.00000000
_cell_angle_beta   111.60304854
_cell_angle_gamma   90.00000000
_symmetry_Int_Tables_number   1
_chemical_formula_structural   SbOsS
_chemical_formula_sum   'Sb4 Os4 S4'
_cell_volume   227.81829089
_cell_formula_units_Z   4
loop_
 _symmetry_equiv_pos_site_id
 _symmetry_equiv_pos_as_xyz
  1  'x, y, z'
loop_
 _atom_site_type_symbol
 _atom_site_label
 _atom_site_symmetry_multiplicity
 _atom_site_fract_x
 _atom_site_fract_y
 _atom_site_fract_z
 _atom_site_occupancy
  Sb  Sb0  1  0.64860715  0.86952840  0.37245641  1.0
  Sb  Sb1  1  0.64860715  0.63047160  0.87245641  1.0
  Sb  Sb2  1  0.35139285  0.36952840  0.12754359  1.0
  Sb  Sb3  1  0.35139285  0.13047160  0.62754359  1.0
  Os  Os4  1  0.79671342  0.48556153  0.30251103  1.0
  Os  Os5  1  0.79671342  0.01443847  0.80251103  1.0
  Os  Os6  1  0.20328658  0.98556153  0.19748897  1.0
  Os  Os7  1  0.20328658  0.51443847  0.69748897  1.0
  S  S8  1  0.85345515  0.13314241  0.17954760  1.0
  S  S9  1  0.85345515  0.36685759  0.67954760  1.0
  S  S10  1  0.14654485  0.63314241  0.32045240  1.0
  S  S11  1  0.14654485  0.86685759  0.82045240  1.0
