# generated using pymatgen
data_FePH6NO5
_symmetry_space_group_name_H-M   'P 1'
_cell_length_a   5.74689480
_cell_length_b   9.02858816
_cell_length_c   4.81928015
_cell_angle_alpha   90.00000000
_cell_angle_beta   90.00000000
_cell_angle_gamma   90.00000000
_symmetry_Int_Tables_number   1
_chemical_formula_structural   FePH6NO5
_chemical_formula_sum   'Fe2 P2 H12 N2 O10'
_cell_volume   250.05483883
_cell_formula_units_Z   2
loop_
 _symmetry_equiv_pos_site_id
 _symmetry_equiv_pos_as_xyz
  1  'x, y, z'
loop_
 _atom_site_type_symbol
 _atom_site_label
 _atom_site_symmetry_multiplicity
 _atom_site_fract_x
 _atom_site_fract_y
 _atom_site_fract_z
 _atom_site_occupancy
  H  H0  1  0.14804321  0.91301090  0.45377825  1.0
  H  H1  1  0.64804321  0.08698910  0.95377825  1.0
  H  H2  1  0.85195679  0.91301090  0.45377825  1.0
  H  H3  1  0.35195679  0.08698910  0.95377825  1.0
  H  H4  1  0.13553653  0.68152381  0.91301514  1.0
  H  H5  1  0.63553653  0.31847619  0.41301514  1.0
  H  H6  1  0.86446347  0.68152381  0.91301514  1.0
  H  H7  1  0.36446347  0.31847619  0.41301514  1.0
  H  H8  1  0.50000000  0.95372128  0.77814921  1.0
  H  H9  1  0.00000000  0.04627872  0.27814921  1.0
  H  H10  1  0.50000000  0.95651646  0.13845149  1.0
  H  H11  1  0.00000000  0.04348354  -0.36154851  1.0
  O  O12  1  0.28051754  0.62579114  0.56511673  1.0
  O  O13  1  0.78051754  0.37420886  0.06511673  1.0
  O  O14  1  0.71948246  0.62579114  0.56511673  1.0
  O  O15  1  0.21948246  0.37420886  0.06511673  1.0
  O  O16  1  0.50000000  0.86686280  0.45617486  1.0
  O  O17  1  0.00000000  0.13313720  -0.04382514  1.0
  O  O18  1  0.50000000  0.66017166  0.10365657  1.0
  O  O19  1  0.00000000  0.33982834  0.60365657  1.0
  O  O20  1  0.50000000  0.30616374  0.53710668  1.0
  O  O21  1  0.00000000  0.69383626  0.03710668  1.0
  P  P22  1  0.50000000  0.69499169  0.41744342  1.0
  P  P23  1  0.00000000  0.30500831  -0.08255658  1.0
  N  N24  1  0.50000000  0.02170060  -0.04358444  1.0
  N  N25  1  0.00000000  0.97829940  0.45641556  1.0
  Fe  Fe26  1  0.50000000  0.47984500  0.85698197  1.0
  Fe  Fe27  1  0.00000000  0.52015500  0.35698197  1.0
