# generated using pymatgen
data_MgH12C2(N5O2)2
_symmetry_space_group_name_H-M   'P 1'
_cell_length_a   5.97921906
_cell_length_b   7.39885998
_cell_length_c   7.63392343
_cell_angle_alpha   60.05815860
_cell_angle_beta   67.64150179
_cell_angle_gamma   74.13212343
_symmetry_Int_Tables_number   1
_chemical_formula_structural   MgH12C2(N5O2)2
_chemical_formula_sum   'Mg1 H12 C2 N10 O4'
_cell_volume   269.16994204
_cell_formula_units_Z   1
loop_
 _symmetry_equiv_pos_site_id
 _symmetry_equiv_pos_as_xyz
  1  'x, y, z'
loop_
 _atom_site_type_symbol
 _atom_site_label
 _atom_site_symmetry_multiplicity
 _atom_site_fract_x
 _atom_site_fract_y
 _atom_site_fract_z
 _atom_site_occupancy
  Mg  Mg0  1  0.00000000  0.00000000  0.00000000  1.0
  H  H1  1  0.44114011  -0.80005810  0.50413924  1.0
  H  H2  1  -0.44114011  -0.19994190  0.49586076  1.0
  H  H3  1  0.58258177  -0.81152388  0.17135912  1.0
  H  H4  1  -0.58258177  -0.18847612  0.82864088  1.0
  H  H5  1  0.31859009  -0.59280719  0.32103305  1.0
  H  H6  1  -0.31859009  -0.40719281  0.67896695  1.0
  H  H7  1  -0.06788010  -0.85757423  0.59815723  1.0
  H  H8  1  0.06788010  -0.14242577  0.40184277  1.0
  H  H9  1  -0.53236091  -0.19322172  1.02040616  1.0
  H  H10  1  0.53236091  -0.80677828  -0.02040616  1.0
  H  H11  1  -0.01376111  -0.89807316  0.30080776  1.0
  H  H12  1  0.01376111  -0.10192684  0.69919224  1.0
  C  C13  1  0.65955539  -0.56904682  0.30208512  1.0
  C  C14  1  -0.65955539  -0.43095318  0.69791488  1.0
  N  N15  1  0.11900643  -0.67814036  0.83895768  1.0
  N  N16  1  -0.11900643  -0.32185964  0.16104232  1.0
  N  N17  1  0.47699892  -0.68316672  0.35311587  1.0
  N  N18  1  -0.47699892  -0.31683328  0.64688413  1.0
  N  N19  1  0.13485346  -0.34499774  0.63891807  1.0
  N  N20  1  -0.13485346  -0.65500226  0.36108193  1.0
  N  N21  1  0.00089089  -0.50616506  0.73057997  1.0
  N  N22  1  -0.00089089  -0.49383494  0.26942003  1.0
  N  N23  1  -0.66489857  -0.63749993  0.82247647  1.0
  N  N24  1  0.66489857  -0.36250007  0.17752353  1.0
  O  O25  1  0.63824945  -0.87970841  0.07603653  1.0
  O  O26  1  -0.63824945  -0.12029159  0.92396347  1.0
  O  O27  1  -0.00768210  -0.97470118  0.71712597  1.0
  O  O28  1  0.00768210  -0.02529882  0.28287403  1.0
