# generated using pymatgen
data_Na3Ca3AlP4
_symmetry_space_group_name_H-M   'P 1'
_cell_length_a   9.21168953
_cell_length_b   9.21168953
_cell_length_c   7.02476281
_cell_angle_alpha   90.00000000
_cell_angle_beta   90.00000000
_cell_angle_gamma   120.00000000
_symmetry_Int_Tables_number   1
_chemical_formula_structural   Na3Ca3AlP4
_chemical_formula_sum   'Na6 Ca6 Al2 P8'
_cell_volume   516.22719647
_cell_formula_units_Z   2
loop_
 _symmetry_equiv_pos_site_id
 _symmetry_equiv_pos_as_xyz
  1  'x, y, z'
loop_
 _atom_site_type_symbol
 _atom_site_label
 _atom_site_symmetry_multiplicity
 _atom_site_fract_x
 _atom_site_fract_y
 _atom_site_fract_z
 _atom_site_occupancy
  Na  Na0  1  0.13600406  0.27200812  0.44930706  1.0
  Na  Na1  1  0.72799188  0.86399594  0.44930706  1.0
  Na  Na2  1  0.13600406  0.86399594  0.44930706  1.0
  Na  Na3  1  0.86399594  0.72799188  0.94930706  1.0
  Na  Na4  1  0.27200812  0.13600406  0.94930706  1.0
  Na  Na5  1  0.86399594  0.13600406  0.94930706  1.0
  Ca  Ca6  1  0.52610479  0.05220958  0.27705876  1.0
  Ca  Ca7  1  0.94779042  0.47389521  0.27705876  1.0
  Ca  Ca8  1  0.52610479  0.47389521  0.27705876  1.0
  Ca  Ca9  1  0.47389521  0.94779042  0.77705876  1.0
  Ca  Ca10  1  0.05220958  0.52610479  0.77705876  1.0
  Ca  Ca11  1  0.47389521  0.52610479  0.77705876  1.0
  Al  Al12  1  0.33333333  0.66666667  0.15526101  1.0
  Al  Al13  1  0.66666667  0.33333333  0.65526101  1.0
  P  P14  1  0.19196098  0.38392196  0.04903010  1.0
  P  P15  1  0.61607804  0.80803902  0.04903010  1.0
  P  P16  1  0.19196098  0.80803902  0.04903010  1.0
  P  P17  1  0.80803902  0.61607804  0.54903010  1.0
  P  P18  1  0.38392196  0.19196098  0.54903010  1.0
  P  P19  1  0.80803902  0.19196098  0.54903010  1.0
  P  P20  1  0.33333333  0.66666667  0.50265123  1.0
  P  P21  1  0.66666667  0.33333333  0.00265123  1.0
