# generated using pymatgen
data_EuSbPd
_symmetry_space_group_name_H-M   'P 1'
_cell_length_a   7.57204410
_cell_length_b   4.71212413
_cell_length_c   7.99848463
_cell_angle_alpha   90.00000000
_cell_angle_beta   90.00000000
_cell_angle_gamma   90.00000000
_symmetry_Int_Tables_number   1
_chemical_formula_structural   EuSbPd
_chemical_formula_sum   'Eu4 Sb4 Pd4'
_cell_volume   285.38922424
_cell_formula_units_Z   4
loop_
 _symmetry_equiv_pos_site_id
 _symmetry_equiv_pos_as_xyz
  1  'x, y, z'
loop_
 _atom_site_type_symbol
 _atom_site_label
 _atom_site_symmetry_multiplicity
 _atom_site_fract_x
 _atom_site_fract_y
 _atom_site_fract_z
 _atom_site_occupancy
  Eu  Eu0  1  0.00582096  0.75000000  0.70321175  1.0
  Eu  Eu1  1  0.50582096  0.75000000  0.79678825  1.0
  Eu  Eu2  1  0.99417904  0.25000000  0.29678825  1.0
  Eu  Eu3  1  0.49417904  0.25000000  0.20321175  1.0
  Sb  Sb4  1  0.69809682  0.75000000  0.40709050  1.0
  Sb  Sb5  1  0.19809682  0.75000000  0.09290950  1.0
  Sb  Sb6  1  0.30190318  0.25000000  0.59290950  1.0
  Sb  Sb7  1  0.80190318  0.25000000  0.90709050  1.0
  Pd  Pd8  1  0.81143743  0.75000000  0.07997062  1.0
  Pd  Pd9  1  0.31143743  0.75000000  0.42002938  1.0
  Pd  Pd10  1  0.18856257  0.25000000  0.92002938  1.0
  Pd  Pd11  1  0.68856257  0.25000000  0.57997062  1.0
