# generated using pymatgen
data_CuBiO2
_symmetry_space_group_name_H-M   'P 1'
_cell_length_a   6.16300780
_cell_length_b   3.63784431
_cell_length_c   6.73291400
_cell_angle_alpha   90.00000000
_cell_angle_beta   116.45656556
_cell_angle_gamma   90.00000000
_symmetry_Int_Tables_number   1
_chemical_formula_structural   CuBiO2
_chemical_formula_sum   'Cu2 Bi2 O4'
_cell_volume   135.14347027
_cell_formula_units_Z   2
loop_
 _symmetry_equiv_pos_site_id
 _symmetry_equiv_pos_as_xyz
  1  'x, y, z'
loop_
 _atom_site_type_symbol
 _atom_site_label
 _atom_site_symmetry_multiplicity
 _atom_site_fract_x
 _atom_site_fract_y
 _atom_site_fract_z
 _atom_site_occupancy
  Cu  Cu0  1  0.97270415  0.75000000  0.33107429  1.0
  Cu  Cu1  1  0.02729585  0.25000000  0.66892571  1.0
  Bi  Bi2  1  0.56525075  0.75000000  0.76290714  1.0
  Bi  Bi3  1  0.43474925  0.25000000  0.23709286  1.0
  O  O4  1  0.29935957  0.75000000  0.41154580  1.0
  O  O5  1  0.70064043  0.25000000  0.58845420  1.0
  O  O6  1  0.63955192  0.75000000  0.19808752  1.0
  O  O7  1  0.36044808  0.25000000  0.80191248  1.0
