# generated using pymatgen
data_Cs2Zr(IO3)6
_symmetry_space_group_name_H-M   'P 1'
_cell_length_a   8.07082601
_cell_length_b   8.07082601
_cell_length_c   8.07082601
_cell_angle_alpha   97.33923497
_cell_angle_beta   97.33923497
_cell_angle_gamma   97.33923497
_symmetry_Int_Tables_number   1
_chemical_formula_structural   Cs2Zr(IO3)6
_chemical_formula_sum   'Cs2 Zr1 I6 O18'
_cell_volume   511.56446537
_cell_formula_units_Z   1
loop_
 _symmetry_equiv_pos_site_id
 _symmetry_equiv_pos_as_xyz
  1  'x, y, z'
loop_
 _atom_site_type_symbol
 _atom_site_label
 _atom_site_symmetry_multiplicity
 _atom_site_fract_x
 _atom_site_fract_y
 _atom_site_fract_z
 _atom_site_occupancy
  Cs  Cs0  1  0.66619492  0.66619492  0.66619492  1.0
  Cs  Cs1  1  0.33380508  0.33380508  0.33380508  1.0
  Zr  Zr2  1  -0.00000000  -0.00000000  -0.00000000  1.0
  I  I3  1  0.83206410  0.62416937  0.20235856  1.0
  I  I4  1  1.37583063  -0.20235856  0.16793590  1.0
  I  I5  1  0.79764144  0.16793590  0.37583063  1.0
  I  I6  1  1.16793590  0.37583063  -0.20235856  1.0
  I  I7  1  0.62416937  1.20235856  -0.16793590  1.0
  I  I8  1  1.20235856  0.83206410  -0.37583063  1.0
  O  O9  1  0.84739561  0.78598806  0.04610938  1.0
  O  O10  1  1.21401194  -0.04610938  0.15260439  1.0
  O  O11  1  0.95389062  0.15260439  0.21401194  1.0
  O  O12  1  1.15260439  0.21401194  -0.04610938  1.0
  O  O13  1  0.78598806  1.04610938  -0.15260439  1.0
  O  O14  1  1.04610938  0.84739561  -0.21401194  1.0
  O  O15  1  0.59664863  0.59752880  0.19275721  1.0
  O  O16  1  1.40247120  -0.19275721  0.40335137  1.0
  O  O17  1  0.80724279  0.40335137  0.40247120  1.0
  O  O18  1  1.40335137  0.40247120  -0.19275721  1.0
  O  O19  1  0.59752880  1.19275721  -0.40335137  1.0
  O  O20  1  1.19275721  0.59664863  -0.40247120  1.0
  O  O21  1  1.40022507  0.90565238  -0.22120325  1.0
  O  O22  1  1.09434762  0.22120325  -0.40022507  1.0
  O  O23  1  1.22120325  -0.40022507  0.09434762  1.0
  O  O24  1  0.59977493  0.09434762  0.22120325  1.0
  O  O25  1  0.90565238  0.77879675  0.40022507  1.0
  O  O26  1  0.77879675  1.40022507  -0.09434762  1.0
