# generated using pymatgen
data_CaCuF4
_symmetry_space_group_name_H-M   'P 1'
_cell_length_a   6.49530440
_cell_length_b   6.49530440
_cell_length_c   6.49530440
_cell_angle_alpha   130.00945441
_cell_angle_beta   130.00945441
_cell_angle_gamma   73.39165076
_symmetry_Int_Tables_number   1
_chemical_formula_structural   CaCuF4
_chemical_formula_sum   'Ca2 Cu2 F8'
_cell_volume   156.91981311
_cell_formula_units_Z   2
loop_
 _symmetry_equiv_pos_site_id
 _symmetry_equiv_pos_as_xyz
  1  'x, y, z'
loop_
 _atom_site_type_symbol
 _atom_site_label
 _atom_site_symmetry_multiplicity
 _atom_site_fract_x
 _atom_site_fract_y
 _atom_site_fract_z
 _atom_site_occupancy
  Ca  Ca0  1  0.75000000  0.75000000  1.00000000  1.0
  Ca  Ca1  1  0.25000000  0.25000000  0.00000000  1.0
  Cu  Cu2  1  0.50000000  -0.00000000  0.50000000  1.0
  Cu  Cu3  1  -0.00000000  0.50000000  0.50000000  1.0
  F  F4  1  1.19363502  0.69363502  1.14485401  1.0
  F  F5  1  0.45121900  0.95121900  1.14485401  1.0
  F  F6  1  1.04878100  1.19363502  1.50000000  1.0
  F  F7  1  0.30636498  0.45121900  0.50000000  1.0
  F  F8  1  0.69363502  0.54878100  0.50000000  1.0
  F  F9  1  0.95121900  0.80636498  1.50000000  1.0
  F  F10  1  0.54878100  1.04878100  0.85514599  1.0
  F  F11  1  0.80636498  0.30636498  0.85514599  1.0
