# generated using pymatgen
data_AlI3
_symmetry_space_group_name_H-M   'P 1'
_cell_length_a   12.78799421
_cell_length_b   6.73177687
_cell_length_c   19.47024614
_cell_angle_alpha   90.00000000
_cell_angle_beta   90.00000000
_cell_angle_gamma   90.00000000
_symmetry_Int_Tables_number   1
_chemical_formula_structural   AlI3
_chemical_formula_sum   'Al8 I24'
_cell_volume   1676.11412251
_cell_formula_units_Z   8
loop_
 _symmetry_equiv_pos_site_id
 _symmetry_equiv_pos_as_xyz
  1  'x, y, z'
loop_
 _atom_site_type_symbol
 _atom_site_label
 _atom_site_symmetry_multiplicity
 _atom_site_fract_x
 _atom_site_fract_y
 _atom_site_fract_z
 _atom_site_occupancy
  Al  Al0  1  0.12537848  0.50665129  0.06320140  1.0
  Al  Al1  1  0.62537848  0.99334871  0.06320140  1.0
  Al  Al2  1  0.87462152  0.49334871  0.56320140  1.0
  Al  Al3  1  0.37462152  0.00665129  0.56320140  1.0
  Al  Al4  1  0.12543523  0.50607196  0.24812989  1.0
  Al  Al5  1  0.62543523  0.99392804  0.24812989  1.0
  Al  Al6  1  0.87456477  0.49392804  0.74812989  1.0
  Al  Al7  1  0.37456477  0.00607196  0.74812989  1.0
  I  I8  1  0.50156164  0.76813474  0.00190555  1.0
  I  I9  1  1.00156164  0.73186526  0.00190555  1.0
  I  I10  1  0.49843836  0.23186526  0.50190555  1.0
  I  I11  1  -0.00156164  0.26813474  0.50190555  1.0
  I  I12  1  0.50181022  0.76880760  0.30963828  1.0
  I  I13  1  1.00181022  0.73119240  0.30963828  1.0
  I  I14  1  0.49818978  0.23119240  0.80963828  1.0
  I  I15  1  -0.00181022  0.26880760  0.80963828  1.0
  I  I16  1  0.47973633  0.78909147  0.65559385  1.0
  I  I17  1  0.97973633  0.71090853  0.65559385  1.0
  I  I18  1  0.52026367  0.21090853  0.15559385  1.0
  I  I19  1  0.02026367  0.28909147  0.15559385  1.0
  I  I20  1  0.25503371  0.78892427  0.49542744  1.0
  I  I21  1  0.75503371  0.71107573  0.49542744  1.0
  I  I22  1  0.74496629  0.21107573  0.99542744  1.0
  I  I23  1  0.24496629  0.28892427  0.99542744  1.0
  I  I24  1  0.24504705  0.28784658  0.31569462  1.0
  I  I25  1  0.74504705  0.21215342  0.31569462  1.0
  I  I26  1  0.75495295  0.71215342  0.81569462  1.0
  I  I27  1  0.25495295  0.78784658  0.81569462  1.0
  I  I28  1  0.23647346  0.71233292  0.15570898  1.0
  I  I29  1  0.73647346  0.78766708  0.15570898  1.0
  I  I30  1  0.76352654  0.28766708  0.65570898  1.0
  I  I31  1  0.26352654  0.21233292  0.65570898  1.0
