# generated using pymatgen
data_SrLiTa2HO7
_symmetry_space_group_name_H-M   'P 1'
_cell_length_a   9.97534113
_cell_length_b   9.97534113
_cell_length_c   5.59991360
_cell_angle_alpha   90.00000000
_cell_angle_beta   90.00000000
_cell_angle_gamma   147.56244589
_symmetry_Int_Tables_number   1
_chemical_formula_structural   SrLiTa2HO7
_chemical_formula_sum   'Sr2 Li2 Ta4 H2 O14'
_cell_volume   298.88869355
_cell_formula_units_Z   2
loop_
 _symmetry_equiv_pos_site_id
 _symmetry_equiv_pos_as_xyz
  1  'x, y, z'
loop_
 _atom_site_type_symbol
 _atom_site_label
 _atom_site_symmetry_multiplicity
 _atom_site_fract_x
 _atom_site_fract_y
 _atom_site_fract_z
 _atom_site_occupancy
  Sr  Sr0  1  -0.49933718  0.99567660  0.25000000  1.0
  Sr  Sr1  1  0.00432340  1.49933718  0.75000000  1.0
  Li  Li2  1  0.00665129  -0.00665129  0.50000000  1.0
  Li  Li3  1  0.00665129  -0.00665129  0.00000000  1.0
  Ta  Ta4  1  0.11329854  1.38181770  0.25000000  1.0
  Ta  Ta5  1  -0.38181770  0.88670146  0.75000000  1.0
  Ta  Ta6  1  -0.10802906  1.60785184  0.25000000  1.0
  Ta  Ta7  1  -0.60785184  1.10802906  0.75000000  1.0
  H  H8  1  -0.40293316  1.57600144  0.25000000  1.0
  H  H9  1  -0.57600144  1.40293316  0.75000000  1.0
  O  O10  1  0.16186102  1.24260025  0.25000000  1.0
  O  O11  1  -0.24260025  0.83813898  0.75000000  1.0
  O  O12  1  -0.22521903  1.70373843  0.25000000  1.0
  O  O13  1  -0.70373843  1.22521903  0.75000000  1.0
  O  O14  1  0.02930103  1.54126685  0.25000000  1.0
  O  O15  1  -0.54126685  0.97069897  0.75000000  1.0
  O  O16  1  -0.16030383  1.16030383  0.50000000  1.0
  O  O17  1  -0.16030383  1.16030383  0.00000000  1.0
  O  O18  1  -0.34770966  1.34770966  0.50000000  1.0
  O  O19  1  -0.34770966  1.34770966  0.00000000  1.0
  O  O20  1  -0.64624290  0.64624290  0.50000000  1.0
  O  O21  1  -0.64624290  0.64624290  0.00000000  1.0
  O  O22  1  -0.86438942  0.86438942  0.50000000  1.0
  O  O23  1  -0.86438942  0.86438942  0.00000000  1.0
