# generated using pymatgen
data_Cs(FeP)2
_symmetry_space_group_name_H-M   'P 1'
_cell_length_a   7.60544251
_cell_length_b   7.60544251
_cell_length_c   7.60544251
_cell_angle_alpha   150.87428583
_cell_angle_beta   150.87428583
_cell_angle_gamma   41.65954145
_symmetry_Int_Tables_number   1
_chemical_formula_structural   Cs(FeP)2
_chemical_formula_sum   'Cs1 Fe2 P2'
_cell_volume   103.98096640
_cell_formula_units_Z   1
loop_
 _symmetry_equiv_pos_site_id
 _symmetry_equiv_pos_as_xyz
  1  'x, y, z'
loop_
 _atom_site_type_symbol
 _atom_site_label
 _atom_site_symmetry_multiplicity
 _atom_site_fract_x
 _atom_site_fract_y
 _atom_site_fract_z
 _atom_site_occupancy
  Cs  Cs0  1  0.00000000  0.00000000  0.00000000  1.0
  Fe  Fe1  1  0.25000000  0.75000000  0.50000000  1.0
  Fe  Fe2  1  0.75000000  0.25000000  0.50000000  1.0
  P  P3  1  0.67475175  0.67475175  1.00000000  1.0
  P  P4  1  0.32524825  0.32524825  -0.00000000  1.0
