# generated using pymatgen
data_Li7CuSi2
_symmetry_space_group_name_H-M   'P 1'
_cell_length_a   7.93267330
_cell_length_b   4.40775147
_cell_length_c   17.09329434
_cell_angle_alpha   90.00000000
_cell_angle_beta   90.00000000
_cell_angle_gamma   90.00000000
_symmetry_Int_Tables_number   1
_chemical_formula_structural   Li7CuSi2
_chemical_formula_sum   'Li28 Cu4 Si8'
_cell_volume   597.67135113
_cell_formula_units_Z   4
loop_
 _symmetry_equiv_pos_site_id
 _symmetry_equiv_pos_as_xyz
  1  'x, y, z'
loop_
 _atom_site_type_symbol
 _atom_site_label
 _atom_site_symmetry_multiplicity
 _atom_site_fract_x
 _atom_site_fract_y
 _atom_site_fract_z
 _atom_site_occupancy
  Li  Li0  1  0.97810896  0.75000000  0.18180910  1.0
  Li  Li1  1  0.47810896  0.75000000  0.31819090  1.0
  Li  Li2  1  0.02189104  0.25000000  0.81819090  1.0
  Li  Li3  1  0.52189104  0.25000000  0.68180910  1.0
  Li  Li4  1  0.94563069  0.75000000  0.03160092  1.0
  Li  Li5  1  0.44563069  0.75000000  0.46839908  1.0
  Li  Li6  1  0.05436931  0.25000000  0.96839908  1.0
  Li  Li7  1  0.55436931  0.25000000  0.53160092  1.0
  Li  Li8  1  0.68880469  0.75000000  0.74291963  1.0
  Li  Li9  1  0.18880469  0.75000000  0.75708037  1.0
  Li  Li10  1  0.31119531  0.25000000  0.25708037  1.0
  Li  Li11  1  0.81119531  0.25000000  0.24291963  1.0
  Li  Li12  1  0.65252686  0.75000000  0.18732594  1.0
  Li  Li13  1  0.15252686  0.75000000  0.31267406  1.0
  Li  Li14  1  0.34747314  0.25000000  0.81267406  1.0
  Li  Li15  1  0.84747314  0.25000000  0.68732594  1.0
  Li  Li16  1  0.61099128  0.75000000  0.04040110  1.0
  Li  Li17  1  0.11099128  0.75000000  0.45959890  1.0
  Li  Li18  1  0.38900872  0.25000000  0.95959890  1.0
  Li  Li19  1  0.88900872  0.25000000  0.54040110  1.0
  Li  Li20  1  0.51845655  0.75000000  0.87795856  1.0
  Li  Li21  1  0.01845655  0.75000000  0.62204144  1.0
  Li  Li22  1  0.48154345  0.25000000  0.12204144  1.0
  Li  Li23  1  0.98154345  0.25000000  0.37795856  1.0
  Li  Li24  1  0.35801511  0.75000000  0.62111400  1.0
  Li  Li25  1  0.85801511  0.75000000  0.87888600  1.0
  Li  Li26  1  0.64198489  0.25000000  0.37888600  1.0
  Li  Li27  1  0.14198489  0.25000000  0.12111400  1.0
  Cu  Cu28  1  0.77480847  0.75000000  0.46207148  1.0
  Cu  Cu29  1  0.27480847  0.75000000  0.03792852  1.0
  Cu  Cu30  1  0.22519153  0.25000000  0.53792852  1.0
  Cu  Cu31  1  0.72519153  0.25000000  0.96207148  1.0
  Si  Si32  1  0.81755401  0.75000000  0.32850886  1.0
  Si  Si33  1  0.31755401  0.75000000  0.17149114  1.0
  Si  Si34  1  0.18244599  0.25000000  0.67149114  1.0
  Si  Si35  1  0.68244599  0.25000000  0.82850886  1.0
  Si  Si36  1  0.69347012  0.75000000  0.59270445  1.0
  Si  Si37  1  0.19347012  0.75000000  0.90729555  1.0
  Si  Si38  1  0.30652988  0.25000000  0.40729555  1.0
  Si  Si39  1  0.80652988  0.25000000  0.09270445  1.0
