# generated using pymatgen
data_Gd2(ReB2)3
_symmetry_space_group_name_H-M   'P 1'
_cell_length_a   6.23668211
_cell_length_b   6.23668211
_cell_length_c   7.52134935
_cell_angle_alpha   89.42898641
_cell_angle_beta   90.57101359
_cell_angle_gamma   65.99983855
_symmetry_Int_Tables_number   1
_chemical_formula_structural   Gd2(ReB2)3
_chemical_formula_sum   'Gd4 Re6 B12'
_cell_volume   267.21441095
_cell_formula_units_Z   2
loop_
 _symmetry_equiv_pos_site_id
 _symmetry_equiv_pos_as_xyz
  1  'x, y, z'
loop_
 _atom_site_type_symbol
 _atom_site_label
 _atom_site_symmetry_multiplicity
 _atom_site_fract_x
 _atom_site_fract_y
 _atom_site_fract_z
 _atom_site_occupancy
  Gd  Gd0  1  0.40160639  -0.05653918  0.17621769  1.0
  Gd  Gd1  1  1.05653918  0.59839361  0.67621769  1.0
  Gd  Gd2  1  0.94346082  -0.59839361  0.32378231  1.0
  Gd  Gd3  1  1.59839361  0.05653918  0.82378231  1.0
  Re  Re4  1  1.50993494  0.30742411  0.41116135  1.0
  Re  Re5  1  0.69257589  -0.50993494  0.91116135  1.0
  Re  Re6  1  1.30742411  0.50993494  0.08883865  1.0
  Re  Re7  1  0.49006506  -0.30742411  0.58883865  1.0
  Re  Re8  1  0.91263157  -0.08736843  0.25000000  1.0
  Re  Re9  1  1.08736843  0.08736843  0.75000000  1.0
  B  B10  1  0.65909251  -0.08651000  0.47961822  1.0
  B  B11  1  1.08651000  0.34090749  -0.02038178  1.0
  B  B12  1  0.91349000  -0.34090749  0.02038178  1.0
  B  B13  1  1.34090749  0.08651000  0.52038178  1.0
  B  B14  1  1.65264892  0.25112038  0.13067979  1.0
  B  B15  1  0.74887962  -0.65264892  0.63067979  1.0
  B  B16  1  1.25112038  0.65264892  0.36932021  1.0
  B  B17  1  0.34735108  -0.25112038  0.86932021  1.0
  B  B18  1  0.14991513  -0.05723137  0.46531647  1.0
  B  B19  1  1.05723137  0.85008487  0.96531647  1.0
  B  B20  1  0.94276863  -0.85008487  0.03468353  1.0
  B  B21  1  1.85008487  0.05723137  0.53468353  1.0
