# generated using pymatgen
data_SmZnAsO
_symmetry_space_group_name_H-M   'P 1'
_cell_length_a   4.03027985
_cell_length_b   4.03027985
_cell_length_c   9.20638030
_cell_angle_alpha   90.00000000
_cell_angle_beta   90.00000000
_cell_angle_gamma   90.00000000
_symmetry_Int_Tables_number   1
_chemical_formula_structural   SmZnAsO
_chemical_formula_sum   'Sm2 Zn2 As2 O2'
_cell_volume   149.54066821
_cell_formula_units_Z   2
loop_
 _symmetry_equiv_pos_site_id
 _symmetry_equiv_pos_as_xyz
  1  'x, y, z'
loop_
 _atom_site_type_symbol
 _atom_site_label
 _atom_site_symmetry_multiplicity
 _atom_site_fract_x
 _atom_site_fract_y
 _atom_site_fract_z
 _atom_site_occupancy
  Sm  Sm0  1  0.50000000  0.00000000  0.62401190  1.0
  Sm  Sm1  1  0.00000000  0.50000000  0.37598810  1.0
  Zn  Zn2  1  0.00000000  0.00000000  0.00000000  1.0
  Zn  Zn3  1  0.50000000  0.50000000  0.00000000  1.0
  As  As4  1  0.50000000  0.00000000  0.17396870  1.0
  As  As5  1  0.00000000  0.50000000  0.82603130  1.0
  O  O6  1  0.00000000  0.00000000  0.50000000  1.0
  O  O7  1  0.50000000  0.50000000  0.50000000  1.0
