# generated using pymatgen
data_GdSiRh
_symmetry_space_group_name_H-M   'P 1'
_cell_length_a   7.03427008
_cell_length_b   4.31247862
_cell_length_c   7.28508577
_cell_angle_alpha   90.00000000
_cell_angle_beta   90.00000000
_cell_angle_gamma   90.00000000
_symmetry_Int_Tables_number   1
_chemical_formula_structural   GdSiRh
_chemical_formula_sum   'Gd4 Si4 Rh4'
_cell_volume   220.99409203
_cell_formula_units_Z   4
loop_
 _symmetry_equiv_pos_site_id
 _symmetry_equiv_pos_as_xyz
  1  'x, y, z'
loop_
 _atom_site_type_symbol
 _atom_site_label
 _atom_site_symmetry_multiplicity
 _atom_site_fract_x
 _atom_site_fract_y
 _atom_site_fract_z
 _atom_site_occupancy
  Gd  Gd0  1  1.00699392  0.75000000  0.68437550  1.0
  Gd  Gd1  1  0.50699392  0.75000000  0.81562450  1.0
  Gd  Gd2  1  -0.00699392  0.25000000  0.31562450  1.0
  Gd  Gd3  1  0.49300608  0.25000000  0.18437550  1.0
  Si  Si4  1  0.69956067  0.75000000  0.39526169  1.0
  Si  Si5  1  0.19956067  0.75000000  0.10473831  1.0
  Si  Si6  1  0.30043933  0.25000000  0.60473831  1.0
  Si  Si7  1  0.80043933  0.25000000  0.89526169  1.0
  Rh  Rh8  1  0.85046613  0.75000000  0.07122194  1.0
  Rh  Rh9  1  0.35046613  0.75000000  0.42877806  1.0
  Rh  Rh10  1  0.14953387  0.25000000  0.92877806  1.0
  Rh  Rh11  1  0.64953387  0.25000000  0.57122194  1.0
