# generated using pymatgen
data_V3AsN
_symmetry_space_group_name_H-M   'P 1'
_cell_length_a   5.32075367
_cell_length_b   5.32075367
_cell_length_c   7.56813101
_cell_angle_alpha   90.00000000
_cell_angle_beta   90.00000000
_cell_angle_gamma   145.90993007
_symmetry_Int_Tables_number   1
_chemical_formula_structural   V3AsN
_chemical_formula_sum   'V6 As2 N2'
_cell_volume   120.09005886
_cell_formula_units_Z   2
loop_
 _symmetry_equiv_pos_site_id
 _symmetry_equiv_pos_as_xyz
  1  'x, y, z'
loop_
 _atom_site_type_symbol
 _atom_site_label
 _atom_site_symmetry_multiplicity
 _atom_site_fract_x
 _atom_site_fract_y
 _atom_site_fract_z
 _atom_site_occupancy
  V  V0  1  0.37645016  0.62354984  0.95082461  1.0
  V  V1  1  0.37645016  0.62354984  0.54917539  1.0
  V  V2  1  -0.37645016  0.37645016  0.45082461  1.0
  V  V3  1  -0.37645016  0.37645016  0.04917539  1.0
  V  V4  1  0.03945823  0.96054177  0.75000000  1.0
  V  V5  1  -0.03945823  0.03945823  0.25000000  1.0
  As  As6  1  -0.25881481  0.25881481  0.75000000  1.0
  As  As7  1  0.25881481  0.74118519  0.25000000  1.0
  N  N8  1  0.00000000  0.00000000  0.00000000  1.0
  N  N9  1  0.00000000  0.00000000  0.50000000  1.0
