# generated using pymatgen
data_CrH6C3(S2N)3
_symmetry_space_group_name_H-M   'P 1'
_cell_length_a   8.85633796
_cell_length_b   8.85633796
_cell_length_c   8.85633796
_cell_angle_alpha   100.30723539
_cell_angle_beta   100.30723539
_cell_angle_gamma   100.30723539
_symmetry_Int_Tables_number   1
_chemical_formula_structural   CrH6C3(S2N)3
_chemical_formula_sum   'Cr2 H12 C6 S12 N6'
_cell_volume   656.24576598
_cell_formula_units_Z   2
loop_
 _symmetry_equiv_pos_site_id
 _symmetry_equiv_pos_as_xyz
  1  'x, y, z'
loop_
 _atom_site_type_symbol
 _atom_site_label
 _atom_site_symmetry_multiplicity
 _atom_site_fract_x
 _atom_site_fract_y
 _atom_site_fract_z
 _atom_site_occupancy
  Cr  Cr0  1  0.74534738  0.74534738  0.74534738  1.0
  Cr  Cr1  1  0.25465262  0.25465262  0.25465262  1.0
  H  H2  1  0.68138574  0.35303024  0.05326965  1.0
  H  H3  1  0.64696976  0.94673035  0.31861426  1.0
  H  H4  1  0.94673035  1.31861426  -0.35303024  1.0
  H  H5  1  1.31861426  0.64696976  -0.05326965  1.0
  H  H6  1  1.35303024  0.05326965  -0.31861426  1.0
  H  H7  1  1.05326965  -0.31861426  0.35303024  1.0
  H  H8  1  0.72372163  0.52559627  0.19820691  1.0
  H  H9  1  1.47440373  -0.19820691  0.27627837  1.0
  H  H10  1  0.80179309  0.27627837  0.47440373  1.0
  H  H11  1  1.27627837  0.47440373  -0.19820691  1.0
  H  H12  1  0.52559627  1.19820691  -0.27627837  1.0
  H  H13  1  1.19820691  0.72372163  -0.47440373  1.0
  C  C14  1  1.71849644  0.55810750  -0.02594629  1.0
  C  C15  1  0.44189250  1.02594629  -0.71849644  1.0
  C  C16  1  1.02594629  0.28150356  -0.55810750  1.0
  C  C17  1  0.28150356  0.44189250  0.02594629  1.0
  C  C18  1  1.55810750  -0.02594629  0.71849644  1.0
  C  C19  1  0.97405371  0.71849644  0.55810750  1.0
  S  S20  1  0.76792005  0.75964308  0.02147330  1.0
  S  S21  1  1.24035692  -0.02147330  0.23207995  1.0
  S  S22  1  0.97852670  0.23207995  0.24035692  1.0
  S  S23  1  1.23207995  0.24035692  -0.02147330  1.0
  S  S24  1  0.75964308  1.02147330  -0.23207995  1.0
  S  S25  1  1.02147330  0.76792005  -0.24035692  1.0
  S  S26  1  1.47612081  0.77613719  -0.31537183  1.0
  S  S27  1  1.22386281  0.31537183  -0.47612081  1.0
  S  S28  1  1.31537183  -0.47612081  0.22386281  1.0
  S  S29  1  0.52387919  0.22386281  0.31537183  1.0
  S  S30  1  0.77613719  0.68462817  0.47612081  1.0
  S  S31  1  0.68462817  1.47612081  -0.22386281  1.0
  N  N32  1  0.70694369  0.47244581  0.08220107  1.0
  N  N33  1  1.52755419  -0.08220107  0.29305631  1.0
  N  N34  1  0.91779893  0.29305631  0.52755419  1.0
  N  N35  1  1.29305631  0.52755419  -0.08220107  1.0
  N  N36  1  0.47244581  1.08220107  -0.29305631  1.0
  N  N37  1  1.08220107  0.70694369  -0.52755419  1.0
