# generated using pymatgen
data_Pd(N3O7)2
_symmetry_space_group_name_H-M   'P 1'
_cell_length_a   8.38615613
_cell_length_b   7.89101280
_cell_length_c   9.16378212
_cell_angle_alpha   90.00000000
_cell_angle_beta   99.02283764
_cell_angle_gamma   90.00000000
_symmetry_Int_Tables_number   1
_chemical_formula_structural   Pd(N3O7)2
_chemical_formula_sum   'Pd2 N12 O28'
_cell_volume   598.91186986
_cell_formula_units_Z   2
loop_
 _symmetry_equiv_pos_site_id
 _symmetry_equiv_pos_as_xyz
  1  'x, y, z'
loop_
 _atom_site_type_symbol
 _atom_site_label
 _atom_site_symmetry_multiplicity
 _atom_site_fract_x
 _atom_site_fract_y
 _atom_site_fract_z
 _atom_site_occupancy
  Pd  Pd0  1  0.00000000  0.50000000  0.50000000  1.0
  Pd  Pd1  1  0.00000000  0.00000000  0.00000000  1.0
  N  N2  1  0.82210572  0.42850998  0.20949605  1.0
  N  N3  1  0.82210572  0.07149002  0.70949605  1.0
  N  N4  1  0.17789428  0.92850998  0.29050395  1.0
  N  N5  1  0.17789428  0.57149002  0.79050395  1.0
  N  N6  1  0.72949276  0.08308857  0.38339646  1.0
  N  N7  1  0.72949276  0.41691143  0.88339646  1.0
  N  N8  1  0.27050724  0.58308857  0.11660354  1.0
  N  N9  1  0.27050724  0.91691143  0.61660354  1.0
  N  N10  1  0.30366651  0.35735669  0.45816786  1.0
  N  N11  1  0.30366651  0.14264331  0.95816786  1.0
  N  N12  1  0.69633349  0.85735669  0.04183214  1.0
  N  N13  1  0.69633349  0.64264331  0.54183214  1.0
  O  O14  1  0.90078452  0.95089960  0.67742823  1.0
  O  O15  1  0.90078452  0.54910040  0.17742823  1.0
  O  O16  1  0.09921548  0.45089960  0.82257177  1.0
  O  O17  1  0.09921548  0.04910040  0.32257177  1.0
  O  O18  1  0.84489509  0.36693612  0.34550168  1.0
  O  O19  1  0.84489509  0.13306388  0.84550168  1.0
  O  O20  1  0.15510491  0.86693612  0.15449832  1.0
  O  O21  1  0.15510491  0.63306388  0.65449832  1.0
  O  O22  1  0.81327506  0.95693387  0.10919966  1.0
  O  O23  1  0.81327506  0.54306613  0.60919966  1.0
  O  O24  1  0.18672494  0.45693387  0.39080034  1.0
  O  O25  1  0.18672494  0.04306613  0.89080034  1.0
  O  O26  1  0.71441047  0.35335033  0.12191259  1.0
  O  O27  1  0.71441047  0.14664967  0.62191259  1.0
  O  O28  1  0.28558953  0.85335033  0.37808741  1.0
  O  O29  1  0.28558953  0.64664967  0.87808741  1.0
  O  O30  1  0.71357101  0.71369235  0.42549213  1.0
  O  O31  1  0.71357101  0.78630765  0.92549213  1.0
  O  O32  1  0.28642899  0.21369235  0.07450787  1.0
  O  O33  1  0.28642899  0.28630765  0.57450787  1.0
  O  O34  1  0.60431107  0.07539566  0.32554081  1.0
  O  O35  1  0.60431107  0.42460434  0.82554081  1.0
  O  O36  1  0.39568893  0.57539566  0.17445919  1.0
  O  O37  1  0.39568893  0.92460434  0.67445919  1.0
  O  O38  1  0.42333735  0.34440411  0.39554110  1.0
  O  O39  1  0.42333735  0.15559589  0.89554110  1.0
  O  O40  1  0.57666265  0.84440411  0.10445890  1.0
  O  O41  1  0.57666265  0.65559589  0.60445890  1.0
