# generated using pymatgen
data_Re5Si3
_symmetry_space_group_name_H-M   'P 1'
_cell_length_a   7.12619372
_cell_length_b   7.12619372
_cell_length_c   7.12619372
_cell_angle_alpha   96.89010179
_cell_angle_beta   96.89010179
_cell_angle_gamma   139.47031080
_symmetry_Int_Tables_number   1
_chemical_formula_structural   Re5Si3
_chemical_formula_sum   'Re10 Si6'
_cell_volume   220.61270934
_cell_formula_units_Z   2
loop_
 _symmetry_equiv_pos_site_id
 _symmetry_equiv_pos_as_xyz
  1  'x, y, z'
loop_
 _atom_site_type_symbol
 _atom_site_label
 _atom_site_symmetry_multiplicity
 _atom_site_fract_x
 _atom_site_fract_y
 _atom_site_fract_z
 _atom_site_occupancy
  Re  Re0  1  0.27637880  0.42742364  0.70380244  1.0
  Re  Re1  1  1.22362120  0.92742364  1.15104484  1.0
  Re  Re2  1  0.92742364  0.77637880  1.70380244  1.0
  Re  Re3  1  0.57257636  1.27637880  0.84895516  1.0
  Re  Re4  1  0.77637880  1.07257636  0.84895516  1.0
  Re  Re5  1  0.72362120  0.57257636  1.29619756  1.0
  Re  Re6  1  1.42742364  0.72362120  1.15104484  1.0
  Re  Re7  1  0.07257636  0.22362120  0.29619756  1.0
  Re  Re8  1  0.75000000  1.25000000  0.50000000  1.0
  Re  Re9  1  0.25000000  0.75000000  0.50000000  1.0
  Si  Si10  1  0.82847974  0.32847974  1.15695948  1.0
  Si  Si11  1  0.67152026  0.82847974  0.50000000  1.0
  Si  Si12  1  1.32847974  1.17152026  1.50000000  1.0
  Si  Si13  1  0.17152026  0.67152026  0.84304052  1.0
  Si  Si14  1  0.25000000  0.25000000  0.00000000  1.0
  Si  Si15  1  0.75000000  0.75000000  0.00000000  1.0
