# generated using pymatgen
data_CsBa2Cr2F11
_symmetry_space_group_name_H-M   'P 1'
_cell_length_a   8.80255056
_cell_length_b   8.80255056
_cell_length_c   8.80255056
_cell_angle_alpha   139.23312275
_cell_angle_beta   139.23312275
_cell_angle_gamma   59.01956502
_symmetry_Int_Tables_number   1
_chemical_formula_structural   CsBa2Cr2F11
_chemical_formula_sum   'Cs1 Ba2 Cr2 F11'
_cell_volume   288.03821476
_cell_formula_units_Z   1
loop_
 _symmetry_equiv_pos_site_id
 _symmetry_equiv_pos_as_xyz
  1  'x, y, z'
loop_
 _atom_site_type_symbol
 _atom_site_label
 _atom_site_symmetry_multiplicity
 _atom_site_fract_x
 _atom_site_fract_y
 _atom_site_fract_z
 _atom_site_occupancy
  Cs  Cs0  1  0.50000000  0.50000000  1.00000000  1.0
  Ba  Ba1  1  0.25000000  0.75000000  0.50000000  1.0
  Ba  Ba2  1  0.75000000  0.25000000  0.50000000  1.0
  Cr  Cr3  1  0.87318865  0.87318865  1.00000000  1.0
  Cr  Cr4  1  0.12681135  0.12681135  0.00000000  1.0
  F  F5  1  0.64318764  0.64318764  0.55623692  1.0
  F  F6  1  0.91304928  0.91304928  1.55623692  1.0
  F  F7  1  1.08695072  0.64318764  1.00000000  1.0
  F  F8  1  0.35681236  0.91304928  1.00000000  1.0
  F  F9  1  0.64318764  1.08695072  1.00000000  1.0
  F  F10  1  0.91304928  0.35681236  1.00000000  1.0
  F  F11  1  1.08695072  1.08695072  1.44376308  1.0
  F  F12  1  0.35681236  0.35681236  0.44376308  1.0
  F  F13  1  0.74843401  0.74843401  1.00000000  1.0
  F  F14  1  0.25156599  0.25156599  0.00000000  1.0
  F  F15  1  0.00000000  0.00000000  0.00000000  1.0
