# generated using pymatgen
data_MgH2(SO4)2
_symmetry_space_group_name_H-M   'P 1'
_cell_length_a   5.04144938
_cell_length_b   8.27292368
_cell_length_c   8.40513421
_cell_angle_alpha   90.00000000
_cell_angle_beta   117.60046833
_cell_angle_gamma   90.00000000
_symmetry_Int_Tables_number   1
_chemical_formula_structural   MgH2(SO4)2
_chemical_formula_sum   'Mg2 H4 S4 O16'
_cell_volume   310.66385361
_cell_formula_units_Z   2
loop_
 _symmetry_equiv_pos_site_id
 _symmetry_equiv_pos_as_xyz
  1  'x, y, z'
loop_
 _atom_site_type_symbol
 _atom_site_label
 _atom_site_symmetry_multiplicity
 _atom_site_fract_x
 _atom_site_fract_y
 _atom_site_fract_z
 _atom_site_occupancy
  Mg  Mg0  1  -0.00000000  0.50000000  0.50000000  1.0
  Mg  Mg1  1  0.00000000  0.00000000  0.00000000  1.0
  H  H2  1  0.56291997  -0.02108781  0.34154980  1.0
  H  H3  1  0.56291997  0.52108781  0.84154980  1.0
  H  H4  1  0.43708003  0.47891219  0.15845020  1.0
  H  H5  1  0.43708003  0.02108781  0.65845020  1.0
  S  S6  1  0.66359719  0.17785060  0.21984711  1.0
  S  S7  1  0.66359719  0.32214940  0.71984711  1.0
  S  S8  1  0.33640281  0.67785060  0.28015289  1.0
  S  S9  1  0.33640281  0.82214940  0.78015289  1.0
  O  O10  1  0.68561100  0.08044639  0.38625264  1.0
  O  O11  1  0.68561100  0.41955361  0.88625264  1.0
  O  O12  1  0.31438900  0.58044639  0.11374736  1.0
  O  O13  1  0.31438900  0.91955361  0.61374736  1.0
  O  O14  1  0.90362542  0.12347039  0.18091011  1.0
  O  O15  1  0.90362542  0.37652961  0.68091011  1.0
  O  O16  1  0.09637458  0.62347039  0.31908989  1.0
  O  O17  1  0.09637458  0.87652961  0.81908989  1.0
  O  O18  1  0.70928856  0.34815756  0.28281321  1.0
  O  O19  1  0.70928856  0.15184244  0.78281321  1.0
  O  O20  1  0.29071144  0.84815756  0.21718679  1.0
  O  O21  1  0.29071144  0.65184244  0.71718679  1.0
  O  O22  1  0.36254526  0.15381616  0.06931557  1.0
  O  O23  1  0.36254526  0.34618384  0.56931557  1.0
  O  O24  1  0.63745474  0.65381616  0.43068443  1.0
  O  O25  1  0.63745474  0.84618384  0.93068443  1.0
