# generated using pymatgen
data_La3CuGeS7
_symmetry_space_group_name_H-M   'P 1'
_cell_length_a   10.38540103
_cell_length_b   10.38540103
_cell_length_c   5.93167488
_cell_angle_alpha   90.00000000
_cell_angle_beta   90.00000000
_cell_angle_gamma   120.00000000
_symmetry_Int_Tables_number   1
_chemical_formula_structural   La3CuGeS7
_chemical_formula_sum   'La6 Cu2 Ge2 S14'
_cell_volume   554.05708609
_cell_formula_units_Z   2
loop_
 _symmetry_equiv_pos_site_id
 _symmetry_equiv_pos_as_xyz
  1  'x, y, z'
loop_
 _atom_site_type_symbol
 _atom_site_label
 _atom_site_symmetry_multiplicity
 _atom_site_fract_x
 _atom_site_fract_y
 _atom_site_fract_z
 _atom_site_occupancy
  La  La0  1  0.23028558  0.87434891  0.02893202  1.0
  La  La1  1  0.87434891  0.64406334  0.52893202  1.0
  La  La2  1  0.64406334  0.76971442  0.02893202  1.0
  La  La3  1  0.12565109  0.35593666  0.02893202  1.0
  La  La4  1  0.76971442  0.12565109  0.52893202  1.0
  La  La5  1  0.35593666  0.23028558  0.52893202  1.0
  Cu  Cu6  1  0.00000000  0.00000000  0.00311379  1.0
  Cu  Cu7  1  0.00000000  0.00000000  0.50311379  1.0
  Ge  Ge8  1  0.33333333  0.66666667  0.61179858  1.0
  Ge  Ge9  1  0.66666667  0.33333333  0.11179858  1.0
  S  S10  1  0.91238304  0.75167231  0.01266822  1.0
  S  S11  1  0.75167231  0.83928927  0.51266822  1.0
  S  S12  1  0.83928927  0.08761696  0.01266822  1.0
  S  S13  1  0.24832769  0.16071073  0.01266822  1.0
  S  S14  1  0.08761696  0.24832769  0.51266822  1.0
  S  S15  1  0.16071073  0.91238304  0.51266822  1.0
  S  S16  1  0.58578353  0.47873396  0.26287606  1.0
  S  S17  1  0.47873396  0.89295043  0.76287606  1.0
  S  S18  1  0.89295043  0.41421647  0.26287606  1.0
  S  S19  1  0.52126604  0.10704957  0.26287606  1.0
  S  S20  1  0.41421647  0.52126604  0.76287606  1.0
  S  S21  1  0.10704957  0.58578353  0.76287606  1.0
  S  S22  1  0.33333333  0.66666667  0.23965872  1.0
  S  S23  1  0.66666667  0.33333333  0.73965872  1.0
