# generated using pymatgen
data_Ga3Ir
_symmetry_space_group_name_H-M   'P 1'
_cell_length_a   6.57580073
_cell_length_b   6.57580073
_cell_length_c   6.70202185
_cell_angle_alpha   90.00000000
_cell_angle_beta   90.00000000
_cell_angle_gamma   90.00000000
_symmetry_Int_Tables_number   1
_chemical_formula_structural   Ga3Ir
_chemical_formula_sum   'Ga12 Ir4'
_cell_volume   289.80316737
_cell_formula_units_Z   4
loop_
 _symmetry_equiv_pos_site_id
 _symmetry_equiv_pos_as_xyz
  1  'x, y, z'
loop_
 _atom_site_type_symbol
 _atom_site_label
 _atom_site_symmetry_multiplicity
 _atom_site_fract_x
 _atom_site_fract_y
 _atom_site_fract_z
 _atom_site_occupancy
  Ga  Ga0  1  0.14050863  0.85949137  0.25449858  1.0
  Ga  Ga1  1  0.14050863  0.85949137  0.74550142  1.0
  Ga  Ga2  1  0.64050863  0.64050863  0.75449858  1.0
  Ga  Ga3  1  0.64050863  0.64050863  0.24550142  1.0
  Ga  Ga4  1  0.85949137  0.14050863  0.25449858  1.0
  Ga  Ga5  1  0.85949137  0.14050863  0.74550142  1.0
  Ga  Ga6  1  0.35949137  0.35949137  0.75449858  1.0
  Ga  Ga7  1  0.35949137  0.35949137  0.24550142  1.0
  Ga  Ga8  1  0.50000000  0.00000000  0.50000000  1.0
  Ga  Ga9  1  0.00000000  0.50000000  0.00000000  1.0
  Ga  Ga10  1  0.00000000  0.50000000  0.50000000  1.0
  Ga  Ga11  1  0.50000000  0.00000000  0.00000000  1.0
  Ir  Ir12  1  0.33964022  0.66035978  0.50000000  1.0
  Ir  Ir13  1  0.83964022  0.83964022  0.00000000  1.0
  Ir  Ir14  1  0.66035978  0.33964022  0.50000000  1.0
  Ir  Ir15  1  0.16035978  0.16035978  0.00000000  1.0
