# generated using pymatgen
data_YCuPb
_symmetry_space_group_name_H-M   'P 1'
_cell_length_a   4.62192520
_cell_length_b   4.62192520
_cell_length_c   7.40115376
_cell_angle_alpha   90.00000000
_cell_angle_beta   90.00000000
_cell_angle_gamma   120.00000000
_symmetry_Int_Tables_number   1
_chemical_formula_structural   YCuPb
_chemical_formula_sum   'Y2 Cu2 Pb2'
_cell_volume   136.92283566
_cell_formula_units_Z   2
loop_
 _symmetry_equiv_pos_site_id
 _symmetry_equiv_pos_as_xyz
  1  'x, y, z'
loop_
 _atom_site_type_symbol
 _atom_site_label
 _atom_site_symmetry_multiplicity
 _atom_site_fract_x
 _atom_site_fract_y
 _atom_site_fract_z
 _atom_site_occupancy
  Y  Y0  1  -0.00000000  -0.00000000  0.00203046  1.0
  Y  Y1  1  -0.00000000  -0.00000000  0.50203046  1.0
  Cu  Cu2  1  0.33333333  0.66666667  0.67483178  1.0
  Cu  Cu3  1  0.66666667  0.33333333  0.17483178  1.0
  Pb  Pb4  1  0.33333333  0.66666667  0.27133776  1.0
  Pb  Pb5  1  0.66666667  0.33333333  0.77133776  1.0
