# generated using pymatgen
data_Ba3GaP3
_symmetry_space_group_name_H-M   'P 1'
_cell_length_a   10.37910503
_cell_length_b   10.37910503
_cell_length_c   13.10607260
_cell_angle_alpha   90.00000000
_cell_angle_beta   90.00000000
_cell_angle_gamma   37.95725585
_symmetry_Int_Tables_number   1
_chemical_formula_structural   Ba3GaP3
_chemical_formula_sum   'Ba12 Ga4 P12'
_cell_volume   868.39906579
_cell_formula_units_Z   4
loop_
 _symmetry_equiv_pos_site_id
 _symmetry_equiv_pos_as_xyz
  1  'x, y, z'
loop_
 _atom_site_type_symbol
 _atom_site_label
 _atom_site_symmetry_multiplicity
 _atom_site_fract_x
 _atom_site_fract_y
 _atom_site_fract_z
 _atom_site_occupancy
  Ba  Ba0  1  0.13302433  0.51548382  0.87049158  1.0
  Ba  Ba1  1  -0.36697567  1.01548382  0.62950842  1.0
  Ba  Ba2  1  -0.48451618  1.13302433  0.12950842  1.0
  Ba  Ba3  1  0.01548382  0.63302433  0.37049158  1.0
  Ba  Ba4  1  -0.51548382  0.86697567  0.87049158  1.0
  Ba  Ba5  1  -0.01548382  0.36697567  0.62950842  1.0
  Ba  Ba6  1  -0.13302433  0.48451618  0.12950842  1.0
  Ba  Ba7  1  -0.63302433  0.98451618  0.37049158  1.0
  Ba  Ba8  1  -0.82777398  0.82777398  0.65049335  1.0
  Ba  Ba9  1  -0.32777398  0.32777398  0.84950665  1.0
  Ba  Ba10  1  -0.17222602  0.17222602  0.34950665  1.0
  Ba  Ba11  1  -0.67222602  0.67222602  0.15049335  1.0
  Ga  Ga12  1  -0.08389618  0.91610382  0.00000000  1.0
  Ga  Ga13  1  0.41610382  0.41610382  0.50000000  1.0
  Ga  Ga14  1  0.08389618  0.08389618  0.00000000  1.0
  Ga  Ga15  1  -0.41610382  0.58389618  0.50000000  1.0
  P  P16  1  -0.03652575  0.34965851  0.88294184  1.0
  P  P17  1  -0.53652575  0.84965851  0.61705816  1.0
  P  P18  1  -0.65034149  0.96347425  0.11705816  1.0
  P  P19  1  -0.15034149  0.46347425  0.38294184  1.0
  P  P20  1  -0.34965851  1.03652575  0.88294184  1.0
  P  P21  1  0.15034149  0.53652575  0.61705816  1.0
  P  P22  1  0.03652575  0.65034149  0.11705816  1.0
  P  P23  1  -0.46347425  1.15034149  0.38294184  1.0
  P  P24  1  -0.80228921  0.80228921  0.90432149  1.0
  P  P25  1  -0.30228921  0.30228921  0.59567851  1.0
  P  P26  1  -0.19771079  0.19771079  0.09567851  1.0
  P  P27  1  -0.69771079  0.69771079  0.40432149  1.0
