# generated using pymatgen
data_Ba(CO2)2
_symmetry_space_group_name_H-M   'P 1'
_cell_length_a   6.84445551
_cell_length_b   8.01711883
_cell_length_c   9.13481841
_cell_angle_alpha   90.00000000
_cell_angle_beta   90.00000000
_cell_angle_gamma   90.00000000
_symmetry_Int_Tables_number   1
_chemical_formula_structural   Ba(CO2)2
_chemical_formula_sum   'Ba4 C8 O16'
_cell_volume   501.25318361
_cell_formula_units_Z   4
loop_
 _symmetry_equiv_pos_site_id
 _symmetry_equiv_pos_as_xyz
  1  'x, y, z'
loop_
 _atom_site_type_symbol
 _atom_site_label
 _atom_site_symmetry_multiplicity
 _atom_site_fract_x
 _atom_site_fract_y
 _atom_site_fract_z
 _atom_site_occupancy
  Ba  Ba0  1  0.09863444  0.79042856  0.18998366  1.0
  Ba  Ba1  1  0.90136556  0.29042856  0.31001634  1.0
  Ba  Ba2  1  0.59863444  0.70957144  0.81001634  1.0
  Ba  Ba3  1  0.40136556  0.20957144  0.68998366  1.0
  C  C4  1  0.58446556  0.65070821  0.19897092  1.0
  C  C5  1  0.41553444  0.15070821  0.30102908  1.0
  C  C6  1  0.08446556  0.84929179  0.80102908  1.0
  C  C7  1  0.91553444  0.34929179  0.69897092  1.0
  C  C8  1  0.24267175  0.38547768  -0.00225335  1.0
  C  C9  1  0.75732825  0.88547768  0.50225335  1.0
  C  C10  1  0.74267175  0.11452232  1.00225335  1.0
  C  C11  1  0.25732825  0.61452232  0.49774665  1.0
  O  O12  1  0.75458434  0.59436619  0.19512670  1.0
  O  O13  1  0.24541566  0.09436619  0.30487330  1.0
  O  O14  1  0.25458434  0.90563381  0.80487330  1.0
  O  O15  1  0.74541566  0.40563381  0.69512670  1.0
  O  O16  1  0.49136013  0.74164718  0.11286417  1.0
  O  O17  1  0.50863987  0.24164718  0.38713583  1.0
  O  O18  1  0.99136013  0.75835282  0.88713583  1.0
  O  O19  1  0.00863987  0.25835282  0.61286417  1.0
  O  O20  1  0.36885377  0.44329972  0.91262930  1.0
  O  O21  1  0.63114623  0.94329972  0.58737070  1.0
  O  O22  1  0.86885377  0.05670028  0.08737070  1.0
  O  O23  1  0.13114623  0.55670028  0.41262930  1.0
  O  O24  1  0.14497607  0.44673629  0.09904053  1.0
  O  O25  1  0.85502393  0.94673629  0.40095947  1.0
  O  O26  1  0.64497607  0.05326371  0.90095947  1.0
  O  O27  1  0.35502393  0.55326371  0.59904053  1.0
