# generated using pymatgen
data_LiNbO3
_symmetry_space_group_name_H-M   'P 1'
_cell_length_a   5.54992112
_cell_length_b   5.54992112
_cell_length_c   5.54992112
_cell_angle_alpha   55.75218210
_cell_angle_beta   55.75218210
_cell_angle_gamma   55.75218210
_symmetry_Int_Tables_number   1
_chemical_formula_structural   LiNbO3
_chemical_formula_sum   'Li2 Nb2 O6'
_cell_volume   108.96883471
_cell_formula_units_Z   2
loop_
 _symmetry_equiv_pos_site_id
 _symmetry_equiv_pos_as_xyz
  1  'x, y, z'
loop_
 _atom_site_type_symbol
 _atom_site_label
 _atom_site_symmetry_multiplicity
 _atom_site_fract_x
 _atom_site_fract_y
 _atom_site_fract_z
 _atom_site_occupancy
  Li  Li0  1  0.78165156  -0.21834844  -0.21834844  1.0
  Li  Li1  1  0.28165156  0.28165156  0.28165156  1.0
  Nb  Nb2  1  0.00037716  0.00037716  0.00037716  1.0
  Nb  Nb3  1  0.50037716  0.50037716  -0.49962284  1.0
  O  O4  1  0.61035491  -0.14130168  0.22091804  1.0
  O  O5  1  0.11035491  0.72091804  -0.64130168  1.0
  O  O6  1  0.72091804  0.35869832  -0.88964509  1.0
  O  O7  1  1.22091804  -0.38964509  -0.14130168  1.0
  O  O8  1  0.35869832  0.11035491  -0.27908196  1.0
  O  O9  1  0.85869832  0.22091804  -0.38964509  1.0
