# generated using pymatgen
data_EuNiGe3
_symmetry_space_group_name_H-M   'P 1'
_cell_length_a   5.80866715
_cell_length_b   5.80866715
_cell_length_c   5.80866715
_cell_angle_alpha   135.93890408
_cell_angle_beta   135.93890408
_cell_angle_gamma   64.07480461
_symmetry_Int_Tables_number   1
_chemical_formula_structural   EuNiGe3
_chemical_formula_sum   'Eu1 Ni1 Ge3'
_cell_volume   93.50370749
_cell_formula_units_Z   1
loop_
 _symmetry_equiv_pos_site_id
 _symmetry_equiv_pos_as_xyz
  1  'x, y, z'
loop_
 _atom_site_type_symbol
 _atom_site_label
 _atom_site_symmetry_multiplicity
 _atom_site_fract_x
 _atom_site_fract_y
 _atom_site_fract_z
 _atom_site_occupancy
  Eu  Eu0  1  0.58058630  0.58058630  1.00000000  1.0
  Ni  Ni1  1  0.23784294  0.23784294  0.00000000  1.0
  Ge  Ge2  1  0.83562568  0.33562568  0.50000000  1.0
  Ge  Ge3  1  0.33562568  0.83562568  0.50000000  1.0
  Ge  Ge4  1  0.00131941  0.00131941  0.00000000  1.0
