# generated using pymatgen
data_Lu3CrS6
_symmetry_space_group_name_H-M   'P 1'
_cell_length_a   13.13839047
_cell_length_b   15.77744210
_cell_length_c   3.70376957
_cell_angle_alpha   90.00000000
_cell_angle_beta   90.00000000
_cell_angle_gamma   90.00000000
_symmetry_Int_Tables_number   1
_chemical_formula_structural   Lu3CrS6
_chemical_formula_sum   'Lu12 Cr4 S24'
_cell_volume   767.75511613
_cell_formula_units_Z   4
loop_
 _symmetry_equiv_pos_site_id
 _symmetry_equiv_pos_as_xyz
  1  'x, y, z'
loop_
 _atom_site_type_symbol
 _atom_site_label
 _atom_site_symmetry_multiplicity
 _atom_site_fract_x
 _atom_site_fract_y
 _atom_site_fract_z
 _atom_site_occupancy
  Lu  Lu0  1  0.18245618  0.64722429  0.50000000  1.0
  Lu  Lu1  1  0.68245618  0.85277571  0.00000000  1.0
  Lu  Lu2  1  0.81754382  0.35277571  0.50000000  1.0
  Lu  Lu3  1  0.31754382  0.14722429  0.00000000  1.0
  Lu  Lu4  1  0.95123240  0.77738729  0.50000000  1.0
  Lu  Lu5  1  0.45123240  0.72261271  0.00000000  1.0
  Lu  Lu6  1  0.04876760  0.22261271  0.50000000  1.0
  Lu  Lu7  1  0.54876760  0.27738729  0.00000000  1.0
  Lu  Lu8  1  0.74242843  0.59893425  0.50000000  1.0
  Lu  Lu9  1  0.24242843  0.90106575  0.00000000  1.0
  Lu  Lu10  1  0.25757157  0.40106575  0.50000000  1.0
  Lu  Lu11  1  0.75757157  0.09893425  0.00000000  1.0
  Cr  Cr12  1  0.50000000  0.50000000  0.50000000  1.0
  Cr  Cr13  1  0.00000000  0.00000000  0.00000000  1.0
  Cr  Cr14  1  0.50000000  0.00000000  0.50000000  1.0
  Cr  Cr15  1  0.00000000  0.50000000  0.00000000  1.0
  S  S16  1  0.39499506  0.25286826  0.50000000  1.0
  S  S17  1  0.89499506  0.24713174  0.00000000  1.0
  S  S18  1  0.60500494  0.74713174  0.50000000  1.0
  S  S19  1  0.10500494  0.75286826  0.00000000  1.0
  S  S20  1  0.38103646  0.61108683  0.50000000  1.0
  S  S21  1  0.88103646  0.88891317  0.00000000  1.0
  S  S22  1  0.61896354  0.38891317  0.50000000  1.0
  S  S23  1  0.11896354  0.11108683  0.00000000  1.0
  S  S24  1  0.31801965  0.01986092  0.50000000  1.0
  S  S25  1  0.81801965  0.48013908  0.00000000  1.0
  S  S26  1  0.68198035  0.98013908  0.50000000  1.0
  S  S27  1  0.18198035  0.51986092  0.00000000  1.0
  S  S28  1  0.31093324  0.79016159  0.50000000  1.0
  S  S29  1  0.81093324  0.70983841  0.00000000  1.0
  S  S30  1  0.68906676  0.20983841  0.50000000  1.0
  S  S31  1  0.18906676  0.29016159  0.00000000  1.0
  S  S32  1  0.08264987  0.92303506  0.50000000  1.0
  S  S33  1  0.58264987  0.57696494  0.00000000  1.0
  S  S34  1  0.91735013  0.07696494  0.50000000  1.0
  S  S35  1  0.41735013  0.42303506  0.00000000  1.0
  S  S36  1  0.97992290  0.59830016  0.50000000  1.0
  S  S37  1  0.47992290  0.90169984  0.00000000  1.0
  S  S38  1  0.02007710  0.40169984  0.50000000  1.0
  S  S39  1  0.52007710  0.09830016  0.00000000  1.0
