# generated using pymatgen
data_LiFe(GeO3)2
_symmetry_space_group_name_H-M   'P 1'
_cell_length_a   9.77282129
_cell_length_b   8.96534588
_cell_length_c   5.44171008
_cell_angle_alpha   90.00000000
_cell_angle_beta   102.53737536
_cell_angle_gamma   90.00000000
_symmetry_Int_Tables_number   1
_chemical_formula_structural   LiFe(GeO3)2
_chemical_formula_sum   'Li4 Fe4 Ge8 O24'
_cell_volume   465.41568621
_cell_formula_units_Z   4
loop_
 _symmetry_equiv_pos_site_id
 _symmetry_equiv_pos_as_xyz
  1  'x, y, z'
loop_
 _atom_site_type_symbol
 _atom_site_label
 _atom_site_symmetry_multiplicity
 _atom_site_fract_x
 _atom_site_fract_y
 _atom_site_fract_z
 _atom_site_occupancy
  Li  Li0  1  0.74381037  0.99811600  0.46714990  1.0
  Li  Li1  1  0.74381037  0.50188400  0.96714990  1.0
  Li  Li2  1  0.25618963  0.49811600  0.03285010  1.0
  Li  Li3  1  0.25618963  0.00188400  0.53285010  1.0
  O  O4  1  0.88360589  0.79425696  0.50295922  1.0
  O  O5  1  0.88360589  0.70574304  1.00295922  1.0
  O  O6  1  0.11639411  0.29425696  -0.00295922  1.0
  O  O7  1  0.11639411  0.20574304  0.49704078  1.0
  O  O8  1  0.38858199  0.31027420  0.34628042  1.0
  O  O9  1  0.38858199  0.18972580  0.84628042  1.0
  O  O10  1  0.61141801  0.81027420  0.15371958  1.0
  O  O11  1  0.61141801  0.68972580  0.65371958  1.0
  O  O12  1  0.88370551  0.01817717  0.17046105  1.0
  O  O13  1  0.88370551  0.48182283  0.67046105  1.0
  O  O14  1  0.11629449  0.51817717  0.32953895  1.0
  O  O15  1  0.11629449  0.98182283  0.82953895  1.0
  O  O16  1  0.85882900  0.33261332  0.18415476  1.0
  O  O17  1  0.85882900  0.16738668  0.68415476  1.0
  O  O18  1  0.14117100  0.83261332  0.31584524  1.0
  O  O19  1  0.14117100  0.66738668  0.81584524  1.0
  O  O20  1  0.63636541  0.16572608  0.24377363  1.0
  O  O21  1  0.63636541  0.33427392  0.74377363  1.0
  O  O22  1  0.36363459  0.66572608  0.25622637  1.0
  O  O23  1  0.36363459  0.83427392  0.75622637  1.0
  O  O24  1  0.63135423  0.49825259  0.24689394  1.0
  O  O25  1  0.63135423  0.00174741  0.74689394  1.0
  O  O26  1  0.36864577  0.99825259  0.25310606  1.0
  O  O27  1  0.36864577  0.50174741  0.75310606  1.0
  Ge  Ge28  1  0.95523390  0.84009610  0.23682878  1.0
  Ge  Ge29  1  0.95523390  0.65990390  0.73682878  1.0
  Ge  Ge30  1  0.04476610  0.34009610  0.26317122  1.0
  Ge  Ge31  1  0.04476610  0.15990390  0.76317122  1.0
  Ge  Ge32  1  0.44958650  0.16123717  0.17778558  1.0
  Ge  Ge33  1  0.44958650  0.33876283  0.67778558  1.0
  Ge  Ge34  1  0.55041350  0.66123717  0.32221442  1.0
  Ge  Ge35  1  0.55041350  0.83876283  0.82221442  1.0
  Fe  Fe36  1  0.74951141  0.35559622  0.46481548  1.0
  Fe  Fe37  1  0.74951141  0.14440378  0.96481548  1.0
  Fe  Fe38  1  0.25048859  0.85559622  0.03518452  1.0
  Fe  Fe39  1  0.25048859  0.64440378  0.53518452  1.0
