# generated using pymatgen
data_SiC
_symmetry_space_group_name_H-M   'P 1'
_cell_length_a   3.09550328
_cell_length_b   3.09550328
_cell_length_c   40.51892566
_cell_angle_alpha   90.00000000
_cell_angle_beta   90.00000000
_cell_angle_gamma   120.00000000
_symmetry_Int_Tables_number   1
_chemical_formula_structural   SiC
_chemical_formula_sum   'Si16 C16'
_cell_volume   336.24132642
_cell_formula_units_Z   16
loop_
 _symmetry_equiv_pos_site_id
 _symmetry_equiv_pos_as_xyz
  1  'x, y, z'
loop_
 _atom_site_type_symbol
 _atom_site_label
 _atom_site_symmetry_multiplicity
 _atom_site_fract_x
 _atom_site_fract_y
 _atom_site_fract_z
 _atom_site_occupancy
  Si  Si0  1  0.66666667  0.33333333  0.49998680  1.0
  Si  Si1  1  0.33333333  0.66666667  -0.00001320  1.0
  Si  Si2  1  0.33333333  0.66666667  0.56251130  1.0
  Si  Si3  1  0.66666667  0.33333333  0.06251130  1.0
  Si  Si4  1  0.00000000  0.00000000  0.62493768  1.0
  Si  Si5  1  0.00000000  0.00000000  0.12493768  1.0
  Si  Si6  1  0.66666667  0.33333333  0.68746739  1.0
  Si  Si7  1  0.33333333  0.66666667  0.18746739  1.0
  Si  Si8  1  0.00000000  0.00000000  0.74997224  1.0
  Si  Si9  1  0.00000000  0.00000000  0.24997224  1.0
  Si  Si10  1  0.33333333  0.66666667  0.81249910  1.0
  Si  Si11  1  0.66666667  0.33333333  0.31249910  1.0
  Si  Si12  1  0.00000000  0.00000000  0.87501777  1.0
  Si  Si13  1  0.00000000  0.00000000  0.37501777  1.0
  Si  Si14  1  0.66666667  0.33333333  0.93744717  1.0
  Si  Si15  1  0.33333333  0.66666667  0.43744717  1.0
  C  C16  1  0.66666667  0.33333333  0.54698624  1.0
  C  C17  1  0.33333333  0.66666667  0.04698624  1.0
  C  C18  1  0.33333333  0.66666667  0.60937643  1.0
  C  C19  1  0.66666667  0.33333333  0.10937643  1.0
  C  C20  1  0.00000000  0.00000000  0.67180041  1.0
  C  C21  1  0.00000000  0.00000000  0.17180041  1.0
  C  C22  1  0.66666667  0.33333333  0.73446384  1.0
  C  C23  1  0.33333333  0.66666667  0.23446384  1.0
  C  C24  1  0.00000000  0.00000000  0.79681877  1.0
  C  C25  1  0.00000000  0.00000000  0.29681877  1.0
  C  C26  1  0.33333333  0.66666667  0.85948994  1.0
  C  C27  1  0.66666667  0.33333333  0.35948994  1.0
  C  C28  1  0.00000000  0.00000000  0.92187703  1.0
  C  C29  1  0.00000000  0.00000000  0.42187703  1.0
  C  C30  1  0.66666667  0.33333333  0.98430790  1.0
  C  C31  1  0.33333333  0.66666667  0.48430790  1.0
