# generated using pymatgen
data_LiFeSiO4
_symmetry_space_group_name_H-M   'P 1'
_cell_length_a   5.08730231
_cell_length_b   5.21493275
_cell_length_c   8.43234798
_cell_angle_alpha   90.00000000
_cell_angle_beta   127.33851777
_cell_angle_gamma   90.00000000
_symmetry_Int_Tables_number   1
_chemical_formula_structural   LiFeSiO4
_chemical_formula_sum   'Li2 Fe2 Si2 O8'
_cell_volume   177.86394307
_cell_formula_units_Z   2
loop_
 _symmetry_equiv_pos_site_id
 _symmetry_equiv_pos_as_xyz
  1  'x, y, z'
loop_
 _atom_site_type_symbol
 _atom_site_label
 _atom_site_symmetry_multiplicity
 _atom_site_fract_x
 _atom_site_fract_y
 _atom_site_fract_z
 _atom_site_occupancy
  Li  Li0  1  0.98809604  0.32065950  0.75028600  1.0
  Li  Li1  1  0.98809604  0.67934050  0.25028600  1.0
  Fe  Fe2  1  0.48498056  0.67830125  0.74887395  1.0
  Fe  Fe3  1  0.48498056  0.32169875  0.24887395  1.0
  Si  Si4  1  0.23436692  0.81451455  0.99985037  1.0
  Si  Si5  1  0.23436692  0.18548545  0.49985037  1.0
  O  O6  1  0.90196824  0.76324859  0.98767170  1.0
  O  O7  1  0.90196824  0.23675141  0.48767170  1.0
  O  O8  1  0.30953177  0.12325996  0.01371113  1.0
  O  O9  1  0.30953177  0.87674004  0.51371113  1.0
  O  O10  1  0.17242047  0.68358961  0.80149819  1.0
  O  O11  1  0.54793600  0.33797144  0.69692867  1.0
  O  O12  1  0.54793600  0.66202856  0.19692867  1.0
  O  O13  1  0.17242047  0.31641039  0.30149819  1.0
