# generated using pymatgen
data_ZnS
_symmetry_space_group_name_H-M   'P 1'
_cell_length_a   3.84977830
_cell_length_b   3.84977830
_cell_length_c   81.81003591
_cell_angle_alpha   90.00000000
_cell_angle_beta   90.00000000
_cell_angle_gamma   120.00000000
_symmetry_Int_Tables_number   1
_chemical_formula_structural   ZnS
_chemical_formula_sum   'Zn26 S26'
_cell_volume   1050.04679920
_cell_formula_units_Z   26
loop_
 _symmetry_equiv_pos_site_id
 _symmetry_equiv_pos_as_xyz
  1  'x, y, z'
loop_
 _atom_site_type_symbol
 _atom_site_label
 _atom_site_symmetry_multiplicity
 _atom_site_fract_x
 _atom_site_fract_y
 _atom_site_fract_z
 _atom_site_occupancy
  Zn  Zn0  1  0.00000000  0.00000000  0.11538084  1.0
  Zn  Zn1  1  0.00000000  0.00000000  0.23075801  1.0
  Zn  Zn2  1  -0.00000000  -0.00000000  0.38462068  1.0
  Zn  Zn3  1  -0.00000000  -0.00000000  0.49999679  1.0
  Zn  Zn4  1  -0.00000000  -0.00000000  0.65382757  1.0
  Zn  Zn5  1  -0.00000000  -0.00000000  0.73079593  1.0
  Zn  Zn6  1  -0.00000000  -0.00000000  0.88457961  1.0
  Zn  Zn7  1  -0.00000000  -0.00000000  0.96154518  1.0
  Zn  Zn8  1  0.66666667  0.33333333  0.03845300  1.0
  Zn  Zn9  1  0.66666667  0.33333333  0.15383792  1.0
  Zn  Zn10  1  0.66666667  0.33333333  0.26919362  1.0
  Zn  Zn11  1  0.66666667  0.33333333  0.34617731  1.0
  Zn  Zn12  1  0.66666667  0.33333333  0.46153699  1.0
  Zn  Zn13  1  0.66666667  0.33333333  0.57692280  1.0
  Zn  Zn14  1  0.66666667  0.33333333  0.69231563  1.0
  Zn  Zn15  1  0.66666667  0.33333333  0.80768902  1.0
  Zn  Zn16  1  0.66666667  0.33333333  0.92306320  1.0
  Zn  Zn17  1  0.33333333  0.66666667  -0.00003537  1.0
  Zn  Zn18  1  0.33333333  0.66666667  0.07694168  1.0
  Zn  Zn19  1  0.33333333  0.66666667  0.19230029  1.0
  Zn  Zn20  1  0.33333333  0.66666667  0.30768790  1.0
  Zn  Zn21  1  0.33333333  0.66666667  0.42307579  1.0
  Zn  Zn22  1  0.33333333  0.66666667  0.53843315  1.0
  Zn  Zn23  1  0.33333333  0.66666667  0.61540954  1.0
  Zn  Zn24  1  0.33333333  0.66666667  0.76920846  1.0
  Zn  Zn25  1  0.33333333  0.66666667  0.84616909  1.0
  S  S26  1  -0.00000000  -0.00000000  0.08655007  1.0
  S  S27  1  -0.00000000  -0.00000000  0.20192259  1.0
  S  S28  1  -0.00000000  -0.00000000  0.35578900  1.0
  S  S29  1  -0.00000000  -0.00000000  0.47116120  1.0
  S  S30  1  -0.00000000  -0.00000000  0.62501091  1.0
  S  S31  1  0.00000000  0.00000000  0.70197459  1.0
  S  S32  1  -0.00000000  -0.00000000  0.85576699  1.0
  S  S33  1  0.00000000  0.00000000  0.93272290  1.0
  S  S34  1  0.66666667  0.33333333  0.00957779  1.0
  S  S35  1  0.66666667  0.33333333  0.12500112  1.0
  S  S36  1  0.66666667  0.33333333  0.24037198  1.0
  S  S37  1  0.66666667  0.33333333  0.31735093  1.0
  S  S38  1  0.66666667  0.33333333  0.43269900  1.0
  S  S39  1  0.66666667  0.33333333  0.54804787  1.0
  S  S40  1  0.66666667  0.33333333  0.66344187  1.0
  S  S41  1  0.66666667  0.33333333  0.77881790  1.0
  S  S42  1  0.66666667  0.33333333  0.89419041  1.0
  S  S43  1  0.33333333  0.66666667  0.04811636  1.0
  S  S44  1  0.33333333  0.66666667  0.16346277  1.0
  S  S45  1  0.33333333  0.66666667  0.27881140  1.0
  S  S46  1  0.33333333  0.66666667  0.39423985  1.0
  S  S47  1  0.33333333  0.66666667  0.50961122  1.0
  S  S48  1  0.33333333  0.66666667  0.58658562  1.0
  S  S49  1  0.33333333  0.66666667  0.74039490  1.0
  S  S50  1  0.33333333  0.66666667  0.81734814  1.0
  S  S51  1  0.33333333  0.66666667  0.97114797  1.0
