# generated using pymatgen
data_YMnO3
_symmetry_space_group_name_H-M   'P 1'
_cell_length_a   5.72123497
_cell_length_b   7.53961646
_cell_length_c   5.28724486
_cell_angle_alpha   90.00000000
_cell_angle_beta   90.00000000
_cell_angle_gamma   90.00000000
_symmetry_Int_Tables_number   1
_chemical_formula_structural   YMnO3
_chemical_formula_sum   'Y4 Mn4 O12'
_cell_volume   228.07015700
_cell_formula_units_Z   4
loop_
 _symmetry_equiv_pos_site_id
 _symmetry_equiv_pos_as_xyz
  1  'x, y, z'
loop_
 _atom_site_type_symbol
 _atom_site_label
 _atom_site_symmetry_multiplicity
 _atom_site_fract_x
 _atom_site_fract_y
 _atom_site_fract_z
 _atom_site_occupancy
  Y  Y0  1  0.07738760  0.75000000  0.51901850  1.0
  Y  Y1  1  0.57738760  0.75000000  0.98098150  1.0
  Y  Y2  1  0.92261240  0.25000000  0.48098150  1.0
  Y  Y3  1  0.42261240  0.25000000  0.01901850  1.0
  Mn  Mn4  1  0.50000000  0.00000000  0.50000000  1.0
  Mn  Mn5  1  0.50000000  0.50000000  0.50000000  1.0
  Mn  Mn6  1  0.00000000  0.00000000  0.00000000  1.0
  Mn  Mn7  1  0.00000000  0.50000000  0.00000000  1.0
  O  O8  1  0.31550260  0.94455635  0.80058200  1.0
  O  O9  1  0.31550260  0.55544365  0.80058200  1.0
  O  O10  1  0.81550260  0.94455635  0.69941800  1.0
  O  O11  1  0.81550260  0.55544365  0.69941800  1.0
  O  O12  1  0.68449740  0.44455635  0.19941800  1.0
  O  O13  1  0.68449740  0.05544365  0.19941800  1.0
  O  O14  1  0.18449740  0.44455635  0.30058200  1.0
  O  O15  1  0.18449740  0.05544365  0.30058200  1.0
  O  O16  1  0.96309226  0.75000000  0.11158856  1.0
  O  O17  1  0.46309226  0.75000000  0.38841144  1.0
  O  O18  1  0.03690774  0.25000000  0.88841144  1.0
  O  O19  1  0.53690774  0.25000000  0.61158856  1.0
