# generated using pymatgen
data_TiNb3O6
_symmetry_space_group_name_H-M   'P 1'
_cell_length_a   6.66795895
_cell_length_b   6.66795895
_cell_length_c   6.66795895
_cell_angle_alpha   73.33562184
_cell_angle_beta   73.33562184
_cell_angle_gamma   73.33562184
_symmetry_Int_Tables_number   1
_chemical_formula_structural   TiNb3O6
_chemical_formula_sum   'Ti2 Nb6 O12'
_cell_volume   265.24604854
_cell_formula_units_Z   2
loop_
 _symmetry_equiv_pos_site_id
 _symmetry_equiv_pos_as_xyz
  1  'x, y, z'
loop_
 _atom_site_type_symbol
 _atom_site_label
 _atom_site_symmetry_multiplicity
 _atom_site_fract_x
 _atom_site_fract_y
 _atom_site_fract_z
 _atom_site_occupancy
  Ti  Ti0  1  0.72616376  0.72616376  -0.27383624  1.0
  Ti  Ti1  1  1.27383624  1.27383624  0.27383624  1.0
  Nb  Nb2  1  0.70444313  0.11808210  -0.05620107  1.0
  Nb  Nb3  1  0.88191790  0.05620107  -0.70444313  1.0
  Nb  Nb4  1  1.05620107  -0.70444313  -0.11808210  1.0
  Nb  Nb5  1  0.29555687  -0.11808210  0.05620107  1.0
  Nb  Nb6  1  1.11808210  -0.05620107  -0.29555687  1.0
  Nb  Nb7  1  0.94379893  -0.29555687  0.11808210  1.0
  O  O8  1  0.64773052  -0.20053795  0.03482519  1.0
  O  O9  1  0.20053795  0.96517481  -0.64773052  1.0
  O  O10  1  0.96517481  0.35226948  -0.79946205  1.0
  O  O11  1  0.35226948  0.20053795  -0.03482519  1.0
  O  O12  1  0.79946205  0.03482519  -0.35226948  1.0
  O  O13  1  1.03482519  -0.35226948  -0.20053795  1.0
  O  O14  1  0.42884270  0.82761821  -0.25852367  1.0
  O  O15  1  0.17238179  0.25852367  -0.42884270  1.0
  O  O16  1  0.25852367  0.57115730  -0.82761821  1.0
  O  O17  1  0.57115730  0.17238179  -0.74147633  1.0
  O  O18  1  0.82761821  0.74147633  -0.57115730  1.0
  O  O19  1  0.74147633  0.42884270  -0.17238179  1.0
