# generated using pymatgen
data_Ca2AlClO8
_symmetry_space_group_name_H-M   'P 1'
_cell_length_a   6.06894810
_cell_length_b   6.06894810
_cell_length_c   6.06894810
_cell_angle_alpha   65.66691241
_cell_angle_beta   65.66691241
_cell_angle_gamma   65.66691241
_symmetry_Int_Tables_number   1
_chemical_formula_structural   Ca2AlClO8
_chemical_formula_sum   'Ca2 Al1 Cl1 O8'
_cell_volume   177.50462948
_cell_formula_units_Z   1
loop_
 _symmetry_equiv_pos_site_id
 _symmetry_equiv_pos_as_xyz
  1  'x, y, z'
loop_
 _atom_site_type_symbol
 _atom_site_label
 _atom_site_symmetry_multiplicity
 _atom_site_fract_x
 _atom_site_fract_y
 _atom_site_fract_z
 _atom_site_occupancy
  Ca  Ca0  1  0.29791898  0.29791898  0.29791898  1.0
  Ca  Ca1  1  0.70208102  -0.29791898  -0.29791898  1.0
  Al  Al2  1  -0.00000000  0.00000000  -0.00000000  1.0
  Cl  Cl3  1  0.50000000  0.50000000  -0.50000000  1.0
  O  O4  1  0.05370102  0.73743146  -0.67134145  1.0
  O  O5  1  0.67134145  -0.05370102  0.26256854  1.0
  O  O6  1  1.26256854  -0.32865855  -0.05370102  1.0
  O  O7  1  0.94629898  0.26256854  -0.32865855  1.0
  O  O8  1  0.32865855  0.05370102  -0.26256854  1.0
  O  O9  1  0.73743146  0.32865855  -0.94629898  1.0
  O  O10  1  0.13108390  0.13108390  0.13108390  1.0
  O  O11  1  0.86891610  -0.13108390  -0.13108390  1.0
