# generated using pymatgen
data_CaTi8(CuO4)3
_symmetry_space_group_name_H-M   'P 1'
_cell_length_a   7.01685126
_cell_length_b   7.01685126
_cell_length_c   7.01685126
_cell_angle_alpha   90.00000000
_cell_angle_beta   90.00000000
_cell_angle_gamma   90.00000000
_symmetry_Int_Tables_number   1
_chemical_formula_structural   CaTi8(CuO4)3
_chemical_formula_sum   'Ca1 Ti8 Cu3 O12'
_cell_volume   345.48310363
_cell_formula_units_Z   1
loop_
 _symmetry_equiv_pos_site_id
 _symmetry_equiv_pos_as_xyz
  1  'x, y, z'
loop_
 _atom_site_type_symbol
 _atom_site_label
 _atom_site_symmetry_multiplicity
 _atom_site_fract_x
 _atom_site_fract_y
 _atom_site_fract_z
 _atom_site_occupancy
  Ca  Ca0  1  0.00000000  0.00000000  0.00000000  1.0
  Ti  Ti1  1  0.73742903  0.73742903  0.73742903  1.0
  Ti  Ti2  1  0.73742903  0.73742903  0.26257097  1.0
  Ti  Ti3  1  0.73742903  0.26257097  0.73742903  1.0
  Ti  Ti4  1  0.73742903  0.26257097  0.26257097  1.0
  Ti  Ti5  1  0.26257097  0.73742903  0.73742903  1.0
  Ti  Ti6  1  0.26257097  0.73742903  0.26257097  1.0
  Ti  Ti7  1  0.26257097  0.26257097  0.73742903  1.0
  Ti  Ti8  1  0.26257097  0.26257097  0.26257097  1.0
  Cu  Cu9  1  0.00000000  0.50000000  0.50000000  1.0
  Cu  Cu10  1  0.50000000  0.50000000  0.00000000  1.0
  Cu  Cu11  1  0.50000000  0.00000000  0.50000000  1.0
  O  O12  1  -0.00000000  0.71746955  0.71746955  1.0
  O  O13  1  -0.00000000  0.71746955  0.28253045  1.0
  O  O14  1  -0.00000000  0.28253045  0.71746955  1.0
  O  O15  1  0.00000000  0.28253045  0.28253045  1.0
  O  O16  1  0.71746955  0.71746955  0.00000000  1.0
  O  O17  1  0.71746955  0.28253045  0.00000000  1.0
  O  O18  1  0.71746955  0.00000000  0.71746955  1.0
  O  O19  1  0.71746955  0.00000000  0.28253045  1.0
  O  O20  1  0.28253045  0.71746955  0.00000000  1.0
  O  O21  1  0.28253045  0.28253045  0.00000000  1.0
  O  O22  1  0.28253045  -0.00000000  0.71746955  1.0
  O  O23  1  0.28253045  0.00000000  0.28253045  1.0
