# generated using pymatgen
data_LaTeAs
_symmetry_space_group_name_H-M   'P 1'
_cell_length_a   7.89593852
_cell_length_b   4.20731824
_cell_length_c   10.43802648
_cell_angle_alpha   90.00000000
_cell_angle_beta   90.00000000
_cell_angle_gamma   90.00000000
_symmetry_Int_Tables_number   1
_chemical_formula_structural   LaTeAs
_chemical_formula_sum   'La4 Te4 As4'
_cell_volume   346.75881953
_cell_formula_units_Z   4
loop_
 _symmetry_equiv_pos_site_id
 _symmetry_equiv_pos_as_xyz
  1  'x, y, z'
loop_
 _atom_site_type_symbol
 _atom_site_label
 _atom_site_symmetry_multiplicity
 _atom_site_fract_x
 _atom_site_fract_y
 _atom_site_fract_z
 _atom_site_occupancy
  La  La0  1  0.77629300  0.75000000  0.34418587  1.0
  La  La1  1  0.27629300  0.75000000  0.15581413  1.0
  La  La2  1  0.22370700  0.25000000  0.65581413  1.0
  La  La3  1  0.72370700  0.25000000  0.84418587  1.0
  Te  Te4  1  0.90614288  0.75000000  0.65031861  1.0
  Te  Te5  1  0.40614288  0.75000000  0.84968139  1.0
  Te  Te6  1  0.09385712  0.25000000  0.34968139  1.0
  Te  Te7  1  0.59385712  0.25000000  0.15031861  1.0
  As  As8  1  0.91009854  0.75000000  0.03876288  1.0
  As  As9  1  0.41009854  0.75000000  0.46123712  1.0
  As  As10  1  0.08990146  0.25000000  0.96123712  1.0
  As  As11  1  0.58990146  0.25000000  0.53876288  1.0
