# generated using pymatgen
data_SrCeO3
_symmetry_space_group_name_H-M   'P 1'
_cell_length_a   6.21020829
_cell_length_b   8.66181339
_cell_length_c   6.04174036
_cell_angle_alpha   90.00000000
_cell_angle_beta   90.00000000
_cell_angle_gamma   90.00000000
_symmetry_Int_Tables_number   1
_chemical_formula_structural   SrCeO3
_chemical_formula_sum   'Sr4 Ce4 O12'
_cell_volume   324.99527521
_cell_formula_units_Z   4
loop_
 _symmetry_equiv_pos_site_id
 _symmetry_equiv_pos_as_xyz
  1  'x, y, z'
loop_
 _atom_site_type_symbol
 _atom_site_label
 _atom_site_symmetry_multiplicity
 _atom_site_fract_x
 _atom_site_fract_y
 _atom_site_fract_z
 _atom_site_occupancy
  Sr  Sr0  1  0.04665670  0.25000000  0.51340095  1.0
  Sr  Sr1  1  0.54665670  0.25000000  0.98659905  1.0
  Sr  Sr2  1  0.95334330  0.75000000  0.48659905  1.0
  Sr  Sr3  1  0.45334330  0.75000000  0.01340095  1.0
  Ce  Ce4  1  0.50000000  0.50000000  0.50000000  1.0
  Ce  Ce5  1  0.50000000  0.00000000  0.50000000  1.0
  Ce  Ce6  1  0.00000000  0.50000000  0.00000000  1.0
  Ce  Ce7  1  0.00000000  0.00000000  0.00000000  1.0
  O  O8  1  0.29833418  0.44121666  0.79855006  1.0
  O  O9  1  0.29833418  0.05878334  0.79855006  1.0
  O  O10  1  0.79833418  0.44121666  0.70144994  1.0
  O  O11  1  0.79833418  0.05878334  0.70144994  1.0
  O  O12  1  0.70166582  0.94121666  0.20144994  1.0
  O  O13  1  0.70166582  0.55878334  0.20144994  1.0
  O  O14  1  0.20166582  0.94121666  0.29855006  1.0
  O  O15  1  0.20166582  0.55878334  0.29855006  1.0
  O  O16  1  0.95283783  0.25000000  0.10863752  1.0
  O  O17  1  0.45283783  0.25000000  0.39136248  1.0
  O  O18  1  0.04716217  0.75000000  0.89136248  1.0
  O  O19  1  0.54716217  0.75000000  0.60863752  1.0
