# generated using pymatgen
data_H5N2ClO4
_symmetry_space_group_name_H-M   'P 1'
_cell_length_a   7.67005563
_cell_length_b   7.67005563
_cell_length_c   13.59492395
_cell_angle_alpha   67.11435185
_cell_angle_beta   112.88564815
_cell_angle_gamma   138.57789401
_symmetry_Int_Tables_number   1
_chemical_formula_structural   H5N2ClO4
_chemical_formula_sum   'H20 N8 Cl4 O16'
_cell_volume   481.23838507
_cell_formula_units_Z   4
loop_
 _symmetry_equiv_pos_site_id
 _symmetry_equiv_pos_as_xyz
  1  'x, y, z'
loop_
 _atom_site_type_symbol
 _atom_site_label
 _atom_site_symmetry_multiplicity
 _atom_site_fract_x
 _atom_site_fract_y
 _atom_site_fract_z
 _atom_site_occupancy
  H  H0  1  1.61350609  -0.16967102  0.78302745  1.0
  H  H1  1  1.16967102  -0.61350609  0.28302745  1.0
  H  H2  1  0.83032898  0.61350609  0.71697255  1.0
  H  H3  1  0.38649391  0.16967102  0.21697255  1.0
  H  H4  1  0.33715040  -0.33248907  0.69309624  1.0
  H  H5  1  1.33248907  -0.33715040  0.19309624  1.0
  H  H6  1  0.66751093  0.33715040  0.80690376  1.0
  H  H7  1  1.66284960  0.33248907  0.30690376  1.0
  H  H8  1  0.50255167  0.07868213  0.69017706  1.0
  H  H9  1  0.92131787  -0.50255167  0.19017706  1.0
  H  H10  1  1.07868213  0.50255167  0.80982294  1.0
  H  H11  1  1.49744833  -0.07868213  0.30982294  1.0
  H  H12  1  0.68001259  0.35336667  0.59684041  1.0
  H  H13  1  0.64663333  -0.68001259  0.09684041  1.0
  H  H14  1  1.35336667  0.68001259  0.90315959  1.0
  H  H15  1  1.31998741  -0.35336667  0.40315959  1.0
  H  H16  1  0.43068395  0.26873281  0.62803897  1.0
  H  H17  1  0.73126719  -0.43068395  0.12803897  1.0
  H  H18  1  1.26873281  0.43068395  0.87196103  1.0
  H  H19  1  1.56931605  -0.26873281  0.37196103  1.0
  N  N20  1  0.43274494  -0.22843109  0.75526064  1.0
  N  N21  1  1.22843109  -0.43274494  0.25526064  1.0
  N  N22  1  0.77156891  0.43274494  0.74473936  1.0
  N  N23  1  1.56725506  0.22843109  0.24473936  1.0
  N  N24  1  0.58157220  0.27329442  0.65920652  1.0
  N  N25  1  0.72670558  -0.58157220  0.15920652  1.0
  N  N26  1  1.27329442  0.58157220  0.84079348  1.0
  N  N27  1  1.41842780  -0.27329442  0.34079348  1.0
  Cl  Cl28  1  0.17773133  -0.02699652  0.92401710  1.0
  Cl  Cl29  1  1.02699652  0.82226867  0.42401710  1.0
  Cl  Cl30  1  0.97300348  -0.82226867  0.57598290  1.0
  Cl  Cl31  1  1.82226867  0.02699652  0.07598290  1.0
  O  O32  1  1.88051762  -0.08340318  0.61280205  1.0
  O  O33  1  1.08340318  -0.88051762  0.11280205  1.0
  O  O34  1  0.91659682  0.88051762  0.88719795  1.0
  O  O35  1  0.11948238  0.08340318  0.38719795  1.0
  O  O36  1  0.81527600  0.17170983  0.96860064  1.0
  O  O37  1  0.82829017  -0.81527600  0.46860064  1.0
  O  O38  1  1.17170983  0.81527600  0.53139936  1.0
  O  O39  1  1.18472400  -0.17170983  0.03139936  1.0
  O  O40  1  0.23437260  -0.06625257  0.84738165  1.0
  O  O41  1  1.06625257  0.76562740  0.34738165  1.0
  O  O42  1  0.93374743  -0.76562740  0.65261835  1.0
  O  O43  1  1.76562740  0.06625257  0.15261835  1.0
  O  O44  1  0.38698052  0.26257022  0.92985169  1.0
  O  O45  1  0.73742978  0.61301948  0.42985169  1.0
  O  O46  1  1.26257022  -0.61301948  0.57014831  1.0
  O  O47  1  1.61301948  -0.26257022  0.07014831  1.0
