# generated using pymatgen
data_Te(CF2)3
_symmetry_space_group_name_H-M   'P 1'
_cell_length_a   7.95821866
_cell_length_b   7.73379076
_cell_length_c   12.06779779
_cell_angle_alpha   90.00000000
_cell_angle_beta   106.47045178
_cell_angle_gamma   90.00000000
_symmetry_Int_Tables_number   1
_chemical_formula_structural   Te(CF2)3
_chemical_formula_sum   'Te4 C12 F24'
_cell_volume   712.26163902
_cell_formula_units_Z   4
loop_
 _symmetry_equiv_pos_site_id
 _symmetry_equiv_pos_as_xyz
  1  'x, y, z'
loop_
 _atom_site_type_symbol
 _atom_site_label
 _atom_site_symmetry_multiplicity
 _atom_site_fract_x
 _atom_site_fract_y
 _atom_site_fract_z
 _atom_site_occupancy
  Te  Te0  1  0.09438214  0.92221637  0.90493909  1.0
  Te  Te1  1  0.90561786  0.42221637  0.59506091  1.0
  Te  Te2  1  0.90561786  0.07778363  0.09506091  1.0
  Te  Te3  1  0.09438214  0.57778363  0.40493909  1.0
  C  C4  1  0.16619269  0.08373315  0.06302643  1.0
  C  C5  1  0.83380731  0.58373315  0.43697357  1.0
  C  C6  1  0.83380731  0.91626685  0.93697357  1.0
  C  C7  1  0.16619269  0.41626685  0.56302643  1.0
  C  C8  1  0.30768877  0.99468245  0.15952961  1.0
  C  C9  1  0.69231123  0.49468245  0.34047039  1.0
  C  C10  1  0.69231123  0.00531755  0.84047039  1.0
  C  C11  1  0.30768877  0.50531755  0.65952961  1.0
  C  C12  1  0.21552204  0.26944675  0.03975727  1.0
  C  C13  1  0.78447796  0.76944675  0.46024273  1.0
  C  C14  1  0.78447796  0.73055325  0.96024273  1.0
  C  C15  1  0.21552204  0.23055325  0.53975727  1.0
  F  F16  1  0.34938601  0.08818389  0.25931951  1.0
  F  F17  1  0.65061399  0.58818389  0.24068049  1.0
  F  F18  1  0.65061399  0.91181611  0.74068049  1.0
  F  F19  1  0.34938601  0.41181611  0.75931951  1.0
  F  F20  1  0.45926530  0.97191522  0.12891289  1.0
  F  F21  1  0.54073470  0.47191522  0.37108711  1.0
  F  F22  1  0.54073470  0.02808478  0.87108711  1.0
  F  F23  1  0.45926530  0.52808478  0.62891289  1.0
  F  F24  1  0.25700906  0.83546672  0.18507674  1.0
  F  F25  1  0.74299094  0.33546672  0.31492326  1.0
  F  F26  1  0.74299094  0.16453328  0.81492326  1.0
  F  F27  1  0.25700906  0.66453328  0.68507674  1.0
  F  F28  1  0.22368904  0.37484198  0.13207927  1.0
  F  F29  1  0.77631096  0.87484198  0.36792073  1.0
  F  F30  1  0.77631096  0.62515802  0.86792073  1.0
  F  F31  1  0.22368904  0.12515802  0.63207927  1.0
  F  F32  1  0.37496282  0.27726714  0.01867606  1.0
  F  F33  1  0.62503718  0.77726714  0.48132394  1.0
  F  F34  1  0.62503718  0.72273286  0.98132394  1.0
  F  F35  1  0.37496282  0.22273286  0.51867606  1.0
  F  F36  1  0.09725546  0.34062615  0.94715330  1.0
  F  F37  1  0.90274454  0.84062615  0.55284670  1.0
  F  F38  1  0.90274454  0.65937385  0.05284670  1.0
  F  F39  1  0.09725546  0.15937385  0.44715330  1.0
