# generated using pymatgen
data_NaSc(PS3)2
_symmetry_space_group_name_H-M   'P 1'
_cell_length_a   12.33363766
_cell_length_b   11.72596974
_cell_length_c   7.10678228
_cell_angle_alpha   77.56598487
_cell_angle_beta   68.19155710
_cell_angle_gamma   34.24245803
_symmetry_Int_Tables_number   1
_chemical_formula_structural   NaSc(PS3)2
_chemical_formula_sum   'Na2 Sc2 P4 S12'
_cell_volume   528.59958081
_cell_formula_units_Z   2
loop_
 _symmetry_equiv_pos_site_id
 _symmetry_equiv_pos_as_xyz
  1  'x, y, z'
loop_
 _atom_site_type_symbol
 _atom_site_label
 _atom_site_symmetry_multiplicity
 _atom_site_fract_x
 _atom_site_fract_y
 _atom_site_fract_z
 _atom_site_occupancy
  Na  Na0  1  0.41580915  0.41580915  0.58419085  1.0
  Na  Na1  1  -0.33419085  0.66580915  0.83419085  1.0
  Sc  Sc2  1  0.75187396  -0.24812604  0.24812604  1.0
  Sc  Sc3  1  0.00187396  0.00187396  1.49812604  1.0
  P  P4  1  -0.24504625  0.42325584  1.36123260  1.0
  P  P5  1  0.42325584  -0.24504625  0.46055782  1.0
  P  P6  1  -0.21055782  0.88876740  0.82674416  1.0
  P  P7  1  -0.11123260  0.78944218  0.49504625  1.0
  S  S8  1  -0.16434716  0.32941058  1.61680290  1.0
  S  S9  1  0.32941058  -0.16434716  0.21813368  1.0
  S  S10  1  0.03186632  0.63319710  0.92058942  1.0
  S  S11  1  0.63319710  0.03186632  0.41434716  1.0
  S  S12  1  -0.09745585  0.43589412  1.12650945  1.0
  S  S13  1  0.43589412  -0.09745585  0.53505229  1.0
  S  S14  1  0.71494771  0.12349055  0.81410588  1.0
  S  S15  1  0.12349055  0.71494771  0.34745585  1.0
  S  S16  1  -0.21500575  0.24558136  1.26104910  1.0
  S  S17  1  0.24558136  -0.21500575  0.70837529  1.0
  S  S18  1  0.54162471  -0.01104910  0.00441864  1.0
  S  S19  1  -0.01104910  0.54162471  1.46500575  1.0
