# generated using pymatgen
data_Li3CrF6
_symmetry_space_group_name_H-M   'P 1'
_cell_length_a   9.71526008
_cell_length_b   8.52172971
_cell_length_c   5.04267552
_cell_angle_alpha   90.00000000
_cell_angle_beta   90.00000000
_cell_angle_gamma   90.00000000
_symmetry_Int_Tables_number   1
_chemical_formula_structural   Li3CrF6
_chemical_formula_sum   'Li12 Cr4 F24'
_cell_volume   417.48724325
_cell_formula_units_Z   4
loop_
 _symmetry_equiv_pos_site_id
 _symmetry_equiv_pos_as_xyz
  1  'x, y, z'
loop_
 _atom_site_type_symbol
 _atom_site_label
 _atom_site_symmetry_multiplicity
 _atom_site_fract_x
 _atom_site_fract_y
 _atom_site_fract_z
 _atom_site_occupancy
  Li  Li0  1  0.39878735  0.45127402  0.49467700  1.0
  Li  Li1  1  0.89878735  0.04872598  0.49467700  1.0
  Li  Li2  1  0.60121265  0.54872598  -0.00532300  1.0
  Li  Li3  1  0.10121265  0.95127402  -0.00532300  1.0
  Li  Li4  1  0.35010321  0.04805809  0.49015632  1.0
  Li  Li5  1  0.85010321  0.45194191  0.49015632  1.0
  Li  Li6  1  0.64989679  0.95194191  0.99015632  1.0
  Li  Li7  1  0.14989679  0.54805809  0.99015632  1.0
  Li  Li8  1  0.12591057  0.35398952  0.48432814  1.0
  Li  Li9  1  0.62591057  0.14601048  0.48432814  1.0
  Li  Li10  1  0.87408943  0.64601048  0.98432814  1.0
  Li  Li11  1  0.37408943  0.85398952  0.98432814  1.0
  Cr  Cr12  1  0.37154438  0.23846753  0.99212885  1.0
  Cr  Cr13  1  0.87154438  0.26153247  0.99212885  1.0
  Cr  Cr14  1  0.62845562  0.76153247  0.49212885  1.0
  Cr  Cr15  1  0.12845562  0.73846753  0.49212885  1.0
  F  F16  1  0.48979985  0.08663388  0.16893606  1.0
  F  F17  1  0.98979985  0.41336612  0.16893606  1.0
  F  F18  1  0.51020015  0.91336612  0.66893606  1.0
  F  F19  1  0.01020015  0.58663388  0.66893606  1.0
  F  F20  1  0.47767585  0.24465358  0.66934490  1.0
  F  F21  1  0.97767585  0.25534642  0.66934490  1.0
  F  F22  1  0.52232415  0.75534642  0.16934490  1.0
  F  F23  1  0.02232415  0.74465358  0.16934490  1.0
  F  F24  1  0.47368432  0.40767012  0.14589841  1.0
  F  F25  1  0.97368432  0.09232988  0.14589841  1.0
  F  F26  1  0.52631568  0.59232988  0.64589841  1.0
  F  F27  1  0.02631568  0.90767012  0.64589841  1.0
  F  F28  1  0.27310776  0.05919796  0.84755757  1.0
  F  F29  1  0.77310776  0.44080204  0.84755757  1.0
  F  F30  1  0.72689224  0.94080204  0.34755757  1.0
  F  F31  1  0.22689224  0.55919796  0.34755757  1.0
  F  F32  1  0.26088176  0.23076600  0.30806060  1.0
  F  F33  1  0.76088176  0.26923400  0.30806060  1.0
  F  F34  1  0.73911824  0.76923400  0.80806060  1.0
  F  F35  1  0.23911824  0.73076600  0.80806060  1.0
  F  F36  1  0.24840591  0.88561071  0.31181215  1.0
  F  F37  1  0.74840591  0.61438929  0.31181215  1.0
  F  F38  1  0.75159409  0.11438929  0.81181215  1.0
  F  F39  1  0.25159409  0.38561071  0.81181215  1.0
