# generated using pymatgen
data_TaNiGe
_symmetry_space_group_name_H-M   'P 1'
_cell_length_a   6.29218188
_cell_length_b   3.77697255
_cell_length_c   7.21026557
_cell_angle_alpha   90.00000000
_cell_angle_beta   90.00000000
_cell_angle_gamma   90.00000000
_symmetry_Int_Tables_number   1
_chemical_formula_structural   TaNiGe
_chemical_formula_sum   'Ta4 Ni4 Ge4'
_cell_volume   171.35483283
_cell_formula_units_Z   4
loop_
 _symmetry_equiv_pos_site_id
 _symmetry_equiv_pos_as_xyz
  1  'x, y, z'
loop_
 _atom_site_type_symbol
 _atom_site_label
 _atom_site_symmetry_multiplicity
 _atom_site_fract_x
 _atom_site_fract_y
 _atom_site_fract_z
 _atom_site_occupancy
  Ta  Ta0  1  0.98445712  0.75000000  0.67645866  1.0
  Ta  Ta1  1  0.48445712  0.75000000  0.82354134  1.0
  Ta  Ta2  1  0.01554288  0.25000000  0.32354134  1.0
  Ta  Ta3  1  0.51554288  0.25000000  0.17645866  1.0
  Ni  Ni4  1  0.83608586  0.75000000  0.07316826  1.0
  Ni  Ni5  1  0.33608586  0.75000000  0.42683174  1.0
  Ni  Ni6  1  0.16391414  0.25000000  0.92683174  1.0
  Ni  Ni7  1  0.66391414  0.25000000  0.57316826  1.0
  Ge  Ge8  1  0.71553589  0.75000000  0.38590585  1.0
  Ge  Ge9  1  0.21553589  0.75000000  0.11409415  1.0
  Ge  Ge10  1  0.28446411  0.25000000  0.61409415  1.0
  Ge  Ge11  1  0.78446411  0.25000000  0.88590585  1.0
