# generated using pymatgen
data_Gd3Sb5O12
_symmetry_space_group_name_H-M   'P 1'
_cell_length_a   9.54033328
_cell_length_b   9.54033328
_cell_length_c   9.54033328
_cell_angle_alpha   109.47122063
_cell_angle_beta   109.47122063
_cell_angle_gamma   109.47122063
_symmetry_Int_Tables_number   1
_chemical_formula_structural   Gd3Sb5O12
_chemical_formula_sum   'Gd6 Sb10 O24'
_cell_volume   668.44972455
_cell_formula_units_Z   2
loop_
 _symmetry_equiv_pos_site_id
 _symmetry_equiv_pos_as_xyz
  1  'x, y, z'
loop_
 _atom_site_type_symbol
 _atom_site_label
 _atom_site_symmetry_multiplicity
 _atom_site_fract_x
 _atom_site_fract_y
 _atom_site_fract_z
 _atom_site_occupancy
  Gd  Gd0  1  0.25000000  0.75000000  0.50000000  1.0
  Gd  Gd1  1  0.75000000  0.25000000  0.50000000  1.0
  Gd  Gd2  1  0.25000000  0.50000000  0.75000000  1.0
  Gd  Gd3  1  0.50000000  0.25000000  0.75000000  1.0
  Gd  Gd4  1  0.75000000  0.50000000  0.25000000  1.0
  Gd  Gd5  1  0.50000000  0.75000000  0.25000000  1.0
  Sb  Sb6  1  0.71704517  0.71704517  0.00000000  1.0
  Sb  Sb7  1  0.71704517  0.00000000  0.71704517  1.0
  Sb  Sb8  1  -0.00000000  0.71704517  0.71704517  1.0
  Sb  Sb9  1  0.28295483  0.00000000  0.28295483  1.0
  Sb  Sb10  1  -0.00000000  0.28295483  0.28295483  1.0
  Sb  Sb11  1  0.28295483  0.28295483  0.00000000  1.0
  Sb  Sb12  1  0.51076933  0.51076933  0.51076933  1.0
  Sb  Sb13  1  1.00000000  1.00000000  0.48923067  1.0
  Sb  Sb14  1  1.00000000  0.48923067  1.00000000  1.0
  Sb  Sb15  1  0.48923067  1.00000000  1.00000000  1.0
  O  O16  1  0.79931279  0.50481297  0.50481297  1.0
  O  O17  1  0.50481297  0.79931279  0.50481297  1.0
  O  O18  1  1.00000000  1.29449982  0.49518703  1.0
  O  O19  1  1.29449982  1.00000000  0.49518703  1.0
  O  O20  1  0.50481297  0.50481297  0.79931279  1.0
  O  O21  1  0.70550018  0.70550018  0.20068721  1.0
  O  O22  1  1.00000000  0.49518703  1.29449982  1.0
  O  O23  1  0.70550018  0.20068721  0.70550018  1.0
  O  O24  1  0.20068721  0.70550018  0.70550018  1.0
  O  O25  1  0.49518703  1.00000000  1.29449982  1.0
  O  O26  1  1.29449982  0.49518703  1.00000000  1.0
  O  O27  1  0.49518703  1.29449982  1.00000000  1.0
  O  O28  1  0.27654910  0.47654341  0.47654341  1.0
  O  O29  1  0.47654341  0.27654910  0.47654341  1.0
  O  O30  1  1.00000000  0.80000569  1.52345659  1.0
  O  O31  1  0.80000569  1.00000000  1.52345659  1.0
  O  O32  1  0.47654341  0.47654341  0.27654910  1.0
  O  O33  1  1.19999431  1.19999431  0.72345090  1.0
  O  O34  1  1.00000000  1.52345659  0.80000569  1.0
  O  O35  1  1.19999431  0.72345090  1.19999431  1.0
  O  O36  1  0.72345090  1.19999431  1.19999431  1.0
  O  O37  1  1.52345659  1.00000000  0.80000569  1.0
  O  O38  1  0.80000569  1.52345659  1.00000000  1.0
  O  O39  1  1.52345659  0.80000569  1.00000000  1.0
