# generated using pymatgen
data_CsTi2(PO4)3
_symmetry_space_group_name_H-M   'P 1'
_cell_length_a   9.43236017
_cell_length_b   9.43236017
_cell_length_c   9.43236017
_cell_angle_alpha   52.76494033
_cell_angle_beta   52.76494033
_cell_angle_gamma   52.76494033
_symmetry_Int_Tables_number   1
_chemical_formula_structural   CsTi2(PO4)3
_chemical_formula_sum   'Cs2 Ti4 P6 O24'
_cell_volume   492.69292866
_cell_formula_units_Z   2
loop_
 _symmetry_equiv_pos_site_id
 _symmetry_equiv_pos_as_xyz
  1  'x, y, z'
loop_
 _atom_site_type_symbol
 _atom_site_label
 _atom_site_symmetry_multiplicity
 _atom_site_fract_x
 _atom_site_fract_y
 _atom_site_fract_z
 _atom_site_occupancy
  Cs  Cs0  1  1.00000000  0.00000000  0.00000000  1.0
  Cs  Cs1  1  0.50000000  0.50000000  0.50000000  1.0
  Ti  Ti2  1  0.84739066  -0.15260934  -0.15260934  1.0
  Ti  Ti3  1  0.34739066  0.34739066  0.34739066  1.0
  Ti  Ti4  1  0.65260934  0.65260934  -0.34739066  1.0
  Ti  Ti5  1  1.15260934  0.15260934  0.15260934  1.0
  P  P6  1  0.47187642  0.75000000  0.02812358  1.0
  P  P7  1  0.97187642  -0.47187642  0.25000000  1.0
  P  P8  1  0.25000000  0.97187642  -0.47187642  1.0
  P  P9  1  0.75000000  1.02812358  -0.52812358  1.0
  P  P10  1  0.52812358  0.25000000  -0.02812358  1.0
  P  P11  1  1.02812358  0.47187642  -0.25000000  1.0
  O  O12  1  0.72818551  1.01228100  -0.34270332  1.0
  O  O13  1  1.22818551  0.15729668  -0.48771900  1.0
  O  O14  1  0.84270332  0.48771900  -0.22818551  1.0
  O  O15  1  0.34270332  0.27181449  -0.01228100  1.0
  O  O16  1  0.98771900  0.34270332  -0.72818551  1.0
  O  O17  1  0.48771900  0.77181449  -0.15729668  1.0
  O  O18  1  0.27181449  0.98771900  -0.65729668  1.0
  O  O19  1  0.77181449  0.84270332  -0.51228100  1.0
  O  O20  1  0.65729668  0.72818551  0.01228100  1.0
  O  O21  1  1.15729668  -0.48771900  0.22818551  1.0
  O  O22  1  0.51228100  0.22818551  0.15729668  1.0
  O  O23  1  1.01228100  0.65729668  -0.27181449  1.0
  O  O24  1  0.69253412  0.06728660  -0.07341894  1.0
  O  O25  1  1.19253412  0.42658106  -0.43271340  1.0
  O  O26  1  0.57341894  0.43271340  -0.19253412  1.0
  O  O27  1  1.07341894  0.30746588  -0.06728660  1.0
  O  O28  1  0.93271340  0.07341894  0.30746588  1.0
  O  O29  1  0.43271340  0.80746588  -0.42658106  1.0
  O  O30  1  1.30746588  -0.06728660  0.07341894  1.0
  O  O31  1  0.80746588  0.57341894  -0.56728660  1.0
  O  O32  1  0.92658106  -0.30746588  0.06728660  1.0
  O  O33  1  0.42658106  0.56728660  0.19253412  1.0
  O  O34  1  0.56728660  1.19253412  -0.57341894  1.0
  O  O35  1  1.06728660  -0.07341894  -0.30746588  1.0
