# generated using pymatgen
data_BiSbO4
_symmetry_space_group_name_H-M   'P 1'
_cell_length_a   6.57400284
_cell_length_b   6.57400284
_cell_length_c   5.65469877
_cell_angle_alpha   77.39779130
_cell_angle_beta   102.60220870
_cell_angle_gamma   135.47616999
_symmetry_Int_Tables_number   1
_chemical_formula_structural   BiSbO4
_chemical_formula_sum   'Bi2 Sb2 O8'
_cell_volume   166.53189888
_cell_formula_units_Z   2
loop_
 _symmetry_equiv_pos_site_id
 _symmetry_equiv_pos_as_xyz
  1  'x, y, z'
loop_
 _atom_site_type_symbol
 _atom_site_label
 _atom_site_symmetry_multiplicity
 _atom_site_fract_x
 _atom_site_fract_y
 _atom_site_fract_z
 _atom_site_occupancy
  Bi  Bi0  1  0.76443135  0.76443135  0.75000000  1.0
  Bi  Bi1  1  0.23556865  0.23556865  0.25000000  1.0
  Sb  Sb2  1  1.50000000  -0.00000000  0.00000000  1.0
  Sb  Sb3  1  1.00000000  -0.50000000  0.50000000  1.0
  O  O4  1  1.66419751  0.29380323  0.70026505  1.0
  O  O5  1  0.70619677  -0.66419751  0.20026505  1.0
  O  O6  1  1.29380323  -0.33580249  0.79973495  1.0
  O  O7  1  1.33580249  -0.29380323  0.29973495  1.0
  O  O8  1  1.18610404  -0.00652473  0.96143322  1.0
  O  O9  1  1.00652473  -0.18610404  0.46143322  1.0
  O  O10  1  0.99347527  -0.81389596  0.53856678  1.0
  O  O11  1  1.81389596  0.00652473  0.03856678  1.0
