# generated using pymatgen
data_LaSbRh
_symmetry_space_group_name_H-M   'P 1'
_cell_length_a   7.59686519
_cell_length_b   4.70234078
_cell_length_c   7.95536991
_cell_angle_alpha   90.00000000
_cell_angle_beta   90.00000000
_cell_angle_gamma   90.00000000
_symmetry_Int_Tables_number   1
_chemical_formula_structural   LaSbRh
_chemical_formula_sum   'La4 Sb4 Rh4'
_cell_volume   284.19006906
_cell_formula_units_Z   4
loop_
 _symmetry_equiv_pos_site_id
 _symmetry_equiv_pos_as_xyz
  1  'x, y, z'
loop_
 _atom_site_type_symbol
 _atom_site_label
 _atom_site_symmetry_multiplicity
 _atom_site_fract_x
 _atom_site_fract_y
 _atom_site_fract_z
 _atom_site_occupancy
  La  La0  1  0.98321493  0.75000000  0.69680946  1.0
  La  La1  1  0.48321493  0.75000000  0.80319054  1.0
  La  La2  1  0.01678507  0.25000000  0.30319054  1.0
  La  La3  1  0.51678507  0.25000000  0.19680946  1.0
  Sb  Sb4  1  0.81613419  0.75000000  0.08851669  1.0
  Sb  Sb5  1  0.31613419  0.75000000  0.41148331  1.0
  Sb  Sb6  1  0.18386581  0.25000000  0.91148331  1.0
  Sb  Sb7  1  0.68386581  0.25000000  0.58851669  1.0
  Rh  Rh8  1  0.69542245  0.75000000  0.41422729  1.0
  Rh  Rh9  1  0.19542245  0.75000000  0.08577271  1.0
  Rh  Rh10  1  0.30457755  0.25000000  0.58577271  1.0
  Rh  Rh11  1  0.80457755  0.25000000  0.91422729  1.0
