# generated using pymatgen
data_Hf9FeMo4
_symmetry_space_group_name_H-M   'P 1'
_cell_length_a   8.67319409
_cell_length_b   8.67319409
_cell_length_c   8.43798605
_cell_angle_alpha   90.00000000
_cell_angle_beta   90.00000000
_cell_angle_gamma   120.00000000
_symmetry_Int_Tables_number   1
_chemical_formula_structural   Hf9FeMo4
_chemical_formula_sum   'Hf18 Fe2 Mo8'
_cell_volume   549.70231444
_cell_formula_units_Z   2
loop_
 _symmetry_equiv_pos_site_id
 _symmetry_equiv_pos_as_xyz
  1  'x, y, z'
loop_
 _atom_site_type_symbol
 _atom_site_label
 _atom_site_symmetry_multiplicity
 _atom_site_fract_x
 _atom_site_fract_y
 _atom_site_fract_z
 _atom_site_occupancy
  Hf  Hf0  1  0.20221347  0.79778653  0.44158977  1.0
  Hf  Hf1  1  0.20221347  0.79778653  0.05841023  1.0
  Hf  Hf2  1  0.20221347  0.40442694  0.44158977  1.0
  Hf  Hf3  1  0.20221347  0.40442694  0.05841023  1.0
  Hf  Hf4  1  0.79778653  0.20221347  0.94158977  1.0
  Hf  Hf5  1  0.79778653  0.20221347  0.55841023  1.0
  Hf  Hf6  1  0.79778653  0.59557306  0.94158977  1.0
  Hf  Hf7  1  0.79778653  0.59557306  0.55841023  1.0
  Hf  Hf8  1  0.59557306  0.79778653  0.44158977  1.0
  Hf  Hf9  1  0.59557306  0.79778653  0.05841023  1.0
  Hf  Hf10  1  0.40442694  0.20221347  0.94158977  1.0
  Hf  Hf11  1  0.40442694  0.20221347  0.55841023  1.0
  Hf  Hf12  1  0.54161353  0.45838647  0.25000000  1.0
  Hf  Hf13  1  0.54161353  0.08322705  0.25000000  1.0
  Hf  Hf14  1  0.45838647  0.54161353  0.75000000  1.0
  Hf  Hf15  1  0.45838647  0.91677295  0.75000000  1.0
  Hf  Hf16  1  0.91677295  0.45838647  0.25000000  1.0
  Hf  Hf17  1  0.08322705  0.54161353  0.75000000  1.0
  Fe  Fe18  1  0.33333333  0.66666667  0.25000000  1.0
  Fe  Fe19  1  0.66666667  0.33333333  0.75000000  1.0
  Mo  Mo20  1  0.88853111  0.11146889  0.25000000  1.0
  Mo  Mo21  1  0.88853111  0.77706222  0.25000000  1.0
  Mo  Mo22  1  0.11146889  0.88853111  0.75000000  1.0
  Mo  Mo23  1  0.11146889  0.22293778  0.75000000  1.0
  Mo  Mo24  1  0.22293778  0.11146889  0.25000000  1.0
  Mo  Mo25  1  0.77706222  0.88853111  0.75000000  1.0
  Mo  Mo26  1  0.00000000  0.00000000  0.50000000  1.0
  Mo  Mo27  1  0.00000000  0.00000000  0.00000000  1.0
