# generated using pymatgen
data_GeH4
_symmetry_space_group_name_H-M   'P 1'
_cell_length_a   6.67338127
_cell_length_b   6.67338127
_cell_length_c   4.68952969
_cell_angle_alpha   87.08442636
_cell_angle_beta   92.91557364
_cell_angle_gamma   72.56799128
_symmetry_Int_Tables_number   1
_chemical_formula_structural   GeH4
_chemical_formula_sum   'Ge2 H8'
_cell_volume   198.51471426
_cell_formula_units_Z   2
loop_
 _symmetry_equiv_pos_site_id
 _symmetry_equiv_pos_as_xyz
  1  'x, y, z'
loop_
 _atom_site_type_symbol
 _atom_site_label
 _atom_site_symmetry_multiplicity
 _atom_site_fract_x
 _atom_site_fract_y
 _atom_site_fract_z
 _atom_site_occupancy
  Ge  Ge0  1  0.58346359  -0.41653641  0.25000000  1.0
  Ge  Ge1  1  1.41653641  0.41653641  0.75000000  1.0
  H  H2  1  0.88436425  -0.10501568  0.66965087  1.0
  H  H3  1  0.89498432  -0.11563575  0.83034913  1.0
  H  H4  1  1.11563575  0.10501568  0.33034913  1.0
  H  H5  1  1.10501568  0.11563575  0.16965087  1.0
  H  H6  1  0.40949477  -0.35024300  0.59070224  1.0
  H  H7  1  0.64975700  -0.59050523  0.90929776  1.0
  H  H8  1  1.59050523  0.35024300  0.40929776  1.0
  H  H9  1  1.35024300  0.59050523  0.09070224  1.0
