# generated using pymatgen
data_Ga7Ni3
_symmetry_space_group_name_H-M   'P 1'
_cell_length_a   7.33714027
_cell_length_b   7.33714027
_cell_length_c   7.33714027
_cell_angle_alpha   109.47122063
_cell_angle_beta   109.47122063
_cell_angle_gamma   109.47122063
_symmetry_Int_Tables_number   1
_chemical_formula_structural   Ga7Ni3
_chemical_formula_sum   'Ga14 Ni6'
_cell_volume   304.05949856
_cell_formula_units_Z   2
loop_
 _symmetry_equiv_pos_site_id
 _symmetry_equiv_pos_as_xyz
  1  'x, y, z'
loop_
 _atom_site_type_symbol
 _atom_site_label
 _atom_site_symmetry_multiplicity
 _atom_site_fract_x
 _atom_site_fract_y
 _atom_site_fract_z
 _atom_site_occupancy
  Ga  Ga0  1  0.67707089  0.67707089  0.67707089  1.0
  Ga  Ga1  1  1.00000000  1.00000000  0.67707089  1.0
  Ga  Ga2  1  1.00000000  1.67707089  1.00000000  1.0
  Ga  Ga3  1  1.32292911  1.00000000  1.00000000  1.0
  Ga  Ga4  1  1.67707089  1.00000000  1.00000000  1.0
  Ga  Ga5  1  1.00000000  1.32292911  1.00000000  1.0
  Ga  Ga6  1  1.00000000  1.00000000  0.32292911  1.0
  Ga  Ga7  1  0.32292911  0.32292911  0.32292911  1.0
  Ga  Ga8  1  0.50000000  0.25000000  0.75000000  1.0
  Ga  Ga9  1  0.50000000  0.75000000  0.25000000  1.0
  Ga  Ga10  1  0.25000000  0.50000000  0.75000000  1.0
  Ga  Ga11  1  1.25000000  0.75000000  0.50000000  1.0
  Ga  Ga12  1  0.75000000  1.25000000  0.50000000  1.0
  Ga  Ga13  1  0.75000000  0.50000000  0.25000000  1.0
  Ni  Ni14  1  -0.00000000  0.64998424  0.64998424  1.0
  Ni  Ni15  1  0.64998424  0.00000000  0.64998424  1.0
  Ni  Ni16  1  0.64998424  0.64998424  0.00000000  1.0
  Ni  Ni17  1  0.35001576  0.35001576  0.00000000  1.0
  Ni  Ni18  1  0.35001576  -0.00000000  0.35001576  1.0
  Ni  Ni19  1  0.00000000  0.35001576  0.35001576  1.0
