# generated using pymatgen
data_SrHN
_symmetry_space_group_name_H-M   'P 1'
_cell_length_a   8.47178477
_cell_length_b   8.47178477
_cell_length_c   8.47178477
_cell_angle_alpha   115.09345061
_cell_angle_beta   115.09345061
_cell_angle_gamma   98.73172828
_symmetry_Int_Tables_number   1
_chemical_formula_structural   SrHN
_chemical_formula_sum   'Sr8 H8 N8'
_cell_volume   456.07570985
_cell_formula_units_Z   8
loop_
 _symmetry_equiv_pos_site_id
 _symmetry_equiv_pos_as_xyz
  1  'x, y, z'
loop_
 _atom_site_type_symbol
 _atom_site_label
 _atom_site_symmetry_multiplicity
 _atom_site_fract_x
 _atom_site_fract_y
 _atom_site_fract_z
 _atom_site_occupancy
  Sr  Sr0  1  1.13950240  0.37866010  0.76084230  1.0
  Sr  Sr1  1  1.13218220  0.87133990  1.26084230  1.0
  Sr  Sr2  1  0.61781780  0.37866010  0.23915770  1.0
  Sr  Sr3  1  0.61049760  0.87133990  0.73915770  1.0
  Sr  Sr4  1  0.62133990  0.38218220  0.76084230  1.0
  Sr  Sr5  1  0.12866010  0.38950240  0.26084230  1.0
  Sr  Sr6  1  0.62133990  0.86049760  1.23915770  1.0
  Sr  Sr7  1  0.12866010  0.86781780  0.73915770  1.0
  H  H8  1  0.97366223  0.07878832  0.89487392  1.0
  H  H9  1  0.56608560  0.17121168  0.39487392  1.0
  H  H10  1  0.18391440  0.07878832  0.10512608  1.0
  H  H11  1  0.77633777  0.17121168  0.60512608  1.0
  H  H12  1  0.92121168  0.81608560  0.89487392  1.0
  H  H13  1  0.82878832  1.22366223  1.39487392  1.0
  H  H14  1  0.92121168  1.02633777  1.10512608  1.0
  H  H15  1  0.82878832  0.43391440  0.60512608  1.0
  N  N16  1  0.97976484  0.15394580  0.82581905  1.0
  N  N17  1  0.42187325  0.09605420  0.32581905  1.0
  N  N18  1  0.32812675  0.15394580  0.17418095  1.0
  N  N19  1  0.77023516  0.09605420  0.67418095  1.0
  N  N20  1  0.84605420  0.67187325  0.82581905  1.0
  N  N21  1  0.90394580  1.22976484  1.32581905  1.0
  N  N22  1  0.84605420  1.02023516  1.17418095  1.0
  N  N23  1  0.90394580  0.57812675  0.67418095  1.0
