# generated using pymatgen
data_Sc2Ni12P7
_symmetry_space_group_name_H-M   'P 1'
_cell_length_a   9.00017720
_cell_length_b   9.00017720
_cell_length_c   3.60357138
_cell_angle_alpha   90.00000000
_cell_angle_beta   90.00000000
_cell_angle_gamma   120.00000000
_symmetry_Int_Tables_number   1
_chemical_formula_structural   Sc2Ni12P7
_chemical_formula_sum   'Sc2 Ni12 P7'
_cell_volume   252.79348702
_cell_formula_units_Z   1
loop_
 _symmetry_equiv_pos_site_id
 _symmetry_equiv_pos_as_xyz
  1  'x, y, z'
loop_
 _atom_site_type_symbol
 _atom_site_label
 _atom_site_symmetry_multiplicity
 _atom_site_fract_x
 _atom_site_fract_y
 _atom_site_fract_z
 _atom_site_occupancy
  Sc  Sc0  1  0.00000000  0.00000000  0.50000000  1.0
  Sc  Sc1  1  0.66666667  0.33333333  -0.00000000  1.0
  Ni  Ni2  1  0.71694930  0.61621714  0.50000000  1.0
  Ni  Ni3  1  0.89926784  0.28305070  0.50000000  1.0
  Ni  Ni4  1  0.38378286  0.10073216  0.50000000  1.0
  Ni  Ni5  1  0.23989678  0.44699505  0.50000000  1.0
  Ni  Ni6  1  0.20709827  0.76010322  0.50000000  1.0
  Ni  Ni7  1  0.55300495  0.79290173  0.50000000  1.0
  Ni  Ni8  1  0.48853827  0.54561053  0.00000000  1.0
  Ni  Ni9  1  0.05707226  0.51146173  0.00000000  1.0
  Ni  Ni10  1  0.45438947  0.94292774  0.00000000  1.0
  Ni  Ni11  1  0.27057432  0.23084973  0.00000000  1.0
  Ni  Ni12  1  0.96027541  0.72942568  -0.00000000  1.0
  Ni  Ni13  1  0.76915027  0.03972459  -0.00000000  1.0
  P  P14  1  0.45180180  0.37335804  0.50000000  1.0
  P  P15  1  0.92155623  0.54819820  0.50000000  1.0
  P  P16  1  0.62664196  0.07844377  0.50000000  1.0
  P  P17  1  0.03944237  0.25399948  0.00000000  1.0
  P  P18  1  0.21455711  0.96055763  0.00000000  1.0
  P  P19  1  0.74600052  0.78544289  -0.00000000  1.0
  P  P20  1  0.33333333  0.66666667  0.00000000  1.0
