# generated using pymatgen
data_Li3Ni2SbO6
_symmetry_space_group_name_H-M   'P 1'
_cell_length_a   5.23686949
_cell_length_b   5.23686949
_cell_length_c   14.64295509
_cell_angle_alpha   90.00000000
_cell_angle_beta   90.00000000
_cell_angle_gamma   120.00000000
_symmetry_Int_Tables_number   1
_chemical_formula_structural   Li3Ni2SbO6
_chemical_formula_sum   'Li9 Ni6 Sb3 O18'
_cell_volume   347.77860706
_cell_formula_units_Z   3
loop_
 _symmetry_equiv_pos_site_id
 _symmetry_equiv_pos_as_xyz
  1  'x, y, z'
loop_
 _atom_site_type_symbol
 _atom_site_label
 _atom_site_symmetry_multiplicity
 _atom_site_fract_x
 _atom_site_fract_y
 _atom_site_fract_z
 _atom_site_occupancy
  Li  Li0  1  0.75432699  0.87716349  0.50000000  1.0
  Li  Li1  1  0.12283651  0.87716349  0.83333333  1.0
  Li  Li2  1  0.12283651  0.24567301  0.16666667  1.0
  Li  Li3  1  1.10988480  0.55494240  0.50000000  1.0
  Li  Li4  1  0.44505760  0.55494240  0.83333333  1.0
  Li  Li5  1  0.44505760  -0.10988480  0.16666667  1.0
  Li  Li6  1  0.46643068  0.23321534  0.50000000  1.0
  Li  Li7  1  0.76678466  0.23321534  0.83333333  1.0
  Li  Li8  1  0.76678466  0.53356932  0.16666667  1.0
  Ni  Ni9  1  0.11201531  0.55600765  0.00000000  1.0
  Ni  Ni10  1  0.44399235  0.55600765  0.33333333  1.0
  Ni  Ni11  1  0.44399235  0.88798469  0.66666667  1.0
  Ni  Ni12  1  0.44460806  0.22230403  0.00000000  1.0
  Ni  Ni13  1  0.77769597  0.22230403  0.33333333  1.0
  Ni  Ni14  1  0.77769597  0.55539194  0.66666667  1.0
  Sb  Sb15  1  -0.21974932  -0.10987466  0.00000000  1.0
  Sb  Sb16  1  1.10987466  -0.10987466  0.33333333  1.0
  Sb  Sb17  1  1.10987466  1.21974932  0.66666667  1.0
  O  O18  1  0.45850705  0.56882354  0.07773325  1.0
  O  O19  1  0.45850705  -0.11031649  0.92226675  1.0
  O  O20  1  1.11031649  0.56882354  0.25560008  1.0
  O  O21  1  1.11031649  0.54149295  0.74439992  1.0
  O  O22  1  0.43117646  0.54149295  0.58893342  1.0
  O  O23  1  0.43117646  -0.11031649  0.41106658  1.0
  O  O24  1  0.43183887  1.22151125  0.74469964  1.0
  O  O25  1  0.43183887  0.21032762  0.25530036  1.0
  O  O26  1  0.78967238  1.22151125  0.58863370  1.0
  O  O27  1  0.78967238  0.56816113  0.41136630  1.0
  O  O28  1  -0.22151125  0.56816113  0.92196703  1.0
  O  O29  1  -0.22151125  0.21032762  0.07803297  1.0
  O  O30  1  0.78742476  0.89888694  0.74307007  1.0
  O  O31  1  0.78742476  -0.11146218  0.25692993  1.0
  O  O32  1  1.11146218  0.89888694  0.59026326  1.0
  O  O33  1  1.11146218  0.21257524  0.40973674  1.0
  O  O34  1  0.10111306  0.21257524  0.92359659  1.0
  O  O35  1  0.10111306  -0.11146218  0.07640341  1.0
