# generated using pymatgen
data_Cs2La10Os2I17
_symmetry_space_group_name_H-M   'P 1'
_cell_length_a   11.95461601
_cell_length_b   11.95461601
_cell_length_c   10.16892699
_cell_angle_alpha   86.64734010
_cell_angle_beta   93.35265990
_cell_angle_gamma   72.55978737
_symmetry_Int_Tables_number   1
_chemical_formula_structural   Cs2La10Os2I17
_chemical_formula_sum   'Cs2 La10 Os2 I17'
_cell_volume   1379.67588667
_cell_formula_units_Z   1
loop_
 _symmetry_equiv_pos_site_id
 _symmetry_equiv_pos_as_xyz
  1  'x, y, z'
loop_
 _atom_site_type_symbol
 _atom_site_label
 _atom_site_symmetry_multiplicity
 _atom_site_fract_x
 _atom_site_fract_y
 _atom_site_fract_z
 _atom_site_occupancy
  Cs  Cs0  1  0.67633036  -0.32366964  0.00000000  1.0
  Cs  Cs1  1  1.32366964  0.32366964  0.00000000  1.0
  La  La2  1  0.70832290  -0.00731046  0.57056662  1.0
  La  La3  1  1.00731046  0.29167710  0.57056662  1.0
  La  La4  1  0.99268954  -0.29167710  0.42943338  1.0
  La  La5  1  1.29167710  0.00731046  0.42943338  1.0
  La  La6  1  0.93463533  -0.93463533  0.32010534  1.0
  La  La7  1  0.06536467  -0.06536467  0.67989466  1.0
  La  La8  1  0.66938121  -0.66938121  0.43908754  1.0
  La  La9  1  0.33061879  -0.33061879  0.56091246  1.0
  La  La10  1  0.79469743  -0.79469743  0.81426960  1.0
  La  La11  1  0.20530257  -0.20530257  0.18573040  1.0
  Os  Os12  1  0.85766195  -0.85766195  0.56893818  1.0
  Os  Os13  1  0.14233805  -0.14233805  0.43106182  1.0
  I  I14  1  0.52560683  -0.18661769  0.58249251  1.0
  I  I15  1  1.18661769  0.47439317  0.58249251  1.0
  I  I16  1  0.81338231  -0.47439317  0.41750749  1.0
  I  I17  1  1.47439317  0.18661769  0.41750749  1.0
  I  I18  1  1.61607479  0.04950366  0.85827540  1.0
  I  I19  1  0.95049634  -0.61607479  0.85827540  1.0
  I  I20  1  1.04950366  0.61607479  0.14172460  1.0
  I  I21  1  0.38392521  -0.04950366  0.14172460  1.0
  I  I22  1  1.24593537  0.10201544  0.72608909  1.0
  I  I23  1  0.89798456  -0.24593537  0.72608909  1.0
  I  I24  1  1.10201544  0.24593537  0.27391091  1.0
  I  I25  1  0.75406463  -0.10201544  0.27391091  1.0
  I  I26  1  -0.00000000  -0.00000000  -0.00000000  1.0
  I  I27  1  0.28858514  -0.28858514  0.87159715  1.0
  I  I28  1  0.71141486  -0.71141486  0.12840285  1.0
  I  I29  1  0.56437496  -0.56437496  0.71459285  1.0
  I  I30  1  0.43562504  -0.43562504  0.28540715  1.0
