# generated using pymatgen
data_Hg3(SF)2
_symmetry_space_group_name_H-M   'P 1'
_cell_length_a   7.26306990
_cell_length_b   7.26306990
_cell_length_c   7.26306990
_cell_angle_alpha   109.47122063
_cell_angle_beta   109.47122063
_cell_angle_gamma   109.47122063
_symmetry_Int_Tables_number   1
_chemical_formula_structural   Hg3(SF)2
_chemical_formula_sum   'Hg6 S4 F4'
_cell_volume   294.94346732
_cell_formula_units_Z   2
loop_
 _symmetry_equiv_pos_site_id
 _symmetry_equiv_pos_as_xyz
  1  'x, y, z'
loop_
 _atom_site_type_symbol
 _atom_site_label
 _atom_site_symmetry_multiplicity
 _atom_site_fract_x
 _atom_site_fract_y
 _atom_site_fract_z
 _atom_site_occupancy
  Hg  Hg0  1  1.17045872  0.92045872  1.25000000  1.0
  Hg  Hg1  1  0.25000000  1.17045872  0.92045872  1.0
  Hg  Hg2  1  0.75000000  1.32954128  0.57954128  1.0
  Hg  Hg3  1  0.92045872  0.25000000  1.17045872  1.0
  Hg  Hg4  1  0.57954128  0.75000000  0.32954128  1.0
  Hg  Hg5  1  0.32954128  0.57954128  0.75000000  1.0
  S  S6  1  0.93388086  0.93388086  0.93388086  1.0
  S  S7  1  0.50000000  1.00000000  0.56611914  1.0
  S  S8  1  1.00000000  0.56611914  1.50000000  1.0
  S  S9  1  0.56611914  1.50000000  1.00000000  1.0
  F  F10  1  1.46852521  1.46852521  1.46852521  1.0
  F  F11  1  1.50000000  1.00000000  1.03147479  1.0
  F  F12  1  1.00000000  1.03147479  1.50000000  1.0
  F  F13  1  1.03147479  0.50000000  1.00000000  1.0
