# generated using pymatgen
data_MgPbF6
_symmetry_space_group_name_H-M   'P 1'
_cell_length_a   5.70147914
_cell_length_b   5.70147914
_cell_length_c   5.70147914
_cell_angle_alpha   57.29048412
_cell_angle_beta   57.29048412
_cell_angle_gamma   57.29048412
_symmetry_Int_Tables_number   1
_chemical_formula_structural   MgPbF6
_chemical_formula_sum   'Mg1 Pb1 F6'
_cell_volume   122.87753151
_cell_formula_units_Z   1
loop_
 _symmetry_equiv_pos_site_id
 _symmetry_equiv_pos_as_xyz
  1  'x, y, z'
loop_
 _atom_site_type_symbol
 _atom_site_label
 _atom_site_symmetry_multiplicity
 _atom_site_fract_x
 _atom_site_fract_y
 _atom_site_fract_z
 _atom_site_occupancy
  Mg  Mg0  1  0.00000000  0.00000000  -0.00000000  1.0
  Pb  Pb1  1  0.50000000  0.50000000  -0.50000000  1.0
  F  F2  1  0.13639737  0.75677126  -0.64929381  1.0
  F  F3  1  0.64929381  -0.13639737  0.24322874  1.0
  F  F4  1  1.24322874  -0.35070619  -0.13639737  1.0
  F  F5  1  0.86360263  0.24322874  -0.35070619  1.0
  F  F6  1  0.35070619  0.13639737  -0.24322874  1.0
  F  F7  1  0.75677126  0.35070619  -0.86360263  1.0
