# generated using pymatgen
data_Nb8Cu2O21
_symmetry_space_group_name_H-M   'P 1'
_cell_length_a   6.22548763
_cell_length_b   6.22548763
_cell_length_c   10.28138889
_cell_angle_alpha   81.29581028
_cell_angle_beta   98.70418972
_cell_angle_gamma   117.27291406
_symmetry_Int_Tables_number   1
_chemical_formula_structural   Nb8Cu2O21
_chemical_formula_sum   'Nb8 Cu2 O21'
_cell_volume   348.56927029
_cell_formula_units_Z   1
loop_
 _symmetry_equiv_pos_site_id
 _symmetry_equiv_pos_as_xyz
  1  'x, y, z'
loop_
 _atom_site_type_symbol
 _atom_site_label
 _atom_site_symmetry_multiplicity
 _atom_site_fract_x
 _atom_site_fract_y
 _atom_site_fract_z
 _atom_site_occupancy
  Nb  Nb0  1  0.24453757  -0.24453757  0.43549254  1.0
  Nb  Nb1  1  0.75546243  -0.75546243  0.56450746  1.0
  Nb  Nb2  1  0.69937333  -0.69937333  0.22795106  1.0
  Nb  Nb3  1  0.30062667  -0.30062667  0.77204894  1.0
  Nb  Nb4  1  0.00175864  -0.00175864  0.18526965  1.0
  Nb  Nb5  1  0.99824136  -0.99824136  0.81473035  1.0
  Nb  Nb6  1  0.37959277  -0.37959277  0.16592462  1.0
  Nb  Nb7  1  0.62040723  -0.62040723  0.83407538  1.0
  Cu  Cu8  1  0.75031604  -0.24968396  0.50000000  1.0
  Cu  Cu9  1  1.24968396  0.24968396  0.50000000  1.0
  O  O10  1  0.05074337  -0.05074337  0.38946920  1.0
  O  O11  1  0.94925663  -0.94925663  0.61053080  1.0
  O  O12  1  0.41198160  -0.41198160  0.39060503  1.0
  O  O13  1  0.58801840  -0.58801840  0.60939497  1.0
  O  O14  1  0.00000000  0.00000000  0.00000000  1.0
  O  O15  1  0.65878845  -0.02571820  0.18668864  1.0
  O  O16  1  0.97428180  -0.34121155  0.81331136  1.0
  O  O17  1  1.34121155  0.02571820  0.81331136  1.0
  O  O18  1  1.02571820  0.34121155  0.18668864  1.0
  O  O19  1  0.44999811  -0.08986668  0.60719422  1.0
  O  O20  1  0.91013332  -0.55000189  0.39280578  1.0
  O  O21  1  1.55000189  0.08986668  0.39280578  1.0
  O  O22  1  1.08986668  0.55000189  0.60719422  1.0
  O  O23  1  0.66318958  -0.66318958  0.00963448  1.0
  O  O24  1  0.33681042  -0.33681042  0.99036552  1.0
  O  O25  1  0.20301998  -0.20301998  0.22495479  1.0
  O  O26  1  0.79698002  -0.79698002  0.77504521  1.0
  O  O27  1  1.36076100  0.26795114  0.18796430  1.0
  O  O28  1  1.26795114  0.36076100  0.81203570  1.0
  O  O29  1  0.63923900  -0.26795114  0.81203570  1.0
  O  O30  1  0.73204886  -0.36076100  0.18796430  1.0
