# generated using pymatgen
data_SrC10
_symmetry_space_group_name_H-M   'P 1'
_cell_length_a   9.57055601
_cell_length_b   9.57055601
_cell_length_c   9.57055601
_cell_angle_alpha   109.47122063
_cell_angle_beta   109.47122063
_cell_angle_gamma   109.47122063
_symmetry_Int_Tables_number   1
_chemical_formula_structural   SrC10
_chemical_formula_sum   'Sr6 C60'
_cell_volume   674.82259719
_cell_formula_units_Z   6
loop_
 _symmetry_equiv_pos_site_id
 _symmetry_equiv_pos_as_xyz
  1  'x, y, z'
loop_
 _atom_site_type_symbol
 _atom_site_label
 _atom_site_symmetry_multiplicity
 _atom_site_fract_x
 _atom_site_fract_y
 _atom_site_fract_z
 _atom_site_occupancy
  Sr  Sr0  1  0.77316491  0.27316491  0.50000000  1.0
  Sr  Sr1  1  0.50000000  0.22683509  0.72683509  1.0
  Sr  Sr2  1  0.50000000  0.77316491  0.27316491  1.0
  Sr  Sr3  1  0.27316491  0.50000000  0.77316491  1.0
  Sr  Sr4  1  0.72683509  0.50000000  0.22683509  1.0
  Sr  Sr5  1  0.22683509  0.72683509  0.50000000  1.0
  C  C6  1  1.70013110  1.14593540  0.97580199  1.0
  C  C7  1  0.70013110  0.72432911  0.55419570  1.0
  C  C8  1  1.17013341  1.14593540  0.44580430  1.0
  C  C9  1  1.17013341  0.72432911  1.02419801  1.0
  C  C10  1  0.55419570  0.82986659  0.85406460  1.0
  C  C11  1  0.55419570  0.70013110  0.72432911  1.0
  C  C12  1  0.97580199  0.82986659  0.27567089  1.0
  C  C13  1  0.97580199  1.70013110  1.14593540  1.0
  C  C14  1  0.72432911  1.02419801  1.17013341  1.0
  C  C15  1  0.72432911  0.55419570  0.70013110  1.0
  C  C16  1  0.85406460  1.02419801  1.29986890  1.0
  C  C17  1  0.85406460  0.55419570  0.82986659  1.0
  C  C18  1  0.82986659  0.27567089  0.97580199  1.0
  C  C19  1  0.82986659  0.85406460  0.55419570  1.0
  C  C20  1  0.29986890  0.27567089  0.44580430  1.0
  C  C21  1  1.29986890  0.85406460  1.02419801  1.0
  C  C22  1  1.02419801  1.29986890  0.85406460  1.0
  C  C23  1  1.02419801  1.17013341  0.72432911  1.0
  C  C24  1  0.44580430  0.29986890  0.27567089  1.0
  C  C25  1  0.44580430  1.17013341  1.14593540  1.0
  C  C26  1  1.14593540  0.44580430  1.17013341  1.0
  C  C27  1  1.14593540  0.97580199  1.70013110  1.0
  C  C28  1  0.27567089  0.44580430  0.29986890  1.0
  C  C29  1  0.27567089  0.97580199  0.82986659  1.0
  C  C30  1  0.76316803  1.17186877  1.14712563  1.0
  C  C31  1  0.76316803  0.61604240  0.59129926  1.0
  C  C32  1  1.02474314  1.17186877  0.40870074  1.0
  C  C33  1  1.02474314  1.61604240  0.85287437  1.0
  C  C34  1  0.59129926  0.97525686  0.82813123  1.0
  C  C35  1  0.59129926  0.76316803  0.61604240  1.0
  C  C36  1  1.14712563  0.97525686  1.38395760  1.0
  C  C37  1  1.14712563  0.76316803  1.17186877  1.0
  C  C38  1  1.61604240  0.85287437  1.02474314  1.0
  C  C39  1  0.61604240  0.59129926  0.76316803  1.0
  C  C40  1  0.82813123  0.85287437  0.23683197  1.0
  C  C41  1  0.82813123  0.59129926  0.97525686  1.0
  C  C42  1  0.97525686  1.38395760  1.14712563  1.0
  C  C43  1  0.97525686  0.82813123  0.59129926  1.0
  C  C44  1  0.23683197  0.38395760  0.40870074  1.0
  C  C45  1  0.23683197  0.82813123  0.85287437  1.0
  C  C46  1  0.85287437  0.23683197  0.82813123  1.0
  C  C47  1  0.85287437  1.02474314  1.61604240  1.0
  C  C48  1  0.40870074  0.23683197  0.38395760  1.0
  C  C49  1  0.40870074  1.02474314  1.17186877  1.0
  C  C50  1  1.17186877  0.40870074  1.02474314  1.0
  C  C51  1  1.17186877  1.14712563  0.76316803  1.0
  C  C52  1  0.38395760  0.40870074  0.23683197  1.0
  C  C53  1  1.38395760  1.14712563  0.97525686  1.0
  C  C54  1  0.93431537  1.31865493  1.25297030  1.0
  C  C55  1  0.93431537  0.68134507  0.61566044  1.0
  C  C56  1  0.06568463  0.31865493  0.38433956  1.0
  C  C57  1  0.06568463  0.68134507  0.74702970  1.0
  C  C58  1  0.61566044  0.93431537  0.68134507  1.0
  C  C59  1  1.25297030  0.93431537  1.31865493  1.0
  C  C60  1  0.68134507  0.74702970  0.06568463  1.0
  C  C61  1  0.68134507  0.61566044  0.93431537  1.0
  C  C62  1  0.74702970  0.06568463  0.68134507  1.0
  C  C63  1  0.38433956  0.06568463  0.31865493  1.0
  C  C64  1  0.31865493  0.38433956  0.06568463  1.0
  C  C65  1  1.31865493  1.25297030  0.93431537  1.0
