# generated using pymatgen
data_LiH3C2O5
_symmetry_space_group_name_H-M   'P 1'
_cell_length_a   3.52539374
_cell_length_b   6.14595900
_cell_length_c   5.18178775
_cell_angle_alpha   79.06032584
_cell_angle_beta   78.51356403
_cell_angle_gamma   85.08450954
_symmetry_Int_Tables_number   1
_chemical_formula_structural   LiH3C2O5
_chemical_formula_sum   'Li1 H3 C2 O5'
_cell_volume   107.89143994
_cell_formula_units_Z   1
loop_
 _symmetry_equiv_pos_site_id
 _symmetry_equiv_pos_as_xyz
  1  'x, y, z'
loop_
 _atom_site_type_symbol
 _atom_site_label
 _atom_site_symmetry_multiplicity
 _atom_site_fract_x
 _atom_site_fract_y
 _atom_site_fract_z
 _atom_site_occupancy
  Li  Li0  1  -0.48883488  -0.51339452  -0.44949328  1.0
  H  H1  1  -0.11161484  -0.46797684  -0.08185152  1.0
  H  H2  1  -0.05219313  -0.71326759  -0.12747662  1.0
  H  H3  1  -0.77569936  -0.08533431  -0.23148665  1.0
  C  C4  1  -0.20354021  -0.12259841  -0.82235505  1.0
  C  C5  1  -0.42088443  -0.00910402  -0.58591926  1.0
  O  O6  1  0.00156443  0.00394233  -0.01221125  1.0
  O  O7  1  -0.05336492  -0.55828354  -0.22618948  1.0
  O  O8  1  -0.24522712  -0.32541569  -0.80521898  1.0
  O  O9  1  -0.40474535  -0.81121296  -0.58470859  1.0
  O  O10  1  -0.61526020  -0.15485446  -0.39708933  1.0
