# generated using pymatgen
data_Y6MoO12
_symmetry_space_group_name_H-M   'P 1'
_cell_length_a   6.46673602
_cell_length_b   6.46673602
_cell_length_c   6.46673602
_cell_angle_alpha   98.59011966
_cell_angle_beta   98.59011966
_cell_angle_gamma   98.59011966
_symmetry_Int_Tables_number   1
_chemical_formula_structural   Y6MoO12
_chemical_formula_sum   'Y6 Mo1 O12'
_cell_volume   260.28913280
_cell_formula_units_Z   1
loop_
 _symmetry_equiv_pos_site_id
 _symmetry_equiv_pos_as_xyz
  1  'x, y, z'
loop_
 _atom_site_type_symbol
 _atom_site_label
 _atom_site_symmetry_multiplicity
 _atom_site_fract_x
 _atom_site_fract_y
 _atom_site_fract_z
 _atom_site_occupancy
  Y  Y0  1  0.85636527  0.68478948  0.38886462  1.0
  Y  Y1  1  1.31521052  -0.38886462  0.14363473  1.0
  Y  Y2  1  0.61113538  0.14363473  0.31521052  1.0
  Y  Y3  1  1.14363473  0.31521052  -0.38886462  1.0
  Y  Y4  1  0.68478948  1.38886462  -0.14363473  1.0
  Y  Y5  1  1.38886462  0.85636527  -0.31521052  1.0
  Mo  Mo6  1  0.00000000  0.00000000  0.00000000  1.0
  O  O7  1  0.70508037  1.03367119  -0.07678693  1.0
  O  O8  1  0.96632881  0.07678693  0.29491963  1.0
  O  O9  1  1.07678693  0.29491963  -0.03367119  1.0
  O  O10  1  1.29491963  -0.03367119  0.07678693  1.0
  O  O11  1  1.03367119  0.92321307  -0.29491963  1.0
  O  O12  1  0.92321307  0.70508037  0.03367119  1.0
  O  O13  1  1.40826173  0.56840463  -0.17703460  1.0
  O  O14  1  0.43159537  1.17703460  -0.40826173  1.0
  O  O15  1  1.17703460  0.59173827  -0.56840463  1.0
  O  O16  1  0.59173827  0.43159537  0.17703460  1.0
  O  O17  1  1.56840463  -0.17703460  0.40826173  1.0
  O  O18  1  0.82296540  0.40826173  0.56840463  1.0
