# generated using pymatgen
data_SrGeTeO6
_symmetry_space_group_name_H-M   'P 1'
_cell_length_a   5.19964000
_cell_length_b   5.19964000
_cell_length_c   5.49141368
_cell_angle_alpha   90.00000000
_cell_angle_beta   90.00000000
_cell_angle_gamma   120.00000000
_symmetry_Int_Tables_number   1
_chemical_formula_structural   SrGeTeO6
_chemical_formula_sum   'Sr1 Ge1 Te1 O6'
_cell_volume   128.57642448
_cell_formula_units_Z   1
loop_
 _symmetry_equiv_pos_site_id
 _symmetry_equiv_pos_as_xyz
  1  'x, y, z'
loop_
 _atom_site_type_symbol
 _atom_site_label
 _atom_site_symmetry_multiplicity
 _atom_site_fract_x
 _atom_site_fract_y
 _atom_site_fract_z
 _atom_site_occupancy
  Sr  Sr0  1  0.00000000  0.00000000  0.50000000  1.0
  Ge  Ge1  1  0.33333333  0.66666667  -0.00000000  1.0
  Te  Te2  1  0.66666667  0.33333333  -0.00000000  1.0
  O  O3  1  0.61551116  0.62562000  0.20214033  1.0
  O  O4  1  0.61551116  0.98989116  0.79785967  1.0
  O  O5  1  0.01010884  0.62562000  0.79785967  1.0
  O  O6  1  0.01010884  0.38448884  0.20214033  1.0
  O  O7  1  0.37438000  0.38448884  0.79785967  1.0
  O  O8  1  0.37438000  0.98989116  0.20214033  1.0
