# generated using pymatgen
data_La2B3Cl
_symmetry_space_group_name_H-M   'P 1'
_cell_length_a   7.80248291
_cell_length_b   7.80248291
_cell_length_c   8.30031407
_cell_angle_alpha   90.00000000
_cell_angle_beta   90.00000000
_cell_angle_gamma   120.00000000
_symmetry_Int_Tables_number   1
_chemical_formula_structural   La2B3Cl
_chemical_formula_sum   'La8 B12 Cl4'
_cell_volume   437.61359933
_cell_formula_units_Z   4
loop_
 _symmetry_equiv_pos_site_id
 _symmetry_equiv_pos_as_xyz
  1  'x, y, z'
loop_
 _atom_site_type_symbol
 _atom_site_label
 _atom_site_symmetry_multiplicity
 _atom_site_fract_x
 _atom_site_fract_y
 _atom_site_fract_z
 _atom_site_occupancy
  La  La0  1  0.83297897  0.66599248  0.77514274  1.0
  La  La1  1  0.83297897  0.66599248  0.22485726  1.0
  La  La2  1  0.83301351  0.16702103  0.77514274  1.0
  La  La3  1  0.83301351  0.16702103  0.22485726  1.0
  La  La4  1  0.33400752  0.16698649  0.77514274  1.0
  La  La5  1  0.33400752  0.16698649  0.22485726  1.0
  La  La6  1  0.33333333  0.66666667  0.76075760  1.0
  La  La7  1  0.33333333  0.66666667  0.23924240  1.0
  B  B8  1  0.47191656  0.52812026  0.00000000  1.0
  B  B9  1  0.05620371  0.52808344  0.00000000  1.0
  B  B10  1  0.47187974  0.94379629  0.00000000  1.0
  B  B11  1  0.59588035  0.40412742  0.00000000  1.0
  B  B12  1  0.80824707  0.40411965  0.00000000  1.0
  B  B13  1  0.59587258  0.19175293  0.00000000  1.0
  B  B14  1  0.19438323  0.38874665  0.00000000  1.0
  B  B15  1  0.19436342  0.80561677  0.00000000  1.0
  B  B16  1  0.61125335  0.80563658  0.00000000  1.0
  B  B17  1  0.07076915  0.14151490  0.00000000  1.0
  B  B18  1  0.07074576  0.92923085  0.00000000  1.0
  B  B19  1  0.85848510  0.92925424  0.00000000  1.0
  Cl  Cl20  1  0.00000000  0.00000000  0.50000000  1.0
  Cl  Cl21  1  0.50247170  0.49754541  0.50000000  1.0
  Cl  Cl22  1  0.99507371  0.49752830  0.50000000  1.0
  Cl  Cl23  1  0.50245459  0.00492629  0.50000000  1.0
