# generated using pymatgen
data_P4SO6
_symmetry_space_group_name_H-M   'P 1'
_cell_length_a   8.71856961
_cell_length_b   10.12809510
_cell_length_c   10.47987903
_cell_angle_alpha   90.00000000
_cell_angle_beta   89.80723007
_cell_angle_gamma   90.00000000
_symmetry_Int_Tables_number   1
_chemical_formula_structural   P4SO6
_chemical_formula_sum   'P16 S4 O24'
_cell_volume   925.39430313
_cell_formula_units_Z   4
loop_
 _symmetry_equiv_pos_site_id
 _symmetry_equiv_pos_as_xyz
  1  'x, y, z'
loop_
 _atom_site_type_symbol
 _atom_site_label
 _atom_site_symmetry_multiplicity
 _atom_site_fract_x
 _atom_site_fract_y
 _atom_site_fract_z
 _atom_site_occupancy
  P  P0  1  0.96990874  0.95434865  0.73117606  1.0
  P  P1  1  0.96990874  0.54565135  0.23117606  1.0
  P  P2  1  0.03009126  0.45434865  0.76882394  1.0
  P  P3  1  0.03009126  0.04565135  0.26882394  1.0
  P  P4  1  0.69804179  0.80206464  0.65961179  1.0
  P  P5  1  0.69804179  0.69793536  0.15961179  1.0
  P  P6  1  0.30195821  0.30206464  0.84038821  1.0
  P  P7  1  0.30195821  0.19793536  0.34038821  1.0
  P  P8  1  0.68807545  0.98718071  0.88041370  1.0
  P  P9  1  0.68807545  0.51281929  0.38041370  1.0
  P  P10  1  0.31192455  0.48718071  0.61958630  1.0
  P  P11  1  0.31192455  0.01281929  0.11958630  1.0
  P  P12  1  0.28959439  0.59307300  0.88470201  1.0
  P  P13  1  0.28959439  0.90692700  0.38470201  1.0
  P  P14  1  0.71040561  0.09307300  0.61529799  1.0
  P  P15  1  0.71040561  0.40692700  0.11529799  1.0
  S  S16  1  0.81234137  0.44850342  0.75853772  1.0
  S  S17  1  0.81234137  0.05149658  0.25853772  1.0
  S  S18  1  0.18765863  0.94850342  0.74146228  1.0
  S  S19  1  0.18765863  0.55149658  0.24146228  1.0
  O  O20  1  0.65957277  0.93902226  0.57765444  1.0
  O  O21  1  0.65957277  0.56097774  0.07765444  1.0
  O  O22  1  0.34042723  0.43902226  0.92234556  1.0
  O  O23  1  0.34042723  0.06097774  0.42234556  1.0
  O  O24  1  0.90059820  0.06880571  0.63974207  1.0
  O  O25  1  0.90059820  0.43119429  0.13974207  1.0
  O  O26  1  0.09940180  0.56880571  0.86025793  1.0
  O  O27  1  0.09940180  0.93119429  0.36025793  1.0
  O  O28  1  0.88996472  0.82102995  0.67696997  1.0
  O  O29  1  0.88996472  0.67897005  0.17696997  1.0
  O  O30  1  0.11003528  0.32102995  0.82303003  1.0
  O  O31  1  0.11003528  0.17897005  0.32303003  1.0
  O  O32  1  0.88132720  0.97853768  0.86556486  1.0
  O  O33  1  0.88132720  0.52146232  0.36556486  1.0
  O  O34  1  0.11867280  0.47853768  0.63443514  1.0
  O  O35  1  0.11867280  0.02146232  0.13443514  1.0
  O  O36  1  0.64108266  0.84739408  0.80540424  1.0
  O  O37  1  0.64108266  0.65260592  0.30540424  1.0
  O  O38  1  0.35891734  0.34739408  0.69459576  1.0
  O  O39  1  0.35891734  0.15260592  0.19459576  1.0
  O  O40  1  0.34900527  0.59775363  0.73288335  1.0
  O  O41  1  0.34900527  0.90224637  0.23288335  1.0
  O  O42  1  0.65099473  0.09775363  0.76711665  1.0
  O  O43  1  0.65099473  0.40224637  0.26711665  1.0
