# generated using pymatgen
data_MoO3
_symmetry_space_group_name_H-M   'P 1'
_cell_length_a   16.49648556
_cell_length_b   3.68519725
_cell_length_c   3.93918654
_cell_angle_alpha   90.00000000
_cell_angle_beta   90.00000000
_cell_angle_gamma   90.00000000
_symmetry_Int_Tables_number   1
_chemical_formula_structural   MoO3
_chemical_formula_sum   'Mo4 O12'
_cell_volume   239.47419229
_cell_formula_units_Z   4
loop_
 _symmetry_equiv_pos_site_id
 _symmetry_equiv_pos_as_xyz
  1  'x, y, z'
loop_
 _atom_site_type_symbol
 _atom_site_label
 _atom_site_symmetry_multiplicity
 _atom_site_fract_x
 _atom_site_fract_y
 _atom_site_fract_z
 _atom_site_occupancy
  Mo  Mo0  1  0.40829562  0.75000000  0.57245832  1.0
  Mo  Mo1  1  0.90829562  0.75000000  0.92754168  1.0
  Mo  Mo2  1  0.59170438  0.25000000  0.42754168  1.0
  Mo  Mo3  1  0.09170438  0.25000000  0.07245832  1.0
  O  O4  1  0.42158864  0.75000000  1.01588731  1.0
  O  O5  1  0.92158864  0.75000000  0.48411269  1.0
  O  O6  1  0.57841136  0.25000000  -0.01588731  1.0
  O  O7  1  0.07841136  0.25000000  0.51588731  1.0
  O  O8  1  0.30691048  0.75000000  0.53248323  1.0
  O  O9  1  0.80691048  0.75000000  0.96751677  1.0
  O  O10  1  0.69308952  0.25000000  0.46751677  1.0
  O  O11  1  0.19308952  0.25000000  0.03248323  1.0
  O  O12  1  0.05809015  0.75000000  0.99745455  1.0
  O  O13  1  0.55809015  0.75000000  0.50254545  1.0
  O  O14  1  0.94190985  0.25000000  0.00254545  1.0
  O  O15  1  0.44190985  0.25000000  0.49745455  1.0
