# generated using pymatgen
data_Gd5(C2Cl)3
_symmetry_space_group_name_H-M   'P 1'
_cell_length_a   11.05569900
_cell_length_b   11.05569900
_cell_length_c   15.47338488
_cell_angle_alpha   57.23352112
_cell_angle_beta   122.76647888
_cell_angle_gamma   160.45058830
_symmetry_Int_Tables_number   1
_chemical_formula_structural   Gd5(C2Cl)3
_chemical_formula_sum   'Gd10 C12 Cl6'
_cell_volume   528.88186380
_cell_formula_units_Z   2
loop_
 _symmetry_equiv_pos_site_id
 _symmetry_equiv_pos_as_xyz
  1  'x, y, z'
loop_
 _atom_site_type_symbol
 _atom_site_label
 _atom_site_symmetry_multiplicity
 _atom_site_fract_x
 _atom_site_fract_y
 _atom_site_fract_z
 _atom_site_occupancy
  C  C0  1  0.96293265  0.03706735  0.97053882  1.0
  C  C1  1  1.03706735  -0.03706735  0.02946118  1.0
  C  C2  1  0.69720376  0.30279624  0.77888322  1.0
  C  C3  1  1.30279624  -0.30279624  0.22111678  1.0
  C  C4  1  0.62477136  0.37522864  0.96178539  1.0
  C  C5  1  1.37522864  -0.37522864  0.03821461  1.0
  C  C6  1  0.62474408  0.37525592  0.72751610  1.0
  C  C7  1  1.37525592  -0.37525592  0.27248390  1.0
  C  C8  1  0.30254971  -0.30254971  0.98242699  1.0
  C  C9  1  0.69745029  -0.69745029  0.01757301  1.0
  C  C10  1  0.96272257  -0.96272257  0.47139890  1.0
  C  C11  1  0.03727743  -0.03727743  0.52860110  1.0
  Cl  Cl12  1  0.97494982  -0.97494982  0.73095980  1.0
  Cl  Cl13  1  0.02505018  -0.02505018  0.26904020  1.0
  Cl  Cl14  1  0.66750822  0.33249178  0.51173520  1.0
  Cl  Cl15  1  1.33249178  -0.33249178  0.48826480  1.0
  Cl  Cl16  1  0.32839314  -0.32839314  0.74991051  1.0
  Cl  Cl17  1  0.67160686  -0.67160686  0.25008949  1.0
  Gd  Gd18  1  0.17268582  -0.17268582  0.88081413  1.0
  Gd  Gd19  1  0.82731418  -0.82731418  0.11918587  1.0
  Gd  Gd20  1  1.49366353  -0.49366353  0.60279101  1.0
  Gd  Gd21  1  0.50633647  0.49366353  0.39720899  1.0
  Gd  Gd22  1  0.83336629  0.16663371  0.89228805  1.0
  Gd  Gd23  1  1.16663371  -0.16663371  0.10771195  1.0
  Gd  Gd24  1  0.83678534  -0.83678534  0.35927058  1.0
  Gd  Gd25  1  0.16321466  -0.16321466  0.64072942  1.0
  Gd  Gd26  1  1.49472369  -0.49472369  0.88810036  1.0
  Gd  Gd27  1  0.50527631  0.49472369  0.11189964  1.0
