# generated using pymatgen
data_Na2ZnPO5
_symmetry_space_group_name_H-M   'P 1'
_cell_length_a   8.72546868
_cell_length_b   9.99661515
_cell_length_c   5.87092653
_cell_angle_alpha   90.00000000
_cell_angle_beta   105.80099712
_cell_angle_gamma   90.00000000
_symmetry_Int_Tables_number   1
_chemical_formula_structural   Na2ZnPO5
_chemical_formula_sum   'Na8 Zn4 P4 O20'
_cell_volume   492.74215359
_cell_formula_units_Z   4
loop_
 _symmetry_equiv_pos_site_id
 _symmetry_equiv_pos_as_xyz
  1  'x, y, z'
loop_
 _atom_site_type_symbol
 _atom_site_label
 _atom_site_symmetry_multiplicity
 _atom_site_fract_x
 _atom_site_fract_y
 _atom_site_fract_z
 _atom_site_occupancy
  O  O0  1  0.78034910  0.43747979  0.61797295  1.0
  O  O1  1  0.78034910  0.06252021  0.11797295  1.0
  O  O2  1  0.21965090  0.93747979  0.88202705  1.0
  O  O3  1  0.21965090  0.56252021  0.38202705  1.0
  O  O4  1  0.62960611  0.87110247  0.87804703  1.0
  O  O5  1  0.62960611  0.62889753  0.37804703  1.0
  O  O6  1  0.37039389  0.37110247  0.62195297  1.0
  O  O7  1  0.37039389  0.12889753  0.12195297  1.0
  O  O8  1  0.41869910  0.61360941  0.77872304  1.0
  O  O9  1  0.41869910  0.88639059  0.27872304  1.0
  O  O10  1  0.58130090  0.11360941  0.72127696  1.0
  O  O11  1  0.58130090  0.38639059  0.22127696  1.0
  O  O12  1  0.96529219  0.71254018  0.95711168  1.0
  O  O13  1  0.96529219  0.78745982  0.45711168  1.0
  O  O14  1  0.03470781  0.21254018  0.54288832  1.0
  O  O15  1  0.03470781  0.28745982  0.04288832  1.0
  O  O16  1  0.83382817  0.99454543  0.71738270  1.0
  O  O17  1  0.83382817  0.50545457  0.21738270  1.0
  O  O18  1  0.16617183  0.49454543  0.78261730  1.0
  O  O19  1  0.16617183  0.00545457  0.28261730  1.0
  Zn  Zn20  1  0.99347260  0.35937808  0.72681461  1.0
  Zn  Zn21  1  0.99347260  0.14062192  0.22681461  1.0
  Zn  Zn22  1  0.00652740  0.85937808  0.77318539  1.0
  Zn  Zn23  1  0.00652740  0.64062192  0.27318539  1.0
  P  P24  1  0.70317630  0.49039430  0.35694298  1.0
  P  P25  1  0.70317630  0.00960570  0.85694298  1.0
  P  P26  1  0.29682370  0.99039430  0.14305702  1.0
  P  P27  1  0.29682370  0.50960570  0.64305702  1.0
  Na  Na28  1  0.69321554  0.64724038  0.80451388  1.0
  Na  Na29  1  0.69321554  0.85275962  0.30451388  1.0
  Na  Na30  1  0.30678446  0.14724038  0.69548612  1.0
  Na  Na31  1  0.30678446  0.35275962  0.19548612  1.0
  Na  Na32  1  0.37030337  0.83529523  0.64063375  1.0
  Na  Na33  1  0.37030337  0.66470477  0.14063375  1.0
  Na  Na34  1  0.62969663  0.33529523  0.85936625  1.0
  Na  Na35  1  0.62969663  0.16470477  0.35936625  1.0
