# generated using pymatgen
data_Ca4Mg3Al5
_symmetry_space_group_name_H-M   'P 1'
_cell_length_a   5.86028711
_cell_length_b   5.86028711
_cell_length_c   19.09602620
_cell_angle_alpha   90.00000000
_cell_angle_beta   90.00000000
_cell_angle_gamma   120.00000000
_symmetry_Int_Tables_number   1
_chemical_formula_structural   Ca4Mg3Al5
_chemical_formula_sum   'Ca8 Mg6 Al10'
_cell_volume   567.95172192
_cell_formula_units_Z   2
loop_
 _symmetry_equiv_pos_site_id
 _symmetry_equiv_pos_as_xyz
  1  'x, y, z'
loop_
 _atom_site_type_symbol
 _atom_site_label
 _atom_site_symmetry_multiplicity
 _atom_site_fract_x
 _atom_site_fract_y
 _atom_site_fract_z
 _atom_site_occupancy
  Ca  Ca0  1  0.33333333  0.66666667  0.35252056  1.0
  Ca  Ca1  1  0.66666667  0.33333333  0.85252056  1.0
  Ca  Ca2  1  0.66666667  0.33333333  0.64747944  1.0
  Ca  Ca3  1  0.33333333  0.66666667  0.14747944  1.0
  Ca  Ca4  1  0.00000000  0.00000000  0.41240997  1.0
  Ca  Ca5  1  0.00000000  0.00000000  0.91240997  1.0
  Ca  Ca6  1  0.00000000  0.00000000  0.58759003  1.0
  Ca  Ca7  1  0.00000000  0.00000000  0.08759003  1.0
  Mg  Mg8  1  0.33242174  0.16621087  0.25000000  1.0
  Mg  Mg9  1  0.83378913  0.16621087  0.25000000  1.0
  Mg  Mg10  1  0.83378913  0.66757826  0.25000000  1.0
  Mg  Mg11  1  0.66757826  0.83378913  0.75000000  1.0
  Mg  Mg12  1  0.16621087  0.83378913  0.75000000  1.0
  Mg  Mg13  1  0.16621087  0.33242174  0.75000000  1.0
  Al  Al14  1  0.33333333  0.66666667  0.62075094  1.0
  Al  Al15  1  0.66666667  0.33333333  0.12075094  1.0
  Al  Al16  1  0.66666667  0.33333333  0.37924906  1.0
  Al  Al17  1  0.33333333  0.66666667  0.87924906  1.0
  Al  Al18  1  -0.00000000  0.50000000  0.50000000  1.0
  Al  Al19  1  0.50000000  0.50000000  0.50000000  1.0
  Al  Al20  1  0.50000000  0.00000000  0.50000000  1.0
  Al  Al21  1  -0.00000000  0.50000000  0.00000000  1.0
  Al  Al22  1  0.50000000  0.50000000  0.00000000  1.0
  Al  Al23  1  0.50000000  0.00000000  0.00000000  1.0
