# generated using pymatgen
data_Pb3(IO)2
_symmetry_space_group_name_H-M   'P 1'
_cell_length_a   18.34551487
_cell_length_b   6.02029663
_cell_length_c   7.88973349
_cell_angle_alpha   90.00000000
_cell_angle_beta   90.00000000
_cell_angle_gamma   90.00000000
_symmetry_Int_Tables_number   1
_chemical_formula_structural   Pb3(IO)2
_chemical_formula_sum   'Pb12 I8 O8'
_cell_volume   871.38509773
_cell_formula_units_Z   4
loop_
 _symmetry_equiv_pos_site_id
 _symmetry_equiv_pos_as_xyz
  1  'x, y, z'
loop_
 _atom_site_type_symbol
 _atom_site_label
 _atom_site_symmetry_multiplicity
 _atom_site_fract_x
 _atom_site_fract_y
 _atom_site_fract_z
 _atom_site_occupancy
  Pb  Pb0  1  0.39687133  0.75000000  0.71605744  1.0
  Pb  Pb1  1  0.89687133  0.75000000  0.78394256  1.0
  Pb  Pb2  1  0.60312867  0.25000000  0.28394256  1.0
  Pb  Pb3  1  0.10312867  0.25000000  0.21605744  1.0
  Pb  Pb4  1  0.47229061  0.75000000  0.14444101  1.0
  Pb  Pb5  1  0.97229061  0.75000000  0.35555899  1.0
  Pb  Pb6  1  0.52770939  0.25000000  0.85555899  1.0
  Pb  Pb7  1  0.02770939  0.25000000  0.64444101  1.0
  Pb  Pb8  1  0.15978034  0.75000000  0.52193875  1.0
  Pb  Pb9  1  0.65978034  0.75000000  0.97806125  1.0
  Pb  Pb10  1  0.84021966  0.25000000  0.47806125  1.0
  Pb  Pb11  1  0.34021966  0.25000000  0.02193875  1.0
  I  I12  1  0.06454359  0.75000000  0.89884004  1.0
  I  I13  1  0.56454359  0.75000000  0.60115996  1.0
  I  I14  1  0.93545641  0.25000000  0.10115996  1.0
  I  I15  1  0.43545641  0.25000000  0.39884004  1.0
  I  I16  1  0.25732806  0.75000000  0.18279061  1.0
  I  I17  1  0.75732806  0.75000000  0.31720939  1.0
  I  I18  1  0.74267194  0.25000000  0.81720939  1.0
  I  I19  1  0.24267194  0.25000000  0.68279061  1.0
  O  O20  1  0.42598896  0.50036367  0.92036871  1.0
  O  O21  1  0.42598896  -0.00036367  0.92036871  1.0
  O  O22  1  0.92598896  0.50036367  0.57963129  1.0
  O  O23  1  0.92598896  -0.00036367  0.57963129  1.0
  O  O24  1  0.57401104  1.00036367  0.07963129  1.0
  O  O25  1  0.57401104  0.49963633  0.07963129  1.0
  O  O26  1  0.07401104  1.00036367  0.42036871  1.0
  O  O27  1  0.07401104  0.49963633  0.42036871  1.0
