# generated using pymatgen
data_Cs2Na3TlO4
_symmetry_space_group_name_H-M   'P 1'
_cell_length_a   6.52563315
_cell_length_b   10.35452694
_cell_length_c   12.73192201
_cell_angle_alpha   90.00000000
_cell_angle_beta   110.27193009
_cell_angle_gamma   90.00000000
_symmetry_Int_Tables_number   1
_chemical_formula_structural   Cs2Na3TlO4
_chemical_formula_sum   'Cs8 Na12 Tl4 O16'
_cell_volume   807.00633597
_cell_formula_units_Z   4
loop_
 _symmetry_equiv_pos_site_id
 _symmetry_equiv_pos_as_xyz
  1  'x, y, z'
loop_
 _atom_site_type_symbol
 _atom_site_label
 _atom_site_symmetry_multiplicity
 _atom_site_fract_x
 _atom_site_fract_y
 _atom_site_fract_z
 _atom_site_occupancy
  Cs  Cs0  1  0.72852266  0.99971054  0.36761634  1.0
  Cs  Cs1  1  0.72852266  0.50028946  0.86761634  1.0
  Cs  Cs2  1  0.27147734  0.49971054  0.13238366  1.0
  Cs  Cs3  1  0.27147734  0.00028946  0.63238366  1.0
  Cs  Cs4  1  0.28681309  0.23169027  0.38807558  1.0
  Cs  Cs5  1  0.28681309  0.26830973  0.88807558  1.0
  Cs  Cs6  1  0.71318691  0.73169027  0.11192442  1.0
  Cs  Cs7  1  0.71318691  0.76830973  0.61192442  1.0
  Na  Na8  1  0.91150954  0.47401866  0.29452535  1.0
  Na  Na9  1  0.91150954  0.02598134  0.79452535  1.0
  Na  Na10  1  0.08849046  0.97401866  0.20547465  1.0
  Na  Na11  1  0.08849046  0.52598134  0.70547465  1.0
  Na  Na12  1  0.63714497  0.99153300  0.93128816  1.0
  Na  Na13  1  0.63714497  0.50846700  0.43128816  1.0
  Na  Na14  1  0.36285503  0.49153300  0.56871184  1.0
  Na  Na15  1  0.36285503  0.00846700  0.06871184  1.0
  Na  Na16  1  0.61186438  0.24498970  0.19677527  1.0
  Na  Na17  1  0.61186438  0.25501030  0.69677527  1.0
  Na  Na18  1  0.38813562  0.74498970  0.30322473  1.0
  Na  Na19  1  0.38813562  0.75501030  0.80322473  1.0
  Tl  Tl20  1  0.90237125  0.21797443  0.06279043  1.0
  Tl  Tl21  1  0.90237125  0.28202557  0.56279043  1.0
  Tl  Tl22  1  0.09762875  0.71797443  0.43720957  1.0
  Tl  Tl23  1  0.09762875  0.78202557  0.93720957  1.0
  O  O24  1  0.78272048  0.40167011  0.10812698  1.0
  O  O25  1  0.78272048  0.09832989  0.60812698  1.0
  O  O26  1  0.21727952  0.90167011  0.39187302  1.0
  O  O27  1  0.21727952  0.59832989  0.89187302  1.0
  O  O28  1  0.77301696  0.30996629  0.38027828  1.0
  O  O29  1  0.77301696  0.19003371  0.88027828  1.0
  O  O30  1  0.22698304  0.80996629  0.11972172  1.0
  O  O31  1  0.22698304  0.69003371  0.61972172  1.0
  O  O32  1  0.75064756  0.67912365  0.34661297  1.0
  O  O33  1  0.75064756  0.82087635  0.84661297  1.0
  O  O34  1  0.24935244  0.17912365  0.15338703  1.0
  O  O35  1  0.24935244  0.32087635  0.65338703  1.0
  O  O36  1  0.73612830  0.05813710  0.12382256  1.0
  O  O37  1  0.73612830  0.44186290  0.62382256  1.0
  O  O38  1  0.26387170  0.55813710  0.37617744  1.0
  O  O39  1  0.26387170  0.94186290  0.87617744  1.0
