# generated using pymatgen
data_BaZn2Si2O7
_symmetry_space_group_name_H-M   'P 1'
_cell_length_a   7.66499350
_cell_length_b   7.66499350
_cell_length_c   13.36032477
_cell_angle_alpha   90.00222994
_cell_angle_beta   89.99777006
_cell_angle_gamma   62.82580269
_symmetry_Int_Tables_number   1
_chemical_formula_structural   BaZn2Si2O7
_chemical_formula_sum   'Ba4 Zn8 Si8 O28'
_cell_volume   698.30664624
_cell_formula_units_Z   4
loop_
 _symmetry_equiv_pos_site_id
 _symmetry_equiv_pos_as_xyz
  1  'x, y, z'
loop_
 _atom_site_type_symbol
 _atom_site_label
 _atom_site_symmetry_multiplicity
 _atom_site_fract_x
 _atom_site_fract_y
 _atom_site_fract_z
 _atom_site_occupancy
  Ba  Ba0  1  0.22923044  -0.22913092  0.87496958  1.0
  Ba  Ba1  1  1.22913092  -0.22923044  0.37496958  1.0
  Ba  Ba2  1  0.77086908  -0.77076956  0.62503042  1.0
  Ba  Ba3  1  0.77076956  0.22913092  0.12503042  1.0
  Zn  Zn4  1  0.72360777  -0.27625206  0.49998504  1.0
  Zn  Zn5  1  1.27625206  -0.72360777  0.99998504  1.0
  Zn  Zn6  1  0.72374794  -0.27639223  0.00001496  1.0
  Zn  Zn7  1  0.27639223  0.27625206  0.50001496  1.0
  Zn  Zn8  1  0.72367489  -0.27632511  0.75000000  1.0
  Zn  Zn9  1  0.27632511  0.27632511  0.25000000  1.0
  Zn  Zn10  1  0.27634310  0.27634310  0.75000000  1.0
  Zn  Zn11  1  0.72365690  -0.27634310  0.25000000  1.0
  Si  Si12  1  0.67634032  0.08653513  0.87502085  1.0
  Si  Si13  1  0.91346487  -0.67634032  0.37502085  1.0
  Si  Si14  1  1.08653513  -0.32365968  0.62497915  1.0
  Si  Si15  1  0.32365968  -0.08653513  0.12497915  1.0
  Si  Si16  1  0.32357595  -0.08650676  0.62496389  1.0
  Si  Si17  1  1.08650676  -0.32357595  0.12496389  1.0
  Si  Si18  1  0.91349324  -0.67642405  0.87503611  1.0
  Si  Si19  1  0.67642405  0.08650676  0.37503611  1.0
  O  O20  1  0.76938481  -0.15649059  0.87500973  1.0
  O  O21  1  1.15649059  -0.76938481  0.37500973  1.0
  O  O22  1  0.84350941  -0.23061519  0.62499027  1.0
  O  O23  1  0.23061519  0.15649059  0.12499027  1.0
  O  O24  1  0.88162037  0.11833904  0.87502672  1.0
  O  O25  1  0.88166096  -0.88162037  0.37502672  1.0
  O  O26  1  1.11833904  -0.11837963  0.62497328  1.0
  O  O27  1  0.11837963  -0.11833904  0.12497328  1.0
  O  O28  1  0.44099534  -0.18035015  0.72806079  1.0
  O  O29  1  1.18035015  -0.44099534  0.22806079  1.0
  O  O30  1  0.81964985  -0.55900466  0.77193921  1.0
  O  O31  1  0.55900466  0.18035015  0.27193921  1.0
  O  O32  1  0.55911289  0.18018427  0.47819059  1.0
  O  O33  1  0.81981573  -0.55911289  0.97819059  1.0
  O  O34  1  1.18018427  -0.44088711  0.02180941  1.0
  O  O35  1  0.44088711  -0.18018427  0.52180941  1.0
  O  O36  1  0.55902404  0.18032243  0.77188939  1.0
  O  O37  1  0.81967757  -0.55902404  0.27188939  1.0
  O  O38  1  1.18032243  -0.44097596  0.72811061  1.0
  O  O39  1  0.44097596  -0.18032243  0.22811061  1.0
  O  O40  1  0.55896559  0.18036011  0.97813982  1.0
  O  O41  1  0.81963989  -0.55896559  0.47813982  1.0
  O  O42  1  1.18036011  -0.44103441  0.52186018  1.0
  O  O43  1  0.44103441  -0.18036011  0.02186018  1.0
  O  O44  1  0.15653292  0.23044913  0.87498490  1.0
  O  O45  1  0.76955087  -0.15653292  0.37498490  1.0
  O  O46  1  1.23044913  -0.84346708  0.62501510  1.0
  O  O47  1  0.84346708  -0.23044913  0.12501510  1.0
