# generated using pymatgen
data_CdH12C2S2(N4Cl)2
_symmetry_space_group_name_H-M   'P 1'
_cell_length_a   8.76141749
_cell_length_b   6.13288836
_cell_length_c   13.96557622
_cell_angle_alpha   90.00000000
_cell_angle_beta   121.28198407
_cell_angle_gamma   90.00000000
_symmetry_Int_Tables_number   1
_chemical_formula_structural   CdH12C2S2(N4Cl)2
_chemical_formula_sum   'Cd2 H24 C4 S4 N16 Cl4'
_cell_volume   641.31653204
_cell_formula_units_Z   2
loop_
 _symmetry_equiv_pos_site_id
 _symmetry_equiv_pos_as_xyz
  1  'x, y, z'
loop_
 _atom_site_type_symbol
 _atom_site_label
 _atom_site_symmetry_multiplicity
 _atom_site_fract_x
 _atom_site_fract_y
 _atom_site_fract_z
 _atom_site_occupancy
  Cd  Cd0  1  0.50000000  0.00000000  0.00000000  1.0
  Cd  Cd1  1  0.50000000  0.50000000  0.50000000  1.0
  H  H2  1  0.42373151  0.40320766  0.08113274  1.0
  H  H3  1  0.42373151  0.09679234  0.58113274  1.0
  H  H4  1  0.57626849  0.59679234  0.91886726  1.0
  H  H5  1  0.57626849  0.90320766  0.41886726  1.0
  H  H6  1  0.38141021  0.20555348  0.14474767  1.0
  H  H7  1  0.38141021  0.29444652  0.64474767  1.0
  H  H8  1  0.61858979  0.79444652  0.85525233  1.0
  H  H9  1  0.61858979  0.70555348  0.35525233  1.0
  H  H10  1  0.11437537  0.40183517  0.99783183  1.0
  H  H11  1  0.11437537  0.09816483  0.49783183  1.0
  H  H12  1  0.88562463  0.59816483  0.00216817  1.0
  H  H13  1  0.88562463  0.90183517  0.50216817  1.0
  H  H14  1  0.83142654  0.03590259  0.79184853  1.0
  H  H15  1  0.83142654  0.46409741  0.29184853  1.0
  H  H16  1  0.16857346  0.96409741  0.20815147  1.0
  H  H17  1  0.16857346  0.53590259  0.70815147  1.0
  H  H18  1  0.71354191  0.31192927  0.85371257  1.0
  H  H19  1  0.71354191  0.18807073  0.35371257  1.0
  H  H20  1  0.28645809  0.68807073  0.14628743  1.0
  H  H21  1  0.28645809  0.81192927  0.64628743  1.0
  H  H22  1  0.80483682  0.44123885  0.79031855  1.0
  H  H23  1  0.80483682  0.05876115  0.29031855  1.0
  H  H24  1  0.19516318  0.55876115  0.20968145  1.0
  H  H25  1  0.19516318  0.94123885  0.70968145  1.0
  C  C26  1  0.08504892  0.11562948  0.91608514  1.0
  C  C27  1  0.08504892  0.38437052  0.41608514  1.0
  C  C28  1  0.91495108  0.88437052  0.08391486  1.0
  C  C29  1  0.91495108  0.61562948  0.58391486  1.0
  S  S30  1  0.16934819  0.87623360  0.89883777  1.0
  S  S31  1  0.16934819  0.62376640  0.39883777  1.0
  S  S32  1  0.83065181  0.12376640  0.10116223  1.0
  S  S33  1  0.83065181  0.37623360  0.60116223  1.0
  N  N34  1  0.90802484  0.14876100  0.85259025  1.0
  N  N35  1  0.90802484  0.35123900  0.35259025  1.0
  N  N36  1  0.09197516  0.85123900  0.14740975  1.0
  N  N37  1  0.09197516  0.64876100  0.64740975  1.0
  N  N38  1  0.83206412  0.34641593  0.85826862  1.0
  N  N39  1  0.83206412  0.15358407  0.35826862  1.0
  N  N40  1  0.16793588  0.65358407  0.14173138  1.0
  N  N41  1  0.16793588  0.84641593  0.64173138  1.0
  N  N42  1  0.36434214  0.25171562  0.06845039  1.0
  N  N43  1  0.36434214  0.24828438  0.56845039  1.0
  N  N44  1  0.63565786  0.74828438  0.93154961  1.0
  N  N45  1  0.63565786  0.75171562  0.43154961  1.0
  N  N46  1  0.18185737  0.27359975  0.98936641  1.0
  N  N47  1  0.18185737  0.22640025  0.48936641  1.0
  N  N48  1  0.81814263  0.72640025  0.01063359  1.0
  N  N49  1  0.81814263  0.77359975  0.51063359  1.0
  Cl  Cl50  1  0.59044579  0.69879582  0.17680248  1.0
  Cl  Cl51  1  0.59044579  0.80120418  0.67680248  1.0
  Cl  Cl52  1  0.40955421  0.30120418  0.82319752  1.0
  Cl  Cl53  1  0.40955421  0.19879582  0.32319752  1.0
