# generated using pymatgen
data_LaAl4Co
_symmetry_space_group_name_H-M   'P 1'
_cell_length_a   7.69556273
_cell_length_b   4.06208318
_cell_length_c   7.01228208
_cell_angle_alpha   90.00000000
_cell_angle_beta   90.00000000
_cell_angle_gamma   90.00000000
_symmetry_Int_Tables_number   1
_chemical_formula_structural   LaAl4Co
_chemical_formula_sum   'La2 Al8 Co2'
_cell_volume   219.20404927
_cell_formula_units_Z   2
loop_
 _symmetry_equiv_pos_site_id
 _symmetry_equiv_pos_as_xyz
  1  'x, y, z'
loop_
 _atom_site_type_symbol
 _atom_site_label
 _atom_site_symmetry_multiplicity
 _atom_site_fract_x
 _atom_site_fract_y
 _atom_site_fract_z
 _atom_site_occupancy
  La  La0  1  0.25000000  0.00000000  0.38794574  1.0
  La  La1  1  0.75000000  0.00000000  0.61205426  1.0
  Al  Al2  1  0.92900969  0.50000000  0.29106175  1.0
  Al  Al3  1  0.42900969  0.50000000  0.70893825  1.0
  Al  Al4  1  0.07099031  0.50000000  0.70893825  1.0
  Al  Al5  1  0.57099031  0.50000000  0.29106175  1.0
  Al  Al6  1  0.25000000  0.50000000  0.04448556  1.0
  Al  Al7  1  0.75000000  0.50000000  0.95551444  1.0
  Al  Al8  1  0.50000000  0.00000000  0.00000000  1.0
  Al  Al9  1  0.00000000  0.00000000  0.00000000  1.0
  Co  Co10  1  0.25000000  0.00000000  0.81800615  1.0
  Co  Co11  1  0.75000000  0.00000000  0.18199385  1.0
