# generated using pymatgen
data_Ba2Fe2Se2OF2
_symmetry_space_group_name_H-M   'P 1'
_cell_length_a   10.42957601
_cell_length_b   10.42957601
_cell_length_c   10.42957601
_cell_angle_alpha   156.84490615
_cell_angle_beta   156.84490615
_cell_angle_gamma   32.97715861
_symmetry_Int_Tables_number   1
_chemical_formula_structural   Ba2Fe2Se2OF2
_chemical_formula_sum   'Ba2 Fe2 Se2 O1 F2'
_cell_volume   175.26348999
_cell_formula_units_Z   1
loop_
 _symmetry_equiv_pos_site_id
 _symmetry_equiv_pos_as_xyz
  1  'x, y, z'
loop_
 _atom_site_type_symbol
 _atom_site_label
 _atom_site_symmetry_multiplicity
 _atom_site_fract_x
 _atom_site_fract_y
 _atom_site_fract_z
 _atom_site_occupancy
  Ba  Ba0  1  0.83076618  0.83076618  1.00000000  1.0
  Ba  Ba1  1  0.16923382  0.16923382  -0.00000000  1.0
  Fe  Fe2  1  0.50000000  0.00000000  0.50000000  1.0
  Fe  Fe3  1  0.00000000  0.50000000  0.50000000  1.0
  Se  Se4  1  0.58781685  0.58781685  1.00000000  1.0
  Se  Se5  1  0.41218315  0.41218315  -0.00000000  1.0
  O  O6  1  0.00000000  0.00000000  0.00000000  1.0
  F  F7  1  0.25000000  0.75000000  0.50000000  1.0
  F  F8  1  0.75000000  0.25000000  0.50000000  1.0
