# generated using pymatgen
data_GdAgS2
_symmetry_space_group_name_H-M   'P 1'
_cell_length_a   7.71783595
_cell_length_b   7.71681309
_cell_length_c   12.77328628
_cell_angle_alpha   90.00000000
_cell_angle_beta   89.99954263
_cell_angle_gamma   90.00000000
_symmetry_Int_Tables_number   1
_chemical_formula_structural   GdAgS2
_chemical_formula_sum   'Gd8 Ag8 S16'
_cell_volume   760.73985529
_cell_formula_units_Z   8
loop_
 _symmetry_equiv_pos_site_id
 _symmetry_equiv_pos_as_xyz
  1  'x, y, z'
loop_
 _atom_site_type_symbol
 _atom_site_label
 _atom_site_symmetry_multiplicity
 _atom_site_fract_x
 _atom_site_fract_y
 _atom_site_fract_z
 _atom_site_occupancy
  Gd  Gd0  1  0.99975719  0.78033387  0.24756173  1.0
  Gd  Gd1  1  0.00024281  0.28033387  0.75243827  1.0
  Gd  Gd2  1  0.75133993  0.52927181  0.49755960  1.0
  Gd  Gd3  1  0.24866007  0.02927181  0.50244040  1.0
  Gd  Gd4  1  0.74862114  0.02891503  0.99758424  1.0
  Gd  Gd5  1  0.25137886  0.52891503  0.00241576  1.0
  Gd  Gd6  1  0.50022775  0.77788181  0.74756907  1.0
  Gd  Gd7  1  0.49977225  0.27788181  0.25243093  1.0
  Ag  Ag8  1  0.98942381  0.79780047  0.67987038  1.0
  Ag  Ag9  1  0.01057619  0.29780047  0.32012962  1.0
  Ag  Ag10  1  0.77067352  0.54184767  0.93024063  1.0
  Ag  Ag11  1  0.22932648  0.04184767  0.06975937  1.0
  Ag  Ag12  1  0.73000714  0.01700301  0.43001717  1.0
  Ag  Ag13  1  0.26999286  0.51700301  0.56998283  1.0
  Ag  Ag14  1  0.48987760  0.26086872  0.82028587  1.0
  Ag  Ag15  1  0.51012240  0.76086872  0.17971413  1.0
  S  S16  1  0.97651020  0.30358141  0.97068197  1.0
  S  S17  1  0.02348980  0.80358141  0.02931803  1.0
  S  S18  1  0.96950828  0.80981188  0.46620000  1.0
  S  S19  1  0.03049172  0.30981188  0.53380000  1.0
  S  S20  1  0.78093750  0.55971025  0.71631908  1.0
  S  S21  1  0.21906250  0.05971025  0.28368092  1.0
  S  S22  1  0.77441912  0.50544475  0.27937945  1.0
  S  S23  1  0.22558088  0.00544475  0.72062055  1.0
  S  S24  1  0.72559350  0.05280528  0.77942756  1.0
  S  S25  1  0.27440650  0.55280528  0.22057244  1.0
  S  S26  1  0.53049130  0.74842592  0.96621080  1.0
  S  S27  1  0.46950870  0.24842592  0.03378920  1.0
  S  S28  1  0.47643174  0.75457519  0.52934183  1.0
  S  S29  1  0.52356826  0.25457519  0.47065817  1.0
  S  S30  1  0.28096799  0.49852292  0.78371713  1.0
  S  S31  1  0.71903201  -0.00147708  0.21628287  1.0
