# generated using pymatgen
data_Si3N4
_symmetry_space_group_name_H-M   'P 1'
_cell_length_a   4.95470060
_cell_length_b   9.45296270
_cell_length_c   4.96493733
_cell_angle_alpha   90.00000000
_cell_angle_beta   90.00000000
_cell_angle_gamma   90.00000000
_symmetry_Int_Tables_number   1
_chemical_formula_structural   Si3N4
_chemical_formula_sum   'Si12 N16'
_cell_volume   232.54078335
_cell_formula_units_Z   4
loop_
 _symmetry_equiv_pos_site_id
 _symmetry_equiv_pos_as_xyz
  1  'x, y, z'
loop_
 _atom_site_type_symbol
 _atom_site_label
 _atom_site_symmetry_multiplicity
 _atom_site_fract_x
 _atom_site_fract_y
 _atom_site_fract_z
 _atom_site_occupancy
  Si  Si0  1  0.55136949  0.35043679  0.54479866  1.0
  Si  Si1  1  0.05136949  0.14956321  0.45520134  1.0
  Si  Si2  1  0.44863051  0.85043679  0.95520134  1.0
  Si  Si3  1  0.94863051  0.64956321  0.04479866  1.0
  Si  Si4  1  0.44863051  0.64956321  0.45520134  1.0
  Si  Si5  1  0.94863051  0.85043679  0.54479866  1.0
  Si  Si6  1  0.55136949  0.14956321  0.04479866  1.0
  Si  Si7  1  0.05136949  0.35043679  0.95520134  1.0
  Si  Si8  1  0.50000000  0.50000000  0.00000000  1.0
  Si  Si9  1  0.00000000  0.00000000  0.00000000  1.0
  Si  Si10  1  0.50000000  0.00000000  0.50000000  1.0
  Si  Si11  1  0.00000000  0.50000000  0.50000000  1.0
  N  N12  1  0.82860983  0.46077897  0.15829408  1.0
  N  N13  1  0.32860983  0.03922103  0.84170592  1.0
  N  N14  1  0.17139017  0.96077897  0.34170592  1.0
  N  N15  1  0.67139017  0.53922103  0.65829408  1.0
  N  N16  1  0.17139017  0.53922103  0.84170592  1.0
  N  N17  1  0.67139017  0.96077897  0.15829408  1.0
  N  N18  1  0.82860983  0.03922103  0.65829408  1.0
  N  N19  1  0.32860983  0.46077897  0.34170592  1.0
  N  N20  1  0.92438834  0.31356062  0.61490475  1.0
  N  N21  1  0.42438834  0.18643938  0.38509525  1.0
  N  N22  1  0.07561166  0.81356062  0.88509525  1.0
  N  N23  1  0.57561166  0.68643938  0.11490475  1.0
  N  N24  1  0.07561166  0.68643938  0.38509525  1.0
  N  N25  1  0.57561166  0.81356062  0.61490475  1.0
  N  N26  1  0.92438834  0.18643938  0.11490475  1.0
  N  N27  1  0.42438834  0.31356062  0.88509525  1.0
