# generated using pymatgen
data_K2Na3P3O10
_symmetry_space_group_name_H-M   'P 1'
_cell_length_a   5.73773292
_cell_length_b   5.73773292
_cell_length_c   18.96928258
_cell_angle_alpha   84.72339096
_cell_angle_beta   95.27660904
_cell_angle_gamma   120.66765677
_symmetry_Int_Tables_number   1
_chemical_formula_structural   K2Na3P3O10
_chemical_formula_sum   'K4 Na6 P6 O20'
_cell_volume   534.13962157
_cell_formula_units_Z   2
loop_
 _symmetry_equiv_pos_site_id
 _symmetry_equiv_pos_as_xyz
  1  'x, y, z'
loop_
 _atom_site_type_symbol
 _atom_site_label
 _atom_site_symmetry_multiplicity
 _atom_site_fract_x
 _atom_site_fract_y
 _atom_site_fract_z
 _atom_site_occupancy
  K  K0  1  1.13280754  0.32246650  0.92232908  1.0
  K  K1  1  0.67753350  -0.13280754  0.42232908  1.0
  K  K2  1  0.32246650  0.13280754  0.57767092  1.0
  K  K3  1  0.86719246  0.67753350  0.07767092  1.0
  Na  Na4  1  0.41343894  -0.02651284  0.82874872  1.0
  Na  Na5  1  1.02651284  0.58656106  0.32874872  1.0
  Na  Na6  1  0.97348716  0.41343894  0.67125128  1.0
  Na  Na7  1  0.58656106  0.02651284  0.17125128  1.0
  Na  Na8  1  0.50000000  -0.00000000  -0.00000000  1.0
  Na  Na9  1  1.00000000  0.50000000  0.50000000  1.0
  P  P10  1  0.66133195  -0.20396320  0.60189432  1.0
  P  P11  1  1.20396320  0.33866805  0.10189432  1.0
  P  P12  1  0.79603680  0.66133195  0.89810568  1.0
  P  P13  1  0.33866805  0.20396320  0.39810568  1.0
  P  P14  1  0.59447145  0.59447145  0.75000000  1.0
  P  P15  1  0.40552855  0.40552855  0.25000000  1.0
  O  O16  1  0.64824499  -0.20241801  0.92217381  1.0
  O  O17  1  1.20241801  0.35175501  0.42217381  1.0
  O  O18  1  0.79758199  0.64824499  0.57782619  1.0
  O  O19  1  0.35175501  0.20241801  0.07782619  1.0
  O  O20  1  0.74213049  -0.16667290  0.68902292  1.0
  O  O21  1  1.16667290  0.25786951  0.18902292  1.0
  O  O22  1  0.83332710  0.74213049  0.81097708  1.0
  O  O23  1  0.25786951  0.16667290  0.31097708  1.0
  O  O24  1  0.79101011  0.09263139  0.57363497  1.0
  O  O25  1  0.90736861  0.20898989  0.07363497  1.0
  O  O26  1  1.09263139  0.79101011  0.92636503  1.0
  O  O27  1  0.20898989  -0.09263139  0.42636503  1.0
  O  O28  1  0.57720437  0.33427012  0.73100124  1.0
  O  O29  1  0.66572988  0.42279563  0.23100124  1.0
  O  O30  1  1.33427012  0.57720437  0.76899876  1.0
  O  O31  1  0.42279563  -0.33427012  0.26899876  1.0
  O  O32  1  0.63583206  0.35058599  0.90597132  1.0
  O  O33  1  0.64941401  0.36416794  0.40597132  1.0
  O  O34  1  1.35058599  0.63583206  0.59402868  1.0
  O  O35  1  0.36416794  -0.35058599  0.09402868  1.0
