# generated using pymatgen
data_Mg3P2(HO)16
_symmetry_space_group_name_H-M   'P 1'
_cell_length_a   8.43961353
_cell_length_b   8.43961353
_cell_length_c   4.69117944
_cell_angle_alpha   80.67759403
_cell_angle_beta   99.32240597
_cell_angle_gamma   74.30476617
_symmetry_Int_Tables_number   1
_chemical_formula_structural   Mg3P2(HO)16
_chemical_formula_sum   'Mg3 P2 H16 O16'
_cell_volume   309.89300037
_cell_formula_units_Z   1
loop_
 _symmetry_equiv_pos_site_id
 _symmetry_equiv_pos_as_xyz
  1  'x, y, z'
loop_
 _atom_site_type_symbol
 _atom_site_label
 _atom_site_symmetry_multiplicity
 _atom_site_fract_x
 _atom_site_fract_y
 _atom_site_fract_z
 _atom_site_occupancy
  Mg  Mg0  1  0.00000000  0.00000000  0.00000000  1.0
  Mg  Mg1  1  1.38991528  0.38991528  0.00000000  1.0
  Mg  Mg2  1  0.61008472  -0.38991528  0.00000000  1.0
  P  P3  1  0.68632074  -0.68632074  0.61579496  1.0
  P  P4  1  0.31367926  -0.31367926  0.38420504  1.0
  H  H5  1  1.04354895  0.79478700  0.63942997  1.0
  H  H6  1  0.20521300  -0.04354895  0.63942997  1.0
  H  H7  1  0.95645105  -0.79478700  0.36057003  1.0
  H  H8  1  1.79478700  0.04354895  0.36057003  1.0
  H  H9  1  1.06523207  0.68820656  0.95989251  1.0
  H  H10  1  0.31179344  -0.06523207  0.95989251  1.0
  H  H11  1  0.93476793  -0.68820656  0.04010749  1.0
  H  H12  1  1.68820656  0.06523207  0.04010749  1.0
  H  H13  1  1.18109661  0.43085352  0.51105262  1.0
  H  H14  1  0.56914648  -0.18109661  0.51105262  1.0
  H  H15  1  0.81890339  -0.43085352  0.48894738  1.0
  H  H16  1  1.43085352  0.18109661  0.48894738  1.0
  H  H17  1  1.18246758  0.25748325  0.71315401  1.0
  H  H18  1  0.74251675  -0.18246758  0.71315401  1.0
  H  H19  1  0.81753242  -0.25748325  0.28684599  1.0
  H  H20  1  1.25748325  0.18246758  0.28684599  1.0
  O  O21  1  0.84184200  -0.84184200  0.62024288  1.0
  O  O22  1  0.15815800  -0.15815800  0.37975712  1.0
  O  O23  1  0.60132801  -0.60132801  0.28627580  1.0
  O  O24  1  0.39867199  -0.39867199  0.71372420  1.0
  O  O25  1  0.75496425  -0.56153073  0.77449692  1.0
  O  O26  1  1.56153073  0.24503575  0.77449692  1.0
  O  O27  1  1.24503575  0.56153073  0.22550308  1.0
  O  O28  1  0.43846927  -0.24503575  0.22550308  1.0
  O  O29  1  0.98613849  -0.21127360  0.80998628  1.0
  O  O30  1  1.21127360  0.01386151  0.80998628  1.0
  O  O31  1  1.01386151  0.21127360  0.19001372  1.0
  O  O32  1  0.78872640  -0.01386151  0.19001372  1.0
  O  O33  1  1.18245214  0.37380906  0.71455968  1.0
  O  O34  1  0.62619094  -0.18245214  0.71455968  1.0
  O  O35  1  0.81754786  -0.37380906  0.28544032  1.0
  O  O36  1  1.37380906  0.18245214  0.28544032  1.0
