# generated using pymatgen
data_Cs3AsSe4O
_symmetry_space_group_name_H-M   'P 1'
_cell_length_a   10.58737079
_cell_length_b   10.35816445
_cell_length_c   16.34084971
_cell_angle_alpha   90.00000000
_cell_angle_beta   131.39363436
_cell_angle_gamma   90.00000000
_symmetry_Int_Tables_number   1
_chemical_formula_structural   Cs3AsSe4O
_chemical_formula_sum   'Cs12 As4 Se16 O4'
_cell_volume   1344.35407987
_cell_formula_units_Z   4
loop_
 _symmetry_equiv_pos_site_id
 _symmetry_equiv_pos_as_xyz
  1  'x, y, z'
loop_
 _atom_site_type_symbol
 _atom_site_label
 _atom_site_symmetry_multiplicity
 _atom_site_fract_x
 _atom_site_fract_y
 _atom_site_fract_z
 _atom_site_occupancy
  O  O0  1  0.54557174  0.25778946  0.49714409  1.0
  O  O1  1  0.54557174  0.24221054  0.99714409  1.0
  O  O2  1  0.45442826  0.75778946  0.00285591  1.0
  O  O3  1  0.45442826  0.74221054  0.50285591  1.0
  Cs  Cs4  1  0.84655213  0.40505785  0.05039611  1.0
  Cs  Cs5  1  0.84655213  0.09494215  0.55039611  1.0
  Cs  Cs6  1  0.15344787  0.90505785  0.44960389  1.0
  Cs  Cs7  1  0.15344787  0.59494215  0.94960389  1.0
  Cs  Cs8  1  0.34958497  0.17920681  0.26402028  1.0
  Cs  Cs9  1  0.34958497  0.32079319  0.76402028  1.0
  Cs  Cs10  1  0.65041503  0.67920681  0.23597972  1.0
  Cs  Cs11  1  0.65041503  0.82079319  0.73597972  1.0
  Cs  Cs12  1  0.27871697  0.45822296  0.46155842  1.0
  Cs  Cs13  1  0.27871697  0.04177704  0.96155842  1.0
  Cs  Cs14  1  0.72128303  0.95822296  0.03844158  1.0
  Cs  Cs15  1  0.72128303  0.54177704  0.53844158  1.0
  As  As16  1  0.79740427  0.22489629  0.27189783  1.0
  As  As17  1  0.79740427  0.27510371  0.77189783  1.0
  As  As18  1  0.20259573  0.72489629  0.22810217  1.0
  As  As19  1  0.20259573  0.77510371  0.72810217  1.0
  Se  Se20  1  0.68829499  0.02867377  0.27514075  1.0
  Se  Se21  1  0.68829499  0.47132623  0.77514075  1.0
  Se  Se22  1  0.31170501  0.52867377  0.22485925  1.0
  Se  Se23  1  0.31170501  0.97132623  0.72485925  1.0
  Se  Se24  1  0.56523148  0.33172607  0.09663299  1.0
  Se  Se25  1  0.56523148  0.16827393  0.59663299  1.0
  Se  Se26  1  0.43476852  0.83172607  0.40336701  1.0
  Se  Se27  1  0.43476852  0.66827393  0.90336701  1.0
  Se  Se28  1  0.87281958  0.37134973  0.40682992  1.0
  Se  Se29  1  0.87281958  0.12865027  0.90682992  1.0
  Se  Se30  1  0.12718042  0.87134973  0.09317008  1.0
  Se  Se31  1  0.12718042  0.62865027  0.59317008  1.0
  Se  Se32  1  1.01603434  0.18196514  0.27399993  1.0
  Se  Se33  1  1.01603434  0.31803486  0.77399993  1.0
  Se  Se34  1  -0.01603434  0.68196514  0.22600007  1.0
  Se  Se35  1  -0.01603434  0.81803486  0.72600007  1.0
