# generated using pymatgen
data_La2Ir7
_symmetry_space_group_name_H-M   'P 1'
_cell_length_a   13.59751841
_cell_length_b   13.59751841
_cell_length_c   13.59751841
_cell_angle_alpha   22.88499844
_cell_angle_beta   22.88499844
_cell_angle_gamma   22.88499844
_symmetry_Int_Tables_number   1
_chemical_formula_structural   La2Ir7
_chemical_formula_sum   'La4 Ir14'
_cell_volume   333.64140558
_cell_formula_units_Z   2
loop_
 _symmetry_equiv_pos_site_id
 _symmetry_equiv_pos_as_xyz
  1  'x, y, z'
loop_
 _atom_site_type_symbol
 _atom_site_label
 _atom_site_symmetry_multiplicity
 _atom_site_fract_x
 _atom_site_fract_y
 _atom_site_fract_z
 _atom_site_occupancy
  La  La0  1  0.94946936  0.94946936  0.94946936  1.0
  La  La1  1  1.05053064  1.05053064  0.05053064  1.0
  La  La2  1  0.85243567  0.85243567  0.85243567  1.0
  La  La3  1  1.14756433  1.14756433  0.14756433  1.0
  Ir  Ir4  1  1.39226843  0.39226843  0.88935460  1.0
  Ir  Ir5  1  1.39226843  0.88935460  0.39226843  1.0
  Ir  Ir6  1  1.11064540  0.60773157  0.60773157  1.0
  Ir  Ir7  1  1.60773157  0.11064540  0.60773157  1.0
  Ir  Ir8  1  1.60773157  0.60773157  0.11064540  1.0
  Ir  Ir9  1  0.88935460  1.39226843  0.39226843  1.0
  Ir  Ir10  1  0.50000000  0.00000000  -0.50000000  1.0
  Ir  Ir11  1  0.50000000  -0.50000000  0.00000000  1.0
  Ir  Ir12  1  0.00000000  0.50000000  -0.50000000  1.0
  Ir  Ir13  1  0.72202155  0.72202155  0.72202155  1.0
  Ir  Ir14  1  1.27797845  1.27797845  0.27797845  1.0
  Ir  Ir15  1  1.61187468  0.61187468  0.61187468  1.0
  Ir  Ir16  1  1.38812532  0.38812532  0.38812532  1.0
  Ir  Ir17  1  1.50000000  0.50000000  0.50000000  1.0
