# generated using pymatgen
data_LaHf2F11
_symmetry_space_group_name_H-M   'P 1'
_cell_length_a   8.52330017
_cell_length_b   8.52330017
_cell_length_c   8.52330017
_cell_angle_alpha   125.39635488
_cell_angle_beta   106.87684126
_cell_angle_gamma   97.49590068
_symmetry_Int_Tables_number   1
_chemical_formula_structural   LaHf2F11
_chemical_formula_sum   'La2 Hf4 F22'
_cell_volume   446.21044765
_cell_formula_units_Z   2
loop_
 _symmetry_equiv_pos_site_id
 _symmetry_equiv_pos_as_xyz
  1  'x, y, z'
loop_
 _atom_site_type_symbol
 _atom_site_label
 _atom_site_symmetry_multiplicity
 _atom_site_fract_x
 _atom_site_fract_y
 _atom_site_fract_z
 _atom_site_occupancy
  La  La0  1  0.75000000  0.25000000  0.50000000  1.0
  La  La1  1  1.25000000  0.75000000  0.50000000  1.0
  Hf  Hf2  1  0.81937504  0.86781261  1.68718765  1.0
  Hf  Hf3  1  0.68062496  0.36781261  1.04843758  1.0
  Hf  Hf4  1  0.31937504  0.63218739  0.95156242  1.0
  Hf  Hf5  1  0.18062496  0.13218739  0.31281235  1.0
  F  F6  1  1.55266390  1.76393491  1.58483640  1.0
  F  F7  1  0.82090149  1.03217250  1.58483640  1.0
  F  F8  1  1.67909851  1.26393491  1.21127102  1.0
  F  F9  1  0.94733610  0.53217250  1.21127102  1.0
  F  F10  1  1.05266390  1.46782750  0.78872898  1.0
  F  F11  1  0.32090149  0.73606509  0.78872898  1.0
  F  F12  1  1.17909851  0.96782750  0.41516360  1.0
  F  F13  1  0.44733610  0.23606509  0.41516360  1.0
  F  F14  1  0.79481194  0.61130695  0.66086243  1.0
  F  F15  1  1.04955549  0.86605049  0.66086243  1.0
  F  F16  1  1.45044451  1.11130695  0.81649500  1.0
  F  F17  1  0.70518806  0.36605049  0.81649500  1.0
  F  F18  1  1.29481194  1.63394951  1.18350500  1.0
  F  F19  1  0.54955549  0.88869305  1.18350500  1.0
  F  F20  1  0.95044451  1.13394951  1.33913757  1.0
  F  F21  1  1.20518806  1.38869305  1.33913757  1.0
  F  F22  1  0.71951606  0.63065834  1.35017440  1.0
  F  F23  1  0.78048394  0.13065834  0.91114227  1.0
  F  F24  1  0.21951606  0.86934166  1.08885773  1.0
  F  F25  1  0.28048394  0.36934166  0.64982560  1.0
  F  F26  1  0.00000000  0.00000000  0.00000000  1.0
  F  F27  1  0.50000000  0.50000000  1.00000000  1.0
