# generated using pymatgen
data_CoP4H16(NO8)2
_symmetry_space_group_name_H-M   'P 1'
_cell_length_a   7.41024929
_cell_length_b   7.20500910
_cell_length_c   7.82620678
_cell_angle_alpha   109.06593217
_cell_angle_beta   98.72668615
_cell_angle_gamma   90.93373158
_symmetry_Int_Tables_number   1
_chemical_formula_structural   CoP4H16(NO8)2
_chemical_formula_sum   'Co1 P4 H16 N2 O16'
_cell_volume   389.38346503
_cell_formula_units_Z   1
loop_
 _symmetry_equiv_pos_site_id
 _symmetry_equiv_pos_as_xyz
  1  'x, y, z'
loop_
 _atom_site_type_symbol
 _atom_site_label
 _atom_site_symmetry_multiplicity
 _atom_site_fract_x
 _atom_site_fract_y
 _atom_site_fract_z
 _atom_site_occupancy
  Co  Co0  1  0.00000000  0.00000000  0.00000000  1.0
  P  P1  1  0.74896824  0.83455643  -0.74245552  1.0
  P  P2  1  0.25103176  0.16544357  -0.25754448  1.0
  P  P3  1  0.71999629  0.24291876  -0.74020448  1.0
  P  P4  1  0.28000371  0.75708124  -0.25979552  1.0
  H  H5  1  0.66720290  0.87730395  -0.20360174  1.0
  H  H6  1  0.33279710  0.12269605  -0.79639826  1.0
  H  H7  1  0.80017711  0.88003382  -0.34591881  1.0
  H  H8  1  0.19982289  0.11996618  -0.65408119  1.0
  H  H9  1  0.51647422  0.76174484  -0.97741158  1.0
  H  H10  1  0.48352578  0.23825516  -0.02258842  1.0
  H  H11  1  0.09464510  0.67487833  -0.82787041  1.0
  H  H12  1  0.90535490  0.32512167  -0.17212959  1.0
  H  H13  1  0.32354906  0.65323416  -0.81251407  1.0
  H  H14  1  0.67645094  0.34676584  -0.18748593  1.0
  H  H15  1  0.77143501  0.56197303  -0.57624727  1.0
  H  H16  1  0.22856499  0.43802697  -0.42375273  1.0
  H  H17  1  0.17690453  0.44940469  -0.90377925  1.0
  H  H18  1  0.82309547  0.55059531  -0.09622075  1.0
  H  H19  1  0.79280910  0.42332372  -0.32475091  1.0
  H  H20  1  0.20719090  0.57667628  -0.67524909  1.0
  N  N21  1  0.20048779  0.58814586  -0.80512665  1.0
  N  N22  1  0.79951221  0.41185414  -0.19487335  1.0
  O  O23  1  0.78474898  0.93649670  -0.21579748  1.0
  O  O24  1  0.21525102  0.06350330  -0.78420252  1.0
  O  O25  1  0.26038811  0.92929262  -0.35246769  1.0
  O  O26  1  0.73961189  0.07070738  -0.64753231  1.0
  O  O27  1  0.88083961  0.79626699  -0.88131739  1.0
  O  O28  1  0.11916039  0.20373301  -0.11868261  1.0
  O  O29  1  0.79869190  0.76153423  -0.58158451  1.0
  O  O30  1  0.20130810  0.23846577  -0.41841549  1.0
  O  O31  1  0.54895450  0.74981146  -0.84546250  1.0
  O  O32  1  0.45104550  0.25018854  -0.15453750  1.0
  O  O33  1  0.75489890  0.42631033  -0.55714687  1.0
  O  O34  1  0.24510110  0.57368967  -0.44285313  1.0
  O  O35  1  0.52307385  0.22780065  -0.83922923  1.0
  O  O36  1  0.47692615  0.77219935  -0.16077077  1.0
  O  O37  1  0.86683387  0.23715610  -0.85708228  1.0
  O  O38  1  0.13316613  0.76284390  -0.14291772  1.0
