# generated using pymatgen
data_CsNb(CuTe2)2
_symmetry_space_group_name_H-M   'P 1'
_cell_length_a   8.36977717
_cell_length_b   21.55774358
_cell_length_c   6.07509773
_cell_angle_alpha   90.00000000
_cell_angle_beta   90.00000000
_cell_angle_gamma   90.00000000
_symmetry_Int_Tables_number   1
_chemical_formula_structural   CsNb(CuTe2)2
_chemical_formula_sum   'Cs4 Nb4 Cu8 Te16'
_cell_volume   1096.15120690
_cell_formula_units_Z   4
loop_
 _symmetry_equiv_pos_site_id
 _symmetry_equiv_pos_as_xyz
  1  'x, y, z'
loop_
 _atom_site_type_symbol
 _atom_site_label
 _atom_site_symmetry_multiplicity
 _atom_site_fract_x
 _atom_site_fract_y
 _atom_site_fract_z
 _atom_site_occupancy
  Cs  Cs0  1  0.24557860  0.93672084  0.51690687  1.0
  Cs  Cs1  1  0.74557860  0.56327916  0.51690687  1.0
  Cs  Cs2  1  0.75442140  0.06327916  0.01690687  1.0
  Cs  Cs3  1  0.25442140  0.43672084  0.01690687  1.0
  Nb  Nb4  1  0.24514531  0.64992057  0.75865031  1.0
  Nb  Nb5  1  0.74514531  0.85007943  0.75865031  1.0
  Nb  Nb6  1  0.75485469  0.35007943  0.25865031  1.0
  Nb  Nb7  1  0.25485469  0.14992057  0.25865031  1.0
  Cu  Cu8  1  0.49572203  0.74979538  0.76553991  1.0
  Cu  Cu9  1  0.99572203  0.75020462  0.76553991  1.0
  Cu  Cu10  1  0.50427797  0.25020462  0.26553991  1.0
  Cu  Cu11  1  0.00427797  0.24979538  0.26553991  1.0
  Cu  Cu12  1  0.25481918  0.15007104  0.75798021  1.0
  Cu  Cu13  1  0.75481918  0.34992896  0.75798021  1.0
  Cu  Cu14  1  0.74518082  0.84992896  0.25798021  1.0
  Cu  Cu15  1  0.24518082  0.65007104  0.25798021  1.0
  Te  Te16  1  0.48701307  0.84997766  0.01137745  1.0
  Te  Te17  1  0.98701307  0.65002234  0.01137745  1.0
  Te  Te18  1  0.51298693  0.15002234  0.51137745  1.0
  Te  Te19  1  0.01298693  0.34997766  0.51137745  1.0
  Te  Te20  1  0.24565753  0.75099768  0.50202656  1.0
  Te  Te21  1  0.74565753  0.74900232  0.50202656  1.0
  Te  Te22  1  0.75434247  0.24900232  0.00202656  1.0
  Te  Te23  1  0.25434247  0.25099768  0.00202656  1.0
  Te  Te24  1  0.24402757  0.55009439  0.50672586  1.0
  Te  Te25  1  0.74402757  0.94990561  0.50672586  1.0
  Te  Te26  1  0.75597243  0.44990561  0.00672586  1.0
  Te  Te27  1  0.25597243  0.05009439  0.00672586  1.0
  Te  Te28  1  1.00343610  0.85047419  0.01129283  1.0
  Te  Te29  1  0.50343610  0.64952581  0.01129283  1.0
  Te  Te30  1  -0.00343610  0.14952581  0.51129283  1.0
  Te  Te31  1  0.49656390  0.35047419  0.51129283  1.0
