# generated using pymatgen
data_Rb2Be2Cu(O3F4)2
_symmetry_space_group_name_H-M   'P 1'
_cell_length_a   6.01453526
_cell_length_b   12.02326910
_cell_length_c   8.30671442
_cell_angle_alpha   90.00000000
_cell_angle_beta   100.28481649
_cell_angle_gamma   90.00000000
_symmetry_Int_Tables_number   1
_chemical_formula_structural   Rb2Be2Cu(O3F4)2
_chemical_formula_sum   'Rb4 Be4 Cu2 O12 F16'
_cell_volume   591.04313632
_cell_formula_units_Z   2
loop_
 _symmetry_equiv_pos_site_id
 _symmetry_equiv_pos_as_xyz
  1  'x, y, z'
loop_
 _atom_site_type_symbol
 _atom_site_label
 _atom_site_symmetry_multiplicity
 _atom_site_fract_x
 _atom_site_fract_y
 _atom_site_fract_z
 _atom_site_occupancy
  Rb  Rb0  1  0.74010197  0.14611523  0.43142803  1.0
  Rb  Rb1  1  0.74010197  0.35388477  0.93142803  1.0
  Rb  Rb2  1  0.25989803  0.64611523  0.06857197  1.0
  Rb  Rb3  1  0.25989803  0.85388477  0.56857197  1.0
  Be  Be4  1  0.71436427  0.84283251  0.32434924  1.0
  Be  Be5  1  0.71436427  0.65716749  0.82434924  1.0
  Be  Be6  1  0.28563573  0.34283251  0.17565076  1.0
  Be  Be7  1  0.28563573  0.15716749  0.67565076  1.0
  Cu  Cu8  1  0.00000000  0.00000000  0.00000000  1.0
  Cu  Cu9  1  0.00000000  0.50000000  0.50000000  1.0
  O  O10  1  0.66502206  0.91612443  -0.04880616  1.0
  O  O11  1  0.66502206  0.58387557  0.45119384  1.0
  O  O12  1  0.33497794  0.41612443  0.54880616  1.0
  O  O13  1  0.33497794  0.08387557  1.04880616  1.0
  O  O14  1  0.12501859  0.61817985  0.41916440  1.0
  O  O15  1  0.12501859  0.88182015  0.91916440  1.0
  O  O16  1  0.87498141  0.11817985  0.08083560  1.0
  O  O17  1  0.87498141  0.38182015  0.58083560  1.0
  O  O18  1  0.13068498  0.91205255  0.16937014  1.0
  O  O19  1  0.13068498  0.58794745  0.66937014  1.0
  O  O20  1  0.86931502  0.41205255  0.33062986  1.0
  O  O21  1  0.86931502  0.08794745  0.83062986  1.0
  F  F22  1  0.53753288  0.75096974  0.34403374  1.0
  F  F23  1  0.53753288  0.74903026  0.84403374  1.0
  F  F24  1  0.46246712  0.25096974  0.15596626  1.0
  F  F25  1  0.46246712  0.24903026  0.65596626  1.0
  F  F26  1  0.60065648  0.93351295  0.18543496  1.0
  F  F27  1  0.60065648  0.56648705  0.68543496  1.0
  F  F28  1  0.39934352  0.43351295  0.31456504  1.0
  F  F29  1  0.39934352  0.06648705  0.81456504  1.0
  F  F30  1  0.77570545  0.58688947  -0.02157181  1.0
  F  F31  1  0.77570545  0.91311053  0.47842819  1.0
  F  F32  1  0.22429455  0.08688947  0.52157181  1.0
  F  F33  1  0.22429455  0.41311053  1.02157181  1.0
  F  F34  1  0.91836857  0.78722891  0.26217555  1.0
  F  F35  1  0.91836857  0.71277109  0.76217555  1.0
  F  F36  1  0.08163143  0.28722891  0.23782445  1.0
  F  F37  1  0.08163143  0.21277109  0.73782445  1.0
