# generated using pymatgen
data_Hg3(SCl)2
_symmetry_space_group_name_H-M   'P 1'
_cell_length_a   7.95383016
_cell_length_b   7.95383016
_cell_length_c   7.95383016
_cell_angle_alpha   109.47122063
_cell_angle_beta   109.47122063
_cell_angle_gamma   109.47122063
_symmetry_Int_Tables_number   1
_chemical_formula_structural   Hg3(SCl)2
_chemical_formula_sum   'Hg6 S4 Cl4'
_cell_volume   387.35311138
_cell_formula_units_Z   2
loop_
 _symmetry_equiv_pos_site_id
 _symmetry_equiv_pos_as_xyz
  1  'x, y, z'
loop_
 _atom_site_type_symbol
 _atom_site_label
 _atom_site_symmetry_multiplicity
 _atom_site_fract_x
 _atom_site_fract_y
 _atom_site_fract_z
 _atom_site_occupancy
  Hg  Hg0  1  1.19772897  0.94772897  1.25000000  1.0
  Hg  Hg1  1  0.25000000  1.19772897  0.94772897  1.0
  Hg  Hg2  1  0.75000000  1.30227103  0.55227103  1.0
  Hg  Hg3  1  0.94772897  0.25000000  1.19772897  1.0
  Hg  Hg4  1  0.55227103  0.75000000  0.30227103  1.0
  Hg  Hg5  1  0.30227103  0.55227103  0.75000000  1.0
  S  S6  1  0.97590595  0.97590595  0.97590595  1.0
  S  S7  1  0.50000000  1.00000000  0.52409405  1.0
  S  S8  1  1.00000000  0.52409405  1.50000000  1.0
  S  S9  1  0.52409405  1.50000000  1.00000000  1.0
  Cl  Cl10  1  1.48760510  1.48760510  1.48760510  1.0
  Cl  Cl11  1  1.50000000  1.00000000  1.01239490  1.0
  Cl  Cl12  1  1.00000000  1.01239490  1.50000000  1.0
  Cl  Cl13  1  1.01239490  0.50000000  1.00000000  1.0
