# generated using pymatgen
data_Nb12WO33
_symmetry_space_group_name_H-M   'P 1'
_cell_length_a   11.48463492
_cell_length_b   11.48463492
_cell_length_c   18.00255005
_cell_angle_alpha   57.07575558
_cell_angle_beta   122.92424442
_cell_angle_gamma   160.72944012
_symmetry_Int_Tables_number   1
_chemical_formula_structural   Nb12WO33
_chemical_formula_sum   'Nb12 W1 O33'
_cell_volume   653.79953604
_cell_formula_units_Z   1
loop_
 _symmetry_equiv_pos_site_id
 _symmetry_equiv_pos_as_xyz
  1  'x, y, z'
loop_
 _atom_site_type_symbol
 _atom_site_label
 _atom_site_symmetry_multiplicity
 _atom_site_fract_x
 _atom_site_fract_y
 _atom_site_fract_z
 _atom_site_occupancy
  Nb  Nb0  1  0.88246787  0.04766248  0.88149243  1.0
  Nb  Nb1  1  1.04766248  -0.11753213  0.11850757  1.0
  Nb  Nb2  1  0.86071761  -0.87201212  0.54621352  1.0
  Nb  Nb3  1  0.12798788  -0.13928239  0.45378648  1.0
  Nb  Nb4  1  0.80279065  0.20365159  0.97419311  1.0
  Nb  Nb5  1  1.20365159  -0.19720935  0.02580689  1.0
  Nb  Nb6  1  0.74733149  0.25058886  0.63794521  1.0
  Nb  Nb7  1  1.25058886  -0.25266851  0.36205479  1.0
  Nb  Nb8  1  0.64188375  0.37785882  0.73322892  1.0
  Nb  Nb9  1  1.37785882  -0.35811625  0.26677108  1.0
  Nb  Nb10  1  0.04040275  -0.02825318  0.78646911  1.0
  Nb  Nb11  1  0.97174682  -0.95959725  0.21353089  1.0
  W  W12  1  0.25357222  0.25357222  0.50000000  1.0
  O  O13  1  0.11291150  -0.10040534  0.73330708  1.0
  O  O14  1  0.89959466  -0.88708850  0.26669292  1.0
  O  O15  1  0.97757462  -0.97514932  0.82739896  1.0
  O  O16  1  0.02485068  -0.02242538  0.17260104  1.0
  O  O17  1  0.95092563  -0.94870297  0.65674072  1.0
  O  O18  1  0.05129703  -0.04907437  0.34325928  1.0
  O  O19  1  0.92928326  -0.92906088  0.48912474  1.0
  O  O20  1  0.07093912  -0.07071674  0.51087526  1.0
  O  O21  1  0.40227430  -0.41702643  0.86874787  1.0
  O  O22  1  0.58297357  -0.59772570  0.13125213  1.0
  O  O23  1  0.85158129  0.14669264  0.92535381  1.0
  O  O24  1  1.14669264  -0.14841871  0.07464619  1.0
  O  O25  1  0.82161617  0.17073237  0.74943335  1.0
  O  O26  1  1.17073237  -0.17838383  0.25056665  1.0
  O  O27  1  0.80513430  -0.80185108  0.58201548  1.0
  O  O28  1  0.19814892  -0.19486570  0.41798452  1.0
  O  O29  1  0.77587030  -0.77571221  0.39678997  1.0
  O  O30  1  0.22428779  -0.22412970  0.60321003  1.0
  O  O31  1  0.28208274  -0.27490794  0.98051855  1.0
  O  O32  1  0.72509206  -0.71791726  0.01948145  1.0
  O  O33  1  0.71236851  0.29753177  0.84986833  1.0
  O  O34  1  1.29753177  -0.28763149  0.15013167  1.0
  O  O35  1  0.68506016  0.32341418  0.67856971  1.0
  O  O36  1  1.32341418  -0.31493984  0.32143029  1.0
  O  O37  1  0.64892690  0.34982455  0.49020833  1.0
  O  O38  1  1.34982455  -0.35107310  0.50979167  1.0
  O  O39  1  0.12628337  -0.11758008  0.90420358  1.0
  O  O40  1  0.88241992  -0.87371663  0.09579642  1.0
  O  O41  1  -0.00952970  -0.00952970  -0.00000000  1.0
  O  O42  1  0.54143489  0.46936409  0.59971248  1.0
  O  O43  1  1.46936409  -0.45856511  0.40028752  1.0
  O  O44  1  0.55470942  0.45566623  0.77147120  1.0
  O  O45  1  1.45566623  -0.44529058  0.22852880  1.0
