# generated using pymatgen
data_VPO5
_symmetry_space_group_name_H-M   'P 1'
_cell_length_a   6.10237914
_cell_length_b   6.10237914
_cell_length_c   4.98502677
_cell_angle_alpha   90.00000000
_cell_angle_beta   90.00000000
_cell_angle_gamma   90.00000000
_symmetry_Int_Tables_number   1
_chemical_formula_structural   VPO5
_chemical_formula_sum   'V2 P2 O10'
_cell_volume   185.63756730
_cell_formula_units_Z   2
loop_
 _symmetry_equiv_pos_site_id
 _symmetry_equiv_pos_as_xyz
  1  'x, y, z'
loop_
 _atom_site_type_symbol
 _atom_site_label
 _atom_site_symmetry_multiplicity
 _atom_site_fract_x
 _atom_site_fract_y
 _atom_site_fract_z
 _atom_site_occupancy
  V  V0  1  0.00000000  0.50000000  0.73657773  1.0
  V  V1  1  0.50000000  0.00000000  0.26342227  1.0
  P  P2  1  0.50000000  0.50000000  0.00000000  1.0
  P  P3  1  0.00000000  0.00000000  0.00000000  1.0
  O  O4  1  0.70123531  0.46072848  0.81802960  1.0
  O  O5  1  0.29876469  0.53927152  0.81802960  1.0
  O  O6  1  0.96072848  0.79876469  0.81802960  1.0
  O  O7  1  0.03927152  0.20123531  0.81802960  1.0
  O  O8  1  0.79876469  0.03927152  0.18197040  1.0
  O  O9  1  0.20123531  0.96072848  0.18197040  1.0
  O  O10  1  0.53927152  0.70123531  0.18197040  1.0
  O  O11  1  0.46072848  0.29876469  0.18197040  1.0
  O  O12  1  0.00000000  0.50000000  0.42045132  1.0
  O  O13  1  0.50000000  0.00000000  0.57954868  1.0
