# generated using pymatgen
data_TiBr3
_symmetry_space_group_name_H-M   'P 1'
_cell_length_a   7.96427505
_cell_length_b   7.96427505
_cell_length_c   7.96427505
_cell_angle_alpha   48.07700035
_cell_angle_beta   48.07700035
_cell_angle_gamma   48.07700035
_symmetry_Int_Tables_number   1
_chemical_formula_structural   TiBr3
_chemical_formula_sum   'Ti2 Br6'
_cell_volume   256.25119105
_cell_formula_units_Z   2
loop_
 _symmetry_equiv_pos_site_id
 _symmetry_equiv_pos_as_xyz
  1  'x, y, z'
loop_
 _atom_site_type_symbol
 _atom_site_label
 _atom_site_symmetry_multiplicity
 _atom_site_fract_x
 _atom_site_fract_y
 _atom_site_fract_z
 _atom_site_occupancy
  Ti  Ti0  1  0.16663624  0.16663624  0.16663624  1.0
  Ti  Ti1  1  0.83336376  -0.16663624  -0.16663624  1.0
  Br  Br2  1  0.42870280  0.07706705  -0.21984812  1.0
  Br  Br3  1  0.21984812  0.57129720  -0.07706705  1.0
  Br  Br4  1  0.92293295  0.21984812  -0.42870280  1.0
  Br  Br5  1  0.57129720  0.92293295  -0.78015188  1.0
  Br  Br6  1  0.78015188  -0.57129720  0.07706705  1.0
  Br  Br7  1  1.07706705  -0.21984812  -0.57129720  1.0
