# generated using pymatgen
data_CsCoH18N6(ClO2)4
_symmetry_space_group_name_H-M   'P 1'
_cell_length_a   10.06773231
_cell_length_b   10.06773231
_cell_length_c   10.06773231
_cell_angle_alpha   43.33079741
_cell_angle_beta   43.33079741
_cell_angle_gamma   43.33079741
_symmetry_Int_Tables_number   1
_chemical_formula_structural   CsCoH18N6(ClO2)4
_chemical_formula_sum   'Cs1 Co1 H18 N6 Cl4 O8'
_cell_volume   435.83610356
_cell_formula_units_Z   1
loop_
 _symmetry_equiv_pos_site_id
 _symmetry_equiv_pos_as_xyz
  1  'x, y, z'
loop_
 _atom_site_type_symbol
 _atom_site_label
 _atom_site_symmetry_multiplicity
 _atom_site_fract_x
 _atom_site_fract_y
 _atom_site_fract_z
 _atom_site_occupancy
  Cs  Cs0  1  0.50000000  0.50000000  0.50000000  1.0
  Co  Co1  1  1.00000000  0.00000000  -0.00000000  1.0
  H  H2  1  0.71769024  0.30485659  0.11294428  1.0
  H  H3  1  0.88705572  1.28230976  -0.30485659  1.0
  H  H4  1  0.69514341  0.88705572  0.28230976  1.0
  H  H5  1  1.28230976  0.69514341  -0.11294428  1.0
  H  H6  1  1.11294428  -0.28230976  0.30485659  1.0
  H  H7  1  1.30485659  0.11294428  -0.28230976  1.0
  H  H8  1  0.97065319  -0.04793639  0.30708806  1.0
  H  H9  1  0.69291194  1.02934681  0.04793639  1.0
  H  H10  1  1.04793639  0.69291194  0.02934681  1.0
  H  H11  1  1.02934681  1.04793639  -0.30708806  1.0
  H  H12  1  1.30708806  -0.02934681  -0.04793639  1.0
  H  H13  1  0.95206361  0.30708806  -0.02934681  1.0
  H  H14  1  1.14725265  0.17772980  0.59337584  1.0
  H  H15  1  0.40662416  0.85274735  -0.17772980  1.0
  H  H16  1  0.82227020  0.40662416  -0.14725265  1.0
  H  H17  1  0.85274735  0.82227020  -0.59337584  1.0
  H  H18  1  1.59337584  0.14725265  0.17772980  1.0
  H  H19  1  1.17772980  0.59337584  0.14725265  1.0
  N  N20  1  0.98129487  -0.13874357  0.28269495  1.0
  N  N21  1  0.71730505  1.01870513  0.13874357  1.0
  N  N22  1  1.13874357  0.71730505  0.01870513  1.0
  N  N23  1  1.01870513  1.13874357  -0.28269495  1.0
  N  N24  1  1.28269495  -0.01870513  -0.13874357  1.0
  N  N25  1  0.86125643  0.28269495  -0.01870513  1.0
  Cl  Cl26  1  1.19090221  0.19090221  0.19090221  1.0
  Cl  Cl27  1  0.80909779  0.80909779  -0.19090221  1.0
  Cl  Cl28  1  0.36379239  0.36379239  0.36379239  1.0
  Cl  Cl29  1  0.63620761  0.63620761  0.63620761  1.0
  O  O30  1  0.99850851  0.35258710  0.27515632  1.0
  O  O31  1  0.72484368  1.00149149  -0.35258710  1.0
  O  O32  1  0.64741290  0.72484368  0.00149149  1.0
  O  O33  1  1.00149149  0.64741290  -0.27515632  1.0
  O  O34  1  1.27515632  -0.00149149  0.35258710  1.0
  O  O35  1  1.35258710  0.27515632  -0.00149149  1.0
  O  O36  1  1.13689577  0.13689577  0.13689577  1.0
  O  O37  1  0.86310423  0.86310423  -0.13689577  1.0
