# generated using pymatgen
data_TbB2Rh5
_symmetry_space_group_name_H-M   'P 1'
_cell_length_a   2.92254767
_cell_length_b   8.89151721
_cell_length_c   5.16849381
_cell_angle_alpha   90.00000000
_cell_angle_beta   106.43501439
_cell_angle_gamma   90.00000000
_symmetry_Int_Tables_number   1
_chemical_formula_structural   TbB2Rh5
_chemical_formula_sum   'Tb1 B2 Rh5'
_cell_volume   128.82022319
_cell_formula_units_Z   1
loop_
 _symmetry_equiv_pos_site_id
 _symmetry_equiv_pos_as_xyz
  1  'x, y, z'
loop_
 _atom_site_type_symbol
 _atom_site_label
 _atom_site_symmetry_multiplicity
 _atom_site_fract_x
 _atom_site_fract_y
 _atom_site_fract_z
 _atom_site_occupancy
  Tb  Tb0  1  0.50000000  0.50000000  0.00000000  1.0
  B  B1  1  0.50000000  0.17827594  0.00000000  1.0
  B  B2  1  0.50000000  0.82172406  0.00000000  1.0
  Rh  Rh3  1  -0.13875627  0.26720404  0.72276857  1.0
  Rh  Rh4  1  -0.13875627  0.73279596  0.72276857  1.0
  Rh  Rh5  1  0.13875627  0.26720404  0.27723143  1.0
  Rh  Rh6  1  0.13875627  0.73279596  0.27723143  1.0
  Rh  Rh7  1  0.00000000  0.00000000  0.00000000  1.0
