# generated using pymatgen
data_Sb(S8I)3
_symmetry_space_group_name_H-M   'P 1'
_cell_length_a   15.35050903
_cell_length_b   15.35050903
_cell_length_c   15.35050903
_cell_angle_alpha   118.76774764
_cell_angle_beta   118.76774764
_cell_angle_gamma   118.76774764
_symmetry_Int_Tables_number   1
_chemical_formula_structural   Sb(S8I)3
_chemical_formula_sum   'Sb1 S24 I3'
_cell_volume   1037.27965524
_cell_formula_units_Z   1
loop_
 _symmetry_equiv_pos_site_id
 _symmetry_equiv_pos_as_xyz
  1  'x, y, z'
loop_
 _atom_site_type_symbol
 _atom_site_label
 _atom_site_symmetry_multiplicity
 _atom_site_fract_x
 _atom_site_fract_y
 _atom_site_fract_z
 _atom_site_occupancy
  Sb  Sb0  1  0.05838211  0.05838211  0.05838211  1.0
  S  S1  1  0.69865790  0.96124381  -0.42897344  1.0
  S  S2  1  0.96124381  0.69865790  0.57102656  1.0
  S  S3  1  0.69865790  0.57102656  -0.03875619  1.0
  S  S4  1  0.57102656  -0.30134210  -0.03875619  1.0
  S  S5  1  0.57102656  -0.03875619  -0.30134210  1.0
  S  S6  1  0.96124381  0.57102656  0.69865790  1.0
  S  S7  1  0.86086250  1.21051259  -0.31965897  1.0
  S  S8  1  1.21051259  0.86086250  0.68034103  1.0
  S  S9  1  0.86086250  0.68034103  0.21051259  1.0
  S  S10  1  0.68034103  -0.13913750  0.21051259  1.0
  S  S11  1  0.68034103  0.21051259  -0.13913750  1.0
  S  S12  1  1.21051259  0.68034103  0.86086250  1.0
  S  S13  1  0.59366882  1.07703796  -0.53390004  1.0
  S  S14  1  1.07703796  0.59366882  0.46609996  1.0
  S  S15  1  0.59366882  0.46609996  0.07703796  1.0
  S  S16  1  0.46609996  0.59366882  -0.92296204  1.0
  S  S17  1  0.46609996  0.07703796  -0.40633118  1.0
  S  S18  1  1.07703796  0.46609996  0.59366882  1.0
  S  S19  1  0.69711603  0.69711603  0.29302380  1.0
  S  S20  1  0.69711603  1.29302380  -0.30288397  1.0
  S  S21  1  1.29302380  0.69711603  0.69711603  1.0
  S  S22  1  0.84589295  0.84589295  0.12987687  1.0
  S  S23  1  0.84589295  1.12987687  -0.15410705  1.0
  S  S24  1  1.12987687  0.84589295  0.84589295  1.0
  I  I25  1  0.37139291  0.37139291  0.21211118  1.0
  I  I26  1  0.37139291  1.21211118  -0.62860709  1.0
  I  I27  1  1.21211118  0.37139291  0.37139291  1.0
