# generated using pymatgen
data_YGePt
_symmetry_space_group_name_H-M   'P 1'
_cell_length_a   7.04189141
_cell_length_b   4.37383641
_cell_length_c   7.63828129
_cell_angle_alpha   90.00000000
_cell_angle_beta   90.00000000
_cell_angle_gamma   90.00000000
_symmetry_Int_Tables_number   1
_chemical_formula_structural   YGePt
_chemical_formula_sum   'Y4 Ge4 Pt4'
_cell_volume   235.25968280
_cell_formula_units_Z   4
loop_
 _symmetry_equiv_pos_site_id
 _symmetry_equiv_pos_as_xyz
  1  'x, y, z'
loop_
 _atom_site_type_symbol
 _atom_site_label
 _atom_site_symmetry_multiplicity
 _atom_site_fract_x
 _atom_site_fract_y
 _atom_site_fract_z
 _atom_site_occupancy
  Y  Y0  1  1.00245116  0.75000000  0.70374273  1.0
  Y  Y1  1  0.50245116  0.75000000  0.79625727  1.0
  Y  Y2  1  -0.00245116  0.25000000  0.29625727  1.0
  Y  Y3  1  0.49754884  0.25000000  0.20374273  1.0
  Ge  Ge4  1  0.69006847  0.75000000  0.41094739  1.0
  Ge  Ge5  1  0.19006847  0.75000000  0.08905261  1.0
  Ge  Ge6  1  0.30993153  0.25000000  0.58905261  1.0
  Ge  Ge7  1  0.80993153  0.25000000  0.91094739  1.0
  Pt  Pt8  1  0.79598952  0.75000000  0.08395358  1.0
  Pt  Pt9  1  0.29598952  0.75000000  0.41604642  1.0
  Pt  Pt10  1  0.20401048  0.25000000  0.91604642  1.0
  Pt  Pt11  1  0.70401048  0.25000000  0.58395358  1.0
