# generated using pymatgen
data_Y4Mg3Ag10
_symmetry_space_group_name_H-M   'P 1'
_cell_length_a   8.56952298
_cell_length_b   8.56952298
_cell_length_c   10.22237828
_cell_angle_alpha   90.00000000
_cell_angle_beta   90.00000000
_cell_angle_gamma   72.43450713
_symmetry_Int_Tables_number   1
_chemical_formula_structural   Y4Mg3Ag10
_chemical_formula_sum   'Y8 Mg6 Ag20'
_cell_volume   715.69488011
_cell_formula_units_Z   2
loop_
 _symmetry_equiv_pos_site_id
 _symmetry_equiv_pos_as_xyz
  1  'x, y, z'
loop_
 _atom_site_type_symbol
 _atom_site_label
 _atom_site_symmetry_multiplicity
 _atom_site_fract_x
 _atom_site_fract_y
 _atom_site_fract_z
 _atom_site_occupancy
  Y  Y0  1  -0.19534890  1.19534890  0.29855837  1.0
  Y  Y1  1  0.30465110  0.69534890  0.20144163  1.0
  Y  Y2  1  0.19534890  0.80465110  0.70144163  1.0
  Y  Y3  1  -0.30465110  1.30465110  0.79855837  1.0
  Y  Y4  1  0.19830920  1.19830920  0.50000000  1.0
  Y  Y5  1  -0.30169080  0.69830920  0.00000000  1.0
  Y  Y6  1  -0.19830920  0.80169080  0.50000000  1.0
  Y  Y7  1  0.30169080  1.30169080  0.00000000  1.0
  Mg  Mg8  1  -0.48085538  0.98085538  0.25000000  1.0
  Mg  Mg9  1  0.01914462  1.48085538  0.25000000  1.0
  Mg  Mg10  1  -0.01914462  0.51914462  0.75000000  1.0
  Mg  Mg11  1  0.48085538  1.01914462  0.75000000  1.0
  Mg  Mg12  1  -0.50000000  0.50000000  0.50000000  1.0
  Mg  Mg13  1  0.00000000  1.00000000  0.00000000  1.0
  Ag  Ag14  1  0.38764642  1.33099391  0.29392253  1.0
  Ag  Ag15  1  -0.11235358  0.83099391  0.20607747  1.0
  Ag  Ag16  1  0.33099391  1.38764642  0.70607747  1.0
  Ag  Ag17  1  -0.16900609  0.88764642  0.79392253  1.0
  Ag  Ag18  1  -0.33099391  0.61235358  0.29392253  1.0
  Ag  Ag19  1  0.16900609  1.11235358  0.20607747  1.0
  Ag  Ag20  1  -0.38764642  0.66900609  0.70607747  1.0
  Ag  Ag21  1  0.11235358  1.16900609  0.79392253  1.0
  Ag  Ag22  1  0.43371911  0.84644344  0.48019929  1.0
  Ag  Ag23  1  -0.06628089  1.34644344  0.01980071  1.0
  Ag  Ag24  1  -0.15355656  1.43371911  0.51980071  1.0
  Ag  Ag25  1  0.34644344  0.93371911  0.98019929  1.0
  Ag  Ag26  1  0.15355656  0.56628089  0.48019929  1.0
  Ag  Ag27  1  -0.34644344  1.06628089  0.01980071  1.0
  Ag  Ag28  1  -0.43371911  1.15355656  0.51980071  1.0
  Ag  Ag29  1  0.06628089  0.65355656  0.98019929  1.0
  Ag  Ag30  1  -0.40206759  1.40206759  0.09667887  1.0
  Ag  Ag31  1  0.09793241  0.90206759  0.40332113  1.0
  Ag  Ag32  1  0.40206759  0.59793241  0.90332113  1.0
  Ag  Ag33  1  -0.09793241  1.09793241  0.59667887  1.0
