# generated using pymatgen
data_V3O5
_symmetry_space_group_name_H-M   'P 1'
_cell_length_a   5.61943073
_cell_length_b   5.61943073
_cell_length_c   7.08067624
_cell_angle_alpha   70.23642041
_cell_angle_beta   109.76357959
_cell_angle_gamma   127.41968309
_symmetry_Int_Tables_number   1
_chemical_formula_structural   V3O5
_chemical_formula_sum   'V6 O10'
_cell_volume   164.46542010
_cell_formula_units_Z   2
loop_
 _symmetry_equiv_pos_site_id
 _symmetry_equiv_pos_as_xyz
  1  'x, y, z'
loop_
 _atom_site_type_symbol
 _atom_site_label
 _atom_site_symmetry_multiplicity
 _atom_site_fract_x
 _atom_site_fract_y
 _atom_site_fract_z
 _atom_site_occupancy
  V  V0  1  0.36458987  -0.37786189  0.28101898  1.0
  V  V1  1  1.37786189  0.63541013  0.78101898  1.0
  V  V2  1  0.62213811  0.36458987  0.21898102  1.0
  V  V3  1  0.63541013  0.37786189  0.71898102  1.0
  V  V4  1  0.00000000  -0.00000000  0.50000000  1.0
  V  V5  1  0.00000000  0.00000000  0.00000000  1.0
  O  O6  1  0.34327830  -0.04242008  0.16307457  1.0
  O  O7  1  1.04242008  0.65672170  0.66307457  1.0
  O  O8  1  0.95757992  0.34327830  0.33692543  1.0
  O  O9  1  0.65672170  0.04242008  0.83692543  1.0
  O  O10  1  0.42446671  0.26047905  0.44508699  1.0
  O  O11  1  0.73952095  0.57553329  0.94508699  1.0
  O  O12  1  1.26047905  0.42446671  0.05491301  1.0
  O  O13  1  0.57553329  -0.26047905  0.55491301  1.0
  O  O14  1  0.80579372  0.80579372  0.25000000  1.0
  O  O15  1  0.19420628  0.19420628  0.75000000  1.0
