# generated using pymatgen
data_GdNb5Ag2O15
_symmetry_space_group_name_H-M   'P 1'
_cell_length_a   12.65463497
_cell_length_b   12.65463497
_cell_length_c   3.90196867
_cell_angle_alpha   90.00000000
_cell_angle_beta   90.00000000
_cell_angle_gamma   90.00000000
_symmetry_Int_Tables_number   1
_chemical_formula_structural   GdNb5Ag2O15
_chemical_formula_sum   'Gd2 Nb10 Ag4 O30'
_cell_volume   624.86042803
_cell_formula_units_Z   2
loop_
 _symmetry_equiv_pos_site_id
 _symmetry_equiv_pos_as_xyz
  1  'x, y, z'
loop_
 _atom_site_type_symbol
 _atom_site_label
 _atom_site_symmetry_multiplicity
 _atom_site_fract_x
 _atom_site_fract_y
 _atom_site_fract_z
 _atom_site_occupancy
  Gd  Gd0  1  0.50000000  0.50000000  0.50000000  1.0
  Gd  Gd1  1  0.00000000  0.00000000  0.50000000  1.0
  Nb  Nb2  1  0.42378397  0.71240084  0.00000000  1.0
  Nb  Nb3  1  0.92378397  0.78759916  0.00000000  1.0
  Nb  Nb4  1  0.28759916  0.42378397  0.00000000  1.0
  Nb  Nb5  1  0.78759916  0.07621603  0.00000000  1.0
  Nb  Nb6  1  0.57621603  0.28759916  0.00000000  1.0
  Nb  Nb7  1  0.07621603  0.21240084  0.00000000  1.0
  Nb  Nb8  1  0.71240084  0.57621603  0.00000000  1.0
  Nb  Nb9  1  0.21240084  0.92378397  0.00000000  1.0
  Nb  Nb10  1  0.50000000  0.00000000  0.00000000  1.0
  Nb  Nb11  1  0.00000000  0.50000000  0.00000000  1.0
  Ag  Ag12  1  0.31424475  0.18575525  0.50000000  1.0
  Ag  Ag13  1  0.81424475  0.31424475  0.50000000  1.0
  Ag  Ag14  1  0.68575525  0.81424475  0.50000000  1.0
  Ag  Ag15  1  0.18575525  0.68575525  0.50000000  1.0
  O  O16  1  0.41573435  0.68738802  0.50000000  1.0
  O  O17  1  0.91573435  0.81261198  0.50000000  1.0
  O  O18  1  0.31261198  0.41573435  0.50000000  1.0
  O  O19  1  0.81261198  0.08426565  0.50000000  1.0
  O  O20  1  0.58426565  0.31261198  0.50000000  1.0
  O  O21  1  0.08426565  0.18738802  0.50000000  1.0
  O  O22  1  0.68738802  0.58426565  0.50000000  1.0
  O  O23  1  0.18738802  0.91573435  0.50000000  1.0
  O  O24  1  0.49894992  0.84173906  0.00000000  1.0
  O  O25  1  -0.00105008  0.65826094  0.00000000  1.0
  O  O26  1  0.15826094  0.49894992  0.00000000  1.0
  O  O27  1  0.65826094  0.00105008  0.00000000  1.0
  O  O28  1  0.50105008  0.15826094  0.00000000  1.0
  O  O29  1  0.00105008  0.34173906  0.00000000  1.0
  O  O30  1  0.84173906  0.50105008  0.00000000  1.0
  O  O31  1  0.34173906  -0.00105008  0.00000000  1.0
  O  O32  1  0.36830011  0.55496606  0.00000000  1.0
  O  O33  1  0.86830011  0.94503394  0.00000000  1.0
  O  O34  1  0.44503394  0.36830011  0.00000000  1.0
  O  O35  1  0.94503394  0.13169989  0.00000000  1.0
  O  O36  1  0.63169989  0.44503394  0.00000000  1.0
  O  O37  1  0.13169989  0.05496606  0.00000000  1.0
  O  O38  1  0.55496606  0.63169989  0.00000000  1.0
  O  O39  1  0.05496606  0.86830011  0.00000000  1.0
  O  O40  1  0.77596523  0.72403477  0.00000000  1.0
  O  O41  1  0.27596523  0.77596523  0.00000000  1.0
  O  O42  1  0.22403477  0.27596523  0.00000000  1.0
  O  O43  1  0.72403477  0.22403477  0.00000000  1.0
  O  O44  1  0.50000000  0.00000000  0.50000000  1.0
  O  O45  1  0.00000000  0.50000000  0.50000000  1.0
