# generated using pymatgen
data_Rb3Mn2Br7
_symmetry_space_group_name_H-M   'P 1'
_cell_length_a   14.44158729
_cell_length_b   14.44158729
_cell_length_c   14.44158729
_cell_angle_alpha   158.42013346
_cell_angle_beta   158.42013346
_cell_angle_gamma   30.70456729
_symmetry_Int_Tables_number   1
_chemical_formula_structural   Rb3Mn2Br7
_chemical_formula_sum   'Rb3 Mn2 Br7'
_cell_volume   407.17061870
_cell_formula_units_Z   1
loop_
 _symmetry_equiv_pos_site_id
 _symmetry_equiv_pos_as_xyz
  1  'x, y, z'
loop_
 _atom_site_type_symbol
 _atom_site_label
 _atom_site_symmetry_multiplicity
 _atom_site_fract_x
 _atom_site_fract_y
 _atom_site_fract_z
 _atom_site_occupancy
  Rb  Rb0  1  0.68049900  0.68049900  1.00000000  1.0
  Rb  Rb1  1  0.31950100  0.31950100  -0.00000000  1.0
  Rb  Rb2  1  0.50000000  0.50000000  1.00000000  1.0
  Mn  Mn3  1  0.90082349  0.90082349  1.00000000  1.0
  Mn  Mn4  1  0.09917651  0.09917651  -0.00000000  1.0
  Br  Br5  1  0.40478267  0.90478267  0.50000000  1.0
  Br  Br6  1  0.59521733  0.09521733  0.50000000  1.0
  Br  Br7  1  0.90478267  0.40478267  0.50000000  1.0
  Br  Br8  1  0.09521733  0.59521733  0.50000000  1.0
  Br  Br9  1  0.80631051  0.80631051  1.00000000  1.0
  Br  Br10  1  0.19368949  0.19368949  0.00000000  1.0
  Br  Br11  1  -0.00000000  -0.00000000  -0.00000000  1.0
