# generated using pymatgen
data_Sc3CoC4
_symmetry_space_group_name_H-M   'P 1'
_cell_length_a   6.59217410
_cell_length_b   6.59217410
_cell_length_c   6.59217410
_cell_angle_alpha   149.78144178
_cell_angle_beta   141.64223320
_cell_angle_gamma   49.58923846
_symmetry_Int_Tables_number   1
_chemical_formula_structural   Sc3CoC4
_chemical_formula_sum   'Sc3 Co1 C4'
_cell_volume   89.07995719
_cell_formula_units_Z   1
loop_
 _symmetry_equiv_pos_site_id
 _symmetry_equiv_pos_as_xyz
  1  'x, y, z'
loop_
 _atom_site_type_symbol
 _atom_site_label
 _atom_site_symmetry_multiplicity
 _atom_site_fract_x
 _atom_site_fract_y
 _atom_site_fract_z
 _atom_site_occupancy
  Sc  Sc0  1  0.81189505  0.31189505  0.50000000  1.0
  Sc  Sc1  1  0.18810495  0.68810495  0.50000000  1.0
  Sc  Sc2  1  0.50000000  0.50000000  1.00000000  1.0
  Co  Co3  1  0.00000000  0.00000000  0.00000000  1.0
  C  C4  1  0.54436121  0.87685789  0.66750332  1.0
  C  C5  1  0.79064542  0.12314211  0.66750332  1.0
  C  C6  1  1.20935458  0.87685789  1.33249668  1.0
  C  C7  1  0.45563879  0.12314211  0.33249668  1.0
