# generated using pymatgen
data_ZrAl
_symmetry_space_group_name_H-M   'P 1'
_cell_length_a   5.71518205
_cell_length_b   5.71518205
_cell_length_c   4.28932258
_cell_angle_alpha   90.00000000
_cell_angle_beta   90.00000000
_cell_angle_gamma   145.71775161
_symmetry_Int_Tables_number   1
_chemical_formula_structural   ZrAl
_chemical_formula_sum   'Zr2 Al2'
_cell_volume   78.91608402
_cell_formula_units_Z   2
loop_
 _symmetry_equiv_pos_site_id
 _symmetry_equiv_pos_as_xyz
  1  'x, y, z'
loop_
 _atom_site_type_symbol
 _atom_site_label
 _atom_site_symmetry_multiplicity
 _atom_site_fract_x
 _atom_site_fract_y
 _atom_site_fract_z
 _atom_site_occupancy
  Zr  Zr0  1  -0.65981702  0.65981702  0.25000000  1.0
  Zr  Zr1  1  -0.34018298  1.34018298  0.75000000  1.0
  Al  Al2  1  -0.92843884  0.92843884  0.25000000  1.0
  Al  Al3  1  -0.07156116  1.07156116  0.75000000  1.0
