# generated using pymatgen
data_Li2NbO3
_symmetry_space_group_name_H-M   'P 1'
_cell_length_a   5.85310083
_cell_length_b   5.85310083
_cell_length_c   5.85310083
_cell_angle_alpha   51.48319112
_cell_angle_beta   51.48319112
_cell_angle_gamma   51.48319112
_symmetry_Int_Tables_number   1
_chemical_formula_structural   Li2NbO3
_chemical_formula_sum   'Li4 Nb2 O6'
_cell_volume   113.35726171
_cell_formula_units_Z   2
loop_
 _symmetry_equiv_pos_site_id
 _symmetry_equiv_pos_as_xyz
  1  'x, y, z'
loop_
 _atom_site_type_symbol
 _atom_site_label
 _atom_site_symmetry_multiplicity
 _atom_site_fract_x
 _atom_site_fract_y
 _atom_site_fract_z
 _atom_site_occupancy
  Li  Li0  1  0.32494351  0.32494351  0.32494351  1.0
  Li  Li1  1  0.17505649  0.17505649  0.17505649  1.0
  Li  Li2  1  0.67505649  -0.32494351  -0.32494351  1.0
  Li  Li3  1  0.82494351  -0.17505649  -0.17505649  1.0
  Nb  Nb4  1  -0.00000000  0.00000000  0.00000000  1.0
  Nb  Nb5  1  0.50000000  0.50000000  -0.50000000  1.0
  O  O6  1  0.10900043  0.39099957  -0.25000000  1.0
  O  O7  1  0.75000000  0.10900043  -0.60900043  1.0
  O  O8  1  0.39099957  0.75000000  -0.89099957  1.0
  O  O9  1  0.89099957  -0.39099957  0.25000000  1.0
  O  O10  1  0.25000000  0.89099957  -0.39099957  1.0
  O  O11  1  0.60900043  0.25000000  -0.10900043  1.0
