# generated using pymatgen
data_NaAlPO4F
_symmetry_space_group_name_H-M   'P 1'
_cell_length_a   5.29113593
_cell_length_b   5.29113593
_cell_length_c   7.00682959
_cell_angle_alpha   74.49308857
_cell_angle_beta   105.50691143
_cell_angle_gamma   76.12306800
_symmetry_Int_Tables_number   1
_chemical_formula_structural   NaAlPO4F
_chemical_formula_sum   'Na2 Al2 P2 O8 F2'
_cell_volume   171.59978171
_cell_formula_units_Z   2
loop_
 _symmetry_equiv_pos_site_id
 _symmetry_equiv_pos_as_xyz
  1  'x, y, z'
loop_
 _atom_site_type_symbol
 _atom_site_label
 _atom_site_symmetry_multiplicity
 _atom_site_fract_x
 _atom_site_fract_y
 _atom_site_fract_z
 _atom_site_occupancy
  Na  Na0  1  0.66796425  -0.33203575  0.25000000  1.0
  Na  Na1  1  1.33203575  0.33203575  0.75000000  1.0
  Al  Al2  1  -0.00000000  0.00000000  0.50000000  1.0
  Al  Al3  1  0.00000000  0.00000000  0.00000000  1.0
  P  P4  1  1.31672540  0.31672540  0.25000000  1.0
  P  P5  1  0.68327460  -0.31672540  0.75000000  1.0
  O  O6  1  1.62197866  0.23787356  0.39984087  1.0
  O  O7  1  0.76212644  -0.62197866  0.89984087  1.0
  O  O8  1  1.23787356  0.62197866  0.10015913  1.0
  O  O9  1  0.37802134  -0.23787356  0.60015913  1.0
  O  O10  1  1.30165967  0.11689755  0.12085946  1.0
  O  O11  1  0.88310245  -0.30165967  0.62085946  1.0
  O  O12  1  1.11689755  0.30165967  0.37914054  1.0
  O  O13  1  0.69834033  -0.11689755  0.87914054  1.0
  F  F14  1  0.93082410  -0.06917590  0.25000000  1.0
  F  F15  1  1.06917590  0.06917590  0.75000000  1.0
