# generated using pymatgen
data_Gd2Al2Co15
_symmetry_space_group_name_H-M   'P 1'
_cell_length_a   6.31733891
_cell_length_b   6.31733891
_cell_length_c   6.31733891
_cell_angle_alpha   82.75234834
_cell_angle_beta   82.75234834
_cell_angle_gamma   82.75234834
_symmetry_Int_Tables_number   1
_chemical_formula_structural   Gd2Al2Co15
_chemical_formula_sum   'Gd2 Al2 Co15'
_cell_volume   246.54282165
_cell_formula_units_Z   1
loop_
 _symmetry_equiv_pos_site_id
 _symmetry_equiv_pos_as_xyz
  1  'x, y, z'
loop_
 _atom_site_type_symbol
 _atom_site_label
 _atom_site_symmetry_multiplicity
 _atom_site_fract_x
 _atom_site_fract_y
 _atom_site_fract_z
 _atom_site_occupancy
  Gd  Gd0  1  0.64767331  0.64767331  -0.35232669  1.0
  Gd  Gd1  1  1.35232669  1.35232669  0.35232669  1.0
  Al  Al2  1  0.89404004  0.89404004  -0.10595996  1.0
  Al  Al3  1  1.10595996  1.10595996  0.10595996  1.0
  Co  Co4  1  1.00000000  1.50000000  -0.00000000  1.0
  Co  Co5  1  1.00000000  -0.00000000  -0.50000000  1.0
  Co  Co6  1  0.50000000  -0.00000000  -0.00000000  1.0
  Co  Co7  1  0.34985183  0.34985183  -0.14913177  1.0
  Co  Co8  1  0.34985183  0.85086823  -0.65014817  1.0
  Co  Co9  1  0.14913177  0.65014817  -0.34985183  1.0
  Co  Co10  1  0.65014817  0.14913177  -0.34985183  1.0
  Co  Co11  1  0.65014817  -0.34985183  0.14913177  1.0
  Co  Co12  1  0.85086823  0.34985183  -0.65014817  1.0
  Co  Co13  1  0.71420915  0.00000000  0.28579085  1.0
  Co  Co14  1  0.71420915  -0.71420915  -0.00000000  1.0
  Co  Co15  1  0.00000000  0.71420915  -0.71420915  1.0
  Co  Co16  1  -0.00000000  0.28579085  -0.28579085  1.0
  Co  Co17  1  1.28579085  -0.00000000  -0.28579085  1.0
  Co  Co18  1  0.28579085  -0.28579085  -0.00000000  1.0
