# generated using pymatgen
data_Na4VHO5
_symmetry_space_group_name_H-M   'P 1'
_cell_length_a   9.10842302
_cell_length_b   7.52365159
_cell_length_c   8.38613443
_cell_angle_alpha   90.00000000
_cell_angle_beta   90.00000000
_cell_angle_gamma   90.00000000
_symmetry_Int_Tables_number   1
_chemical_formula_structural   Na4VHO5
_chemical_formula_sum   'Na16 V4 H4 O20'
_cell_volume   574.69006334
_cell_formula_units_Z   4
loop_
 _symmetry_equiv_pos_site_id
 _symmetry_equiv_pos_as_xyz
  1  'x, y, z'
loop_
 _atom_site_type_symbol
 _atom_site_label
 _atom_site_symmetry_multiplicity
 _atom_site_fract_x
 _atom_site_fract_y
 _atom_site_fract_z
 _atom_site_occupancy
  Na  Na0  1  0.37171963  0.48813497  0.84777945  1.0
  Na  Na1  1  0.37171963  0.01186503  0.84777945  1.0
  Na  Na2  1  0.87171963  0.48813497  0.65222055  1.0
  Na  Na3  1  0.87171963  0.01186503  0.65222055  1.0
  Na  Na4  1  0.62828037  0.98813497  0.15222055  1.0
  Na  Na5  1  0.62828037  0.51186503  0.15222055  1.0
  Na  Na6  1  0.12828037  0.98813497  0.34777945  1.0
  Na  Na7  1  0.12828037  0.51186503  0.34777945  1.0
  Na  Na8  1  0.37244817  0.75000000  0.24165088  1.0
  Na  Na9  1  0.87244817  0.75000000  0.25834912  1.0
  Na  Na10  1  0.62755183  0.25000000  0.75834912  1.0
  Na  Na11  1  0.12755183  0.25000000  0.74165088  1.0
  Na  Na12  1  0.50000000  0.00000000  0.50000000  1.0
  Na  Na13  1  0.50000000  0.50000000  0.50000000  1.0
  Na  Na14  1  0.00000000  0.00000000  0.00000000  1.0
  Na  Na15  1  0.00000000  0.50000000  0.00000000  1.0
  V  V16  1  0.13725138  0.75000000  0.64899718  1.0
  V  V17  1  0.63725138  0.75000000  0.85100282  1.0
  V  V18  1  0.86274862  0.25000000  0.35100282  1.0
  V  V19  1  0.36274862  0.25000000  0.14899718  1.0
  H  H20  1  0.16678523  0.75000000  0.05281140  1.0
  H  H21  1  0.66678523  0.75000000  0.44718860  1.0
  H  H22  1  0.83321477  0.25000000  0.94718860  1.0
  H  H23  1  0.33321477  0.25000000  0.55281140  1.0
  O  O24  1  0.12993829  0.93856307  0.76609609  1.0
  O  O25  1  0.12993829  0.56143693  0.76609609  1.0
  O  O26  1  0.62993829  0.93856307  0.73390391  1.0
  O  O27  1  0.62993829  0.56143693  0.73390391  1.0
  O  O28  1  0.87006171  0.43856307  0.23390391  1.0
  O  O29  1  0.87006171  0.06143693  0.23390391  1.0
  O  O30  1  0.37006171  0.43856307  0.26609609  1.0
  O  O31  1  0.37006171  0.06143693  0.26609609  1.0
  O  O32  1  0.48579371  0.75000000  0.97730204  1.0
  O  O33  1  0.98579371  0.75000000  0.52269796  1.0
  O  O34  1  0.51420629  0.25000000  0.02269796  1.0
  O  O35  1  0.01420629  0.25000000  0.47730204  1.0
  O  O36  1  0.29200201  0.75000000  0.53261964  1.0
  O  O37  1  0.79200201  0.75000000  0.96738036  1.0
  O  O38  1  0.70799799  0.25000000  0.46738036  1.0
  O  O39  1  0.20799799  0.25000000  0.03261964  1.0
  O  O40  1  0.11778493  0.75000000  0.15583348  1.0
  O  O41  1  0.61778493  0.75000000  0.34416652  1.0
  O  O42  1  0.88221507  0.25000000  0.84416652  1.0
  O  O43  1  0.38221507  0.25000000  0.65583348  1.0
