# generated using pymatgen
data_CoTe2
_symmetry_space_group_name_H-M   'P 1'
_cell_length_a   5.35579527
_cell_length_b   6.33827785
_cell_length_c   3.93848672
_cell_angle_alpha   90.00000000
_cell_angle_beta   90.00000000
_cell_angle_gamma   90.00000000
_symmetry_Int_Tables_number   1
_chemical_formula_structural   CoTe2
_chemical_formula_sum   'Co2 Te4'
_cell_volume   133.69791233
_cell_formula_units_Z   2
loop_
 _symmetry_equiv_pos_site_id
 _symmetry_equiv_pos_as_xyz
  1  'x, y, z'
loop_
 _atom_site_type_symbol
 _atom_site_label
 _atom_site_symmetry_multiplicity
 _atom_site_fract_x
 _atom_site_fract_y
 _atom_site_fract_z
 _atom_site_occupancy
  Co  Co0  1  0.50000000  0.50000000  0.50000000  1.0
  Co  Co1  1  0.00000000  0.00000000  0.00000000  1.0
  Te  Te2  1  0.27276141  0.86169248  0.50000000  1.0
  Te  Te3  1  0.77276141  0.63830752  0.00000000  1.0
  Te  Te4  1  0.72723859  0.13830752  0.50000000  1.0
  Te  Te5  1  0.22723859  0.36169248  0.00000000  1.0
