# generated using pymatgen
data_Zr(PS3)2
_symmetry_space_group_name_H-M   'P 1'
_cell_length_a   6.91366557
_cell_length_b   6.91366557
_cell_length_c   9.51732140
_cell_angle_alpha   90.00000000
_cell_angle_beta   90.00000000
_cell_angle_gamma   90.00000000
_symmetry_Int_Tables_number   1
_chemical_formula_structural   Zr(PS3)2
_chemical_formula_sum   'Zr2 P4 S12'
_cell_volume   454.91627176
_cell_formula_units_Z   2
loop_
 _symmetry_equiv_pos_site_id
 _symmetry_equiv_pos_as_xyz
  1  'x, y, z'
loop_
 _atom_site_type_symbol
 _atom_site_label
 _atom_site_symmetry_multiplicity
 _atom_site_fract_x
 _atom_site_fract_y
 _atom_site_fract_z
 _atom_site_occupancy
  Zr  Zr0  1  0.00000000  0.00000000  0.75000000  1.0
  Zr  Zr1  1  0.00000000  0.00000000  0.25000000  1.0
  P  P2  1  0.94541870  0.34290436  0.00000000  1.0
  P  P3  1  0.34290436  0.05458130  0.50000000  1.0
  P  P4  1  0.05458130  0.65709564  0.00000000  1.0
  P  P5  1  0.65709564  0.94541870  0.50000000  1.0
  S  S6  1  0.69533341  0.79701486  0.68174222  1.0
  S  S7  1  0.69533341  0.79701486  0.31825778  1.0
  S  S8  1  0.79701486  0.30466659  0.18174222  1.0
  S  S9  1  0.79701486  0.30466659  0.81825778  1.0
  S  S10  1  0.30466659  0.20298514  0.68174222  1.0
  S  S11  1  0.30466659  0.20298514  0.31825778  1.0
  S  S12  1  0.20298514  0.69533341  0.18174222  1.0
  S  S13  1  0.20298514  0.69533341  0.81825778  1.0
  S  S14  1  0.82261514  0.84247790  0.00000000  1.0
  S  S15  1  0.84247790  0.17738486  0.50000000  1.0
  S  S16  1  0.17738486  0.15752210  0.00000000  1.0
  S  S17  1  0.15752210  0.82261514  0.50000000  1.0
