# generated using pymatgen
data_Rb2Te2Pt
_symmetry_space_group_name_H-M   'P 1'
_cell_length_a   7.12543273
_cell_length_b   7.12543273
_cell_length_c   7.12543273
_cell_angle_alpha   146.73860440
_cell_angle_beta   109.65654284
_cell_angle_gamma   80.06340994
_symmetry_Int_Tables_number   1
_chemical_formula_structural   Rb2Te2Pt
_chemical_formula_sum   'Rb2 Te2 Pt1'
_cell_volume   182.66806482
_cell_formula_units_Z   1
loop_
 _symmetry_equiv_pos_site_id
 _symmetry_equiv_pos_as_xyz
  1  'x, y, z'
loop_
 _atom_site_type_symbol
 _atom_site_label
 _atom_site_symmetry_multiplicity
 _atom_site_fract_x
 _atom_site_fract_y
 _atom_site_fract_z
 _atom_site_occupancy
  Rb  Rb0  1  0.70381622  0.20381622  0.50000000  1.0
  Rb  Rb1  1  1.29618378  0.79618378  0.50000000  1.0
  Te  Te2  1  0.21350613  0.50000000  0.71350613  1.0
  Te  Te3  1  0.78649387  0.50000000  1.28649387  1.0
  Pt  Pt4  1  0.00000000  0.00000000  0.00000000  1.0
