# generated using pymatgen
data_KCaF3
_symmetry_space_group_name_H-M   'P 1'
_cell_length_a   6.30808128
_cell_length_b   8.82703065
_cell_length_c   6.20579180
_cell_angle_alpha   90.00000000
_cell_angle_beta   90.00000000
_cell_angle_gamma   90.00000000
_symmetry_Int_Tables_number   1
_chemical_formula_structural   KCaF3
_chemical_formula_sum   'K4 Ca4 F12'
_cell_volume   345.54858286
_cell_formula_units_Z   4
loop_
 _symmetry_equiv_pos_site_id
 _symmetry_equiv_pos_as_xyz
  1  'x, y, z'
loop_
 _atom_site_type_symbol
 _atom_site_label
 _atom_site_symmetry_multiplicity
 _atom_site_fract_x
 _atom_site_fract_y
 _atom_site_fract_z
 _atom_site_occupancy
  K  K0  1  0.03839259  0.75000000  0.50939255  1.0
  K  K1  1  0.53839259  0.75000000  0.99060745  1.0
  K  K2  1  0.96160741  0.25000000  0.49060745  1.0
  K  K3  1  0.46160741  0.25000000  0.00939255  1.0
  Ca  Ca4  1  0.50000000  0.00000000  0.50000000  1.0
  Ca  Ca5  1  0.50000000  0.50000000  0.50000000  1.0
  Ca  Ca6  1  0.00000000  0.00000000  0.00000000  1.0
  Ca  Ca7  1  0.00000000  0.50000000  0.00000000  1.0
  F  F8  1  0.28889667  0.95732954  0.79027867  1.0
  F  F9  1  0.28889667  0.54267046  0.79027867  1.0
  F  F10  1  0.78889667  0.95732954  0.70972133  1.0
  F  F11  1  0.78889667  0.54267046  0.70972133  1.0
  F  F12  1  0.71110333  0.45732954  0.20972133  1.0
  F  F13  1  0.71110333  0.04267046  0.20972133  1.0
  F  F14  1  0.21110333  0.45732954  0.29027867  1.0
  F  F15  1  0.21110333  0.04267046  0.29027867  1.0
  F  F16  1  0.97291041  0.75000000  0.08055231  1.0
  F  F17  1  0.47291041  0.75000000  0.41944769  1.0
  F  F18  1  0.02708959  0.25000000  0.91944769  1.0
  F  F19  1  0.52708959  0.25000000  0.58055231  1.0
