# generated using pymatgen
data_KH6C2S2NO4
_symmetry_space_group_name_H-M   'P 1'
_cell_length_a   7.82337931
_cell_length_b   8.77397543
_cell_length_c   12.09218771
_cell_angle_alpha   90.00000000
_cell_angle_beta   107.27944124
_cell_angle_gamma   90.00000000
_symmetry_Int_Tables_number   1
_chemical_formula_structural   KH6C2S2NO4
_chemical_formula_sum   'K4 H24 C8 S8 N4 O16'
_cell_volume   792.57207469
_cell_formula_units_Z   4
loop_
 _symmetry_equiv_pos_site_id
 _symmetry_equiv_pos_as_xyz
  1  'x, y, z'
loop_
 _atom_site_type_symbol
 _atom_site_label
 _atom_site_symmetry_multiplicity
 _atom_site_fract_x
 _atom_site_fract_y
 _atom_site_fract_z
 _atom_site_occupancy
  K  K0  1  0.42949752  0.97577655  0.21215687  1.0
  K  K1  1  0.57050248  0.47577655  0.28784313  1.0
  K  K2  1  0.57050248  0.02422345  0.78784313  1.0
  K  K3  1  0.42949752  0.52422345  0.71215687  1.0
  H  H4  1  0.26310065  0.51918474  0.97429119  1.0
  H  H5  1  0.73689935  0.01918474  0.52570881  1.0
  H  H6  1  0.73689935  0.48081526  0.02570881  1.0
  H  H7  1  0.26310065  0.98081526  0.47429119  1.0
  H  H8  1  0.08516852  0.39701622  0.89174237  1.0
  H  H9  1  0.91483148  0.89701622  0.60825763  1.0
  H  H10  1  0.91483148  0.60298378  0.10825763  1.0
  H  H11  1  0.08516852  0.10298378  0.39174237  1.0
  H  H12  1  0.14676855  0.39863033  0.04812022  1.0
  H  H13  1  0.85323145  0.89863033  0.45187978  1.0
  H  H14  1  0.85323145  0.60136967  0.95187978  1.0
  H  H15  1  0.14676855  0.10136967  0.54812022  1.0
  H  H16  1  0.24351239  0.79089052  0.91420739  1.0
  H  H17  1  0.75648761  0.29089052  0.58579261  1.0
  H  H18  1  0.75648761  0.20910948  0.08579261  1.0
  H  H19  1  0.24351239  0.70910948  0.41420739  1.0
  H  H20  1  0.07017719  0.84350905  0.97896891  1.0
  H  H21  1  0.92982281  0.34350905  0.52103109  1.0
  H  H22  1  0.92982281  0.15649095  0.02103109  1.0
  H  H23  1  0.07017719  0.65649095  0.47896891  1.0
  H  H24  1  0.01292902  0.78555707  0.82866632  1.0
  H  H25  1  0.98707098  0.28555707  0.67133368  1.0
  H  H26  1  0.98707098  0.21444293  0.17133368  1.0
  H  H27  1  0.01292902  0.71444293  0.32866632  1.0
  C  C28  1  0.19492590  0.40957867  0.97220429  1.0
  C  C29  1  0.80507410  0.90957867  0.52779571  1.0
  C  C30  1  0.80507410  0.59042133  0.02779571  1.0
  C  C31  1  0.19492590  0.09042133  0.47220429  1.0
  C  C32  1  0.11162709  0.84304269  0.90008290  1.0
  C  C33  1  0.88837291  0.34304269  0.59991710  1.0
  C  C34  1  0.88837291  0.15695731  0.09991710  1.0
  C  C35  1  0.11162709  0.65695731  0.40008290  1.0
  S  S36  1  0.35788037  0.26463740  0.98088470  1.0
  S  S37  1  0.64211963  0.76463740  0.51911530  1.0
  S  S38  1  0.64211963  0.73536260  0.01911530  1.0
  S  S39  1  0.35788037  0.23536260  0.48088470  1.0
  S  S40  1  0.12505048  0.03408887  0.85625278  1.0
  S  S41  1  0.87494952  0.53408887  0.64374722  1.0
  S  S42  1  0.87494952  0.96591113  0.14374722  1.0
  S  S43  1  0.12505048  0.46591113  0.35625278  1.0
  N  N44  1  0.26342313  0.10208428  0.97337885  1.0
  N  N45  1  0.73657687  0.60208428  0.52662115  1.0
  N  N46  1  0.73657687  0.89791572  0.02662115  1.0
  N  N47  1  0.26342313  0.39791572  0.47337885  1.0
  O  O48  1  0.48308020  0.27285567  0.09891415  1.0
  O  O49  1  0.51691980  0.77285567  0.40108585  1.0
  O  O50  1  0.51691980  0.72714433  0.90108585  1.0
  O  O51  1  0.48308020  0.22714433  0.59891415  1.0
  O  O52  1  0.43841398  0.29358240  0.88703962  1.0
  O  O53  1  0.56158602  0.79358240  0.61296038  1.0
  O  O54  1  0.56158602  0.70641760  0.11296038  1.0
  O  O55  1  0.43841398  0.20641760  0.38703962  1.0
  O  O56  1  0.94552505  0.10256937  0.83166537  1.0
  O  O57  1  0.05447495  0.60256937  0.66833463  1.0
  O  O58  1  0.05447495  0.89743063  0.16833463  1.0
  O  O59  1  0.94552505  0.39743063  0.33166537  1.0
  O  O60  1  0.19718671  0.03434917  0.75682492  1.0
  O  O61  1  0.80281329  0.53434917  0.74317508  1.0
  O  O62  1  0.80281329  0.96565083  0.24317508  1.0
  O  O63  1  0.19718671  0.46565083  0.25682492  1.0
