# generated using pymatgen
data_KN3
_symmetry_space_group_name_H-M   'P 1'
_cell_length_a   5.66755441
_cell_length_b   5.66755441
_cell_length_c   5.66755441
_cell_angle_alpha   113.82194285
_cell_angle_beta   113.82194285
_cell_angle_gamma   101.08170682
_symmetry_Int_Tables_number   1
_chemical_formula_structural   KN3
_chemical_formula_sum   'K2 N6'
_cell_volume   137.93483668
_cell_formula_units_Z   2
loop_
 _symmetry_equiv_pos_site_id
 _symmetry_equiv_pos_as_xyz
  1  'x, y, z'
loop_
 _atom_site_type_symbol
 _atom_site_label
 _atom_site_symmetry_multiplicity
 _atom_site_fract_x
 _atom_site_fract_y
 _atom_site_fract_z
 _atom_site_occupancy
  K  K0  1  0.25000000  0.25000000  0.00000000  1.0
  K  K1  1  0.75000000  0.75000000  0.00000000  1.0
  N  N2  1  0.86471147  0.36471147  1.22942294  1.0
  N  N3  1  0.63528853  0.86471147  0.50000000  1.0
  N  N4  1  0.36471147  0.13528853  0.50000000  1.0
  N  N5  1  1.13528853  0.63528853  0.77057706  1.0
  N  N6  1  1.00000000  0.50000000  0.50000000  1.0
  N  N7  1  0.50000000  1.00000000  0.50000000  1.0
