# generated using pymatgen
data_Rb2MnO4
_symmetry_space_group_name_H-M   'P 1'
_cell_length_a   8.10389331
_cell_length_b   6.16104111
_cell_length_c   10.89413947
_cell_angle_alpha   90.00000000
_cell_angle_beta   90.00000000
_cell_angle_gamma   90.00000000
_symmetry_Int_Tables_number   1
_chemical_formula_structural   Rb2MnO4
_chemical_formula_sum   'Rb8 Mn4 O16'
_cell_volume   543.92716858
_cell_formula_units_Z   4
loop_
 _symmetry_equiv_pos_site_id
 _symmetry_equiv_pos_as_xyz
  1  'x, y, z'
loop_
 _atom_site_type_symbol
 _atom_site_label
 _atom_site_symmetry_multiplicity
 _atom_site_fract_x
 _atom_site_fract_y
 _atom_site_fract_z
 _atom_site_occupancy
  Rb  Rb0  1  0.83141076  0.75000000  0.41598576  1.0
  Rb  Rb1  1  0.33141076  0.75000000  0.08401424  1.0
  Rb  Rb2  1  0.16858924  0.25000000  0.58401424  1.0
  Rb  Rb3  1  0.66858924  0.25000000  0.91598576  1.0
  Rb  Rb4  1  0.50826043  0.75000000  0.69710550  1.0
  Rb  Rb5  1  0.00826043  0.75000000  0.80289450  1.0
  Rb  Rb6  1  0.49173957  0.25000000  0.30289450  1.0
  Rb  Rb7  1  0.99173957  0.25000000  0.19710550  1.0
  Mn  Mn8  1  0.76939563  0.75000000  0.08079837  1.0
  Mn  Mn9  1  0.26939563  0.75000000  0.41920163  1.0
  Mn  Mn10  1  0.23060437  0.25000000  0.91920163  1.0
  Mn  Mn11  1  0.73060437  0.25000000  0.58079837  1.0
  O  O12  1  0.70015426  0.96931615  0.15185192  1.0
  O  O13  1  0.70015426  0.53068385  0.15185192  1.0
  O  O14  1  0.20015426  0.96931615  0.34814808  1.0
  O  O15  1  0.20015426  0.53068385  0.34814808  1.0
  O  O16  1  0.29984574  0.46931615  0.84814808  1.0
  O  O17  1  0.29984574  0.03068385  0.84814808  1.0
  O  O18  1  0.79984574  0.46931615  0.65185192  1.0
  O  O19  1  0.79984574  0.03068385  0.65185192  1.0
  O  O20  1  0.97264333  0.75000000  0.08037040  1.0
  O  O21  1  0.47264333  0.75000000  0.41962960  1.0
  O  O22  1  0.02735667  0.25000000  0.91962960  1.0
  O  O23  1  0.52735667  0.25000000  0.58037040  1.0
  O  O24  1  0.19821272  0.75000000  0.56219893  1.0
  O  O25  1  0.69821272  0.75000000  0.93780107  1.0
  O  O26  1  0.80178728  0.25000000  0.43780107  1.0
  O  O27  1  0.30178728  0.25000000  0.06219893  1.0
