# generated using pymatgen
data_Tm(BRu)2
_symmetry_space_group_name_H-M   'P 1'
_cell_length_a   15.09641364
_cell_length_b   15.09641364
_cell_length_c   15.09641364
_cell_angle_alpha   157.14162299
_cell_angle_beta   157.14162299
_cell_angle_gamma   32.54856797
_symmetry_Int_Tables_number   1
_chemical_formula_structural   Tm(BRu)2
_chemical_formula_sum   'Tm8 B16 Ru16'
_cell_volume   518.72713336
_cell_formula_units_Z   8
loop_
 _symmetry_equiv_pos_site_id
 _symmetry_equiv_pos_as_xyz
  1  'x, y, z'
loop_
 _atom_site_type_symbol
 _atom_site_label
 _atom_site_symmetry_multiplicity
 _atom_site_fract_x
 _atom_site_fract_y
 _atom_site_fract_z
 _atom_site_occupancy
  Tm  Tm0  1  0.87500158  0.12500110  0.75000048  1.0
  Tm  Tm1  1  0.37500062  0.12500110  0.24999952  1.0
  Tm  Tm2  1  0.87500356  0.62500494  1.24999862  1.0
  Tm  Tm3  1  0.37500632  0.62500494  0.75000138  1.0
  Tm  Tm4  1  0.37499506  1.12499644  0.75000138  1.0
  Tm  Tm5  1  0.37499506  0.62499368  0.24999862  1.0
  Tm  Tm6  1  0.87499890  0.62499938  0.75000048  1.0
  Tm  Tm7  1  0.87499890  1.12499842  1.24999952  1.0
  B  B8  1  1.28087690  1.03087493  1.75000156  1.0
  B  B9  1  1.46912093  0.71912315  1.25000575  1.0
  B  B10  1  0.78087723  0.53088308  0.75000233  1.0
  B  B11  1  0.96912102  1.21912242  1.24999786  1.0
  B  B12  1  0.96912510  1.21912277  1.75000586  1.0
  B  B13  1  0.28087685  1.03087898  1.25000140  1.0
  B  B14  1  0.96912507  0.71912663  1.25000197  1.0
  B  B15  1  0.28087685  0.53088260  0.74999778  1.0
  B  B16  1  0.78088076  1.03087490  1.24999767  1.0
  B  B17  1  0.96912455  0.71912315  0.75000214  1.0
  B  B18  1  0.28087337  0.53087534  0.24999844  1.0
  B  B19  1  0.46911740  1.21911518  0.74999425  1.0
  B  B20  1  0.46912466  0.71912310  0.74999803  1.0
  B  B21  1  0.78088482  0.53087907  1.25000222  1.0
  B  B22  1  0.46911692  0.21911924  0.24999414  1.0
  B  B23  1  0.78087758  0.03087545  0.74999860  1.0
  Ru  Ru24  1  1.20367890  0.95368058  1.74999757  1.0
  Ru  Ru25  1  0.54631268  0.79631387  1.24999708  1.0
  Ru  Ru26  1  0.70368534  0.45368171  0.75000048  1.0
  Ru  Ru27  1  0.04631915  0.29631649  0.25000145  1.0
  Ru  Ru28  1  1.04631515  1.29631466  1.74999638  1.0
  Ru  Ru29  1  1.20368230  0.95368085  1.24999734  1.0
  Ru  Ru30  1  1.04631942  0.79631699  1.24999832  1.0
  Ru  Ru31  1  1.20368613  1.45368321  1.74999881  1.0
  Ru  Ru32  1  0.70368123  0.95368485  1.24999952  1.0
  Ru  Ru33  1  1.04631504  0.79631770  1.74999855  1.0
  Ru  Ru34  1  0.20368301  0.45368133  0.25000243  1.0
  Ru  Ru35  1  0.54631679  0.29631560  0.75000292  1.0
  Ru  Ru36  1  0.54631867  0.79632110  0.75000168  1.0
  Ru  Ru37  1  0.70368440  0.45368732  0.25000119  1.0
  Ru  Ru38  1  0.54631829  0.29631877  0.25000362  1.0
  Ru  Ru39  1  0.70368351  0.95368496  0.75000266  1.0
