# generated using pymatgen
data_ZnRhF6
_symmetry_space_group_name_H-M   'P 1'
_cell_length_a   5.47062209
_cell_length_b   5.47062209
_cell_length_c   5.47062209
_cell_angle_alpha   56.05323711
_cell_angle_beta   56.05323711
_cell_angle_gamma   56.05323711
_symmetry_Int_Tables_number   1
_chemical_formula_structural   ZnRhF6
_chemical_formula_sum   'Zn1 Rh1 F6'
_cell_volume   105.18691713
_cell_formula_units_Z   1
loop_
 _symmetry_equiv_pos_site_id
 _symmetry_equiv_pos_as_xyz
  1  'x, y, z'
loop_
 _atom_site_type_symbol
 _atom_site_label
 _atom_site_symmetry_multiplicity
 _atom_site_fract_x
 _atom_site_fract_y
 _atom_site_fract_z
 _atom_site_occupancy
  Zn  Zn0  1  0.50000000  0.50000000  -0.50000000  1.0
  Rh  Rh1  1  -0.00000000  0.00000000  -0.00000000  1.0
  F  F2  1  0.10980890  0.76044708  -0.62553919  1.0
  F  F3  1  0.62553919  -0.10980890  0.23955292  1.0
  F  F4  1  1.23955292  -0.37446081  -0.10980890  1.0
  F  F5  1  0.89019110  0.23955292  -0.37446081  1.0
  F  F6  1  0.37446081  0.10980890  -0.23955292  1.0
  F  F7  1  0.76044708  0.37446081  -0.89019110  1.0
