# generated using pymatgen
data_Li3AuO3
_symmetry_space_group_name_H-M   'P 1'
_cell_length_a   9.20493697
_cell_length_b   9.20493697
_cell_length_c   3.60638489
_cell_angle_alpha   90.00000000
_cell_angle_beta   90.00000000
_cell_angle_gamma   90.00000000
_symmetry_Int_Tables_number   1
_chemical_formula_structural   Li3AuO3
_chemical_formula_sum   'Li12 Au4 O12'
_cell_volume   305.57210977
_cell_formula_units_Z   4
loop_
 _symmetry_equiv_pos_site_id
 _symmetry_equiv_pos_as_xyz
  1  'x, y, z'
loop_
 _atom_site_type_symbol
 _atom_site_label
 _atom_site_symmetry_multiplicity
 _atom_site_fract_x
 _atom_site_fract_y
 _atom_site_fract_z
 _atom_site_occupancy
  Li  Li0  1  0.35925385  0.09234205  0.50000000  1.0
  Li  Li1  1  0.85925385  0.40765795  0.00000000  1.0
  Li  Li2  1  0.90765795  0.64074615  0.50000000  1.0
  Li  Li3  1  0.40765795  0.85925385  0.00000000  1.0
  Li  Li4  1  0.64074615  0.90765795  0.50000000  1.0
  Li  Li5  1  0.14074615  0.59234205  0.00000000  1.0
  Li  Li6  1  0.09234205  0.35925385  0.50000000  1.0
  Li  Li7  1  0.59234205  0.14074615  0.00000000  1.0
  Li  Li8  1  0.33295166  0.66704834  0.50000000  1.0
  Li  Li9  1  0.83295166  0.83295166  0.00000000  1.0
  Li  Li10  1  0.66704834  0.33295166  0.50000000  1.0
  Li  Li11  1  0.16704834  0.16704834  0.00000000  1.0
  Au  Au12  1  0.11805447  0.88194553  0.50000000  1.0
  Au  Au13  1  0.61805447  0.61805447  0.00000000  1.0
  Au  Au14  1  0.88194553  0.11805447  0.50000000  1.0
  Au  Au15  1  0.38194553  0.38194553  0.00000000  1.0
  O  O16  1  0.33613914  0.88114209  0.50000000  1.0
  O  O17  1  0.83613914  0.61885791  0.00000000  1.0
  O  O18  1  0.11885791  0.66386086  0.50000000  1.0
  O  O19  1  0.61885791  0.83613914  0.00000000  1.0
  O  O20  1  0.66386086  0.11885791  0.50000000  1.0
  O  O21  1  0.16386086  0.38114209  0.00000000  1.0
  O  O22  1  0.88114209  0.33613914  0.50000000  1.0
  O  O23  1  0.38114209  0.16386086  0.00000000  1.0
  O  O24  1  0.10643373  0.10643373  0.50000000  1.0
  O  O25  1  0.60643373  0.39356627  0.00000000  1.0
  O  O26  1  0.89356627  0.89356627  0.50000000  1.0
  O  O27  1  0.39356627  0.60643373  0.00000000  1.0
