# generated using pymatgen
data_Sr2PtO4
_symmetry_space_group_name_H-M   'P 1'
_cell_length_a   6.12450529
_cell_length_b   9.97850853
_cell_length_c   3.36067330
_cell_angle_alpha   90.00000000
_cell_angle_beta   90.00000000
_cell_angle_gamma   90.00000000
_symmetry_Int_Tables_number   1
_chemical_formula_structural   Sr2PtO4
_chemical_formula_sum   'Sr4 Pt2 O8'
_cell_volume   205.38226654
_cell_formula_units_Z   2
loop_
 _symmetry_equiv_pos_site_id
 _symmetry_equiv_pos_as_xyz
  1  'x, y, z'
loop_
 _atom_site_type_symbol
 _atom_site_label
 _atom_site_symmetry_multiplicity
 _atom_site_fract_x
 _atom_site_fract_y
 _atom_site_fract_z
 _atom_site_occupancy
  Sr  Sr0  1  0.41961130  0.81798328  0.50000000  1.0
  Sr  Sr1  1  0.91961130  0.68201672  0.50000000  1.0
  Sr  Sr2  1  0.58038870  0.18201672  0.50000000  1.0
  Sr  Sr3  1  0.08038870  0.31798328  0.50000000  1.0
  Pt  Pt4  1  0.50000000  0.50000000  0.00000000  1.0
  Pt  Pt5  1  0.00000000  0.00000000  0.00000000  1.0
  O  O6  1  0.12929022  0.80948962  0.00000000  1.0
  O  O7  1  0.62929022  0.69051038  0.00000000  1.0
  O  O8  1  0.87070978  0.19051038  0.00000000  1.0
  O  O9  1  0.37070978  0.30948962  0.00000000  1.0
  O  O10  1  0.30385754  0.54907125  0.50000000  1.0
  O  O11  1  0.80385754  0.95092875  0.50000000  1.0
  O  O12  1  0.69614246  0.45092875  0.50000000  1.0
  O  O13  1  0.19614246  0.04907125  0.50000000  1.0
