# generated using pymatgen
data_InCuS2
_symmetry_space_group_name_H-M   'P 1'
_cell_length_a   6.85766530
_cell_length_b   6.85766530
_cell_length_c   6.85766530
_cell_angle_alpha   131.99160875
_cell_angle_beta   131.99160875
_cell_angle_gamma   70.24228028
_symmetry_Int_Tables_number   1
_chemical_formula_structural   InCuS2
_chemical_formula_sum   'In2 Cu2 S4'
_cell_volume   174.61373932
_cell_formula_units_Z   2
loop_
 _symmetry_equiv_pos_site_id
 _symmetry_equiv_pos_as_xyz
  1  'x, y, z'
loop_
 _atom_site_type_symbol
 _atom_site_label
 _atom_site_symmetry_multiplicity
 _atom_site_fract_x
 _atom_site_fract_y
 _atom_site_fract_z
 _atom_site_occupancy
  In  In0  1  0.75000000  0.25000000  0.50000000  1.0
  In  In1  1  1.00000000  1.00000000  1.00000000  1.0
  Cu  Cu2  1  0.25000000  0.75000000  0.50000000  1.0
  Cu  Cu3  1  0.50000000  0.50000000  0.00000000  1.0
  S  S4  1  1.15503665  1.12500000  1.53003665  1.0
  S  S5  1  1.37500000  0.84496335  0.96996335  1.0
  S  S6  1  0.87500000  1.40503665  1.03003665  1.0
  S  S7  1  0.59496335  0.62500000  0.46996335  1.0
