# generated using pymatgen
data_H4NClO
_symmetry_space_group_name_H-M   'P 1'
_cell_length_a   7.01303000
_cell_length_b   6.12464369
_cell_length_c   7.86106274
_cell_angle_alpha   90.00000000
_cell_angle_beta   121.99673485
_cell_angle_gamma   90.00000000
_symmetry_Int_Tables_number   1
_chemical_formula_structural   H4NClO
_chemical_formula_sum   'H16 N4 Cl4 O4'
_cell_volume   286.35431686
_cell_formula_units_Z   4
loop_
 _symmetry_equiv_pos_site_id
 _symmetry_equiv_pos_as_xyz
  1  'x, y, z'
loop_
 _atom_site_type_symbol
 _atom_site_label
 _atom_site_symmetry_multiplicity
 _atom_site_fract_x
 _atom_site_fract_y
 _atom_site_fract_z
 _atom_site_occupancy
  H  H0  1  0.58090174  0.17520558  0.13504715  1.0
  H  H1  1  0.58090174  0.32479442  0.63504715  1.0
  H  H2  1  0.41909826  0.67520558  0.36495285  1.0
  H  H3  1  0.41909826  0.82479442  0.86495285  1.0
  H  H4  1  0.87227820  0.15214372  0.27437505  1.0
  H  H5  1  0.87227820  0.34785628  0.77437505  1.0
  H  H6  1  0.12772180  0.65214372  0.22562495  1.0
  H  H7  1  0.12772180  0.84785628  0.72562495  1.0
  H  H8  1  0.75804188  0.48125174  0.30490879  1.0
  H  H9  1  0.75804188  0.01874826  0.80490879  1.0
  H  H10  1  0.24195812  0.98125174  0.19509121  1.0
  H  H11  1  0.24195812  0.51874826  0.69509121  1.0
  H  H12  1  0.71754405  0.03994359  0.36197408  1.0
  H  H13  1  0.71754405  0.46005641  0.86197408  1.0
  H  H14  1  0.28245595  0.53994359  0.13802592  1.0
  H  H15  1  0.28245595  0.96005641  0.63802592  1.0
  N  N16  1  0.72591414  0.16921019  0.27831488  1.0
  N  N17  1  0.72591414  0.33078981  0.77831488  1.0
  N  N18  1  0.27408586  0.66921019  0.22168512  1.0
  N  N19  1  0.27408586  0.83078981  0.72168512  1.0
  Cl  Cl20  1  0.23948000  0.17839214  0.40155977  1.0
  Cl  Cl21  1  0.23948000  0.32160786  0.90155977  1.0
  Cl  Cl22  1  0.76052000  0.67839214  0.09844023  1.0
  Cl  Cl23  1  0.76052000  0.82160786  0.59844023  1.0
  O  O24  1  0.73984231  0.36150819  0.38362128  1.0
  O  O25  1  0.73984231  0.13849181  0.88362128  1.0
  O  O26  1  0.26015769  0.86150819  0.11637872  1.0
  O  O27  1  0.26015769  0.63849181  0.61637872  1.0
