# generated using pymatgen
data_Mg7V
_symmetry_space_group_name_H-M   'P 1'
_cell_length_a   6.25036664
_cell_length_b   6.25036664
_cell_length_c   6.25036664
_cell_angle_alpha   60.00000000
_cell_angle_beta   60.00000000
_cell_angle_gamma   60.00000000
_symmetry_Int_Tables_number   1
_chemical_formula_structural   Mg7V
_chemical_formula_sum   'Mg7 V1'
_cell_volume   172.66387446
_cell_formula_units_Z   1
loop_
 _symmetry_equiv_pos_site_id
 _symmetry_equiv_pos_as_xyz
  1  'x, y, z'
loop_
 _atom_site_type_symbol
 _atom_site_label
 _atom_site_symmetry_multiplicity
 _atom_site_fract_x
 _atom_site_fract_y
 _atom_site_fract_z
 _atom_site_occupancy
  Mg  Mg0  1  -0.50000000  0.50000000  0.50000000  1.0
  Mg  Mg1  1  0.00000000  0.00000000  0.50000000  1.0
  Mg  Mg2  1  0.50000000  1.00000000  -0.50000000  1.0
  Mg  Mg3  1  1.00000000  0.50000000  -0.50000000  1.0
  Mg  Mg4  1  0.50000000  -0.50000000  1.00000000  1.0
  Mg  Mg5  1  -0.00000000  1.50000000  0.00000000  1.0
  Mg  Mg6  1  1.50000000  -0.00000000  0.00000000  1.0
  V  V7  1  0.00000000  -0.00000000  -0.00000000  1.0
