# generated using pymatgen
data_Ti13Cu4
_symmetry_space_group_name_H-M   'P 1'
_cell_length_a   10.30769793
_cell_length_b   10.30769793
_cell_length_c   10.30769793
_cell_angle_alpha   60.00000000
_cell_angle_beta   60.00000000
_cell_angle_gamma   60.00000000
_symmetry_Int_Tables_number   1
_chemical_formula_structural   Ti13Cu4
_chemical_formula_sum   'Ti26 Cu8'
_cell_volume   774.40839214
_cell_formula_units_Z   2
loop_
 _symmetry_equiv_pos_site_id
 _symmetry_equiv_pos_as_xyz
  1  'x, y, z'
loop_
 _atom_site_type_symbol
 _atom_site_label
 _atom_site_symmetry_multiplicity
 _atom_site_fract_x
 _atom_site_fract_y
 _atom_site_fract_z
 _atom_site_occupancy
  Ti  Ti0  1  0.94543836  -0.57802994  0.68715322  1.0
  Ti  Ti1  1  -0.05456164  0.68715322  0.42197006  1.0
  Ti  Ti2  1  -0.17197006  0.30456164  0.30456164  1.0
  Ti  Ti3  1  0.56284678  0.30456164  0.30456164  1.0
  Ti  Ti4  1  -0.57802994  0.94543836  0.68715322  1.0
  Ti  Ti5  1  0.94543836  -0.05456164  0.68715322  1.0
  Ti  Ti6  1  0.94543836  -0.31284678  0.94543836  1.0
  Ti  Ti7  1  -0.57802994  0.68715322  0.94543836  1.0
  Ti  Ti8  1  0.30456164  -0.17197006  0.30456164  1.0
  Ti  Ti9  1  0.30456164  0.30456164  -0.17197006  1.0
  Ti  Ti10  1  0.56284678  0.30456164  -0.17197006  1.0
  Ti  Ti11  1  0.56284678  -0.17197006  0.30456164  1.0
  Ti  Ti12  1  0.68715322  -0.05456164  0.94543836  1.0
  Ti  Ti13  1  -0.57802994  0.94543836  0.94543836  1.0
  Ti  Ti14  1  0.30456164  0.56284678  -0.17197006  1.0
  Ti  Ti15  1  0.30456164  -0.17197006  0.56284678  1.0
  Ti  Ti16  1  -0.31284678  0.94543836  0.42197006  1.0
  Ti  Ti17  1  0.68715322  -0.57802994  0.94543836  1.0
  Ti  Ti18  1  0.94543836  -0.57802994  0.94543836  1.0
  Ti  Ti19  1  -0.05456164  0.94543836  0.42197006  1.0
  Ti  Ti20  1  0.30456164  0.56284678  0.30456164  1.0
  Ti  Ti21  1  -0.17197006  0.56284678  0.30456164  1.0
  Ti  Ti22  1  -0.17197006  0.30456164  0.56284678  1.0
  Ti  Ti23  1  0.30456164  0.30456164  0.56284678  1.0
  Ti  Ti24  1  0.50000000  0.50000000  -0.50000000  1.0
  Ti  Ti25  1  0.75000000  -0.25000000  0.75000000  1.0
  Cu  Cu26  1  0.66543033  -0.33456967  1.00370902  1.0
  Cu  Cu27  1  0.66543033  0.00370902  0.66543033  1.0
  Cu  Cu28  1  0.58456967  -0.41543033  0.58456967  1.0
  Cu  Cu29  1  1.24629098  -0.41543033  0.58456967  1.0
  Cu  Cu30  1  1.00370902  -0.33456967  0.66543033  1.0
  Cu  Cu31  1  0.66543033  -0.33456967  0.66543033  1.0
  Cu  Cu32  1  0.58456967  0.24629098  0.58456967  1.0
  Cu  Cu33  1  0.58456967  -0.41543033  1.24629098  1.0
