# generated using pymatgen
data_Cs2CO3
_symmetry_space_group_name_H-M   'P 1'
_cell_length_a   6.30279259
_cell_length_b   6.30279259
_cell_length_c   7.91472320
_cell_angle_alpha   90.00000000
_cell_angle_beta   90.00000000
_cell_angle_gamma   120.00000000
_symmetry_Int_Tables_number   1
_chemical_formula_structural   Cs2CO3
_chemical_formula_sum   'Cs4 C2 O6'
_cell_volume   272.29044005
_cell_formula_units_Z   2
loop_
 _symmetry_equiv_pos_site_id
 _symmetry_equiv_pos_as_xyz
  1  'x, y, z'
loop_
 _atom_site_type_symbol
 _atom_site_label
 _atom_site_symmetry_multiplicity
 _atom_site_fract_x
 _atom_site_fract_y
 _atom_site_fract_z
 _atom_site_occupancy
  Cs  Cs0  1  0.33333333  0.66666667  0.75000000  1.0
  Cs  Cs1  1  0.66666667  0.33333333  0.25000000  1.0
  Cs  Cs2  1  -0.00000000  -0.00000000  0.50000000  1.0
  Cs  Cs3  1  -0.00000000  -0.00000000  0.00000000  1.0
  C  C4  1  0.33333333  0.66666667  0.25000000  1.0
  C  C5  1  0.66666667  0.33333333  0.75000000  1.0
  O  O6  1  0.21374450  0.78625550  0.25000000  1.0
  O  O7  1  0.21374450  0.42748899  0.25000000  1.0
  O  O8  1  0.78625550  0.21374450  0.75000000  1.0
  O  O9  1  0.78625550  0.57251101  0.75000000  1.0
  O  O10  1  0.57251101  0.78625550  0.25000000  1.0
  O  O11  1  0.42748899  0.21374450  0.75000000  1.0
