# generated using pymatgen
data_Ti3In3Rh2
_symmetry_space_group_name_H-M   'P 1'
_cell_length_a   7.33845998
_cell_length_b   7.33845998
_cell_length_c   3.07702655
_cell_angle_alpha   90.00000000
_cell_angle_beta   90.00000000
_cell_angle_gamma   120.00000000
_symmetry_Int_Tables_number   1
_chemical_formula_structural   Ti3In3Rh2
_chemical_formula_sum   'Ti3 In3 Rh2'
_cell_volume   143.50655393
_cell_formula_units_Z   1
loop_
 _symmetry_equiv_pos_site_id
 _symmetry_equiv_pos_as_xyz
  1  'x, y, z'
loop_
 _atom_site_type_symbol
 _atom_site_label
 _atom_site_symmetry_multiplicity
 _atom_site_fract_x
 _atom_site_fract_y
 _atom_site_fract_z
 _atom_site_occupancy
  Ti  Ti0  1  0.41783346  0.41783346  0.50000000  1.0
  Ti  Ti1  1  -0.00000000  0.58216654  0.50000000  1.0
  Ti  Ti2  1  0.58216654  0.00000000  0.50000000  1.0
  In  In3  1  0.76303268  0.76303268  0.00000000  1.0
  In  In4  1  -0.00000000  0.23696732  0.00000000  1.0
  In  In5  1  0.23696732  0.00000000  0.00000000  1.0
  Rh  Rh6  1  0.33333333  0.66666667  0.00000000  1.0
  Rh  Rh7  1  0.66666667  0.33333333  0.00000000  1.0
