# generated using pymatgen
data_MgSiPt
_symmetry_space_group_name_H-M   'P 1'
_cell_length_a   6.57668173
_cell_length_b   4.12056931
_cell_length_c   7.23412351
_cell_angle_alpha   90.00000000
_cell_angle_beta   90.00000000
_cell_angle_gamma   90.00000000
_symmetry_Int_Tables_number   1
_chemical_formula_structural   MgSiPt
_chemical_formula_sum   'Mg4 Si4 Pt4'
_cell_volume   196.04238058
_cell_formula_units_Z   4
loop_
 _symmetry_equiv_pos_site_id
 _symmetry_equiv_pos_as_xyz
  1  'x, y, z'
loop_
 _atom_site_type_symbol
 _atom_site_label
 _atom_site_symmetry_multiplicity
 _atom_site_fract_x
 _atom_site_fract_y
 _atom_site_fract_z
 _atom_site_occupancy
  Mg  Mg0  1  -0.00497509  0.75000000  0.68453127  1.0
  Mg  Mg1  1  0.49502491  0.75000000  0.81546873  1.0
  Mg  Mg2  1  1.00497509  0.25000000  0.31546873  1.0
  Mg  Mg3  1  0.50497509  0.25000000  0.18453127  1.0
  Si  Si4  1  0.69887719  0.75000000  0.38781121  1.0
  Si  Si5  1  0.19887719  0.75000000  0.11218879  1.0
  Si  Si6  1  0.30112281  0.25000000  0.61218879  1.0
  Si  Si7  1  0.80112281  0.25000000  0.88781121  1.0
  Pt  Pt8  1  0.81903321  0.75000000  0.07101217  1.0
  Pt  Pt9  1  0.31903321  0.75000000  0.42898783  1.0
  Pt  Pt10  1  0.18096679  0.25000000  0.92898783  1.0
  Pt  Pt11  1  0.68096679  0.25000000  0.57101217  1.0
