# generated using pymatgen
data_CdAu
_symmetry_space_group_name_H-M   'P 1'
_cell_length_a   8.25596147
_cell_length_b   8.25596147
_cell_length_c   5.91029392
_cell_angle_alpha   90.00000000
_cell_angle_beta   90.00000000
_cell_angle_gamma   120.00000000
_symmetry_Int_Tables_number   1
_chemical_formula_structural   CdAu
_chemical_formula_sum   'Cd9 Au9'
_cell_volume   348.87915847
_cell_formula_units_Z   9
loop_
 _symmetry_equiv_pos_site_id
 _symmetry_equiv_pos_as_xyz
  1  'x, y, z'
loop_
 _atom_site_type_symbol
 _atom_site_label
 _atom_site_symmetry_multiplicity
 _atom_site_fract_x
 _atom_site_fract_y
 _atom_site_fract_z
 _atom_site_occupancy
  Cd  Cd0  1  0.35258009  0.35258009  0.05570166  1.0
  Cd  Cd1  1  -0.00000000  0.64741991  0.05570166  1.0
  Cd  Cd2  1  0.64741991  0.00000000  0.05570166  1.0
  Cd  Cd3  1  0.00000000  0.00000000  0.49774695  1.0
  Cd  Cd4  1  0.68747833  0.68747833  0.76423043  1.0
  Cd  Cd5  1  0.00000000  0.31252167  0.76423043  1.0
  Cd  Cd6  1  0.31252167  -0.00000000  0.76423043  1.0
  Cd  Cd7  1  0.33333333  0.66666667  0.33935945  1.0
  Cd  Cd8  1  0.66666667  0.33333333  0.33935945  1.0
  Au  Au9  1  0.00000000  0.00000000  0.00724150  1.0
  Au  Au10  1  0.33333333  0.66666667  0.83145142  1.0
  Au  Au11  1  0.66666667  0.33333333  0.83145142  1.0
  Au  Au12  1  0.68996365  0.68996365  0.26628068  1.0
  Au  Au13  1  -0.00000000  0.31003635  0.26628068  1.0
  Au  Au14  1  0.31003635  0.00000000  0.26628068  1.0
  Au  Au15  1  0.36049385  0.36049385  0.55525050  1.0
  Au  Au16  1  -0.00000000  0.63950615  0.55525050  1.0
  Au  Au17  1  0.63950615  -0.00000000  0.55525050  1.0
