# generated using pymatgen
data_GaO2
_symmetry_space_group_name_H-M   'P 1'
_cell_length_a   6.00541727
_cell_length_b   5.87000712
_cell_length_c   5.15503840
_cell_angle_alpha   65.63617690
_cell_angle_beta   62.92410056
_cell_angle_gamma   51.43972254
_symmetry_Int_Tables_number   1
_chemical_formula_structural   GaO2
_chemical_formula_sum   'Ga4 O8'
_cell_volume   124.34256457
_cell_formula_units_Z   4
loop_
 _symmetry_equiv_pos_site_id
 _symmetry_equiv_pos_as_xyz
  1  'x, y, z'
loop_
 _atom_site_type_symbol
 _atom_site_label
 _atom_site_symmetry_multiplicity
 _atom_site_fract_x
 _atom_site_fract_y
 _atom_site_fract_z
 _atom_site_occupancy
  O  O0  1  -0.11519865  0.88480135  0.61519865  1.0
  O  O1  1  0.61519865  0.61519865  -0.11519865  1.0
  O  O2  1  1.36519865  0.36519865  -0.36519865  1.0
  O  O3  1  0.63480135  0.63480135  0.36519865  1.0
  O  O4  1  0.12500000  0.62500000  1.12500000  1.0
  O  O5  1  0.62500000  0.12500000  0.12500000  1.0
  O  O6  1  0.12500000  1.12500000  0.12500000  1.0
  O  O7  1  0.12500000  1.12500000  0.62500000  1.0
  Ga  Ga8  1  0.95893139  0.54106861  0.95893139  1.0
  Ga  Ga9  1  0.54106861  0.95893139  0.54106861  1.0
  Ga  Ga10  1  1.29106861  -0.29106861  0.29106861  1.0
  Ga  Ga11  1  0.70893139  0.29106861  -0.29106861  1.0
