# generated using pymatgen
data_Sc2BC2
_symmetry_space_group_name_H-M   'P 1'
_cell_length_a   5.83697276
_cell_length_b   5.83697276
_cell_length_c   5.83697276
_cell_angle_alpha   146.76322568
_cell_angle_beta   146.76322568
_cell_angle_gamma   47.71449361
_symmetry_Int_Tables_number   1
_chemical_formula_structural   Sc2BC2
_chemical_formula_sum   'Sc2 B1 C2'
_cell_volume   59.50492290
_cell_formula_units_Z   1
loop_
 _symmetry_equiv_pos_site_id
 _symmetry_equiv_pos_as_xyz
  1  'x, y, z'
loop_
 _atom_site_type_symbol
 _atom_site_label
 _atom_site_symmetry_multiplicity
 _atom_site_fract_x
 _atom_site_fract_y
 _atom_site_fract_z
 _atom_site_occupancy
  Sc  Sc0  1  0.65231107  0.65231107  1.00000000  1.0
  Sc  Sc1  1  0.34768893  0.34768893  -0.00000000  1.0
  B  B2  1  0.00000000  0.00000000  0.00000000  1.0
  C  C3  1  0.86118651  0.86118651  1.00000000  1.0
  C  C4  1  0.13881349  0.13881349  -0.00000000  1.0
