# generated using pymatgen
data_Dy2Pt2Pb
_symmetry_space_group_name_H-M   'P 1'
_cell_length_a   7.91365856
_cell_length_b   7.91365856
_cell_length_c   3.67638492
_cell_angle_alpha   90.00000000
_cell_angle_beta   90.00000000
_cell_angle_gamma   90.00000000
_symmetry_Int_Tables_number   1
_chemical_formula_structural   Dy2Pt2Pb
_chemical_formula_sum   'Dy4 Pt4 Pb2'
_cell_volume   230.23725180
_cell_formula_units_Z   2
loop_
 _symmetry_equiv_pos_site_id
 _symmetry_equiv_pos_as_xyz
  1  'x, y, z'
loop_
 _atom_site_type_symbol
 _atom_site_label
 _atom_site_symmetry_multiplicity
 _atom_site_fract_x
 _atom_site_fract_y
 _atom_site_fract_z
 _atom_site_occupancy
  Dy  Dy0  1  0.32997103  0.17002897  0.50000000  1.0
  Dy  Dy1  1  0.82997103  0.32997103  0.50000000  1.0
  Dy  Dy2  1  0.67002897  0.82997103  0.50000000  1.0
  Dy  Dy3  1  0.17002897  0.67002897  0.50000000  1.0
  Pt  Pt4  1  0.87289230  0.62710770  -0.00000000  1.0
  Pt  Pt5  1  0.37289230  0.87289230  0.00000000  1.0
  Pt  Pt6  1  0.12710770  0.37289230  -0.00000000  1.0
  Pt  Pt7  1  0.62710770  0.12710770  0.00000000  1.0
  Pb  Pb8  1  0.50000000  0.50000000  -0.00000000  1.0
  Pb  Pb9  1  0.00000000  0.00000000  0.00000000  1.0
