# generated using pymatgen
data_GdTc2
_symmetry_space_group_name_H-M   'P 1'
_cell_length_a   5.40031559
_cell_length_b   5.40031559
_cell_length_c   8.88458006
_cell_angle_alpha   90.00000000
_cell_angle_beta   90.00000000
_cell_angle_gamma   120.00000000
_symmetry_Int_Tables_number   1
_chemical_formula_structural   GdTc2
_chemical_formula_sum   'Gd4 Tc8'
_cell_volume   224.39119822
_cell_formula_units_Z   4
loop_
 _symmetry_equiv_pos_site_id
 _symmetry_equiv_pos_as_xyz
  1  'x, y, z'
loop_
 _atom_site_type_symbol
 _atom_site_label
 _atom_site_symmetry_multiplicity
 _atom_site_fract_x
 _atom_site_fract_y
 _atom_site_fract_z
 _atom_site_occupancy
  Gd  Gd0  1  0.33333333  0.66666667  0.93710417  1.0
  Gd  Gd1  1  0.33333333  0.66666667  0.56289583  1.0
  Gd  Gd2  1  0.66666667  0.33333333  0.43710417  1.0
  Gd  Gd3  1  0.66666667  0.33333333  0.06289583  1.0
  Tc  Tc4  1  0.17078837  0.82921163  0.25000000  1.0
  Tc  Tc5  1  0.17078837  0.34157674  0.25000000  1.0
  Tc  Tc6  1  0.82921163  0.17078837  0.75000000  1.0
  Tc  Tc7  1  0.82921163  0.65842326  0.75000000  1.0
  Tc  Tc8  1  0.65842326  0.82921163  0.25000000  1.0
  Tc  Tc9  1  0.34157674  0.17078837  0.75000000  1.0
  Tc  Tc10  1  0.00000000  0.00000000  0.50000000  1.0
  Tc  Tc11  1  0.00000000  0.00000000  0.00000000  1.0
