# generated using pymatgen
data_C4O5F6
_symmetry_space_group_name_H-M   'P 1'
_cell_length_a   5.28171791
_cell_length_b   8.11401162
_cell_length_c   21.57578092
_cell_angle_alpha   90.00000000
_cell_angle_beta   97.59383972
_cell_angle_gamma   90.00000000
_symmetry_Int_Tables_number   1
_chemical_formula_structural   C4O5F6
_chemical_formula_sum   'C16 O20 F24'
_cell_volume   916.54054491
_cell_formula_units_Z   4
loop_
 _symmetry_equiv_pos_site_id
 _symmetry_equiv_pos_as_xyz
  1  'x, y, z'
loop_
 _atom_site_type_symbol
 _atom_site_label
 _atom_site_symmetry_multiplicity
 _atom_site_fract_x
 _atom_site_fract_y
 _atom_site_fract_z
 _atom_site_occupancy
  C  C0  1  0.74350090  0.69042817  0.75564037  1.0
  C  C1  1  0.25649910  0.19042817  0.74435963  1.0
  C  C2  1  0.25649910  0.30957183  0.24435963  1.0
  C  C3  1  0.74350090  0.80957183  0.25564037  1.0
  C  C4  1  0.01734990  0.75342953  0.84852233  1.0
  C  C5  1  0.98265010  0.25342953  0.65147767  1.0
  C  C6  1  0.98265010  0.24657047  0.15147767  1.0
  C  C7  1  0.01734990  0.74657047  0.34852233  1.0
  C  C8  1  0.48207597  0.71539017  0.65812697  1.0
  C  C9  1  0.51792403  0.21539017  0.84187303  1.0
  C  C10  1  0.51792403  0.28460983  0.34187303  1.0
  C  C11  1  0.48207597  0.78460983  0.15812697  1.0
  C  C12  1  0.33766720  0.74746895  0.55013077  1.0
  C  C13  1  0.66233280  0.24746895  0.94986923  1.0
  C  C14  1  0.66233280  0.25253105  0.44986923  1.0
  C  C15  1  0.33766720  0.75253105  0.05013077  1.0
  O  O16  1  0.92422544  0.79251530  0.78680708  1.0
  O  O17  1  0.07577456  0.29251530  0.71319292  1.0
  O  O18  1  0.07577456  0.20748470  0.21319292  1.0
  O  O19  1  0.92422544  0.70748470  0.28680708  1.0
  O  O20  1  0.70167044  0.75716223  0.69658865  1.0
  O  O21  1  0.29832956  0.25716223  0.80341135  1.0
  O  O22  1  0.29832956  0.24283777  0.30341135  1.0
  O  O23  1  0.70167044  0.74283777  0.19658865  1.0
  O  O24  1  0.29201966  0.65373177  0.67175318  1.0
  O  O25  1  0.70798034  0.15373177  0.82824682  1.0
  O  O26  1  0.70798034  0.34626823  0.32824682  1.0
  O  O27  1  0.29201966  0.84626823  0.17175318  1.0
  O  O28  1  0.65061703  0.56982575  0.77491212  1.0
  O  O29  1  0.34938297  0.06982575  0.72508788  1.0
  O  O30  1  0.34938297  0.43017425  0.22508788  1.0
  O  O31  1  0.65061703  0.93017425  0.27491212  1.0
  O  O32  1  0.53155974  0.76577552  0.60018854  1.0
  O  O33  1  0.46844026  0.26577552  0.89981146  1.0
  O  O34  1  0.46844026  0.23422448  0.39981146  1.0
  O  O35  1  0.53155974  0.73422448  0.10018854  1.0
  F  F36  1  0.13164661  0.60501218  0.85344910  1.0
  F  F37  1  0.86835339  0.10501218  0.64655090  1.0
  F  F38  1  0.86835339  0.39498782  0.14655090  1.0
  F  F39  1  0.13164661  0.89498782  0.35344910  1.0
  F  F40  1  0.19162471  0.87023362  0.86744511  1.0
  F  F41  1  0.80837529  0.37023362  0.63255489  1.0
  F  F42  1  0.80837529  0.12976638  0.13255489  1.0
  F  F43  1  0.19162471  0.62976638  0.36744511  1.0
  F  F44  1  0.83234735  0.75688001  0.88593615  1.0
  F  F45  1  0.16765265  0.25688001  0.61406385  1.0
  F  F46  1  0.16765265  0.24311999  0.11406385  1.0
  F  F47  1  0.83234735  0.74311999  0.38593615  1.0
  F  F48  1  0.27117184  0.58819493  0.54025152  1.0
  F  F49  1  0.72882816  0.08819493  0.95974848  1.0
  F  F50  1  0.72882816  0.41180507  0.45974848  1.0
  F  F51  1  0.27117184  0.91180507  0.04025152  1.0
  F  F52  1  0.43380346  0.80512698  0.49973561  1.0
  F  F53  1  0.56619654  0.30512698  0.00026439  1.0
  F  F54  1  0.56619654  0.19487302  0.50026439  1.0
  F  F55  1  0.43380346  0.69487302  0.99973561  1.0
  F  F56  1  0.12796282  0.83498622  0.55825442  1.0
  F  F57  1  0.87203718  0.33498622  0.94174558  1.0
  F  F58  1  0.87203718  0.16501378  0.44174558  1.0
  F  F59  1  0.12796282  0.66501378  0.05825442  1.0
