# generated using pymatgen
data_ZnWO4
_symmetry_space_group_name_H-M   'P 1'
_cell_length_a   4.73375122
_cell_length_b   5.81837237
_cell_length_c   4.96358064
_cell_angle_alpha   90.00000000
_cell_angle_beta   90.97753720
_cell_angle_gamma   90.00000000
_symmetry_Int_Tables_number   1
_chemical_formula_structural   ZnWO4
_chemical_formula_sum   'Zn2 W2 O8'
_cell_volume   136.69065142
_cell_formula_units_Z   2
loop_
 _symmetry_equiv_pos_site_id
 _symmetry_equiv_pos_as_xyz
  1  'x, y, z'
loop_
 _atom_site_type_symbol
 _atom_site_label
 _atom_site_symmetry_multiplicity
 _atom_site_fract_x
 _atom_site_fract_y
 _atom_site_fract_z
 _atom_site_occupancy
  Zn  Zn0  1  -0.00000000  0.81850604  0.25000000  1.0
  Zn  Zn1  1  -0.00000000  0.18149396  0.75000000  1.0
  W  W2  1  0.50000000  0.31937820  0.25000000  1.0
  W  W3  1  0.50000000  0.68062180  0.75000000  1.0
  O  O4  1  0.75618411  0.87326892  0.90356875  1.0
  O  O5  1  0.75618411  0.12673108  0.40356875  1.0
  O  O6  1  0.24381589  0.87326892  0.59643125  1.0
  O  O7  1  0.24381589  0.12673108  0.09643125  1.0
  O  O8  1  0.71514937  0.60544353  0.43714620  1.0
  O  O9  1  0.71514937  0.39455647  0.93714620  1.0
  O  O10  1  0.28485063  0.60544353  0.06285380  1.0
  O  O11  1  0.28485063  0.39455647  0.56285380  1.0
