# generated using pymatgen
data_Na2Mn(SO5)2
_symmetry_space_group_name_H-M   'P 1'
_cell_length_a   5.74035070
_cell_length_b   14.71885976
_cell_length_c   5.01883863
_cell_angle_alpha   90.00000000
_cell_angle_beta   104.18296666
_cell_angle_gamma   90.00000000
_symmetry_Int_Tables_number   1
_chemical_formula_structural   Na2Mn(SO5)2
_chemical_formula_sum   'Na4 Mn2 S4 O20'
_cell_volume   411.12303140
_cell_formula_units_Z   2
loop_
 _symmetry_equiv_pos_site_id
 _symmetry_equiv_pos_as_xyz
  1  'x, y, z'
loop_
 _atom_site_type_symbol
 _atom_site_label
 _atom_site_symmetry_multiplicity
 _atom_site_fract_x
 _atom_site_fract_y
 _atom_site_fract_z
 _atom_site_occupancy
  Mn  Mn0  1  0.00000000  0.00000000  0.00000000  1.0
  Mn  Mn1  1  0.00000000  0.50000000  0.50000000  1.0
  O  O2  1  0.82877287  0.95470882  0.64036649  1.0
  O  O3  1  0.82877287  0.54529118  0.14036649  1.0
  O  O4  1  0.17122713  0.45470882  0.85963351  1.0
  O  O5  1  0.17122713  0.04529118  0.35963351  1.0
  O  O6  1  0.80174367  0.58570692  0.66560930  1.0
  O  O7  1  0.80174367  0.91429308  0.16560930  1.0
  O  O8  1  0.19825633  0.08570692  0.83439070  1.0
  O  O9  1  0.19825633  0.41429308  0.33439070  1.0
  O  O10  1  0.66539632  0.68998928  0.95933473  1.0
  O  O11  1  0.66539632  0.81001072  0.45933473  1.0
  O  O12  1  0.33460368  0.18998928  0.54066527  1.0
  O  O13  1  0.33460368  0.31001072  0.04066527  1.0
  O  O14  1  0.78634264  0.42415367  0.46996179  1.0
  O  O15  1  0.78634264  0.07584633  0.96996179  1.0
  O  O16  1  0.21365736  0.92415367  0.03003821  1.0
  O  O17  1  0.21365736  0.57584633  0.53003821  1.0
  O  O18  1  1.10237836  0.83521846  0.53050819  1.0
  O  O19  1  1.10237836  0.66478154  0.03050819  1.0
  O  O20  1  -0.10237836  0.33521846  0.96949181  1.0
  O  O21  1  -0.10237836  0.16478154  0.46949181  1.0
  S  S22  1  0.86260819  0.62632949  0.95608876  1.0
  S  S23  1  0.86260819  0.87367051  0.45608876  1.0
  S  S24  1  0.13739181  0.12632949  0.54391124  1.0
  S  S25  1  0.13739181  0.37367051  0.04391124  1.0
  Na  Na26  1  0.47871740  0.83876499  0.83748620  1.0
  Na  Na27  1  0.47871740  0.66123501  0.33748620  1.0
  Na  Na28  1  0.52128260  0.33876499  0.66251380  1.0
  Na  Na29  1  0.52128260  0.16123501  0.16251380  1.0
