# generated using pymatgen
data_Zr6Ga16Pd7
_symmetry_space_group_name_H-M   'P 1'
_cell_length_a   8.87117884
_cell_length_b   8.87117884
_cell_length_c   8.87117884
_cell_angle_alpha   60.00000000
_cell_angle_beta   60.00000000
_cell_angle_gamma   60.00000000
_symmetry_Int_Tables_number   1
_chemical_formula_structural   Zr6Ga16Pd7
_chemical_formula_sum   'Zr6 Ga16 Pd7'
_cell_volume   493.66121256
_cell_formula_units_Z   1
loop_
 _symmetry_equiv_pos_site_id
 _symmetry_equiv_pos_as_xyz
  1  'x, y, z'
loop_
 _atom_site_type_symbol
 _atom_site_label
 _atom_site_symmetry_multiplicity
 _atom_site_fract_x
 _atom_site_fract_y
 _atom_site_fract_z
 _atom_site_occupancy
  Zr  Zr0  1  -0.70697282  0.70697282  0.70697282  1.0
  Zr  Zr1  1  -0.29302718  0.29302718  0.70697282  1.0
  Zr  Zr2  1  0.70697282  0.70697282  -0.70697282  1.0
  Zr  Zr3  1  0.29302718  1.29302718  -0.29302718  1.0
  Zr  Zr4  1  0.29302718  -0.29302718  1.29302718  1.0
  Zr  Zr5  1  -0.29302718  0.29302718  0.29302718  1.0
  Ga  Ga6  1  0.87543672  0.87543672  -0.12456328  1.0
  Ga  Ga7  1  1.12456328  0.12456328  0.62631016  1.0
  Ga  Ga8  1  1.12456328  0.62631016  0.12456328  1.0
  Ga  Ga9  1  0.37368984  0.87543672  -0.12456328  1.0
  Ga  Ga10  1  1.62631016  0.12456328  0.12456328  1.0
  Ga  Ga11  1  0.87543672  0.37368984  -0.12456328  1.0
  Ga  Ga12  1  0.87543672  0.87543672  -0.62631016  1.0
  Ga  Ga13  1  1.12456328  0.12456328  0.12456328  1.0
  Ga  Ga14  1  0.65168653  0.65168653  -0.34831347  1.0
  Ga  Ga15  1  1.34831347  0.34831347  -0.04494040  1.0
  Ga  Ga16  1  1.34831347  -0.04494040  0.34831347  1.0
  Ga  Ga17  1  1.04494040  0.65168653  -0.34831347  1.0
  Ga  Ga18  1  0.95505960  0.34831347  0.34831347  1.0
  Ga  Ga19  1  0.65168653  1.04494040  -0.34831347  1.0
  Ga  Ga20  1  0.65168653  0.65168653  0.04494040  1.0
  Ga  Ga21  1  1.34831347  0.34831347  0.34831347  1.0
  Pd  Pd22  1  1.50000000  0.00000000  -0.00000000  1.0
  Pd  Pd23  1  1.00000000  0.50000000  -0.50000000  1.0
  Pd  Pd24  1  0.00000000  1.50000000  -0.00000000  1.0
  Pd  Pd25  1  0.50000000  1.00000000  -0.50000000  1.0
  Pd  Pd26  1  0.00000000  0.00000000  0.50000000  1.0
  Pd  Pd27  1  0.50000000  -0.50000000  1.00000000  1.0
  Pd  Pd28  1  0.00000000  0.00000000  0.00000000  1.0
