# generated using pymatgen
data_CaAsPt
_symmetry_space_group_name_H-M   'P 1'
_cell_length_a   22.42466475
_cell_length_b   22.42466475
_cell_length_c   22.42466475
_cell_angle_alpha   169.19306897
_cell_angle_beta   169.19306897
_cell_angle_gamma   15.30613634
_symmetry_Int_Tables_number   1
_chemical_formula_structural   CaAsPt
_chemical_formula_sum   'Ca6 As6 Pt6'
_cell_volume   396.42741982
_cell_formula_units_Z   6
loop_
 _symmetry_equiv_pos_site_id
 _symmetry_equiv_pos_as_xyz
  1  'x, y, z'
loop_
 _atom_site_type_symbol
 _atom_site_label
 _atom_site_symmetry_multiplicity
 _atom_site_fract_x
 _atom_site_fract_y
 _atom_site_fract_z
 _atom_site_occupancy
  Ca  Ca0  1  0.52796945  0.52796945  1.00000000  1.0
  Ca  Ca1  1  0.27796945  0.77796945  0.50000000  1.0
  Ca  Ca2  1  0.69421385  0.69421385  1.00000000  1.0
  Ca  Ca3  1  0.44421385  0.94421385  0.50000000  1.0
  Ca  Ca4  1  0.86087696  0.86087696  1.00000000  1.0
  Ca  Ca5  1  0.61087696  0.11087696  0.50000000  1.0
  As  As6  1  0.00004866  0.00004866  -0.00000000  1.0
  As  As7  1  0.75004866  0.25004866  0.50000000  1.0
  As  As8  1  0.16652351  0.16652351  -0.00000000  1.0
  As  As9  1  0.91652351  0.41652351  0.50000000  1.0
  As  As10  1  0.33363671  0.33363671  -0.00000000  1.0
  As  As11  1  0.08363671  0.58363671  0.50000000  1.0
  Pt  Pt12  1  0.05541679  0.05541679  -0.00000000  1.0
  Pt  Pt13  1  0.80541679  0.30541679  0.50000000  1.0
  Pt  Pt14  1  0.22157226  0.22157226  -0.00000000  1.0
  Pt  Pt15  1  0.97157226  0.47157226  0.50000000  1.0
  Pt  Pt16  1  0.38904181  0.38904181  -0.00000000  1.0
  Pt  Pt17  1  0.13904181  0.63904181  0.50000000  1.0
