# generated using pymatgen
data_Sn3O4
_symmetry_space_group_name_H-M   'P 1'
_cell_length_a   8.90063960
_cell_length_b   8.90063960
_cell_length_c   7.37512770
_cell_angle_alpha   90.00000000
_cell_angle_beta   90.00000000
_cell_angle_gamma   90.00000000
_symmetry_Int_Tables_number   1
_chemical_formula_structural   Sn3O4
_chemical_formula_sum   'Sn12 O16'
_cell_volume   584.26783240
_cell_formula_units_Z   4
loop_
 _symmetry_equiv_pos_site_id
 _symmetry_equiv_pos_as_xyz
  1  'x, y, z'
loop_
 _atom_site_type_symbol
 _atom_site_label
 _atom_site_symmetry_multiplicity
 _atom_site_fract_x
 _atom_site_fract_y
 _atom_site_fract_z
 _atom_site_occupancy
  O  O0  1  0.28814448  0.50006338  0.18220405  1.0
  O  O1  1  0.21185552  1.00006338  0.31779595  1.0
  O  O2  1  0.49993662  0.28814448  0.81779595  1.0
  O  O3  1  1.00006338  0.78814448  0.68220405  1.0
  O  O4  1  0.71185552  0.49993662  0.18220405  1.0
  O  O5  1  0.78814448  -0.00006338  0.31779595  1.0
  O  O6  1  0.50006338  0.71185552  0.81779595  1.0
  O  O7  1  -0.00006338  0.21185552  0.68220405  1.0
  O  O8  1  -0.00007778  0.21188574  0.31785422  1.0
  O  O9  1  0.50007778  0.71188574  0.18214578  1.0
  O  O10  1  0.78811426  -0.00007778  0.68214578  1.0
  O  O11  1  0.71188574  0.49992222  0.81785422  1.0
  O  O12  1  1.00007778  0.78811426  0.31785422  1.0
  O  O13  1  0.49992222  0.28811426  0.18214578  1.0
  O  O14  1  0.21188574  1.00007778  0.68214578  1.0
  O  O15  1  0.28811426  0.50007778  0.81785422  1.0
  Sn  Sn16  1  0.19417548  0.19426508  0.49998936  1.0
  Sn  Sn17  1  0.30582452  0.69426508  1.00001064  1.0
  Sn  Sn18  1  0.80573492  0.19417548  0.50001064  1.0
  Sn  Sn19  1  0.69426508  0.69417548  -0.00001064  1.0
  Sn  Sn20  1  0.80582452  0.80573492  0.49998936  1.0
  Sn  Sn21  1  0.69417548  0.30573492  1.00001064  1.0
  Sn  Sn22  1  0.19426508  0.80582452  0.50001064  1.0
  Sn  Sn23  1  0.30573492  0.30582452  -0.00001064  1.0
  Sn  Sn24  1  0.50000000  0.50000000  0.30748746  1.0
  Sn  Sn25  1  0.00000000  0.00000000  0.19251254  1.0
  Sn  Sn26  1  0.50000000  0.50000000  0.69251254  1.0
  Sn  Sn27  1  0.00000000  0.00000000  0.80748746  1.0
