# generated using pymatgen
data_HfTl2S3
_symmetry_space_group_name_H-M   'P 1'
_cell_length_a   8.01938400
_cell_length_b   3.78403384
_cell_length_c   10.66144049
_cell_angle_alpha   90.00000000
_cell_angle_beta   97.78556233
_cell_angle_gamma   90.00000000
_symmetry_Int_Tables_number   1
_chemical_formula_structural   HfTl2S3
_chemical_formula_sum   'Hf2 Tl4 S6'
_cell_volume   320.54574744
_cell_formula_units_Z   2
loop_
 _symmetry_equiv_pos_site_id
 _symmetry_equiv_pos_as_xyz
  1  'x, y, z'
loop_
 _atom_site_type_symbol
 _atom_site_label
 _atom_site_symmetry_multiplicity
 _atom_site_fract_x
 _atom_site_fract_y
 _atom_site_fract_z
 _atom_site_occupancy
  Hf  Hf0  1  0.58450896  0.25000000  0.65908321  1.0
  Hf  Hf1  1  0.41549104  0.75000000  0.34091679  1.0
  Tl  Tl2  1  0.94192276  0.25000000  0.33937036  1.0
  Tl  Tl3  1  0.05807724  0.75000000  0.66062964  1.0
  Tl  Tl4  1  0.25589546  0.25000000  1.01554350  1.0
  Tl  Tl5  1  0.74410454  0.75000000  -0.01554350  1.0
  S  S6  1  0.85707826  0.25000000  0.79930859  1.0
  S  S7  1  0.14292174  0.75000000  0.20069141  1.0
  S  S8  1  0.54511248  0.25000000  0.22487843  1.0
  S  S9  1  0.45488752  0.75000000  0.77512157  1.0
  S  S10  1  0.31570645  0.25000000  0.48279894  1.0
  S  S11  1  0.68429355  0.75000000  0.51720106  1.0
