# generated using pymatgen
data_NaLa2TaO6
_symmetry_space_group_name_H-M   'P 1'
_cell_length_a   5.72983349
_cell_length_b   6.02960059
_cell_length_c   9.99428100
_cell_angle_alpha   90.00000000
_cell_angle_beta   124.00276740
_cell_angle_gamma   90.00000000
_symmetry_Int_Tables_number   1
_chemical_formula_structural   NaLa2TaO6
_chemical_formula_sum   'Na2 La4 Ta2 O12'
_cell_volume   286.24780576
_cell_formula_units_Z   2
loop_
 _symmetry_equiv_pos_site_id
 _symmetry_equiv_pos_as_xyz
  1  'x, y, z'
loop_
 _atom_site_type_symbol
 _atom_site_label
 _atom_site_symmetry_multiplicity
 _atom_site_fract_x
 _atom_site_fract_y
 _atom_site_fract_z
 _atom_site_occupancy
  Na  Na0  1  0.50000000  0.50000000  0.00000000  1.0
  Na  Na1  1  0.50000000  0.00000000  0.50000000  1.0
  La  La2  1  0.72481694  0.05860010  0.24357847  1.0
  La  La3  1  0.72481694  0.44139990  0.74357847  1.0
  La  La4  1  0.27518306  0.55860010  0.25642153  1.0
  La  La5  1  0.27518306  0.94139990  0.75642153  1.0
  Ta  Ta6  1  -0.00000000  0.50000000  0.50000000  1.0
  Ta  Ta7  1  0.00000000  0.00000000  0.00000000  1.0
  O  O8  1  0.89901982  0.44034264  0.27557227  1.0
  O  O9  1  0.89901982  0.05965736  0.77557227  1.0
  O  O10  1  0.10098018  0.94034264  0.22442773  1.0
  O  O11  1  0.10098018  0.55965736  0.72442773  1.0
  O  O12  1  0.75608546  0.77442610  0.42332672  1.0
  O  O13  1  0.75608546  0.72557390  0.92332672  1.0
  O  O14  1  0.24391454  0.27442610  0.07667328  1.0
  O  O15  1  0.24391454  0.22557390  0.57667328  1.0
  O  O16  1  0.66333313  0.32493008  0.44822146  1.0
  O  O17  1  0.66333313  0.17506992  0.94822146  1.0
  O  O18  1  0.33666687  0.82493008  0.05177854  1.0
  O  O19  1  0.33666687  0.67506992  0.55177854  1.0
