# generated using pymatgen
data_Fe2(CO)9
_symmetry_space_group_name_H-M   'P 1'
_cell_length_a   6.87529948
_cell_length_b   6.87529948
_cell_length_c   16.88882440
_cell_angle_alpha   90.00000000
_cell_angle_beta   90.00000000
_cell_angle_gamma   120.00000000
_symmetry_Int_Tables_number   1
_chemical_formula_structural   Fe2(CO)9
_chemical_formula_sum   'Fe4 C18 O18'
_cell_volume   691.37439673
_cell_formula_units_Z   2
loop_
 _symmetry_equiv_pos_site_id
 _symmetry_equiv_pos_as_xyz
  1  'x, y, z'
loop_
 _atom_site_type_symbol
 _atom_site_label
 _atom_site_symmetry_multiplicity
 _atom_site_fract_x
 _atom_site_fract_y
 _atom_site_fract_z
 _atom_site_occupancy
  Fe  Fe0  1  0.33333333  0.66666667  0.32430133  1.0
  Fe  Fe1  1  0.33333333  0.66666667  0.17569867  1.0
  Fe  Fe2  1  0.66666667  0.33333333  0.82430133  1.0
  Fe  Fe3  1  0.66666667  0.33333333  0.67569867  1.0
  C  C4  1  0.33884997  0.89455248  0.37997607  1.0
  C  C5  1  0.33884997  0.89455248  0.12002393  1.0
  C  C6  1  0.89455248  0.55570250  0.87997607  1.0
  C  C7  1  0.89455248  0.55570250  0.62002393  1.0
  C  C8  1  0.55570250  0.66115003  0.37997607  1.0
  C  C9  1  0.55570250  0.66115003  0.12002393  1.0
  C  C10  1  0.10544752  0.44429750  0.37997607  1.0
  C  C11  1  0.10544752  0.44429750  0.12002393  1.0
  C  C12  1  0.66115003  0.10544752  0.87997607  1.0
  C  C13  1  0.66115003  0.10544752  0.62002393  1.0
  C  C14  1  0.44429750  0.33884997  0.87997607  1.0
  C  C15  1  0.44429750  0.33884997  0.62002393  1.0
  C  C16  1  0.10867289  0.67008181  0.25000000  1.0
  C  C17  1  0.67008181  0.56140892  0.75000000  1.0
  C  C18  1  0.56140892  0.89132711  0.25000000  1.0
  C  C19  1  0.32991819  0.43859108  0.25000000  1.0
  C  C20  1  0.89132711  0.32991819  0.75000000  1.0
  C  C21  1  0.43859108  0.10867289  0.75000000  1.0
  O  O22  1  0.69070269  0.65647406  0.41901373  1.0
  O  O23  1  0.69070269  0.65647406  0.08098627  1.0
  O  O24  1  0.65647406  0.96577136  0.91901373  1.0
  O  O25  1  0.65647406  0.96577136  0.58098627  1.0
  O  O26  1  0.96577136  0.30929731  0.41901373  1.0
  O  O27  1  0.96577136  0.30929731  0.08098627  1.0
  O  O28  1  0.34352594  0.03422864  0.41901373  1.0
  O  O29  1  0.34352594  0.03422864  0.08098627  1.0
  O  O30  1  0.30929731  0.34352594  0.91901373  1.0
  O  O31  1  0.30929731  0.34352594  0.58098627  1.0
  O  O32  1  0.03422864  0.69070269  0.91901373  1.0
  O  O33  1  0.03422864  0.69070269  0.58098627  1.0
  O  O34  1  0.93889436  0.67191866  0.25000000  1.0
  O  O35  1  0.67191866  0.73302430  0.75000000  1.0
  O  O36  1  0.73302430  0.06110564  0.25000000  1.0
  O  O37  1  0.32808134  0.26697570  0.25000000  1.0
  O  O38  1  0.06110564  0.32808134  0.75000000  1.0
  O  O39  1  0.26697570  0.93889436  0.75000000  1.0
