# generated using pymatgen
data_Sr2IN
_symmetry_space_group_name_H-M   'P 1'
_cell_length_a   8.13339558
_cell_length_b   8.13339558
_cell_length_c   8.13339558
_cell_angle_alpha   28.68379056
_cell_angle_beta   28.68379056
_cell_angle_gamma   28.68379056
_symmetry_Int_Tables_number   1
_chemical_formula_structural   Sr2IN
_chemical_formula_sum   'Sr2 I1 N1'
_cell_volume   109.58482785
_cell_formula_units_Z   1
loop_
 _symmetry_equiv_pos_site_id
 _symmetry_equiv_pos_as_xyz
  1  'x, y, z'
loop_
 _atom_site_type_symbol
 _atom_site_label
 _atom_site_symmetry_multiplicity
 _atom_site_fract_x
 _atom_site_fract_y
 _atom_site_fract_z
 _atom_site_occupancy
  Sr  Sr0  1  0.72287809  0.72287809  0.72287809  1.0
  Sr  Sr1  1  1.27712191  1.27712191  0.27712191  1.0
  I  I2  1  1.50000000  0.50000000  0.50000000  1.0
  N  N3  1  0.00000000  0.00000000  0.00000000  1.0
