# generated using pymatgen
data_KAuN12
_symmetry_space_group_name_H-M   'P 1'
_cell_length_a   7.74434804
_cell_length_b   7.74434804
_cell_length_c   7.97912692
_cell_angle_alpha   86.06202491
_cell_angle_beta   93.93797509
_cell_angle_gamma   94.59037319
_symmetry_Int_Tables_number   1
_chemical_formula_structural   KAuN12
_chemical_formula_sum   'K2 Au2 N24'
_cell_volume   474.92486415
_cell_formula_units_Z   2
loop_
 _symmetry_equiv_pos_site_id
 _symmetry_equiv_pos_as_xyz
  1  'x, y, z'
loop_
 _atom_site_type_symbol
 _atom_site_label
 _atom_site_symmetry_multiplicity
 _atom_site_fract_x
 _atom_site_fract_y
 _atom_site_fract_z
 _atom_site_occupancy
  K  K0  1  0.58757078  0.58757078  0.75000000  1.0
  K  K1  1  0.41242922  0.41242922  0.25000000  1.0
  Au  Au2  1  0.99829815  0.99829815  0.75000000  1.0
  Au  Au3  1  0.00170185  0.00170185  0.25000000  1.0
  N  N4  1  1.73614031  -0.03152600  0.67986227  1.0
  N  N5  1  1.03152600  -0.73614031  0.17986227  1.0
  N  N6  1  0.96847400  0.73614031  0.82013773  1.0
  N  N7  1  0.26385969  0.03152600  0.32013773  1.0
  N  N8  1  0.66832280  0.09415193  0.61392310  1.0
  N  N9  1  0.90584807  0.33167720  0.11392310  1.0
  N  N10  1  1.09415193  -0.33167720  0.88607690  1.0
  N  N11  1  1.33167720  -0.09415193  0.38607690  1.0
  N  N12  1  0.59420950  0.20737714  0.55088242  1.0
  N  N13  1  0.79262286  0.40579050  0.05088242  1.0
  N  N14  1  1.20737714  -0.40579050  0.94911758  1.0
  N  N15  1  1.40579050  -0.20737714  0.44911758  1.0
  N  N16  1  1.25668267  -0.00038352  0.82304327  1.0
  N  N17  1  1.00038352  -0.25668267  0.32304327  1.0
  N  N18  1  0.99961648  0.25668267  0.67695673  1.0
  N  N19  1  0.74331733  0.00038352  0.17695673  1.0
  N  N20  1  0.33197115  0.12946362  0.87696989  1.0
  N  N21  1  0.87053638  0.66802885  0.37696989  1.0
  N  N22  1  1.12946362  -0.66802885  0.62303011  1.0
  N  N23  1  1.66802885  -0.12946362  0.12303011  1.0
  N  N24  1  0.41664726  0.24587880  0.92936856  1.0
  N  N25  1  0.75412120  0.58335274  0.42936856  1.0
  N  N26  1  1.24587880  -0.58335274  0.57063144  1.0
  N  N27  1  1.58335274  -0.24587880  0.07063144  1.0
