# generated using pymatgen
data_Ca3(Cu2Sn)4
_symmetry_space_group_name_H-M   'P 1'
_cell_length_a   9.19033346
_cell_length_b   9.19033346
_cell_length_c   7.74648008
_cell_angle_alpha   90.00000000
_cell_angle_beta   90.00000000
_cell_angle_gamma   120.00000000
_symmetry_Int_Tables_number   1
_chemical_formula_structural   Ca3(Cu2Sn)4
_chemical_formula_sum   'Ca6 Cu16 Sn8'
_cell_volume   566.62741033
_cell_formula_units_Z   2
loop_
 _symmetry_equiv_pos_site_id
 _symmetry_equiv_pos_as_xyz
  1  'x, y, z'
loop_
 _atom_site_type_symbol
 _atom_site_label
 _atom_site_symmetry_multiplicity
 _atom_site_fract_x
 _atom_site_fract_y
 _atom_site_fract_z
 _atom_site_occupancy
  Ca  Ca0  1  0.95096637  0.47548318  0.22236894  1.0
  Ca  Ca1  1  0.47548318  0.95096637  0.72236894  1.0
  Ca  Ca2  1  0.47548318  0.52451682  0.72236894  1.0
  Ca  Ca3  1  0.52451682  0.47548318  0.22236894  1.0
  Ca  Ca4  1  0.52451682  0.04903363  0.22236894  1.0
  Ca  Ca5  1  0.04903363  0.52451682  0.72236894  1.0
  Cu  Cu6  1  0.67285771  0.83642886  0.05537667  1.0
  Cu  Cu7  1  0.83642886  0.67285771  0.55537667  1.0
  Cu  Cu8  1  0.83642886  0.16357114  0.55537667  1.0
  Cu  Cu9  1  0.16357114  0.83642886  0.05537667  1.0
  Cu  Cu10  1  0.16357114  0.32714229  0.05537667  1.0
  Cu  Cu11  1  0.32714229  0.16357114  0.55537667  1.0
  Cu  Cu12  1  0.20498097  0.10249048  0.24712847  1.0
  Cu  Cu13  1  0.10249048  0.20498097  0.74712847  1.0
  Cu  Cu14  1  0.10249048  0.89750952  0.74712847  1.0
  Cu  Cu15  1  0.89750952  0.10249048  0.24712847  1.0
  Cu  Cu16  1  0.89750952  0.79501903  0.24712847  1.0
  Cu  Cu17  1  0.79501903  0.89750952  0.74712847  1.0
  Cu  Cu18  1  0.33333333  0.66666667  0.38908980  1.0
  Cu  Cu19  1  0.66666667  0.33333333  0.88908980  1.0
  Cu  Cu20  1  0.00000000  0.00000000  -0.00037531  1.0
  Cu  Cu21  1  0.00000000  0.00000000  0.49962469  1.0
  Sn  Sn22  1  0.66199661  0.83099830  0.42901173  1.0
  Sn  Sn23  1  0.83099830  0.66199661  0.92901173  1.0
  Sn  Sn24  1  0.83099830  0.16900170  0.92901173  1.0
  Sn  Sn25  1  0.16900170  0.83099830  0.42901173  1.0
  Sn  Sn26  1  0.16900170  0.33800339  0.42901173  1.0
  Sn  Sn27  1  0.33800339  0.16900170  0.92901173  1.0
  Sn  Sn28  1  0.33333333  0.66666667  0.02932807  1.0
  Sn  Sn29  1  0.66666667  0.33333333  0.52932807  1.0
