# generated using pymatgen
data_HfAl
_symmetry_space_group_name_H-M   'P 1'
_cell_length_a   5.67185519
_cell_length_b   5.67185519
_cell_length_c   4.29384588
_cell_angle_alpha   90.00000000
_cell_angle_beta   90.00000000
_cell_angle_gamma   146.60439157
_symmetry_Int_Tables_number   1
_chemical_formula_structural   HfAl
_chemical_formula_sum   'Hf2 Al2'
_cell_volume   76.03059024
_cell_formula_units_Z   2
loop_
 _symmetry_equiv_pos_site_id
 _symmetry_equiv_pos_as_xyz
  1  'x, y, z'
loop_
 _atom_site_type_symbol
 _atom_site_label
 _atom_site_symmetry_multiplicity
 _atom_site_fract_x
 _atom_site_fract_y
 _atom_site_fract_z
 _atom_site_occupancy
  Hf  Hf0  1  -0.16328308  0.16328308  0.25000000  1.0
  Hf  Hf1  1  0.16328308  0.83671692  0.75000000  1.0
  Al  Al2  1  -0.42970420  0.42970420  0.25000000  1.0
  Al  Al3  1  0.42970420  0.57029580  0.75000000  1.0
