# generated using pymatgen
data_Hf3Ge
_symmetry_space_group_name_H-M   'P 1'
_cell_length_a   10.97357201
_cell_length_b   10.97357201
_cell_length_c   5.42793783
_cell_angle_alpha   90.00000000
_cell_angle_beta   90.00000000
_cell_angle_gamma   90.00000000
_symmetry_Int_Tables_number   1
_chemical_formula_structural   Hf3Ge
_chemical_formula_sum   'Hf24 Ge8'
_cell_volume   653.62838009
_cell_formula_units_Z   8
loop_
 _symmetry_equiv_pos_site_id
 _symmetry_equiv_pos_as_xyz
  1  'x, y, z'
loop_
 _atom_site_type_symbol
 _atom_site_label
 _atom_site_symmetry_multiplicity
 _atom_site_fract_x
 _atom_site_fract_y
 _atom_site_fract_z
 _atom_site_occupancy
  Hf  Hf0  1  0.81857927  0.71626629  0.50487495  1.0
  Hf  Hf1  1  0.18142073  0.28373371  0.50487495  1.0
  Hf  Hf2  1  0.31857927  0.21626629  0.99512505  1.0
  Hf  Hf3  1  0.68142073  0.78373371  0.99512505  1.0
  Hf  Hf4  1  0.71626629  0.18142073  0.49512505  1.0
  Hf  Hf5  1  0.28373371  0.81857927  0.49512505  1.0
  Hf  Hf6  1  0.21626629  0.68142073  0.00487495  1.0
  Hf  Hf7  1  0.78373371  0.31857927  0.00487495  1.0
  Hf  Hf8  1  0.47290096  0.64074751  0.72116142  1.0
  Hf  Hf9  1  0.52709904  0.35925249  0.72116142  1.0
  Hf  Hf10  1  0.97290096  0.14074751  0.77883858  1.0
  Hf  Hf11  1  0.02709904  0.85925249  0.77883858  1.0
  Hf  Hf12  1  0.64074751  0.52709904  0.27883858  1.0
  Hf  Hf13  1  0.35925249  0.47290096  0.27883858  1.0
  Hf  Hf14  1  0.14074751  0.02709904  0.22116142  1.0
  Hf  Hf15  1  0.85925249  0.97290096  0.22116142  1.0
  Hf  Hf16  1  0.91789965  0.60695705  0.02552912  1.0
  Hf  Hf17  1  0.08210035  0.39304295  0.02552912  1.0
  Hf  Hf18  1  0.41789965  0.10695705  0.47447088  1.0
  Hf  Hf19  1  0.58210035  0.89304295  0.47447088  1.0
  Hf  Hf20  1  0.60695705  0.08210035  0.97447088  1.0
  Hf  Hf21  1  0.39304295  0.91789965  0.97447088  1.0
  Hf  Hf22  1  0.10695705  0.58210035  0.52552912  1.0
  Hf  Hf23  1  0.89304295  0.41789965  0.52552912  1.0
  Ge  Ge24  1  0.45906262  0.70391814  0.21441403  1.0
  Ge  Ge25  1  0.54093738  0.29608186  0.21441403  1.0
  Ge  Ge26  1  0.95906262  0.20391814  0.28558597  1.0
  Ge  Ge27  1  0.04093738  0.79608186  0.28558597  1.0
  Ge  Ge28  1  0.70391814  0.54093738  0.78558597  1.0
  Ge  Ge29  1  0.29608186  0.45906262  0.78558597  1.0
  Ge  Ge30  1  0.20391814  0.04093738  0.71441403  1.0
  Ge  Ge31  1  0.79608186  0.95906262  0.71441403  1.0
