# generated using pymatgen
data_LuAlIr
_symmetry_space_group_name_H-M   'P 1'
_cell_length_a   6.75087427
_cell_length_b   4.19174005
_cell_length_c   7.86862633
_cell_angle_alpha   90.00000000
_cell_angle_beta   90.00000000
_cell_angle_gamma   90.00000000
_symmetry_Int_Tables_number   1
_chemical_formula_structural   LuAlIr
_chemical_formula_sum   'Lu4 Al4 Ir4'
_cell_volume   222.66568022
_cell_formula_units_Z   4
loop_
 _symmetry_equiv_pos_site_id
 _symmetry_equiv_pos_as_xyz
  1  'x, y, z'
loop_
 _atom_site_type_symbol
 _atom_site_label
 _atom_site_symmetry_multiplicity
 _atom_site_fract_x
 _atom_site_fract_y
 _atom_site_fract_z
 _atom_site_occupancy
  Lu  Lu0  1  0.96775095  0.75000000  0.67722598  1.0
  Lu  Lu1  1  0.46775095  0.75000000  0.82277402  1.0
  Lu  Lu2  1  0.03224905  0.25000000  0.32277402  1.0
  Lu  Lu3  1  0.53224905  0.25000000  0.17722598  1.0
  Al  Al4  1  0.85996299  0.75000000  0.05934773  1.0
  Al  Al5  1  0.35996299  0.75000000  0.44065227  1.0
  Al  Al6  1  0.14003701  0.25000000  0.94065227  1.0
  Al  Al7  1  0.64003701  0.25000000  0.55934773  1.0
  Ir  Ir8  1  0.73401323  0.75000000  0.37631728  1.0
  Ir  Ir9  1  0.23401323  0.75000000  0.12368272  1.0
  Ir  Ir10  1  0.26598677  0.25000000  0.62368272  1.0
  Ir  Ir11  1  0.76598677  0.25000000  0.87631728  1.0
