# generated using pymatgen
data_CuPb2F6
_symmetry_space_group_name_H-M   'P 1'
_cell_length_a   8.55711330
_cell_length_b   8.55711330
_cell_length_c   5.63189319
_cell_angle_alpha   90.00000000
_cell_angle_beta   90.00000000
_cell_angle_gamma   38.41704588
_symmetry_Int_Tables_number   1
_chemical_formula_structural   CuPb2F6
_chemical_formula_sum   'Cu2 Pb4 F12'
_cell_volume   256.25177270
_cell_formula_units_Z   2
loop_
 _symmetry_equiv_pos_site_id
 _symmetry_equiv_pos_as_xyz
  1  'x, y, z'
loop_
 _atom_site_type_symbol
 _atom_site_label
 _atom_site_symmetry_multiplicity
 _atom_site_fract_x
 _atom_site_fract_y
 _atom_site_fract_z
 _atom_site_occupancy
  Cu  Cu0  1  0.00000000  0.00000000  0.00000000  1.0
  Cu  Cu1  1  -0.50000000  0.50000000  0.50000000  1.0
  Pb  Pb2  1  -0.34587890  0.65412110  0.00000000  1.0
  Pb  Pb3  1  0.15412110  0.15412110  0.50000000  1.0
  Pb  Pb4  1  0.34587890  0.34587890  0.00000000  1.0
  Pb  Pb5  1  -0.15412110  0.84587890  0.50000000  1.0
  F  F6  1  0.00141600  0.49858400  0.75000000  1.0
  F  F7  1  -0.49858400  0.99858400  0.75000000  1.0
  F  F8  1  -0.50141600  1.00141600  0.25000000  1.0
  F  F9  1  -0.00141600  0.50141600  0.25000000  1.0
  F  F10  1  -0.80738152  0.80738152  0.69277170  1.0
  F  F11  1  -0.30738152  0.30738152  0.80722830  1.0
  F  F12  1  -0.19261848  0.19261848  0.30722830  1.0
  F  F13  1  -0.69261848  0.69261848  0.19277170  1.0
  F  F14  1  -0.12320426  0.87679574  0.00000000  1.0
  F  F15  1  0.37679574  0.37679574  0.50000000  1.0
  F  F16  1  0.12320426  0.12320426  0.00000000  1.0
  F  F17  1  -0.37679574  0.62320426  0.50000000  1.0
