# generated using pymatgen
data_InSn2Cl5
_symmetry_space_group_name_H-M   'P 1'
_cell_length_a   8.99823357
_cell_length_b   8.65039558
_cell_length_c   12.83666262
_cell_angle_alpha   90.00000000
_cell_angle_beta   91.80483929
_cell_angle_gamma   90.00000000
_symmetry_Int_Tables_number   1
_chemical_formula_structural   InSn2Cl5
_chemical_formula_sum   'In4 Sn8 Cl20'
_cell_volume   998.68804698
_cell_formula_units_Z   4
loop_
 _symmetry_equiv_pos_site_id
 _symmetry_equiv_pos_as_xyz
  1  'x, y, z'
loop_
 _atom_site_type_symbol
 _atom_site_label
 _atom_site_symmetry_multiplicity
 _atom_site_fract_x
 _atom_site_fract_y
 _atom_site_fract_z
 _atom_site_occupancy
  In  In0  1  0.49422024  0.45497929  0.17573644  1.0
  In  In1  1  0.49422024  0.04502071  0.67573644  1.0
  In  In2  1  0.50577976  0.95497929  0.32426356  1.0
  In  In3  1  0.50577976  0.54502071  0.82426356  1.0
  Sn  Sn4  1  1.02150971  0.55707278  0.16208499  1.0
  Sn  Sn5  1  1.02150971  -0.05707278  0.66208499  1.0
  Sn  Sn6  1  -0.02150971  1.05707278  0.33791501  1.0
  Sn  Sn7  1  -0.02150971  0.44292722  0.83791501  1.0
  Sn  Sn8  1  0.73330544  0.47548894  0.49295411  1.0
  Sn  Sn9  1  0.73330544  0.02451106  0.99295411  1.0
  Sn  Sn10  1  0.26669456  0.97548894  0.00704589  1.0
  Sn  Sn11  1  0.26669456  0.52451106  0.50704589  1.0
  Cl  Cl12  1  0.74370900  0.16993062  0.22729424  1.0
  Cl  Cl13  1  0.74370900  0.33006938  0.72729424  1.0
  Cl  Cl14  1  0.25629100  0.66993062  0.27270576  1.0
  Cl  Cl15  1  0.25629100  0.83006938  0.77270576  1.0
  Cl  Cl16  1  0.72984713  0.64814155  0.32508332  1.0
  Cl  Cl17  1  0.72984713  0.85185845  0.82508332  1.0
  Cl  Cl18  1  0.27015287  0.14814155  0.17491668  1.0
  Cl  Cl19  1  0.27015287  0.35185845  0.67491668  1.0
  Cl  Cl20  1  0.79545494  0.03781620  0.49133563  1.0
  Cl  Cl21  1  0.79545494  0.46218380  0.99133563  1.0
  Cl  Cl22  1  0.20454506  0.53781620  0.00866437  1.0
  Cl  Cl23  1  0.20454506  0.96218380  0.50866437  1.0
  Cl  Cl24  1  0.96013979  0.84212009  0.10367624  1.0
  Cl  Cl25  1  0.96013979  0.65787991  0.60367624  1.0
  Cl  Cl26  1  0.03986021  0.34212009  0.39632376  1.0
  Cl  Cl27  1  0.03986021  0.15787991  0.89632376  1.0
  Cl  Cl28  1  0.46131185  0.33333036  0.41989284  1.0
  Cl  Cl29  1  0.46131185  0.16666964  0.91989284  1.0
  Cl  Cl30  1  0.53868815  0.83333036  0.08010716  1.0
  Cl  Cl31  1  0.53868815  0.66666964  0.58010716  1.0
