# generated using pymatgen
data_Na2MnO2
_symmetry_space_group_name_H-M   'P 1'
_cell_length_a   8.75729589
_cell_length_b   8.75729589
_cell_length_c   6.19723199
_cell_angle_alpha   69.65898246
_cell_angle_beta   110.34101754
_cell_angle_gamma   92.47820163
_symmetry_Int_Tables_number   1
_chemical_formula_structural   Na2MnO2
_chemical_formula_sum   'Na12 Mn6 O12'
_cell_volume   416.20987239
_cell_formula_units_Z   6
loop_
 _symmetry_equiv_pos_site_id
 _symmetry_equiv_pos_as_xyz
  1  'x, y, z'
loop_
 _atom_site_type_symbol
 _atom_site_label
 _atom_site_symmetry_multiplicity
 _atom_site_fract_x
 _atom_site_fract_y
 _atom_site_fract_z
 _atom_site_occupancy
  Na  Na0  1  1.59978261  0.00214733  0.23462486  1.0
  Na  Na1  1  0.99785267  -0.59978261  0.73462486  1.0
  Na  Na2  1  1.00214733  0.59978261  0.26537514  1.0
  Na  Na3  1  0.40021739  -0.00214733  0.76537514  1.0
  Na  Na4  1  0.53527870  0.32721034  0.23240530  1.0
  Na  Na5  1  0.67278966  0.46472130  0.73240530  1.0
  Na  Na6  1  1.32721034  -0.46472130  0.26759470  1.0
  Na  Na7  1  1.46472130  -0.32721034  0.76759470  1.0
  Na  Na8  1  0.94062113  0.94062113  0.25000000  1.0
  Na  Na9  1  0.05937887  0.05937887  0.75000000  1.0
  Na  Na10  1  0.20059025  0.20059025  0.25000000  1.0
  Na  Na11  1  0.79940975  0.79940975  0.75000000  1.0
  Mn  Mn12  1  1.29445513  -0.13051224  0.24140722  1.0
  Mn  Mn13  1  1.13051224  -0.29445513  0.74140722  1.0
  Mn  Mn14  1  0.86948776  0.29445513  0.25859278  1.0
  Mn  Mn15  1  0.70554487  0.13051224  0.75859278  1.0
  Mn  Mn16  1  0.68187240  0.68187240  0.25000000  1.0
  Mn  Mn17  1  0.31812760  0.31812760  0.75000000  1.0
  O  O18  1  1.51887064  -0.27838988  0.39905661  1.0
  O  O19  1  1.27838988  -0.51887064  0.89905661  1.0
  O  O20  1  0.72161012  0.51887064  0.10094339  1.0
  O  O21  1  0.48112936  0.27838988  0.60094339  1.0
  O  O22  1  1.67482428  -0.10023304  0.97001404  1.0
  O  O23  1  1.10023304  -0.67482428  0.47001404  1.0
  O  O24  1  0.89976696  0.67482428  0.52998596  1.0
  O  O25  1  0.32517572  0.10023304  0.02998596  1.0
  O  O26  1  0.77751317  0.11639639  0.48490114  1.0
  O  O27  1  0.88360361  0.22248683  0.98490114  1.0
  O  O28  1  1.11639639  -0.22248683  0.01509886  1.0
  O  O29  1  1.22248683  -0.11639639  0.51509886  1.0
