# generated using pymatgen
data_Y3(Co2Sn)4
_symmetry_space_group_name_H-M   'P 1'
_cell_length_a   8.94157656
_cell_length_b   8.94157656
_cell_length_c   7.44046774
_cell_angle_alpha   90.00000000
_cell_angle_beta   90.00000000
_cell_angle_gamma   120.00000000
_symmetry_Int_Tables_number   1
_chemical_formula_structural   Y3(Co2Sn)4
_chemical_formula_sum   'Y6 Co16 Sn8'
_cell_volume   515.18008813
_cell_formula_units_Z   2
loop_
 _symmetry_equiv_pos_site_id
 _symmetry_equiv_pos_as_xyz
  1  'x, y, z'
loop_
 _atom_site_type_symbol
 _atom_site_label
 _atom_site_symmetry_multiplicity
 _atom_site_fract_x
 _atom_site_fract_y
 _atom_site_fract_z
 _atom_site_occupancy
  Y  Y0  1  0.94139355  0.47069677  0.22211787  1.0
  Y  Y1  1  0.47069677  0.94139355  0.72211787  1.0
  Y  Y2  1  0.47069677  0.52930323  0.72211787  1.0
  Y  Y3  1  0.52930323  0.47069677  0.22211787  1.0
  Y  Y4  1  0.52930323  0.05860645  0.22211787  1.0
  Y  Y5  1  0.05860645  0.52930323  0.72211787  1.0
  Sn  Sn6  1  0.65555562  0.82777781  0.42527380  1.0
  Sn  Sn7  1  0.82777781  0.65555562  0.92527380  1.0
  Sn  Sn8  1  0.82777781  0.17222219  0.92527380  1.0
  Sn  Sn9  1  0.17222219  0.82777781  0.42527380  1.0
  Sn  Sn10  1  0.17222219  0.34444438  0.42527380  1.0
  Sn  Sn11  1  0.34444438  0.17222219  0.92527380  1.0
  Sn  Sn12  1  0.33333333  0.66666667  0.05740351  1.0
  Sn  Sn13  1  0.66666667  0.33333333  0.55740351  1.0
  Co  Co14  1  0.00000000  0.00000000  -0.00050961  1.0
  Co  Co15  1  0.00000000  0.00000000  0.49949039  1.0
  Co  Co16  1  0.19471557  0.09735778  0.24615476  1.0
  Co  Co17  1  0.09735778  0.19471557  0.74615476  1.0
  Co  Co18  1  0.09735778  0.90264222  0.74615476  1.0
  Co  Co19  1  0.90264222  0.09735778  0.24615476  1.0
  Co  Co20  1  0.90264222  0.80528443  0.24615476  1.0
  Co  Co21  1  0.80528443  0.90264222  0.74615476  1.0
  Co  Co22  1  0.68332568  0.84166284  0.05004503  1.0
  Co  Co23  1  0.84166284  0.68332568  0.55004503  1.0
  Co  Co24  1  0.84166284  0.15833716  0.55004503  1.0
  Co  Co25  1  0.15833716  0.84166284  0.05004503  1.0
  Co  Co26  1  0.15833716  0.31667432  0.05004503  1.0
  Co  Co27  1  0.31667432  0.15833716  0.55004503  1.0
  Co  Co28  1  0.33333333  0.66666667  0.43603173  1.0
  Co  Co29  1  0.66666667  0.33333333  0.93603173  1.0
