# generated using pymatgen
data_Ca2BN2F
_symmetry_space_group_name_H-M   'P 1'
_cell_length_a   9.21852943
_cell_length_b   3.67230289
_cell_length_c   10.01800269
_cell_angle_alpha   90.00000000
_cell_angle_beta   90.00000000
_cell_angle_gamma   90.00000000
_symmetry_Int_Tables_number   1
_chemical_formula_structural   Ca2BN2F
_chemical_formula_sum   'Ca8 B4 N8 F4'
_cell_volume   339.14177178
_cell_formula_units_Z   4
loop_
 _symmetry_equiv_pos_site_id
 _symmetry_equiv_pos_as_xyz
  1  'x, y, z'
loop_
 _atom_site_type_symbol
 _atom_site_label
 _atom_site_symmetry_multiplicity
 _atom_site_fract_x
 _atom_site_fract_y
 _atom_site_fract_z
 _atom_site_occupancy
  Ca  Ca0  1  0.97284517  0.75000000  0.65626081  1.0
  Ca  Ca1  1  0.47284517  0.75000000  0.84373919  1.0
  Ca  Ca2  1  0.02715483  0.25000000  0.34373919  1.0
  Ca  Ca3  1  0.52715483  0.25000000  0.15626081  1.0
  Ca  Ca4  1  0.82370903  0.75000000  0.02603244  1.0
  Ca  Ca5  1  0.32370903  0.75000000  0.47396756  1.0
  Ca  Ca6  1  0.17629097  0.25000000  0.97396756  1.0
  Ca  Ca7  1  0.67629097  0.25000000  0.52603244  1.0
  B  B8  1  0.76446772  0.75000000  0.32372030  1.0
  B  B9  1  0.26446772  0.75000000  0.17627970  1.0
  B  B10  1  0.23553228  0.25000000  0.67627970  1.0
  B  B11  1  0.73553228  0.25000000  0.82372030  1.0
  N  N12  1  0.84618927  0.75000000  0.43596463  1.0
  N  N13  1  0.34618927  0.75000000  0.06403537  1.0
  N  N14  1  0.15381073  0.25000000  0.56403537  1.0
  N  N15  1  0.65381073  0.25000000  0.93596463  1.0
  N  N16  1  0.67910515  0.75000000  0.21664776  1.0
  N  N17  1  0.17910515  0.75000000  0.28335224  1.0
  N  N18  1  0.32089485  0.25000000  0.78335224  1.0
  N  N19  1  0.82089485  0.25000000  0.71664776  1.0
  F  F20  1  0.54058726  0.75000000  0.60554592  1.0
  F  F21  1  0.04058726  0.75000000  0.89445408  1.0
  F  F22  1  0.45941274  0.25000000  0.39445408  1.0
  F  F23  1  0.95941274  0.25000000  0.10554592  1.0
