# generated using pymatgen
data_EuTl(WO4)2
_symmetry_space_group_name_H-M   'P 1'
_cell_length_a   7.67617337
_cell_length_b   7.67617337
_cell_length_c   7.68878313
_cell_angle_alpha   62.14993736
_cell_angle_beta   117.85006264
_cell_angle_gamma   91.24722602
_symmetry_Int_Tables_number   1
_chemical_formula_structural   EuTl(WO4)2
_chemical_formula_sum   'Eu2 Tl2 W4 O16'
_cell_volume   342.81060764
_cell_formula_units_Z   2
loop_
 _symmetry_equiv_pos_site_id
 _symmetry_equiv_pos_as_xyz
  1  'x, y, z'
loop_
 _atom_site_type_symbol
 _atom_site_label
 _atom_site_symmetry_multiplicity
 _atom_site_fract_x
 _atom_site_fract_y
 _atom_site_fract_z
 _atom_site_occupancy
  Eu  Eu0  1  0.77277742  0.77277742  0.25000000  1.0
  Eu  Eu1  1  0.22722258  0.22722258  0.75000000  1.0
  Tl  Tl2  1  0.20702058  0.20702058  0.25000000  1.0
  Tl  Tl3  1  0.79297942  0.79297942  0.75000000  1.0
  W  W4  1  0.69482033  0.30648793  0.23206967  1.0
  W  W5  1  0.69351207  0.30517967  0.73206967  1.0
  W  W6  1  1.30648793  -0.30517967  0.26793033  1.0
  W  W7  1  1.30517967  -0.30648793  0.76793033  1.0
  O  O8  1  1.58267460  -0.37199842  0.02900340  1.0
  O  O9  1  1.37199842  -0.58267460  0.52900340  1.0
  O  O10  1  0.62800158  0.58267460  0.47099660  1.0
  O  O11  1  0.41732540  0.37199842  0.97099660  1.0
  O  O12  1  0.78446863  0.05234635  0.30642426  1.0
  O  O13  1  0.94765365  0.21553137  0.80642426  1.0
  O  O14  1  1.05234635  -0.21553137  0.19357574  1.0
  O  O15  1  1.21553137  -0.05234635  0.69357574  1.0
  O  O16  1  1.38097110  -0.07216085  0.13171908  1.0
  O  O17  1  1.07216085  -0.38097110  0.63171908  1.0
  O  O18  1  0.92783915  0.38097110  0.36828092  1.0
  O  O19  1  0.61902890  0.07216085  0.86828092  1.0
  O  O20  1  0.61846266  0.24130190  0.44011083  1.0
  O  O21  1  0.75869810  0.38153734  0.94011083  1.0
  O  O22  1  1.24130190  -0.38153734  0.05988917  1.0
  O  O23  1  1.38153734  -0.24130190  0.55988917  1.0
