# generated using pymatgen
data_Sc2Cu2O5
_symmetry_space_group_name_H-M   'P 1'
_cell_length_a   10.56386117
_cell_length_b   3.25015307
_cell_length_c   12.12330960
_cell_angle_alpha   90.00000000
_cell_angle_beta   90.00000000
_cell_angle_gamma   90.00000000
_symmetry_Int_Tables_number   1
_chemical_formula_structural   Sc2Cu2O5
_chemical_formula_sum   'Sc8 Cu8 O20'
_cell_volume   416.24372203
_cell_formula_units_Z   4
loop_
 _symmetry_equiv_pos_site_id
 _symmetry_equiv_pos_as_xyz
  1  'x, y, z'
loop_
 _atom_site_type_symbol
 _atom_site_label
 _atom_site_symmetry_multiplicity
 _atom_site_fract_x
 _atom_site_fract_y
 _atom_site_fract_z
 _atom_site_occupancy
  O  O0  1  0.41900334  0.22999332  0.40037897  1.0
  O  O1  1  0.91900334  0.27000668  0.40037897  1.0
  O  O2  1  0.58099666  0.77000668  0.90037897  1.0
  O  O3  1  0.08099666  0.72999332  0.90037897  1.0
  O  O4  1  0.16917249  0.72000722  0.29805204  1.0
  O  O5  1  0.66917249  0.77999278  0.29805204  1.0
  O  O6  1  0.83082751  0.27999278  0.79805204  1.0
  O  O7  1  0.33082751  0.22000722  0.79805204  1.0
  O  O8  1  0.37538132  0.79824815  0.59920313  1.0
  O  O9  1  0.87538132  0.70175185  0.59920313  1.0
  O  O10  1  0.62461868  0.20175185  0.09920313  1.0
  O  O11  1  0.12461868  0.29824815  0.09920313  1.0
  O  O12  1  0.43302796  0.77785386  0.19915253  1.0
  O  O13  1  0.93302796  0.72214614  0.19915253  1.0
  O  O14  1  0.56697204  0.22214614  0.69915253  1.0
  O  O15  1  0.06697204  0.27785386  0.69915253  1.0
  O  O16  1  0.31741493  0.71639676  -0.00094558  1.0
  O  O17  1  0.81741493  0.78360324  -0.00094558  1.0
  O  O18  1  0.68258507  0.28360324  0.49905442  1.0
  O  O19  1  0.18258507  0.21639676  0.49905442  1.0
  Cu  Cu20  1  0.26032082  0.65205537  0.15521987  1.0
  Cu  Cu21  1  0.76032082  0.84794463  0.15521987  1.0
  Cu  Cu22  1  0.73967918  0.34794463  0.65521987  1.0
  Cu  Cu23  1  0.23967918  0.15205537  0.65521987  1.0
  Cu  Cu24  1  0.49022126  0.84066890  0.04325880  1.0
  Cu  Cu25  1  0.99022126  0.65933110  0.04325880  1.0
  Cu  Cu26  1  0.50977874  0.15933110  0.54325880  1.0
  Cu  Cu27  1  0.00977874  0.34066890  0.54325880  1.0
  Sc  Sc28  1  0.46036093  0.72273250  0.76425979  1.0
  Sc  Sc29  1  0.96036093  0.77726750  0.76425979  1.0
  Sc  Sc30  1  0.53963907  0.27726750  0.26425979  1.0
  Sc  Sc31  1  0.03963907  0.22273250  0.26425979  1.0
  Sc  Sc32  1  0.28952982  0.72121788  0.43452045  1.0
  Sc  Sc33  1  0.78952982  0.77878212  0.43452045  1.0
  Sc  Sc34  1  0.71047018  0.27878212  0.93452045  1.0
  Sc  Sc35  1  0.21047018  0.22121788  0.93452045  1.0
