# generated using pymatgen
data_LaFeO3
_symmetry_space_group_name_H-M   'P 1'
_cell_length_a   5.53768421
_cell_length_b   7.80197930
_cell_length_c   5.53039441
_cell_angle_alpha   90.00000000
_cell_angle_beta   90.00000000
_cell_angle_gamma   90.00000000
_symmetry_Int_Tables_number   1
_chemical_formula_structural   LaFeO3
_chemical_formula_sum   'La4 Fe4 O12'
_cell_volume   238.94012386
_cell_formula_units_Z   4
loop_
 _symmetry_equiv_pos_site_id
 _symmetry_equiv_pos_as_xyz
  1  'x, y, z'
loop_
 _atom_site_type_symbol
 _atom_site_label
 _atom_site_symmetry_multiplicity
 _atom_site_fract_x
 _atom_site_fract_y
 _atom_site_fract_z
 _atom_site_occupancy
  La  La0  1  0.03134920  0.75000000  0.50576151  1.0
  La  La1  1  0.53134920  0.75000000  0.99423849  1.0
  La  La2  1  0.96865080  0.25000000  0.49423849  1.0
  La  La3  1  0.46865080  0.25000000  0.00576151  1.0
  Fe  Fe4  1  0.50000000  0.00000000  0.50000000  1.0
  Fe  Fe5  1  0.50000000  0.50000000  0.50000000  1.0
  Fe  Fe6  1  0.00000000  0.00000000  0.00000000  1.0
  Fe  Fe7  1  -0.00000000  0.50000000  0.00000000  1.0
  O  O8  1  0.27978450  0.96572151  0.77918121  1.0
  O  O9  1  0.27978450  0.53427849  0.77918121  1.0
  O  O10  1  0.77978450  0.96572151  0.72081879  1.0
  O  O11  1  0.77978450  0.53427849  0.72081879  1.0
  O  O12  1  0.72021550  0.46572151  0.22081879  1.0
  O  O13  1  0.72021550  0.03427849  0.22081879  1.0
  O  O14  1  0.22021550  0.46572151  0.27918121  1.0
  O  O15  1  0.22021550  0.03427849  0.27918121  1.0
  O  O16  1  0.99137400  0.75000000  0.06411987  1.0
  O  O17  1  0.49137400  0.75000000  0.43588013  1.0
  O  O18  1  0.00862600  0.25000000  0.93588013  1.0
  O  O19  1  0.50862600  0.25000000  0.56411987  1.0
