# generated using pymatgen
data_GaPO4
_symmetry_space_group_name_H-M   'P 1'
_cell_length_a   5.13772891
_cell_length_b   5.13772891
_cell_length_c   5.13772891
_cell_angle_alpha   122.04099443
_cell_angle_beta   122.04099443
_cell_angle_gamma   86.49981323
_symmetry_Int_Tables_number   1
_chemical_formula_structural   GaPO4
_chemical_formula_sum   'Ga1 P1 O4'
_cell_volume   92.74883998
_cell_formula_units_Z   1
loop_
 _symmetry_equiv_pos_site_id
 _symmetry_equiv_pos_as_xyz
  1  'x, y, z'
loop_
 _atom_site_type_symbol
 _atom_site_label
 _atom_site_symmetry_multiplicity
 _atom_site_fract_x
 _atom_site_fract_y
 _atom_site_fract_z
 _atom_site_occupancy
  Ga  Ga0  1  0.00000000  0.00000000  0.00000000  1.0
  P  P1  1  0.25000000  0.75000000  0.50000000  1.0
  O  O2  1  0.27041393  0.85550940  0.85657518  1.0
  O  O3  1  1.14449060  1.00106578  1.41490453  1.0
  O  O4  1  0.99893422  0.41383875  1.14342482  1.0
  O  O5  1  0.58616125  0.72958607  0.58509547  1.0
