# generated using pymatgen
data_K(TeO3)2
_symmetry_space_group_name_H-M   'P 1'
_cell_length_a   7.43106955
_cell_length_b   7.43106955
_cell_length_c   12.48563595
_cell_angle_alpha   75.08899508
_cell_angle_beta   104.91100492
_cell_angle_gamma   119.55744504
_symmetry_Int_Tables_number   1
_chemical_formula_structural   K(TeO3)2
_chemical_formula_sum   'K4 Te8 O24'
_cell_volume   572.53085923
_cell_formula_units_Z   4
loop_
 _symmetry_equiv_pos_site_id
 _symmetry_equiv_pos_as_xyz
  1  'x, y, z'
loop_
 _atom_site_type_symbol
 _atom_site_label
 _atom_site_symmetry_multiplicity
 _atom_site_fract_x
 _atom_site_fract_y
 _atom_site_fract_z
 _atom_site_occupancy
  K  K0  1  0.90727454  -0.90727454  0.30168188  1.0
  K  K1  1  0.09272546  -0.09272546  0.69831812  1.0
  K  K2  1  0.44387490  -0.44387490  0.81221919  1.0
  K  K3  1  0.55612510  -0.55612510  0.18778081  1.0
  Te  Te4  1  0.73884392  -0.73884392  0.76130910  1.0
  Te  Te5  1  0.26115608  -0.26115608  0.23869090  1.0
  Te  Te6  1  1.50000000  -0.00000000  0.50000000  1.0
  Te  Te7  1  1.00000000  -0.50000000  0.50000000  1.0
  Te  Te8  1  1.50000000  -0.00000000  0.00000000  1.0
  Te  Te9  1  1.00000000  -0.50000000  0.00000000  1.0
  Te  Te10  1  0.50000000  -0.50000000  0.50000000  1.0
  Te  Te11  1  0.00000000  0.00000000  0.00000000  1.0
  O  O12  1  0.60863383  -0.21802574  0.54469044  1.0
  O  O13  1  1.21802574  0.39136617  0.54469044  1.0
  O  O14  1  0.78197426  -0.39136617  0.45530956  1.0
  O  O15  1  1.39136617  0.21802574  0.45530956  1.0
  O  O16  1  0.68107241  -0.08395442  0.95162251  1.0
  O  O17  1  1.08395442  0.31892759  0.95162251  1.0
  O  O18  1  0.91604558  -0.31892759  0.04837749  1.0
  O  O19  1  1.31892759  0.08395442  0.04837749  1.0
  O  O20  1  0.55414372  0.01403482  0.66165837  1.0
  O  O21  1  0.98596518  0.44585628  0.66165837  1.0
  O  O22  1  1.01403482  -0.44585628  0.33834163  1.0
  O  O23  1  1.44585628  -0.01403482  0.33834163  1.0
  O  O24  1  1.47391014  0.14867742  0.84340223  1.0
  O  O25  1  0.85132258  -0.47391014  0.84340223  1.0
  O  O26  1  1.14867742  0.47391014  0.15659777  1.0
  O  O27  1  0.52608986  -0.14867742  0.15659777  1.0
  O  O28  1  0.99247510  -0.99247510  0.84653371  1.0
  O  O29  1  0.00752490  -0.00752490  0.15346628  1.0
  O  O30  1  0.79917041  -0.79917041  0.47642070  1.0
  O  O31  1  0.20082959  -0.20082959  0.52357930  1.0
  O  O32  1  0.58071848  -0.58071848  0.66368340  1.0
  O  O33  1  0.41928152  -0.41928152  0.33631660  1.0
  O  O34  1  0.25875602  -0.25875602  0.93803773  1.0
  O  O35  1  0.74124398  -0.74124398  0.06196227  1.0
