# generated using pymatgen
data_HfGaNi
_symmetry_space_group_name_H-M   'P 1'
_cell_length_a   6.88838103
_cell_length_b   6.88838103
_cell_length_c   3.40879254
_cell_angle_alpha   90.00000000
_cell_angle_beta   90.00000000
_cell_angle_gamma   120.00000000
_symmetry_Int_Tables_number   1
_chemical_formula_structural   HfGaNi
_chemical_formula_sum   'Hf3 Ga3 Ni3'
_cell_volume   140.07657876
_cell_formula_units_Z   3
loop_
 _symmetry_equiv_pos_site_id
 _symmetry_equiv_pos_as_xyz
  1  'x, y, z'
loop_
 _atom_site_type_symbol
 _atom_site_label
 _atom_site_symmetry_multiplicity
 _atom_site_fract_x
 _atom_site_fract_y
 _atom_site_fract_z
 _atom_site_occupancy
  Hf  Hf0  1  0.40091531  0.40091531  0.00000000  1.0
  Hf  Hf1  1  0.00000000  0.59908469  0.00000000  1.0
  Hf  Hf2  1  0.59908469  0.00000000  0.00000000  1.0
  Ga  Ga3  1  0.73846659  0.73846659  0.50000000  1.0
  Ga  Ga4  1  0.00000000  0.26153341  0.50000000  1.0
  Ga  Ga5  1  0.26153341  0.00000000  0.50000000  1.0
  Ni  Ni6  1  0.33333333  0.66666667  0.50000000  1.0
  Ni  Ni7  1  0.66666667  0.33333333  0.50000000  1.0
  Ni  Ni8  1  0.00000000  0.00000000  0.00000000  1.0
