# generated using pymatgen
data_CuBi2Se3O11
_symmetry_space_group_name_H-M   'P 1'
_cell_length_a   8.78469721
_cell_length_b   8.78469721
_cell_length_c   10.99579037
_cell_angle_alpha   90.00000000
_cell_angle_beta   90.00000000
_cell_angle_gamma   38.01681231
_symmetry_Int_Tables_number   1
_chemical_formula_structural   CuBi2Se3O11
_chemical_formula_sum   'Cu2 Bi4 Se6 O22'
_cell_volume   522.61886703
_cell_formula_units_Z   2
loop_
 _symmetry_equiv_pos_site_id
 _symmetry_equiv_pos_as_xyz
  1  'x, y, z'
loop_
 _atom_site_type_symbol
 _atom_site_label
 _atom_site_symmetry_multiplicity
 _atom_site_fract_x
 _atom_site_fract_y
 _atom_site_fract_z
 _atom_site_occupancy
  O  O0  1  -0.06338680  0.72503545  0.03155725  1.0
  O  O1  1  -0.22503545  0.56338680  0.03155725  1.0
  O  O2  1  -0.56338680  1.22503545  0.96844275  1.0
  O  O3  1  -0.72503545  1.06338680  0.96844275  1.0
  O  O4  1  0.10547137  0.84091609  0.24124420  1.0
  O  O5  1  -0.34091609  0.39452863  0.24124420  1.0
  O  O6  1  -0.39452863  1.34091609  0.75875580  1.0
  O  O7  1  -0.84091609  0.89452863  0.75875580  1.0
  O  O8  1  0.31273123  0.40036178  0.25418307  1.0
  O  O9  1  0.09963822  0.18726877  0.25418307  1.0
  O  O10  1  -0.18726877  0.90036178  0.74581693  1.0
  O  O11  1  -0.40036178  0.68726877  0.74581693  1.0
  O  O12  1  -0.06005342  0.78440516  0.40662212  1.0
  O  O13  1  -0.28440516  0.56005342  0.40662212  1.0
  O  O14  1  -0.56005342  1.28440516  0.59337788  1.0
  O  O15  1  -0.78440516  1.06005342  0.59337788  1.0
  O  O16  1  0.24819696  0.25180304  0.77439327  1.0
  O  O17  1  -0.25180304  0.75180304  0.22560673  1.0
  O  O18  1  0.01504065  -0.01504065  0.00000000  1.0
  O  O19  1  -0.48495935  0.48495935  0.00000000  1.0
  O  O20  1  -0.09568291  0.59568291  0.54873613  1.0
  O  O21  1  -0.59568291  1.09568291  0.45126387  1.0
  Bi  Bi22  1  -0.28428264  1.11873961  0.11996124  1.0
  Bi  Bi23  1  -0.61873961  0.78428264  0.11996124  1.0
  Bi  Bi24  1  0.21571736  0.61873961  0.88003876  1.0
  Bi  Bi25  1  -0.11873961  0.28428264  0.88003876  1.0
  Se  Se26  1  0.22766967  0.61138140  0.34602113  1.0
  Se  Se27  1  -0.11138140  0.27233033  0.34602113  1.0
  Se  Se28  1  -0.27233033  1.11138140  0.65397887  1.0
  Se  Se29  1  -0.61138140  0.77233033  0.65397887  1.0
  Se  Se30  1  -0.02808333  0.52808333  0.11578218  1.0
  Se  Se31  1  -0.52808333  1.02808333  0.88421782  1.0
  Cu  Cu32  1  -0.17428130  0.67428130  0.39339306  1.0
  Cu  Cu33  1  -0.67428130  1.17428130  0.60660694  1.0
