# generated using pymatgen
data_Re4NiMo10
_symmetry_space_group_name_H-M   'P 1'
_cell_length_a   9.62948475
_cell_length_b   9.62948475
_cell_length_c   4.97843681
_cell_angle_alpha   90.00000000
_cell_angle_beta   90.00000000
_cell_angle_gamma   90.00000000
_symmetry_Int_Tables_number   1
_chemical_formula_structural   Re4NiMo10
_chemical_formula_sum   'Re8 Ni2 Mo20'
_cell_volume   461.63539276
_cell_formula_units_Z   2
loop_
 _symmetry_equiv_pos_site_id
 _symmetry_equiv_pos_as_xyz
  1  'x, y, z'
loop_
 _atom_site_type_symbol
 _atom_site_label
 _atom_site_symmetry_multiplicity
 _atom_site_fract_x
 _atom_site_fract_y
 _atom_site_fract_z
 _atom_site_occupancy
  Re  Re0  1  0.43389197  0.24430936  0.50000000  1.0
  Re  Re1  1  0.56610803  0.75569064  0.50000000  1.0
  Re  Re2  1  0.06610803  0.74430936  0.00000000  1.0
  Re  Re3  1  0.93389197  0.25569064  0.00000000  1.0
  Re  Re4  1  0.24430936  0.43389197  0.50000000  1.0
  Re  Re5  1  0.75569064  0.56610803  0.50000000  1.0
  Re  Re6  1  0.74430936  0.06610803  0.00000000  1.0
  Re  Re7  1  0.25569064  0.93389197  0.00000000  1.0
  Ni  Ni8  1  0.50000000  0.50000000  0.50000000  1.0
  Ni  Ni9  1  0.00000000  0.00000000  0.00000000  1.0
  Mo  Mo10  1  0.10445252  0.89554748  0.50000000  1.0
  Mo  Mo11  1  0.89554748  0.10445252  0.50000000  1.0
  Mo  Mo12  1  0.39554748  0.39554748  0.00000000  1.0
  Mo  Mo13  1  0.60445252  0.60445252  0.00000000  1.0
  Mo  Mo14  1  0.37306776  0.96202187  0.50000000  1.0
  Mo  Mo15  1  0.62693224  0.03797813  0.50000000  1.0
  Mo  Mo16  1  0.12693224  0.46202187  0.00000000  1.0
  Mo  Mo17  1  0.87306776  0.53797813  0.00000000  1.0
  Mo  Mo18  1  0.96202187  0.37306776  0.50000000  1.0
  Mo  Mo19  1  0.03797813  0.62693224  0.50000000  1.0
  Mo  Mo20  1  0.46202187  0.12693224  0.00000000  1.0
  Mo  Mo21  1  0.53797813  0.87306776  0.00000000  1.0
  Mo  Mo22  1  0.32189872  0.67810128  0.24758253  1.0
  Mo  Mo23  1  0.67810128  0.32189872  0.24758253  1.0
  Mo  Mo24  1  0.17810128  0.17810128  0.74758253  1.0
  Mo  Mo25  1  0.82189872  0.82189872  0.74758253  1.0
  Mo  Mo26  1  0.67810128  0.32189872  0.75241747  1.0
  Mo  Mo27  1  0.32189872  0.67810128  0.75241747  1.0
  Mo  Mo28  1  0.82189872  0.82189872  0.25241747  1.0
  Mo  Mo29  1  0.17810128  0.17810128  0.25241747  1.0
