# generated using pymatgen
data_KH3CSN2O
_symmetry_space_group_name_H-M   'P 1'
_cell_length_a   5.17248907
_cell_length_b   9.80673033
_cell_length_c   9.84123543
_cell_angle_alpha   90.00000000
_cell_angle_beta   92.15728150
_cell_angle_gamma   90.00000000
_symmetry_Int_Tables_number   1
_chemical_formula_structural   KH3CSN2O
_chemical_formula_sum   'K4 H12 C4 S4 N8 O4'
_cell_volume   498.84488689
_cell_formula_units_Z   4
loop_
 _symmetry_equiv_pos_site_id
 _symmetry_equiv_pos_as_xyz
  1  'x, y, z'
loop_
 _atom_site_type_symbol
 _atom_site_label
 _atom_site_symmetry_multiplicity
 _atom_site_fract_x
 _atom_site_fract_y
 _atom_site_fract_z
 _atom_site_occupancy
  K  K0  1  0.78671078  0.35479975  0.95656394  1.0
  K  K1  1  0.78671078  0.14520025  0.45656394  1.0
  K  K2  1  0.21328922  0.85479975  0.54343606  1.0
  K  K3  1  0.21328922  0.64520025  0.04343606  1.0
  H  H4  1  0.77537059  0.92913888  0.97003999  1.0
  H  H5  1  0.77537059  0.57086112  0.47003999  1.0
  H  H6  1  0.22462941  0.42913888  0.52996001  1.0
  H  H7  1  0.22462941  0.07086112  0.02996001  1.0
  H  H8  1  0.52449667  0.74536065  0.79890387  1.0
  H  H9  1  0.52449667  0.75463935  0.29890387  1.0
  H  H10  1  0.47550333  0.24536065  0.70109613  1.0
  H  H11  1  0.47550333  0.25463935  0.20109613  1.0
  H  H12  1  0.32347487  0.87389015  0.83314458  1.0
  H  H13  1  0.32347486  0.62610985  0.33314458  1.0
  H  H14  1  0.67652514  0.37389015  0.66685542  1.0
  H  H15  1  0.67652514  0.12610985  0.16685542  1.0
  C  C16  1  0.79043090  0.96994748  0.76277531  1.0
  C  C17  1  0.79043090  0.53005252  0.26277531  1.0
  C  C18  1  0.20956910  0.46994748  0.73722469  1.0
  C  C19  1  0.20956910  0.03005252  0.23722469  1.0
  S  S20  1  0.95328981  0.58544512  0.70807063  1.0
  S  S21  1  0.95328981  0.91455488  0.20807063  1.0
  S  S22  1  0.04671019  0.08544512  0.79192937  1.0
  S  S23  1  0.04671019  0.41455488  0.29192937  1.0
  N  N24  1  0.69262472  0.91162008  0.87535912  1.0
  N  N25  1  0.69262472  0.58837992  0.37535912  1.0
  N  N26  1  0.30737528  0.41162008  0.62464088  1.0
  N  N27  1  0.30737528  0.08837992  0.12464088  1.0
  N  N28  1  0.48420772  0.82013036  0.86788902  1.0
  N  N29  1  0.48420772  0.67986964  0.36788902  1.0
  N  N30  1  0.51579228  0.32013036  0.63211098  1.0
  N  N31  1  0.51579228  0.17986964  0.13211098  1.0
  O  O32  1  0.70046368  0.93973160  0.64570411  1.0
  O  O33  1  0.70046368  0.56026840  0.14570411  1.0
  O  O34  1  0.29953632  0.43973160  0.85429589  1.0
  O  O35  1  0.29953632  0.06026840  0.35429589  1.0
