# generated using pymatgen
data_MnSO5
_symmetry_space_group_name_H-M   'P 1'
_cell_length_a   5.21695357
_cell_length_b   5.21695357
_cell_length_c   7.22376960
_cell_angle_alpha   70.33925353
_cell_angle_beta   109.66074647
_cell_angle_gamma   79.52570240
_symmetry_Int_Tables_number   1
_chemical_formula_structural   MnSO5
_chemical_formula_sum   'Mn2 S2 O10'
_cell_volume   164.42174843
_cell_formula_units_Z   2
loop_
 _symmetry_equiv_pos_site_id
 _symmetry_equiv_pos_as_xyz
  1  'x, y, z'
loop_
 _atom_site_type_symbol
 _atom_site_label
 _atom_site_symmetry_multiplicity
 _atom_site_fract_x
 _atom_site_fract_y
 _atom_site_fract_z
 _atom_site_occupancy
  Mn  Mn0  1  1.50000000  0.00000000  0.50000000  1.0
  Mn  Mn1  1  1.00000000  -0.50000000  -0.00000000  1.0
  O  O2  1  0.78109992  -0.16506728  0.40231155  1.0
  O  O3  1  1.16506728  0.21890008  0.90231155  1.0
  O  O4  1  0.83493272  -0.21890008  0.09768845  1.0
  O  O5  1  1.21890008  0.16506728  0.59768845  1.0
  O  O6  1  0.23912680  -0.19401742  0.37746831  1.0
  O  O7  1  1.19401742  0.76087320  0.87746831  1.0
  O  O8  1  0.80598258  -0.76087320  0.12253169  1.0
  O  O9  1  1.76087320  0.19401742  0.62253169  1.0
  O  O10  1  1.32227847  0.32227847  0.25000000  1.0
  O  O11  1  0.67772153  -0.32227847  0.75000000  1.0
  S  S12  1  0.91769327  -0.08230673  0.25000000  1.0
  S  S13  1  1.08230673  0.08230673  0.75000000  1.0
