# generated using pymatgen
data_Ti5AlSb2
_symmetry_space_group_name_H-M   'P 1'
_cell_length_a   7.87349776
_cell_length_b   7.87349776
_cell_length_c   7.87349776
_cell_angle_alpha   96.30407042
_cell_angle_beta   96.30407042
_cell_angle_gamma   141.29631125
_symmetry_Int_Tables_number   1
_chemical_formula_structural   Ti5AlSb2
_chemical_formula_sum   'Ti10 Al2 Sb4'
_cell_volume   287.95804446
_cell_formula_units_Z   2
loop_
 _symmetry_equiv_pos_site_id
 _symmetry_equiv_pos_as_xyz
  1  'x, y, z'
loop_
 _atom_site_type_symbol
 _atom_site_label
 _atom_site_symmetry_multiplicity
 _atom_site_fract_x
 _atom_site_fract_y
 _atom_site_fract_z
 _atom_site_occupancy
  Ti  Ti0  1  0.75000000  1.25000000  0.50000000  1.0
  Ti  Ti1  1  0.25000000  0.75000000  0.50000000  1.0
  Ti  Ti2  1  0.07540499  0.21811234  0.29351733  1.0
  Ti  Ti3  1  0.92459501  0.78188766  1.70648267  1.0
  Ti  Ti4  1  0.57540499  1.28188766  0.85729265  1.0
  Ti  Ti5  1  1.42459501  0.71811234  1.14270735  1.0
  Ti  Ti6  1  0.78188766  1.07540499  0.85729265  1.0
  Ti  Ti7  1  1.21811234  0.92459501  1.14270735  1.0
  Ti  Ti8  1  0.71811234  0.57540499  1.29351733  1.0
  Ti  Ti9  1  0.28188766  0.42459501  0.70648267  1.0
  Al  Al10  1  0.75000000  0.75000000  -0.00000000  1.0
  Al  Al11  1  0.25000000  0.25000000  -0.00000000  1.0
  Sb  Sb12  1  0.16369608  0.66369608  0.82739216  1.0
  Sb  Sb13  1  0.83630392  0.33630392  1.17260784  1.0
  Sb  Sb14  1  0.66369608  0.83630392  0.50000000  1.0
  Sb  Sb15  1  1.33630392  1.16369608  1.50000000  1.0
