# generated using pymatgen
data_K2GeF6
_symmetry_space_group_name_H-M   'P 1'
_cell_length_a   5.75758199
_cell_length_b   5.75758199
_cell_length_c   4.79961565
_cell_angle_alpha   90.00000000
_cell_angle_beta   90.00000000
_cell_angle_gamma   120.00000000
_symmetry_Int_Tables_number   1
_chemical_formula_structural   K2GeF6
_chemical_formula_sum   'K2 Ge1 F6'
_cell_volume   137.78989060
_cell_formula_units_Z   1
loop_
 _symmetry_equiv_pos_site_id
 _symmetry_equiv_pos_as_xyz
  1  'x, y, z'
loop_
 _atom_site_type_symbol
 _atom_site_label
 _atom_site_symmetry_multiplicity
 _atom_site_fract_x
 _atom_site_fract_y
 _atom_site_fract_z
 _atom_site_occupancy
  K  K0  1  0.33333333  0.66666667  0.29653611  1.0
  K  K1  1  0.66666667  0.33333333  0.70346389  1.0
  Ge  Ge2  1  0.00000000  0.00000000  0.00000000  1.0
  F  F3  1  0.30470862  0.15235431  0.21486705  1.0
  F  F4  1  0.15235431  0.30470862  0.78513295  1.0
  F  F5  1  0.15235431  0.84764569  0.78513295  1.0
  F  F6  1  0.84764569  0.15235431  0.21486705  1.0
  F  F7  1  0.84764569  0.69529138  0.21486705  1.0
  F  F8  1  0.69529138  0.84764569  0.78513295  1.0
