# generated using pymatgen
data_NbVO5
_symmetry_space_group_name_H-M   'P 1'
_cell_length_a   11.99604171
_cell_length_b   5.59384079
_cell_length_c   7.03603227
_cell_angle_alpha   90.00000000
_cell_angle_beta   90.00000000
_cell_angle_gamma   90.00000000
_symmetry_Int_Tables_number   1
_chemical_formula_structural   NbVO5
_chemical_formula_sum   'Nb4 V4 O20'
_cell_volume   472.14553971
_cell_formula_units_Z   4
loop_
 _symmetry_equiv_pos_site_id
 _symmetry_equiv_pos_as_xyz
  1  'x, y, z'
loop_
 _atom_site_type_symbol
 _atom_site_label
 _atom_site_symmetry_multiplicity
 _atom_site_fract_x
 _atom_site_fract_y
 _atom_site_fract_z
 _atom_site_occupancy
  Nb  Nb0  1  0.44075661  0.75000000  0.65662603  1.0
  Nb  Nb1  1  0.94075661  0.75000000  0.84337397  1.0
  Nb  Nb2  1  0.55924339  0.25000000  0.34337397  1.0
  Nb  Nb3  1  0.05924339  0.25000000  0.15662603  1.0
  V  V4  1  0.65391896  0.75000000  0.02926235  1.0
  V  V5  1  0.15391896  0.75000000  0.47073765  1.0
  V  V6  1  0.34608104  0.25000000  0.97073765  1.0
  V  V7  1  0.84608104  0.25000000  0.52926235  1.0
  O  O8  1  0.37577369  0.49816283  0.84172564  1.0
  O  O9  1  0.37577369  1.00183717  0.84172564  1.0
  O  O10  1  0.87577369  0.49816283  0.65827436  1.0
  O  O11  1  0.87577369  1.00183717  0.65827436  1.0
  O  O12  1  0.62422631  -0.00183717  0.15827436  1.0
  O  O13  1  0.62422631  0.50183717  0.15827436  1.0
  O  O14  1  0.12422631  -0.00183717  0.34172564  1.0
  O  O15  1  0.12422631  0.50183717  0.34172564  1.0
  O  O16  1  0.29521873  0.75000000  0.53036840  1.0
  O  O17  1  0.79521873  0.75000000  0.96963160  1.0
  O  O18  1  0.70478127  0.25000000  0.46963160  1.0
  O  O19  1  0.20478127  0.25000000  0.03036840  1.0
  O  O20  1  0.07539083  0.75000000  0.67618856  1.0
  O  O21  1  0.57539083  0.75000000  0.82381144  1.0
  O  O22  1  0.92460917  0.25000000  0.32381144  1.0
  O  O23  1  0.42460917  0.25000000  0.17618856  1.0
  O  O24  1  0.50000000  0.00000000  0.50000000  1.0
  O  O25  1  0.50000000  0.50000000  0.50000000  1.0
  O  O26  1  0.00000000  0.00000000  0.00000000  1.0
  O  O27  1  0.00000000  0.50000000  0.00000000  1.0
