# generated using pymatgen
data_MnAl6
_symmetry_space_group_name_H-M   'P 1'
_cell_length_a   4.96085050
_cell_length_b   4.96085050
_cell_length_c   8.83271796
_cell_angle_alpha   90.00000000
_cell_angle_beta   90.00000000
_cell_angle_gamma   81.19486359
_symmetry_Int_Tables_number   1
_chemical_formula_structural   MnAl6
_chemical_formula_sum   'Mn2 Al12'
_cell_volume   214.81170195
_cell_formula_units_Z   2
loop_
 _symmetry_equiv_pos_site_id
 _symmetry_equiv_pos_as_xyz
  1  'x, y, z'
loop_
 _atom_site_type_symbol
 _atom_site_label
 _atom_site_symmetry_multiplicity
 _atom_site_fract_x
 _atom_site_fract_y
 _atom_site_fract_z
 _atom_site_occupancy
  Mn  Mn0  1  0.04321795  0.95678205  0.25000000  1.0
  Mn  Mn1  1  -0.04321795  1.04321795  0.75000000  1.0
  Al  Al2  1  -0.10320886  1.46857779  0.25000000  1.0
  Al  Al3  1  0.46857779  0.89679114  0.75000000  1.0
  Al  Al4  1  -0.46857779  1.10320886  0.25000000  1.0
  Al  Al5  1  0.10320886  0.53142221  0.75000000  1.0
  Al  Al6  1  0.35966823  0.64033177  0.39952529  1.0
  Al  Al7  1  0.35966823  0.64033177  0.10047471  1.0
  Al  Al8  1  -0.35966823  1.35966823  0.89952529  1.0
  Al  Al9  1  -0.35966823  1.35966823  0.60047471  1.0
  Al  Al10  1  0.82663882  0.82663882  0.50000000  1.0
  Al  Al11  1  0.82663882  0.82663882  0.00000000  1.0
  Al  Al12  1  0.17336118  0.17336118  0.50000000  1.0
  Al  Al13  1  0.17336118  0.17336118  0.00000000  1.0
