# generated using pymatgen
data_Sc(GaFe)6
_symmetry_space_group_name_H-M   'P 1'
_cell_length_a   6.51359483
_cell_length_b   6.51359483
_cell_length_c   6.51359483
_cell_angle_alpha   134.95612346
_cell_angle_beta   99.42054868
_cell_angle_gamma   97.45544322
_symmetry_Int_Tables_number   1
_chemical_formula_structural   Sc(GaFe)6
_chemical_formula_sum   'Sc1 Ga6 Fe6'
_cell_volume   180.60931674
_cell_formula_units_Z   1
loop_
 _symmetry_equiv_pos_site_id
 _symmetry_equiv_pos_as_xyz
  1  'x, y, z'
loop_
 _atom_site_type_symbol
 _atom_site_label
 _atom_site_symmetry_multiplicity
 _atom_site_fract_x
 _atom_site_fract_y
 _atom_site_fract_z
 _atom_site_occupancy
  Sc  Sc0  1  0.00000000  0.00000000  0.00000000  1.0
  Ga  Ga1  1  0.82365935  0.32365935  0.50000000  1.0
  Ga  Ga2  1  1.17634065  0.67634065  0.50000000  1.0
  Ga  Ga3  1  0.65950073  0.65950073  1.00000000  1.0
  Ga  Ga4  1  1.34049927  1.34049927  1.00000000  1.0
  Ga  Ga5  1  0.67368721  0.00000000  0.67368721  1.0
  Ga  Ga6  1  0.32631279  0.00000000  0.32631279  1.0
  Fe  Fe7  1  1.50000000  1.50000000  1.50000000  1.0
  Fe  Fe8  1  1.00000000  1.00000000  1.50000000  1.0
  Fe  Fe9  1  1.00000000  0.50000000  1.00000000  1.0
  Fe  Fe10  1  1.50000000  1.00000000  1.00000000  1.0
  Fe  Fe11  1  0.24390690  0.50000000  0.74390690  1.0
  Fe  Fe12  1  0.75609310  0.50000000  1.25609310  1.0
