# generated using pymatgen
data_GaSeBr7
_symmetry_space_group_name_H-M   'P 1'
_cell_length_a   7.61503069
_cell_length_b   6.90860788
_cell_length_c   13.78697754
_cell_angle_alpha   90.00000000
_cell_angle_beta   104.02043669
_cell_angle_gamma   90.00000000
_symmetry_Int_Tables_number   1
_chemical_formula_structural   GaSeBr7
_chemical_formula_sum   'Ga2 Se2 Br14'
_cell_volume   703.71488346
_cell_formula_units_Z   2
loop_
 _symmetry_equiv_pos_site_id
 _symmetry_equiv_pos_as_xyz
  1  'x, y, z'
loop_
 _atom_site_type_symbol
 _atom_site_label
 _atom_site_symmetry_multiplicity
 _atom_site_fract_x
 _atom_site_fract_y
 _atom_site_fract_z
 _atom_site_occupancy
  Ga  Ga0  1  0.81084466  0.99089151  0.36800807  1.0
  Ga  Ga1  1  0.81084466  0.00910849  0.86800807  1.0
  Se  Se2  1  0.46925352  0.61533385  0.21215778  1.0
  Se  Se3  1  0.46925352  0.38466615  0.71215778  1.0
  Br  Br4  1  0.04478913  0.84540051  0.49238009  1.0
  Br  Br5  1  0.04478913  0.15459949  -0.00761991  1.0
  Br  Br6  1  0.81021464  0.84883096  0.21008872  1.0
  Br  Br7  1  0.81021464  0.15116904  0.71008872  1.0
  Br  Br8  1  0.85064129  0.32625960  0.36497927  1.0
  Br  Br9  1  0.85064129  0.67374040  0.86497927  1.0
  Br  Br10  1  0.52131441  0.40505324  0.08590410  1.0
  Br  Br11  1  0.52131441  0.59494676  0.58590410  1.0
  Br  Br12  1  0.52542658  0.89990342  0.39763996  1.0
  Br  Br13  1  0.52542658  0.10009658  0.89763996  1.0
  Br  Br14  1  0.27651698  0.84860904  0.10953398  1.0
  Br  Br15  1  0.27651698  0.15139096  0.60953398  1.0
  Br  Br16  1  0.24789879  0.43804902  0.27040801  1.0
  Br  Br17  1  0.24789879  0.56195098  0.77040801  1.0
