# generated using pymatgen
data_Gd2Te4SO14
_symmetry_space_group_name_H-M   'P 1'
_cell_length_a   10.24409577
_cell_length_b   9.59850845
_cell_length_c   7.01160464
_cell_angle_alpha   91.40837267
_cell_angle_beta   106.22024722
_cell_angle_gamma   91.82143697
_symmetry_Int_Tables_number   1
_chemical_formula_structural   Gd2Te4SO14
_chemical_formula_sum   'Gd4 Te8 S2 O28'
_cell_volume   661.25764884
_cell_formula_units_Z   2
loop_
 _symmetry_equiv_pos_site_id
 _symmetry_equiv_pos_as_xyz
  1  'x, y, z'
loop_
 _atom_site_type_symbol
 _atom_site_label
 _atom_site_symmetry_multiplicity
 _atom_site_fract_x
 _atom_site_fract_y
 _atom_site_fract_z
 _atom_site_occupancy
  Gd  Gd0  1  0.57522242  0.80681366  -0.87444818  1.0
  Gd  Gd1  1  0.42477758  0.19318634  -0.12555182  1.0
  Gd  Gd2  1  0.72046916  0.98347194  -0.25409916  1.0
  Gd  Gd3  1  0.27953084  0.01652806  -0.74590084  1.0
  Te  Te4  1  0.94539430  0.74925143  -0.88129151  1.0
  Te  Te5  1  0.05460570  0.25074857  -0.11870849  1.0
  Te  Te6  1  0.78345361  0.10769493  -0.73883881  1.0
  Te  Te7  1  0.21654639  0.89230507  -0.26116119  1.0
  Te  Te8  1  0.45700659  0.69582252  -0.44673365  1.0
  Te  Te9  1  0.54299341  0.30417748  -0.55326635  1.0
  Te  Te10  1  0.84280116  0.63618459  -0.43230067  1.0
  Te  Te11  1  0.15719884  0.36381541  -0.56769933  1.0
  S  S12  1  0.28874968  0.53913774  -0.97112797  1.0
  S  S13  1  0.71125032  0.46086226  -0.02887203  1.0
  O  O14  1  0.63018148  0.07414042  -0.98027052  1.0
  O  O15  1  0.36981852  0.92585958  -0.01972948  1.0
  O  O16  1  0.80176402  0.88631303  -0.91340631  1.0
  O  O17  1  0.19823598  0.11368697  -0.08659369  1.0
  O  O18  1  0.41378815  0.61813976  -0.98201174  1.0
  O  O19  1  0.58621185  0.38186024  -0.01798826  1.0
  O  O20  1  0.83692499  0.38739804  -0.93673818  1.0
  O  O21  1  0.16307501  0.61260196  -0.06326182  1.0
  O  O22  1  0.71722498  0.60114781  -0.92167344  1.0
  O  O23  1  0.28277502  0.39885219  -0.07832656  1.0
  O  O24  1  0.09356991  0.88413184  -0.82716962  1.0
  O  O25  1  0.90643009  0.11586816  -0.17283038  1.0
  O  O26  1  0.72465882  0.27427927  -0.60699421  1.0
  O  O27  1  0.27534118  0.72572073  -0.39300579  1.0
  O  O28  1  0.70639422  0.97368124  -0.59316020  1.0
  O  O29  1  0.29360578  0.02631876  -0.40683980  1.0
  O  O30  1  0.43424828  0.83550212  -0.64854688  1.0
  O  O31  1  0.56575172  0.16449788  -0.35145312  1.0
  O  O32  1  0.95354905  0.74152174  -0.57764114  1.0
  O  O33  1  0.04645095  0.25847826  -0.42235886  1.0
  O  O34  1  0.65779953  0.68301831  -0.56941210  1.0
  O  O35  1  0.34220047  0.31698169  -0.43058790  1.0
  O  O36  1  0.69889764  0.48704945  -0.24499188  1.0
  O  O37  1  0.30110236  0.51295055  -0.75500812  1.0
  O  O38  1  0.87565775  0.78350191  -0.22575598  1.0
  O  O39  1  0.12434225  0.21649809  -0.77424402  1.0
  O  O40  1  0.56235553  0.81239159  -0.22191197  1.0
  O  O41  1  0.43764447  0.18760841  -0.77808803  1.0
