# generated using pymatgen
data_Mn3O4
_symmetry_space_group_name_H-M   'P 1'
_cell_length_a   3.07813148
_cell_length_b   10.60450452
_cell_length_c   11.99489995
_cell_angle_alpha   90.00000000
_cell_angle_beta   90.00000000
_cell_angle_gamma   90.00000000
_symmetry_Int_Tables_number   1
_chemical_formula_structural   Mn3O4
_chemical_formula_sum   'Mn12 O16'
_cell_volume   391.53823457
_cell_formula_units_Z   4
loop_
 _symmetry_equiv_pos_site_id
 _symmetry_equiv_pos_as_xyz
  1  'x, y, z'
loop_
 _atom_site_type_symbol
 _atom_site_label
 _atom_site_symmetry_multiplicity
 _atom_site_fract_x
 _atom_site_fract_y
 _atom_site_fract_z
 _atom_site_occupancy
  Mn  Mn0  1  0.25000420  0.62314259  0.46260320  1.0
  Mn  Mn1  1  0.74999580  0.37685741  0.96260320  1.0
  Mn  Mn2  1  0.25000420  0.87685741  0.53739680  1.0
  Mn  Mn3  1  0.74999580  0.12314259  0.03739680  1.0
  Mn  Mn4  1  0.74999580  0.37685741  0.53739680  1.0
  Mn  Mn5  1  0.25000420  0.62314259  0.03739680  1.0
  Mn  Mn6  1  0.74999580  0.12314259  0.46260320  1.0
  Mn  Mn7  1  0.25000420  0.87685741  0.96260320  1.0
  Mn  Mn8  1  1.24999161  0.45463641  0.75000000  1.0
  Mn  Mn9  1  -0.24999161  0.54536359  0.25000000  1.0
  Mn  Mn10  1  1.24999161  0.04536359  0.25000000  1.0
  Mn  Mn11  1  -0.24999161  0.95463641  0.75000000  1.0
  O  O12  1  0.74998310  0.75000000  0.50000000  1.0
  O  O13  1  0.25001690  0.25000000  0.00000000  1.0
  O  O14  1  0.25001690  0.25000000  0.50000000  1.0
  O  O15  1  0.74998310  0.75000000  0.00000000  1.0
  O  O16  1  0.75001292  0.51360585  0.40302516  1.0
  O  O17  1  0.24998708  0.48639415  0.90302516  1.0
  O  O18  1  0.75001292  -0.01360585  0.59697484  1.0
  O  O19  1  0.24998708  1.01360585  0.09697484  1.0
  O  O20  1  0.24998708  0.48639415  0.59697484  1.0
  O  O21  1  0.75001292  0.51360585  0.09697484  1.0
  O  O22  1  0.24998708  1.01360585  0.40302516  1.0
  O  O23  1  0.75001292  -0.01360585  0.90302516  1.0
  O  O24  1  0.25000858  0.86573684  0.75000000  1.0
  O  O25  1  0.74999142  0.13426316  0.25000000  1.0
  O  O26  1  0.25000858  0.63426316  0.25000000  1.0
  O  O27  1  0.74999142  0.36573684  0.75000000  1.0
