# generated using pymatgen
data_FeSiO3
_symmetry_space_group_name_H-M   'P 1'
_cell_length_a   6.86082811
_cell_length_b   6.86082811
_cell_length_c   5.35702896
_cell_angle_alpha   73.42042993
_cell_angle_beta   106.57957007
_cell_angle_gamma   98.81253016
_symmetry_Int_Tables_number   1
_chemical_formula_structural   FeSiO3
_chemical_formula_sum   'Fe4 Si4 O12'
_cell_volume   230.92065617
_cell_formula_units_Z   4
loop_
 _symmetry_equiv_pos_site_id
 _symmetry_equiv_pos_as_xyz
  1  'x, y, z'
loop_
 _atom_site_type_symbol
 _atom_site_label
 _atom_site_symmetry_multiplicity
 _atom_site_fract_x
 _atom_site_fract_y
 _atom_site_fract_z
 _atom_site_occupancy
  Si  Si0  1  0.60026003  0.22296887  0.22746597  1.0
  Si  Si1  1  0.77703113  0.39973997  0.72746597  1.0
  Si  Si2  1  1.22296887  -0.39973997  0.27253403  1.0
  Si  Si3  1  1.39973997  -0.22296887  0.77253403  1.0
  O  O4  1  0.61605312  0.33651944  0.46440979  1.0
  O  O5  1  0.66348056  0.38394688  0.96440979  1.0
  O  O6  1  1.33651944  -0.38394688  0.03559021  1.0
  O  O7  1  1.38394688  -0.33651944  0.53559021  1.0
  O  O8  1  0.76853019  0.04873590  0.35421020  1.0
  O  O9  1  0.95126410  0.23146981  0.85421020  1.0
  O  O10  1  1.04873590  -0.23146981  0.14578980  1.0
  O  O11  1  1.23146981  -0.04873590  0.64578980  1.0
  O  O12  1  0.36488988  0.13436983  0.12547238  1.0
  O  O13  1  0.86563017  0.63511012  0.62547238  1.0
  O  O14  1  1.13436983  -0.63511012  0.37452762  1.0
  O  O15  1  1.63511012  -0.13436983  0.87452762  1.0
  Fe  Fe16  1  0.08498618  0.08498618  0.25000000  1.0
  Fe  Fe17  1  0.91501382  0.91501382  0.75000000  1.0
  Fe  Fe18  1  0.79865906  0.79865906  0.25000000  1.0
  Fe  Fe19  1  0.20134094  0.20134094  0.75000000  1.0
