# generated using pymatgen
data_Ca(CO2)2
_symmetry_space_group_name_H-M   'P 1'
_cell_length_a   6.25002322
_cell_length_b   7.48054452
_cell_length_c   9.62713814
_cell_angle_alpha   90.00000000
_cell_angle_beta   90.00283436
_cell_angle_gamma   90.00000000
_symmetry_Int_Tables_number   1
_chemical_formula_structural   Ca(CO2)2
_chemical_formula_sum   'Ca4 C8 O16'
_cell_volume   450.10314305
_cell_formula_units_Z   4
loop_
 _symmetry_equiv_pos_site_id
 _symmetry_equiv_pos_as_xyz
  1  'x, y, z'
loop_
 _atom_site_type_symbol
 _atom_site_label
 _atom_site_symmetry_multiplicity
 _atom_site_fract_x
 _atom_site_fract_y
 _atom_site_fract_z
 _atom_site_occupancy
  Ca  Ca0  1  0.90910406  0.50000000  0.82047978  1.0
  Ca  Ca1  1  0.09089594  0.50000000  0.17952022  1.0
  Ca  Ca2  1  0.90913711  -0.00000000  0.67951538  1.0
  Ca  Ca3  1  0.09086289  -0.00000000  0.32048462  1.0
  C  C4  1  0.43415365  0.50000000  0.93065044  1.0
  C  C5  1  0.56584635  0.50000000  0.06934956  1.0
  C  C6  1  0.56583508  0.00000000  0.43064889  1.0
  C  C7  1  0.43416492  0.00000000  0.56935111  1.0
  C  C8  1  -0.00000000  0.60469671  0.50000000  1.0
  C  C9  1  -0.00000000  0.39530329  0.50000000  1.0
  C  C10  1  0.00000000  0.89530217  0.00000000  1.0
  C  C11  1  0.00000000  0.10469783  0.00000000  1.0
  O  O12  1  0.95072351  0.81967162  0.88695829  1.0
  O  O13  1  0.95072351  0.18032838  0.88695829  1.0
  O  O14  1  0.04927649  0.81967162  0.11304171  1.0
  O  O15  1  0.04927649  0.18032838  0.11304171  1.0
  O  O16  1  0.95070064  0.68032831  0.61303352  1.0
  O  O17  1  0.95070064  0.31967169  0.61303352  1.0
  O  O18  1  0.04929936  0.68032831  0.38696648  1.0
  O  O19  1  0.04929936  0.31967169  0.38696648  1.0
  O  O20  1  0.53443694  0.50000000  0.81794824  1.0
  O  O21  1  0.46556306  0.50000000  0.18205176  1.0
  O  O22  1  0.23167169  0.50000000  0.94534646  1.0
  O  O23  1  0.76832831  0.50000000  0.05465354  1.0
  O  O24  1  0.76832067  -0.00000000  0.44533812  1.0
  O  O25  1  0.23167933  -0.00000000  0.55466189  1.0
  O  O26  1  0.53447257  -0.00000000  0.68205028  1.0
  O  O27  1  0.46552743  -0.00000000  0.31794972  1.0
