# generated using pymatgen
data_KMo(PO4)2
_symmetry_space_group_name_H-M   'P 1'
_cell_length_a   5.16168537
_cell_length_b   11.89343465
_cell_length_c   12.77739682
_cell_angle_alpha   90.00000000
_cell_angle_beta   112.75771888
_cell_angle_gamma   90.00000000
_symmetry_Int_Tables_number   1
_chemical_formula_structural   KMo(PO4)2
_chemical_formula_sum   'K4 Mo4 P8 O32'
_cell_volume   723.33959359
_cell_formula_units_Z   4
loop_
 _symmetry_equiv_pos_site_id
 _symmetry_equiv_pos_as_xyz
  1  'x, y, z'
loop_
 _atom_site_type_symbol
 _atom_site_label
 _atom_site_symmetry_multiplicity
 _atom_site_fract_x
 _atom_site_fract_y
 _atom_site_fract_z
 _atom_site_occupancy
  K  K0  1  0.31911903  0.13203706  0.05043816  1.0
  K  K1  1  0.31911903  0.36796294  0.55043816  1.0
  K  K2  1  0.68088097  0.63203706  0.44956184  1.0
  K  K3  1  0.68088097  0.86796294  0.94956184  1.0
  Mo  Mo4  1  0.90853336  0.61994886  0.16620986  1.0
  Mo  Mo5  1  0.90853336  0.88005114  0.66620986  1.0
  Mo  Mo6  1  0.09146664  0.11994886  0.33379014  1.0
  Mo  Mo7  1  0.09146664  0.38005114  0.83379014  1.0
  P  P8  1  0.60986512  0.93708486  0.36572467  1.0
  P  P9  1  0.60986512  0.56291514  0.86572467  1.0
  P  P10  1  0.39013488  0.43708486  0.13427533  1.0
  P  P11  1  0.39013488  0.06291514  0.63427533  1.0
  P  P12  1  0.61282919  0.30688661  0.35029722  1.0
  P  P13  1  0.61282919  0.19311339  0.85029722  1.0
  P  P14  1  0.38717081  0.80688661  0.14970278  1.0
  P  P15  1  0.38717081  0.69311339  0.64970278  1.0
  O  O16  1  0.00282330  0.13422423  0.19259797  1.0
  O  O17  1  0.00282330  0.36577577  0.69259797  1.0
  O  O18  1  0.99717670  0.63422423  0.30740203  1.0
  O  O19  1  0.99717670  0.86577577  0.80740203  1.0
  O  O20  1  0.90325303  0.26152177  0.35884009  1.0
  O  O21  1  0.90325303  0.23847823  0.85884009  1.0
  O  O22  1  0.09674697  0.76152177  0.14115991  1.0
  O  O23  1  0.09674697  0.73847823  0.64115991  1.0
  O  O24  1  0.78764664  0.89371654  0.48327852  1.0
  O  O25  1  0.78764664  0.60628346  0.98327852  1.0
  O  O26  1  0.21235336  0.39371654  0.01672148  1.0
  O  O27  1  0.21235336  0.10628346  0.51672148  1.0
  O  O28  1  0.74991641  0.02761580  0.31938658  1.0
  O  O29  1  0.74991641  0.47238420  0.81938658  1.0
  O  O30  1  0.25008359  0.52761580  0.18061342  1.0
  O  O31  1  0.25008359  0.97238420  0.68061342  1.0
  O  O32  1  0.68810570  0.47457140  0.14806273  1.0
  O  O33  1  0.68810570  0.02542860  0.64806273  1.0
  O  O34  1  0.31189430  0.97457140  0.35193727  1.0
  O  O35  1  0.31189430  0.52542860  0.85193727  1.0
  O  O36  1  0.64179228  0.41321140  0.41699163  1.0
  O  O37  1  0.64179228  0.08678860  0.91699163  1.0
  O  O38  1  0.35820772  0.91321140  0.08300837  1.0
  O  O39  1  0.35820772  0.58678860  0.58300837  1.0
  O  O40  1  0.43455687  0.32590806  0.21378584  1.0
  O  O41  1  0.43455687  0.17409194  0.71378584  1.0
  O  O42  1  0.56544313  0.82590806  0.28621416  1.0
  O  O43  1  0.56544313  0.67409194  0.78621416  1.0
  O  O44  1  0.44802497  0.21300480  0.38159112  1.0
  O  O45  1  0.44802497  0.28699520  0.88159112  1.0
  O  O46  1  0.55197503  0.71300480  0.11840888  1.0
  O  O47  1  0.55197503  0.78699520  0.61840888  1.0
