# generated using pymatgen
data_V(MoS2)2
_symmetry_space_group_name_H-M   'P 1'
_cell_length_a   6.84158595
_cell_length_b   6.84158595
_cell_length_c   13.45242248
_cell_angle_alpha   63.64918843
_cell_angle_beta   116.35081157
_cell_angle_gamma   123.74310878
_symmetry_Int_Tables_number   1
_chemical_formula_structural   V(MoS2)2
_chemical_formula_sum   'V4 Mo8 S16'
_cell_volume   452.44121400
_cell_formula_units_Z   4
loop_
 _symmetry_equiv_pos_site_id
 _symmetry_equiv_pos_as_xyz
  1  'x, y, z'
loop_
 _atom_site_type_symbol
 _atom_site_label
 _atom_site_symmetry_multiplicity
 _atom_site_fract_x
 _atom_site_fract_y
 _atom_site_fract_z
 _atom_site_occupancy
  V  V0  1  0.98510345  -0.23486852  0.44960617  1.0
  V  V1  1  0.23486852  0.01489655  0.94960617  1.0
  V  V2  1  0.74074765  0.50900505  0.94882330  1.0
  V  V3  1  1.49099495  0.25925235  0.44882330  1.0
  Mo  Mo4  1  1.57610786  0.14347692  0.70726565  1.0
  Mo  Mo5  1  0.85652308  -0.57610786  0.20726565  1.0
  Mo  Mo6  1  0.14984914  0.13075942  0.69116390  1.0
  Mo  Mo7  1  0.86924058  -0.14984914  0.19116390  1.0
  Mo  Mo8  1  0.62466703  0.59635717  0.69008328  1.0
  Mo  Mo9  1  1.40364283  0.37533297  0.19008328  1.0
  Mo  Mo10  1  1.10127434  -0.32212426  0.70834425  1.0
  Mo  Mo11  1  1.32212426  -0.10127434  0.20834425  1.0
  S  S12  1  0.37250309  0.37210654  0.55048056  1.0
  S  S13  1  0.62789346  -0.37250309  0.05048056  1.0
  S  S14  1  1.35345461  -0.09786846  0.84794834  1.0
  S  S15  1  1.09786846  -0.35345461  0.34794834  1.0
  S  S16  1  1.83663218  -0.09192401  0.80962862  1.0
  S  S17  1  1.09192401  0.16336782  0.30962862  1.0
  S  S18  1  0.88927005  -0.63389116  0.58879841  1.0
  S  S19  1  1.63389116  0.11072995  0.08879841  1.0
  S  S20  1  1.34031594  -0.58219187  0.81309895  1.0
  S  S21  1  0.58219187  -0.34031594  0.31309895  1.0
  S  S22  1  1.38559130  -0.14361175  0.58532864  1.0
  S  S23  1  1.14361175  -0.38559130  0.08532864  1.0
  S  S24  1  1.87286643  -0.11835870  0.55765585  1.0
  S  S25  1  1.11835870  0.12713357  0.05765585  1.0
  S  S26  1  0.85308510  -0.60739821  0.84077408  1.0
  S  S27  1  1.60739821  0.14691490  0.34077408  1.0
