# generated using pymatgen
data_Rb2AgCl3
_symmetry_space_group_name_H-M   'P 1'
_cell_length_a   9.40024039
_cell_length_b   4.52500582
_cell_length_c   18.19475425
_cell_angle_alpha   90.00000000
_cell_angle_beta   90.00000000
_cell_angle_gamma   90.00000000
_symmetry_Int_Tables_number   1
_chemical_formula_structural   Rb2AgCl3
_chemical_formula_sum   'Rb8 Ag4 Cl12'
_cell_volume   773.93465995
_cell_formula_units_Z   4
loop_
 _symmetry_equiv_pos_site_id
 _symmetry_equiv_pos_as_xyz
  1  'x, y, z'
loop_
 _atom_site_type_symbol
 _atom_site_label
 _atom_site_symmetry_multiplicity
 _atom_site_fract_x
 _atom_site_fract_y
 _atom_site_fract_z
 _atom_site_occupancy
  Rb  Rb0  1  0.92034055  0.75000000  0.78537018  1.0
  Rb  Rb1  1  0.42034055  0.75000000  0.71462982  1.0
  Rb  Rb2  1  0.07965945  0.25000000  0.21462982  1.0
  Rb  Rb3  1  0.57965945  0.25000000  0.28537018  1.0
  Rb  Rb4  1  0.75876602  0.75000000  0.04337812  1.0
  Rb  Rb5  1  0.25876602  0.75000000  0.45662188  1.0
  Rb  Rb6  1  0.24123398  0.25000000  0.95662188  1.0
  Rb  Rb7  1  0.74123398  0.25000000  0.54337812  1.0
  Ag  Ag8  1  0.87500110  0.75000000  0.36838171  1.0
  Ag  Ag9  1  0.37500110  0.75000000  0.13161829  1.0
  Ag  Ag10  1  0.12499890  0.25000000  0.63161829  1.0
  Ag  Ag11  1  0.62499890  0.25000000  0.86838171  1.0
  Cl  Cl12  1  0.99650860  0.75000000  0.59900374  1.0
  Cl  Cl13  1  0.49650860  0.75000000  0.90099626  1.0
  Cl  Cl14  1  0.00349140  0.25000000  0.40099626  1.0
  Cl  Cl15  1  0.50349140  0.25000000  0.09900374  1.0
  Cl  Cl16  1  0.81847083  0.75000000  0.22670312  1.0
  Cl  Cl17  1  0.31847083  0.75000000  0.27329688  1.0
  Cl  Cl18  1  0.18152917  0.25000000  0.77329688  1.0
  Cl  Cl19  1  0.68152917  0.25000000  0.72670312  1.0
  Cl  Cl20  1  0.62418316  0.75000000  0.42751007  1.0
  Cl  Cl21  1  0.12418316  0.75000000  0.07248993  1.0
  Cl  Cl22  1  0.37581684  0.25000000  0.57248993  1.0
  Cl  Cl23  1  0.87581684  0.25000000  0.92751007  1.0
