# generated using pymatgen
data_GdPd
_symmetry_space_group_name_H-M   'P 1'
_cell_length_a   5.68082892
_cell_length_b   5.68082892
_cell_length_c   4.57227992
_cell_angle_alpha   90.00000000
_cell_angle_beta   90.00000000
_cell_angle_gamma   140.98633578
_symmetry_Int_Tables_number   1
_chemical_formula_structural   GdPd
_chemical_formula_sum   'Gd2 Pd2'
_cell_volume   92.88720743
_cell_formula_units_Z   2
loop_
 _symmetry_equiv_pos_site_id
 _symmetry_equiv_pos_as_xyz
  1  'x, y, z'
loop_
 _atom_site_type_symbol
 _atom_site_label
 _atom_site_symmetry_multiplicity
 _atom_site_fract_x
 _atom_site_fract_y
 _atom_site_fract_z
 _atom_site_occupancy
  Gd  Gd0  1  -0.63749674  0.63749674  0.25000000  1.0
  Gd  Gd1  1  -0.36250326  1.36250326  0.75000000  1.0
  Pd  Pd2  1  -0.91402880  0.91402880  0.25000000  1.0
  Pd  Pd3  1  -0.08597120  1.08597120  0.75000000  1.0
