# generated using pymatgen
data_Ce(Re2Si)2
_symmetry_space_group_name_H-M   'P 1'
_cell_length_a   7.29375202
_cell_length_b   7.29375202
_cell_length_c   4.07558400
_cell_angle_alpha   90.00000000
_cell_angle_beta   90.00000000
_cell_angle_gamma   147.00164365
_symmetry_Int_Tables_number   1
_chemical_formula_structural   Ce(Re2Si)2
_chemical_formula_sum   'Ce1 Re4 Si2'
_cell_volume   118.08137863
_cell_formula_units_Z   1
loop_
 _symmetry_equiv_pos_site_id
 _symmetry_equiv_pos_as_xyz
  1  'x, y, z'
loop_
 _atom_site_type_symbol
 _atom_site_label
 _atom_site_symmetry_multiplicity
 _atom_site_fract_x
 _atom_site_fract_y
 _atom_site_fract_z
 _atom_site_occupancy
  Ce  Ce0  1  0.00000000  0.00000000  0.00000000  1.0
  Re  Re1  1  0.18654897  0.81345103  0.50000000  1.0
  Re  Re2  1  -0.18654897  0.18654897  0.50000000  1.0
  Re  Re3  1  0.30513740  0.69486260  0.00000000  1.0
  Re  Re4  1  -0.30513740  0.30513740  0.00000000  1.0
  Si  Si5  1  0.41285313  0.58714687  0.50000000  1.0
  Si  Si6  1  -0.41285313  0.41285313  0.50000000  1.0
