# generated using pymatgen
data_Y(CrGe)6
_symmetry_space_group_name_H-M   'P 1'
_cell_length_a   5.10641803
_cell_length_b   5.10641803
_cell_length_c   8.31309858
_cell_angle_alpha   90.00000000
_cell_angle_beta   90.00000000
_cell_angle_gamma   120.00000000
_symmetry_Int_Tables_number   1
_chemical_formula_structural   Y(CrGe)6
_chemical_formula_sum   'Y1 Cr6 Ge6'
_cell_volume   187.72680638
_cell_formula_units_Z   1
loop_
 _symmetry_equiv_pos_site_id
 _symmetry_equiv_pos_as_xyz
  1  'x, y, z'
loop_
 _atom_site_type_symbol
 _atom_site_label
 _atom_site_symmetry_multiplicity
 _atom_site_fract_x
 _atom_site_fract_y
 _atom_site_fract_z
 _atom_site_occupancy
  Y  Y0  1  0.00000000  0.00000000  0.00000000  1.0
  Cr  Cr1  1  0.50000000  0.50000000  0.74963487  1.0
  Cr  Cr2  1  0.50000000  0.50000000  0.25036513  1.0
  Cr  Cr3  1  0.50000000  0.00000000  0.74963487  1.0
  Cr  Cr4  1  0.50000000  0.00000000  0.25036513  1.0
  Cr  Cr5  1  0.00000000  0.50000000  0.74963487  1.0
  Cr  Cr6  1  0.00000000  0.50000000  0.25036513  1.0
  Ge  Ge7  1  0.00000000  0.00000000  0.65388918  1.0
  Ge  Ge8  1  0.00000000  0.00000000  0.34611082  1.0
  Ge  Ge9  1  0.33333333  0.66666667  0.50000000  1.0
  Ge  Ge10  1  0.66666667  0.33333333  0.50000000  1.0
  Ge  Ge11  1  0.33333333  0.66666667  0.00000000  1.0
  Ge  Ge12  1  0.66666667  0.33333333  0.00000000  1.0
