# generated using pymatgen
data_SrLiAl3N4
_symmetry_space_group_name_H-M   'P 1'
_cell_length_a   9.98634657
_cell_length_b   7.52512207
_cell_length_c   5.87822473
_cell_angle_alpha   79.59213546
_cell_angle_beta   76.83512154
_cell_angle_gamma   83.64350790
_symmetry_Int_Tables_number   1
_chemical_formula_structural   SrLiAl3N4
_chemical_formula_sum   'Sr4 Li4 Al12 N16'
_cell_volume   421.93538687
_cell_formula_units_Z   4
loop_
 _symmetry_equiv_pos_site_id
 _symmetry_equiv_pos_as_xyz
  1  'x, y, z'
loop_
 _atom_site_type_symbol
 _atom_site_label
 _atom_site_symmetry_multiplicity
 _atom_site_fract_x
 _atom_site_fract_y
 _atom_site_fract_z
 _atom_site_occupancy
  Sr  Sr0  1  -0.87310931  -0.86617628  -0.99554505  1.0
  Sr  Sr1  1  -0.12689069  -0.13382372  -0.00445495  1.0
  Sr  Sr2  1  -0.62886654  -0.61609183  -0.97572126  1.0
  Sr  Sr3  1  -0.37113346  -0.38390817  -0.02427874  1.0
  Li  Li4  1  -0.88786611  -0.67421757  -0.53190669  1.0
  Li  Li5  1  -0.11213389  -0.32578243  -0.46809331  1.0
  Li  Li6  1  -0.35532848  -0.81987385  -0.79018848  1.0
  Li  Li7  1  -0.64467152  -0.18012615  -0.20981152  1.0
  Al  Al8  1  -0.87644773  -0.04607566  -0.44782845  1.0
  Al  Al9  1  -0.12355227  -0.95392434  -0.55217155  1.0
  Al  Al10  1  -0.60192127  -0.05978743  -0.82471594  1.0
  Al  Al11  1  -0.39807873  -0.94021257  -0.17528406  1.0
  Al  Al12  1  -0.85266119  -0.29173366  -0.83129774  1.0
  Al  Al13  1  -0.14733881  -0.70826634  -0.16870226  1.0
  Al  Al14  1  -0.89979462  -0.44318419  -0.17883621  1.0
  Al  Al15  1  -0.10020538  -0.55681581  -0.82116379  1.0
  Al  Al16  1  -0.62456759  -0.43870934  -0.53075733  1.0
  Al  Al17  1  -0.37543241  -0.56129066  -0.46924267  1.0
  Al  Al18  1  -0.63292659  -0.79669162  -0.43641466  1.0
  Al  Al19  1  -0.36707341  -0.20330838  -0.56358534  1.0
  N  N20  1  -0.97184139  -0.13220290  -0.65088715  1.0
  N  N21  1  -0.02815861  -0.86779710  -0.34911285  1.0
  N  N22  1  -0.49572304  -0.64496690  -0.62748750  1.0
  N  N23  1  -0.50427696  -0.35503310  -0.37251250  1.0
  N  N24  1  -0.72030920  -0.91668777  -0.61494041  1.0
  N  N25  1  -0.27969080  -0.08331223  -0.38505959  1.0
  N  N26  1  -0.40729396  -0.06862610  -0.84914781  1.0
  N  N27  1  -0.59270604  -0.93137390  -0.15085219  1.0
  N  N28  1  -0.85611266  -0.20484790  -0.16881359  1.0
  N  N29  1  -0.14388734  -0.79515210  -0.83118641  1.0
  N  N30  1  -0.91123004  -0.52361279  -0.83724105  1.0
  N  N31  1  -0.08876996  -0.47638721  -0.16275895  1.0
  N  N32  1  -0.66740086  -0.29106448  -0.80231907  1.0
  N  N33  1  -0.33259914  -0.70893552  -0.19768093  1.0
  N  N34  1  -0.76137848  -0.59122663  -0.34096975  1.0
  N  N35  1  -0.23862152  -0.40877337  -0.65903025  1.0
