# generated using pymatgen
data_Cr4Re5(Ni2Mo)2
_symmetry_space_group_name_H-M   'P 1'
_cell_length_a   9.20658046
_cell_length_b   9.20658046
_cell_length_c   4.63949495
_cell_angle_alpha   90.00000000
_cell_angle_beta   90.00000000
_cell_angle_gamma   90.00000000
_symmetry_Int_Tables_number   1
_chemical_formula_structural   Cr4Re5(Ni2Mo)2
_chemical_formula_sum   'Cr8 Re10 Ni8 Mo4'
_cell_volume   393.24880618
_cell_formula_units_Z   2
loop_
 _symmetry_equiv_pos_site_id
 _symmetry_equiv_pos_as_xyz
  1  'x, y, z'
loop_
 _atom_site_type_symbol
 _atom_site_label
 _atom_site_symmetry_multiplicity
 _atom_site_fract_x
 _atom_site_fract_y
 _atom_site_fract_z
 _atom_site_occupancy
  Cr  Cr0  1  0.31691560  0.68308440  0.25893394  1.0
  Cr  Cr1  1  0.68308440  0.31691560  0.25893394  1.0
  Cr  Cr2  1  0.18308440  0.18308440  0.75893394  1.0
  Cr  Cr3  1  0.81691560  0.81691560  0.75893394  1.0
  Cr  Cr4  1  0.68308440  0.31691560  0.74106606  1.0
  Cr  Cr5  1  0.31691560  0.68308440  0.74106606  1.0
  Cr  Cr6  1  0.81691560  0.81691560  0.24106606  1.0
  Cr  Cr7  1  0.18308440  0.18308440  0.24106606  1.0
  Re  Re8  1  0.50000000  0.50000000  0.50000000  1.0
  Re  Re9  1  0.00000000  0.00000000  0.00000000  1.0
  Re  Re10  1  0.37054971  0.96072787  0.50000000  1.0
  Re  Re11  1  0.62945029  0.03927213  0.50000000  1.0
  Re  Re12  1  0.12945029  0.46072787  0.00000000  1.0
  Re  Re13  1  0.87054971  0.53927213  0.00000000  1.0
  Re  Re14  1  0.96072787  0.37054971  0.50000000  1.0
  Re  Re15  1  0.03927213  0.62945029  0.50000000  1.0
  Re  Re16  1  0.46072787  0.12945029  0.00000000  1.0
  Re  Re17  1  0.53927213  0.87054971  0.00000000  1.0
  Ni  Ni18  1  0.43016669  0.24001687  0.50000000  1.0
  Ni  Ni19  1  0.56983331  0.75998313  0.50000000  1.0
  Ni  Ni20  1  0.06983331  0.74001687  0.00000000  1.0
  Ni  Ni21  1  0.93016669  0.25998313  0.00000000  1.0
  Ni  Ni22  1  0.24001687  0.43016669  0.50000000  1.0
  Ni  Ni23  1  0.75998313  0.56983331  0.50000000  1.0
  Ni  Ni24  1  0.74001687  0.06983331  0.00000000  1.0
  Ni  Ni25  1  0.25998313  0.93016669  0.00000000  1.0
  Mo  Mo26  1  0.10634847  0.89365153  0.50000000  1.0
  Mo  Mo27  1  0.89365153  0.10634847  0.50000000  1.0
  Mo  Mo28  1  0.39365153  0.39365153  0.00000000  1.0
  Mo  Mo29  1  0.60634847  0.60634847  0.00000000  1.0
