# generated using pymatgen
data_HgSeO3
_symmetry_space_group_name_H-M   'P 1'
_cell_length_a   6.31386880
_cell_length_b   8.76192790
_cell_length_c   6.29328108
_cell_angle_alpha   90.00000000
_cell_angle_beta   90.00000000
_cell_angle_gamma   90.00000000
_symmetry_Int_Tables_number   1
_chemical_formula_structural   HgSeO3
_chemical_formula_sum   'Hg4 Se4 O12'
_cell_volume   348.15477618
_cell_formula_units_Z   4
loop_
 _symmetry_equiv_pos_site_id
 _symmetry_equiv_pos_as_xyz
  1  'x, y, z'
loop_
 _atom_site_type_symbol
 _atom_site_label
 _atom_site_symmetry_multiplicity
 _atom_site_fract_x
 _atom_site_fract_y
 _atom_site_fract_z
 _atom_site_occupancy
  Hg  Hg0  1  0.50000000  0.00000000  0.50000000  1.0
  Hg  Hg1  1  0.50000000  0.50000000  0.50000000  1.0
  Hg  Hg2  1  0.00000000  0.00000000  0.00000000  1.0
  Hg  Hg3  1  0.00000000  0.50000000  0.00000000  1.0
  Se  Se4  1  0.40915541  0.75000000  -0.00599877  1.0
  Se  Se5  1  0.90915541  0.75000000  0.50599877  1.0
  Se  Se6  1  0.59084459  0.25000000  1.00599877  1.0
  Se  Se7  1  0.09084459  0.25000000  0.49400123  1.0
  O  O8  1  0.27719375  0.90668152  0.11472895  1.0
  O  O9  1  0.27719375  0.59331848  0.11472895  1.0
  O  O10  1  0.77719375  0.90668152  0.38527105  1.0
  O  O11  1  0.77719375  0.59331848  0.38527105  1.0
  O  O12  1  0.72280625  0.40668152  0.88527105  1.0
  O  O13  1  0.72280625  0.09331848  0.88527105  1.0
  O  O14  1  0.22280625  0.40668152  0.61472895  1.0
  O  O15  1  0.22280625  0.09331848  0.61472895  1.0
  O  O16  1  0.32507357  0.75000000  0.74297200  1.0
  O  O17  1  0.82507357  0.75000000  0.75702800  1.0
  O  O18  1  0.67492643  0.25000000  0.25702800  1.0
  O  O19  1  0.17492643  0.25000000  0.24297200  1.0
