# generated using pymatgen
data_MgGeN2
_symmetry_space_group_name_H-M   'P 1'
_cell_length_a   5.54700651
_cell_length_b   6.66655769
_cell_length_c   5.21267311
_cell_angle_alpha   90.00000000
_cell_angle_beta   90.00000000
_cell_angle_gamma   90.00000000
_symmetry_Int_Tables_number   1
_chemical_formula_structural   MgGeN2
_chemical_formula_sum   'Mg4 Ge4 N8'
_cell_volume   192.76172705
_cell_formula_units_Z   4
loop_
 _symmetry_equiv_pos_site_id
 _symmetry_equiv_pos_as_xyz
  1  'x, y, z'
loop_
 _atom_site_type_symbol
 _atom_site_label
 _atom_site_symmetry_multiplicity
 _atom_site_fract_x
 _atom_site_fract_y
 _atom_site_fract_z
 _atom_site_occupancy
  Mg  Mg0  1  0.41503623  0.12330969  0.57296826  1.0
  Mg  Mg1  1  0.91503623  0.37669031  0.57296826  1.0
  Mg  Mg2  1  0.58496377  0.87669031  0.07296826  1.0
  Mg  Mg3  1  0.08496377  0.62330969  0.07296826  1.0
  Ge  Ge4  1  0.42661911  0.62582691  0.58041254  1.0
  Ge  Ge5  1  0.92661911  0.87417309  0.58041254  1.0
  Ge  Ge6  1  0.57338089  0.37417309  0.08041254  1.0
  Ge  Ge7  1  0.07338089  0.12582691  0.08041254  1.0
  N  N8  1  0.43989348  0.60736790  0.94127378  1.0
  N  N9  1  0.93989348  0.89263210  0.94127378  1.0
  N  N10  1  0.56010652  0.39263210  0.44127378  1.0
  N  N11  1  0.06010652  0.10736790  0.44127378  1.0
  N  N12  1  0.10006120  0.64305598  0.47864541  1.0
  N  N13  1  0.60006120  0.85694402  0.47864541  1.0
  N  N14  1  0.89993880  0.35694402  -0.02135459  1.0
  N  N15  1  0.39993880  0.14305598  -0.02135459  1.0
