# generated using pymatgen
data_LaGe2
_symmetry_space_group_name_H-M   'P 1'
_cell_length_a   11.59350475
_cell_length_b   11.59350475
_cell_length_c   11.59350475
_cell_angle_alpha   148.46346838
_cell_angle_beta   148.46346838
_cell_angle_gamma   45.20165649
_symmetry_Int_Tables_number   1
_chemical_formula_structural   LaGe2
_chemical_formula_sum   'La4 Ge8'
_cell_volume   424.94485768
_cell_formula_units_Z   4
loop_
 _symmetry_equiv_pos_site_id
 _symmetry_equiv_pos_as_xyz
  1  'x, y, z'
loop_
 _atom_site_type_symbol
 _atom_site_label
 _atom_site_symmetry_multiplicity
 _atom_site_fract_x
 _atom_site_fract_y
 _atom_site_fract_z
 _atom_site_occupancy
  La  La0  1  0.37500000  0.12500000  0.25000000  1.0
  La  La1  1  0.87500000  0.12500000  0.75000000  1.0
  La  La2  1  0.87500000  1.12500000  1.25000000  1.0
  La  La3  1  0.87500000  0.62500000  0.75000000  1.0
  Ge  Ge4  1  1.05237129  0.27470235  0.77766894  1.0
  Ge  Ge5  1  1.25296659  0.97529765  1.27766894  1.0
  Ge  Ge6  1  0.49703341  0.27470235  0.22233106  1.0
  Ge  Ge7  1  0.69762871  0.97529765  0.72233106  1.0
  Ge  Ge8  1  0.72529765  0.50296659  0.77766894  1.0
  Ge  Ge9  1  0.02470235  0.30237129  0.27766894  1.0
  Ge  Ge10  1  0.72529765  0.94762871  1.22233106  1.0
  Ge  Ge11  1  0.02470235  0.74703341  0.72233106  1.0
