# generated using pymatgen
data_SrSiPt
_symmetry_space_group_name_H-M   'P 1'
_cell_length_a   6.54380330
_cell_length_b   6.54380330
_cell_length_c   6.54380330
_cell_angle_alpha   90.00000000
_cell_angle_beta   90.00000000
_cell_angle_gamma   90.00000000
_symmetry_Int_Tables_number   1
_chemical_formula_structural   SrSiPt
_chemical_formula_sum   'Sr4 Si4 Pt4'
_cell_volume   280.21456767
_cell_formula_units_Z   4
loop_
 _symmetry_equiv_pos_site_id
 _symmetry_equiv_pos_as_xyz
  1  'x, y, z'
loop_
 _atom_site_type_symbol
 _atom_site_label
 _atom_site_symmetry_multiplicity
 _atom_site_fract_x
 _atom_site_fract_y
 _atom_site_fract_z
 _atom_site_occupancy
  Sr  Sr0  1  0.36980913  0.86980913  0.63019087  1.0
  Sr  Sr1  1  0.86980913  0.63019087  0.36980913  1.0
  Sr  Sr2  1  0.63019087  0.36980913  0.86980913  1.0
  Sr  Sr3  1  0.13019087  0.13019087  0.13019087  1.0
  Si  Si4  1  0.66011606  0.16011606  0.33988394  1.0
  Si  Si5  1  0.16011606  0.33988394  0.66011606  1.0
  Si  Si6  1  0.33988394  0.66011606  0.16011606  1.0
  Si  Si7  1  0.83988394  0.83988394  0.83988394  1.0
  Pt  Pt8  1  0.08840199  0.58840199  0.91159801  1.0
  Pt  Pt9  1  0.58840199  0.91159801  0.08840199  1.0
  Pt  Pt10  1  0.91159801  0.08840199  0.58840199  1.0
  Pt  Pt11  1  0.41159801  0.41159801  0.41159801  1.0
