# generated using pymatgen
data_LaAgSO
_symmetry_space_group_name_H-M   'P 1'
_cell_length_a   4.09214925
_cell_length_b   4.09214925
_cell_length_c   9.10943799
_cell_angle_alpha   90.00000000
_cell_angle_beta   90.00000000
_cell_angle_gamma   90.00000000
_symmetry_Int_Tables_number   1
_chemical_formula_structural   LaAgSO
_chemical_formula_sum   'La2 Ag2 S2 O2'
_cell_volume   152.54378348
_cell_formula_units_Z   2
loop_
 _symmetry_equiv_pos_site_id
 _symmetry_equiv_pos_as_xyz
  1  'x, y, z'
loop_
 _atom_site_type_symbol
 _atom_site_label
 _atom_site_symmetry_multiplicity
 _atom_site_fract_x
 _atom_site_fract_y
 _atom_site_fract_z
 _atom_site_occupancy
  La  La0  1  0.50000000  0.00000000  0.63548039  1.0
  La  La1  1  0.00000000  0.50000000  0.36451961  1.0
  Ag  Ag2  1  0.00000000  0.00000000  0.00000000  1.0
  Ag  Ag3  1  0.50000000  0.50000000  0.00000000  1.0
  S  S4  1  0.50000000  0.00000000  0.19216741  1.0
  S  S5  1  0.00000000  0.50000000  0.80783259  1.0
  O  O6  1  0.00000000  0.00000000  0.50000000  1.0
  O  O7  1  0.50000000  0.50000000  0.50000000  1.0
