# generated using pymatgen
data_KNb(BO3)2
_symmetry_space_group_name_H-M   'P 1'
_cell_length_a   7.50319708
_cell_length_b   4.02538838
_cell_length_c   9.35159004
_cell_angle_alpha   90.00000000
_cell_angle_beta   90.00000000
_cell_angle_gamma   90.00000000
_symmetry_Int_Tables_number   1
_chemical_formula_structural   KNb(BO3)2
_chemical_formula_sum   'K2 Nb2 B4 O12'
_cell_volume   282.44871411
_cell_formula_units_Z   2
loop_
 _symmetry_equiv_pos_site_id
 _symmetry_equiv_pos_as_xyz
  1  'x, y, z'
loop_
 _atom_site_type_symbol
 _atom_site_label
 _atom_site_symmetry_multiplicity
 _atom_site_fract_x
 _atom_site_fract_y
 _atom_site_fract_z
 _atom_site_occupancy
  K  K0  1  0.00000000  0.50023708  0.38808425  1.0
  K  K1  1  0.50000000  0.49976292  0.88808425  1.0
  Nb  Nb2  1  0.00000000  0.80238945  -0.00120905  1.0
  Nb  Nb3  1  0.50000000  0.19761055  0.49879095  1.0
  B  B4  1  0.66516078  0.98411678  0.20954270  1.0
  B  B5  1  0.16516078  0.01588322  0.70954270  1.0
  B  B6  1  0.33483922  0.98411678  0.20954270  1.0
  B  B7  1  0.83483922  0.01588322  0.70954270  1.0
  O  O8  1  0.00000000  0.35579321  -0.00114424  1.0
  O  O9  1  0.50000000  0.64420679  0.49885576  1.0
  O  O10  1  0.81858088  0.86964367  0.84001612  1.0
  O  O11  1  0.31858088  0.13035633  0.34001612  1.0
  O  O12  1  0.18141912  0.86964367  0.84001612  1.0
  O  O13  1  0.68141912  0.13035633  0.34001612  1.0
  O  O14  1  0.80911124  0.85162446  0.14177460  1.0
  O  O15  1  0.30911124  0.14837554  0.64177460  1.0
  O  O16  1  0.19088876  0.85162446  0.14177460  1.0
  O  O17  1  0.69088876  0.14837554  0.64177460  1.0
  O  O18  1  0.00000000  0.04611306  0.63900221  1.0
  O  O19  1  0.50000000  0.95388694  0.13900221  1.0
