# generated using pymatgen
data_NbCuO3F
_symmetry_space_group_name_H-M   'P 1'
_cell_length_a   3.82711755
_cell_length_b   6.62349453
_cell_length_c   6.83600154
_cell_angle_alpha   112.54433130
_cell_angle_beta   100.05647894
_cell_angle_gamma   86.82464870
_symmetry_Int_Tables_number   1
_chemical_formula_structural   NbCuO3F
_chemical_formula_sum   'Nb2 Cu2 O6 F2'
_cell_volume   157.57155752
_cell_formula_units_Z   2
loop_
 _symmetry_equiv_pos_site_id
 _symmetry_equiv_pos_as_xyz
  1  'x, y, z'
loop_
 _atom_site_type_symbol
 _atom_site_label
 _atom_site_symmetry_multiplicity
 _atom_site_fract_x
 _atom_site_fract_y
 _atom_site_fract_z
 _atom_site_occupancy
  Nb  Nb0  1  0.27231621  0.21582579  -0.84075665  1.0
  Nb  Nb1  1  0.72768379  0.78417421  -0.15924335  1.0
  O  O2  1  0.75590058  0.14424948  -0.91758399  1.0
  O  O3  1  0.24409942  0.85575052  -0.08241601  1.0
  O  O4  1  0.29538362  0.50477267  -0.69869519  1.0
  O  O5  1  0.70461638  0.49522733  -0.30130481  1.0
  O  O6  1  0.33761608  0.10794549  -0.61254727  1.0
  O  O7  1  0.66238392  0.89205451  -0.38745273  1.0
  Cu  Cu8  1  0.70241455  0.19560545  -0.35146521  1.0
  Cu  Cu9  1  0.29758545  0.80439455  -0.64853479  1.0
  F  F10  1  0.16086027  0.24657232  -0.14425445  1.0
  F  F11  1  0.83913973  0.75342768  -0.85574555  1.0
