# generated using pymatgen
data_Mg4B8H31
_symmetry_space_group_name_H-M   'P 1'
_cell_length_a   10.30513922
_cell_length_b   8.15266826
_cell_length_c   8.03961301
_cell_angle_alpha   90.20934180
_cell_angle_beta   89.64090842
_cell_angle_gamma   90.01450110
_symmetry_Int_Tables_number   1
_chemical_formula_structural   Mg4B8H31
_chemical_formula_sum   'Mg4 B8 H31'
_cell_volume   675.42532288
_cell_formula_units_Z   1
loop_
 _symmetry_equiv_pos_site_id
 _symmetry_equiv_pos_as_xyz
  1  'x, y, z'
loop_
 _atom_site_type_symbol
 _atom_site_label
 _atom_site_symmetry_multiplicity
 _atom_site_fract_x
 _atom_site_fract_y
 _atom_site_fract_z
 _atom_site_occupancy
  B  B0  1  0.65282944  -0.72780909  0.38588867  1.0
  B  B1  1  0.86151626  -0.99844038  0.64741915  1.0
  B  B2  1  0.15381484  -0.77232358  0.88784136  1.0
  B  B3  1  0.15043087  -0.23463526  0.88899222  1.0
  B  B4  1  0.35526123  -0.50082192  0.15699232  1.0
  B  B5  1  0.35553058  -0.50136640  0.61862026  1.0
  B  B6  1  0.64978956  -0.26547371  0.38491490  1.0
  B  B7  1  0.84302068  -0.99906752  0.10223329  1.0
  Mg  Mg8  1  0.25235162  -0.50238675  0.88851524  1.0
  Mg  Mg9  1  0.50472889  -0.49845495  0.38657475  1.0
  Mg  Mg10  1  0.75221728  -0.99756837  0.38190631  1.0
  Mg  Mg11  1  0.00558900  -0.00159632  0.88549737  1.0
  H  H12  1  0.89062321  -0.12653261  0.71708402  1.0
  H  H13  1  0.27180202  -0.75627629  0.88993920  1.0
  H  H14  1  0.12425520  -0.16414493  0.75926800  1.0
  H  H15  1  0.23689988  -0.50285731  0.14492284  1.0
  H  H16  1  0.38478910  -0.62788823  0.54519088  1.0
  H  H17  1  0.62166246  -0.33786241  0.25636164  1.0
  H  H18  1  0.59033829  -0.85631088  0.38769256  1.0
  H  H19  1  0.74291104  -0.99729013  0.63894676  1.0
  H  H20  1  0.72543780  -0.99581343  0.10736196  1.0
  H  H21  1  0.26860652  -0.24856093  0.89081456  1.0
  H  H22  1  0.12488356  -0.84432519  0.01626050  1.0
  H  H23  1  0.38285684  -0.37359064  0.54708507  1.0
  H  H24  1  0.38482596  -0.62751029  0.22852041  1.0
  H  H25  1  0.62614946  -0.65457103  0.51487743  1.0
  H  H26  1  0.76807211  -0.25178701  0.38352167  1.0
  H  H27  1  0.89877858  -0.87076769  0.07528730  1.0
  H  H28  1  0.89212267  -0.87182811  0.71968930  1.0
  H  H29  1  0.12863555  -0.84501923  0.75850901  1.0
  H  H30  1  0.08880937  -0.36375843  0.88901837  1.0
  H  H31  1  0.89420694  -0.12987470  0.07216993  1.0
  H  H32  1  0.91971886  -0.99812735  0.51268138  1.0
  H  H33  1  0.12089750  -0.16174283  0.01718884  1.0
  H  H34  1  0.09082911  -0.64426226  0.88700155  1.0
  H  H35  1  0.41612430  -0.49971346  0.02524456  1.0
  H  H36  1  0.23716937  -0.50287587  0.63232541  1.0
  H  H37  1  0.62170487  -0.33622685  0.51434300  1.0
  H  H38  1  0.62469442  -0.65683603  0.25704774  1.0
  H  H39  1  0.38215919  -0.37324665  0.22964391  1.0
  H  H40  1  0.41630682  -0.50110853  0.74945859  1.0
  H  H41  1  0.77094344  -0.74323851  0.38352774  1.0
  H  H42  1  0.58850829  -0.13610795  0.38506166  1.0
