# generated using pymatgen
data_Rb2NaCr(CN)6
_symmetry_space_group_name_H-M   'P 1'
_cell_length_a   7.44363770
_cell_length_b   7.92045500
_cell_length_c   13.05178172
_cell_angle_alpha   90.00000000
_cell_angle_beta   123.97198444
_cell_angle_gamma   90.00000000
_symmetry_Int_Tables_number   1
_chemical_formula_structural   Rb2NaCr(CN)6
_chemical_formula_sum   'Rb4 Na2 Cr2 C12 N12'
_cell_volume   638.14964570
_cell_formula_units_Z   2
loop_
 _symmetry_equiv_pos_site_id
 _symmetry_equiv_pos_as_xyz
  1  'x, y, z'
loop_
 _atom_site_type_symbol
 _atom_site_label
 _atom_site_symmetry_multiplicity
 _atom_site_fract_x
 _atom_site_fract_y
 _atom_site_fract_z
 _atom_site_occupancy
  Rb  Rb0  1  0.72387080  0.57176590  0.74813630  1.0
  Rb  Rb1  1  0.72387080  0.92823410  0.24813630  1.0
  Rb  Rb2  1  0.27612920  0.42823410  0.25186370  1.0
  Rb  Rb3  1  0.27612920  0.07176590  0.75186370  1.0
  Na  Na4  1  0.50000000  0.50000000  -0.00000000  1.0
  Na  Na5  1  0.50000000  0.00000000  0.50000000  1.0
  Cr  Cr6  1  -0.00000000  0.50000000  0.50000000  1.0
  Cr  Cr7  1  0.00000000  0.00000000  0.00000000  1.0
  C  C8  1  0.10048164  0.47695608  0.68012456  1.0
  C  C9  1  0.10048164  0.02304392  0.18012456  1.0
  C  C10  1  0.89951836  0.52304392  0.31987544  1.0
  C  C11  1  0.89951836  0.97695608  0.81987544  1.0
  C  C12  1  0.25815429  0.35879041  0.53573455  1.0
  C  C13  1  0.25815429  0.14120959  0.03573455  1.0
  C  C14  1  0.74184571  0.64120959  0.46426545  1.0
  C  C15  1  0.74184571  0.85879041  0.96426545  1.0
  C  C16  1  0.81725512  0.28612706  0.45570450  1.0
  C  C17  1  0.81725512  0.21387294  0.95570450  1.0
  C  C18  1  0.18274488  0.71387294  0.54429550  1.0
  C  C19  1  0.18274488  0.78612706  0.04429550  1.0
  N  N20  1  0.16133684  0.46193735  0.78421616  1.0
  N  N21  1  0.16133684  0.03806265  0.28421616  1.0
  N  N22  1  0.83866316  0.53806265  0.21578384  1.0
  N  N23  1  0.83866316  0.96193735  0.71578384  1.0
  N  N24  1  0.40704910  0.27690235  0.55750798  1.0
  N  N25  1  0.40704910  0.22309765  0.05750798  1.0
  N  N26  1  0.59295090  0.72309765  0.44249202  1.0
  N  N27  1  0.59295090  0.77690235  0.94249202  1.0
  N  N28  1  0.70848330  0.16529546  0.42902215  1.0
  N  N29  1  0.70848330  0.33470454  0.92902215  1.0
  N  N30  1  0.29151670  0.83470454  0.57097785  1.0
  N  N31  1  0.29151670  0.66529546  0.07097785  1.0
