# generated using pymatgen
data_EuC2
_symmetry_space_group_name_H-M   'P 1'
_cell_length_a   3.98277217
_cell_length_b   3.98277217
_cell_length_c   7.19148407
_cell_angle_alpha   76.87610236
_cell_angle_beta   103.12389764
_cell_angle_gamma   115.25339635
_symmetry_Int_Tables_number   1
_chemical_formula_structural   EuC2
_chemical_formula_sum   'Eu2 C4'
_cell_volume   99.37423269
_cell_formula_units_Z   2
loop_
 _symmetry_equiv_pos_site_id
 _symmetry_equiv_pos_as_xyz
  1  'x, y, z'
loop_
 _atom_site_type_symbol
 _atom_site_label
 _atom_site_symmetry_multiplicity
 _atom_site_fract_x
 _atom_site_fract_y
 _atom_site_fract_z
 _atom_site_occupancy
  Eu  Eu0  1  0.81717380  0.81717380  0.75000000  1.0
  Eu  Eu1  1  0.18282620  0.18282620  0.25000000  1.0
  C  C2  1  0.57201101  0.15367440  0.94459536  1.0
  C  C3  1  0.84632560  0.42798899  0.44459536  1.0
  C  C4  1  1.15367440  -0.42798899  0.55540464  1.0
  C  C5  1  1.42798899  -0.15367440  0.05540464  1.0
