# generated using pymatgen
data_K2RbPdF5
_symmetry_space_group_name_H-M   'P 1'
_cell_length_a   7.36315012
_cell_length_b   7.36315012
_cell_length_c   6.34552379
_cell_angle_alpha   90.00000000
_cell_angle_beta   90.00000000
_cell_angle_gamma   90.00000000
_symmetry_Int_Tables_number   1
_chemical_formula_structural   K2RbPdF5
_chemical_formula_sum   'K4 Rb2 Pd2 F10'
_cell_volume   344.02878854
_cell_formula_units_Z   2
loop_
 _symmetry_equiv_pos_site_id
 _symmetry_equiv_pos_as_xyz
  1  'x, y, z'
loop_
 _atom_site_type_symbol
 _atom_site_label
 _atom_site_symmetry_multiplicity
 _atom_site_fract_x
 _atom_site_fract_y
 _atom_site_fract_z
 _atom_site_occupancy
  K  K0  1  0.32266237  0.17733763  0.50000000  1.0
  K  K1  1  0.82266237  0.32266237  0.50000000  1.0
  K  K2  1  0.67733763  0.82266237  0.50000000  1.0
  K  K3  1  0.17733763  0.67733763  0.50000000  1.0
  Rb  Rb4  1  0.50000000  0.50000000  0.00000000  1.0
  Rb  Rb5  1  0.00000000  0.00000000  0.00000000  1.0
  Pd  Pd6  1  0.50000000  0.00000000  0.00000000  1.0
  Pd  Pd7  1  0.00000000  0.50000000  0.00000000  1.0
  F  F8  1  0.86600833  0.63399167  0.77842768  1.0
  F  F9  1  0.86600833  0.63399167  0.22157232  1.0
  F  F10  1  0.36600833  0.86600833  0.77842768  1.0
  F  F11  1  0.36600833  0.86600833  0.22157232  1.0
  F  F12  1  0.13399167  0.36600833  0.77842768  1.0
  F  F13  1  0.13399167  0.36600833  0.22157232  1.0
  F  F14  1  0.63399167  0.13399167  0.77842768  1.0
  F  F15  1  0.63399167  0.13399167  0.22157232  1.0
  F  F16  1  0.50000000  0.50000000  0.50000000  1.0
  F  F17  1  0.00000000  0.00000000  0.50000000  1.0
