# generated using pymatgen
data_ZrP2C3NO6F
_symmetry_space_group_name_H-M   'P 1'
_cell_length_a   5.48138226
_cell_length_b   10.95280193
_cell_length_c   10.02845569
_cell_angle_alpha   88.65650976
_cell_angle_beta   74.38803330
_cell_angle_gamma   91.05804004
_symmetry_Int_Tables_number   1
_chemical_formula_structural   ZrP2C3NO6F
_chemical_formula_sum   'Zr2 P4 C6 N2 O12 F2'
_cell_volume   579.50931377
_cell_formula_units_Z   2
loop_
 _symmetry_equiv_pos_site_id
 _symmetry_equiv_pos_as_xyz
  1  'x, y, z'
loop_
 _atom_site_type_symbol
 _atom_site_label
 _atom_site_symmetry_multiplicity
 _atom_site_fract_x
 _atom_site_fract_y
 _atom_site_fract_z
 _atom_site_occupancy
  C  C0  1  -0.18462490  -0.60407515  -0.62849749  1.0
  C  C1  1  -0.81537510  -0.39592485  -0.37150251  1.0
  C  C2  1  -0.23650961  -0.66529213  -0.52036011  1.0
  C  C3  1  -0.76349039  -0.33470787  -0.47963989  1.0
  C  C4  1  -0.65573782  -0.23430342  -0.70978411  1.0
  C  C5  1  -0.34426218  -0.76569658  -0.29021589  1.0
  O  O6  1  -0.33447071  -0.10301185  -0.90257637  1.0
  O  O7  1  -0.66552929  -0.89698815  -0.09742363  1.0
  O  O8  1  -0.78879967  -0.12754943  -0.91733116  1.0
  O  O9  1  -0.21120033  -0.87245057  -0.08266884  1.0
  O  O10  1  -0.30232361  -0.53084227  -0.85420138  1.0
  O  O11  1  -0.69767639  -0.46915773  -0.14579862  1.0
  O  O12  1  -0.84060882  -0.52270112  -0.85023961  1.0
  O  O13  1  -0.15939118  -0.47729888  -0.14976039  1.0
  O  O14  1  -0.49798459  -0.31063251  -0.96057864  1.0
  O  O15  1  -0.50201541  -0.68936749  -0.03942136  1.0
  O  O16  1  -0.15273600  -0.37180412  -0.70488023  1.0
  O  O17  1  -0.84726400  -0.62819588  -0.29511977  1.0
  Zr  Zr18  1  0.00000000  0.00000000  0.00000000  1.0
  Zr  Zr19  1  -0.50000000  -0.50000000  -0.00000000  1.0
  N  N20  1  -0.29302064  -0.72184587  -0.40196739  1.0
  N  N21  1  -0.70697936  -0.27815413  -0.59803261  1.0
  F  F22  1  -1.04591667  -0.90462578  -0.83267811  1.0
  F  F23  1  0.04591667  -0.09537422  -0.16732189  1.0
  P  P24  1  -0.55903244  -0.18865892  -0.89287820  1.0
  P  P25  1  -0.44096756  -0.81134108  -0.10712180  1.0
  P  P26  1  -0.11598964  -0.49438105  -0.76904077  1.0
  P  P27  1  -0.88401036  -0.50561895  -0.23095923  1.0
