# generated using pymatgen
data_RbZn4(BO3)3
_symmetry_space_group_name_H-M   'P 1'
_cell_length_a   7.00162430
_cell_length_b   5.04929710
_cell_length_c   12.90426806
_cell_angle_alpha   90.00000000
_cell_angle_beta   93.71575080
_cell_angle_gamma   90.00000000
_symmetry_Int_Tables_number   1
_chemical_formula_structural   RbZn4(BO3)3
_chemical_formula_sum   'Rb2 Zn8 B6 O18'
_cell_volume   455.24919610
_cell_formula_units_Z   2
loop_
 _symmetry_equiv_pos_site_id
 _symmetry_equiv_pos_as_xyz
  1  'x, y, z'
loop_
 _atom_site_type_symbol
 _atom_site_label
 _atom_site_symmetry_multiplicity
 _atom_site_fract_x
 _atom_site_fract_y
 _atom_site_fract_z
 _atom_site_occupancy
  Rb  Rb0  1  0.50000000  0.77134805  0.25000000  1.0
  Rb  Rb1  1  0.50000000  0.22865195  0.75000000  1.0
  Zn  Zn2  1  0.98804036  0.85317942  0.12421585  1.0
  Zn  Zn3  1  0.98804036  0.14682058  0.62421585  1.0
  Zn  Zn4  1  0.01195964  0.85317942  0.37578415  1.0
  Zn  Zn5  1  0.01195964  0.14682058  0.87578415  1.0
  Zn  Zn6  1  0.70968912  0.33602645  0.05919000  1.0
  Zn  Zn7  1  0.70968912  0.66397355  0.55919000  1.0
  Zn  Zn8  1  0.29031088  0.33602645  0.44081000  1.0
  Zn  Zn9  1  0.29031088  0.66397355  0.94081000  1.0
  B  B10  1  0.68769397  0.85061591  0.95364474  1.0
  B  B11  1  0.68769397  0.14938409  0.45364474  1.0
  B  B12  1  0.31230603  0.85061591  0.54635526  1.0
  B  B13  1  0.31230603  0.14938409  0.04635526  1.0
  B  B14  1  0.00000000  0.34905362  0.25000000  1.0
  B  B15  1  0.00000000  0.65094638  0.75000000  1.0
  O  O16  1  0.90891154  0.78785063  0.66836121  1.0
  O  O17  1  0.90891154  0.21214937  0.16836121  1.0
  O  O18  1  0.09108846  0.78785063  0.83163879  1.0
  O  O19  1  0.09108846  0.21214937  0.33163879  1.0
  O  O20  1  0.77447907  0.70560052  0.03605886  1.0
  O  O21  1  0.77447907  0.29439948  0.53605886  1.0
  O  O22  1  0.22552093  0.70560052  0.46394114  1.0
  O  O23  1  0.22552093  0.29439948  0.96394114  1.0
  O  O24  1  0.76389848  0.89445791  0.43676690  1.0
  O  O25  1  0.76389848  0.10554209  0.93676690  1.0
  O  O26  1  0.23610152  0.89445791  0.06323310  1.0
  O  O27  1  0.23610152  0.10554209  0.56323310  1.0
  O  O28  1  0.53666360  0.75830615  0.89370363  1.0
  O  O29  1  0.53666360  0.24169385  0.39370363  1.0
  O  O30  1  0.46333640  0.75830615  0.60629637  1.0
  O  O31  1  0.46333640  0.24169385  0.10629637  1.0
  O  O32  1  0.00000000  0.62482609  0.25000000  1.0
  O  O33  1  0.00000000  0.37517391  0.75000000  1.0
