# generated using pymatgen
data_Cr2SiO4
_symmetry_space_group_name_H-M   'P 1'
_cell_length_a   7.68551078
_cell_length_b   6.30195797
_cell_length_c   5.92940953
_cell_angle_alpha   77.79027739
_cell_angle_beta   53.26698614
_cell_angle_gamma   48.94273648
_symmetry_Int_Tables_number   1
_chemical_formula_structural   Cr2SiO4
_chemical_formula_sum   'Cr4 Si2 O8'
_cell_volume   165.55348533
_cell_formula_units_Z   2
loop_
 _symmetry_equiv_pos_site_id
 _symmetry_equiv_pos_as_xyz
  1  'x, y, z'
loop_
 _atom_site_type_symbol
 _atom_site_label
 _atom_site_symmetry_multiplicity
 _atom_site_fract_x
 _atom_site_fract_y
 _atom_site_fract_z
 _atom_site_occupancy
  Cr  Cr0  1  0.60187223  0.89812777  -0.39812777  1.0
  Cr  Cr1  1  0.89812777  0.60187223  0.89812777  1.0
  Cr  Cr2  1  0.64812777  0.35187223  -0.35187223  1.0
  Cr  Cr3  1  0.35187223  0.64812777  0.35187223  1.0
  Si  Si4  1  0.25000000  1.25000000  0.25000000  1.0
  Si  Si5  1  -0.00000000  1.00000000  0.00000000  1.0
  O  O6  1  0.44219275  0.90362280  0.25306502  1.0
  O  O7  1  0.40111943  1.25306502  -0.09637720  1.0
  O  O8  1  -0.09637720  1.44219275  0.40111943  1.0
  O  O9  1  1.25306502  0.40111943  0.44219275  1.0
  O  O10  1  0.80780725  0.34637720  0.99693498  1.0
  O  O11  1  -0.15111943  0.99693498  0.34637720  1.0
  O  O12  1  0.34637720  0.80780725  -0.15111943  1.0
  O  O13  1  -0.00306502  0.84888057  0.80780725  1.0
