# generated using pymatgen
data_BaPd(SeO3)2
_symmetry_space_group_name_H-M   'P 1'
_cell_length_a   5.04352295
_cell_length_b   5.04352295
_cell_length_c   15.89989211
_cell_angle_alpha   88.57494194
_cell_angle_beta   91.42505806
_cell_angle_gamma   116.85860675
_symmetry_Int_Tables_number   1
_chemical_formula_structural   BaPd(SeO3)2
_chemical_formula_sum   'Ba2 Pd2 Se4 O12'
_cell_volume   360.66365976
_cell_formula_units_Z   2
loop_
 _symmetry_equiv_pos_site_id
 _symmetry_equiv_pos_as_xyz
  1  'x, y, z'
loop_
 _atom_site_type_symbol
 _atom_site_label
 _atom_site_symmetry_multiplicity
 _atom_site_fract_x
 _atom_site_fract_y
 _atom_site_fract_z
 _atom_site_occupancy
  Ba  Ba0  1  1.04920892  0.04920892  0.75000000  1.0
  Ba  Ba1  1  0.95079108  -0.04920892  0.25000000  1.0
  Pd  Pd2  1  0.00000000  0.00000000  -0.00000000  1.0
  Pd  Pd3  1  0.00000000  -0.00000000  0.50000000  1.0
  Se  Se4  1  1.63366777  0.35142474  0.58939604  1.0
  Se  Se5  1  0.64857526  -0.63366777  0.08939604  1.0
  Se  Se6  1  1.35142474  0.63366777  0.91060396  1.0
  Se  Se7  1  0.36633223  -0.35142474  0.41060396  1.0
  O  O8  1  1.32601239  0.27174636  0.92019011  1.0
  O  O9  1  0.72825364  -0.32601239  0.42019011  1.0
  O  O10  1  1.27174636  0.32601239  0.57980989  1.0
  O  O11  1  0.67398761  -0.27174636  0.07980989  1.0
  O  O12  1  1.63115583  0.23911828  0.69077655  1.0
  O  O13  1  0.76088172  -0.63115583  0.19077655  1.0
  O  O14  1  1.23911828  0.63115583  0.80922345  1.0
  O  O15  1  0.36884417  -0.23911828  0.30922345  1.0
  O  O16  1  0.73532844  -0.15949921  0.89633397  1.0
  O  O17  1  1.15949921  0.26467156  0.39633397  1.0
  O  O18  1  0.84050079  -0.26467156  0.60366603  1.0
  O  O19  1  1.26467156  0.15949921  0.10366603  1.0
