# generated using pymatgen
data_BaGe5
_symmetry_space_group_name_H-M   'P 1'
_cell_length_a   8.49614302
_cell_length_b   8.49614302
_cell_length_c   8.49614302
_cell_angle_alpha   146.31622766
_cell_angle_beta   119.77445659
_cell_angle_gamma   70.81021441
_symmetry_Int_Tables_number   1
_chemical_formula_structural   BaGe5
_chemical_formula_sum   'Ba2 Ge10'
_cell_volume   290.64753126
_cell_formula_units_Z   2
loop_
 _symmetry_equiv_pos_site_id
 _symmetry_equiv_pos_as_xyz
  1  'x, y, z'
loop_
 _atom_site_type_symbol
 _atom_site_label
 _atom_site_symmetry_multiplicity
 _atom_site_fract_x
 _atom_site_fract_y
 _atom_site_fract_z
 _atom_site_occupancy
  Ba  Ba0  1  0.71694055  0.46694055  0.25000000  1.0
  Ba  Ba1  1  0.28305945  0.53305945  0.75000000  1.0
  Ge  Ge2  1  1.35564239  0.87762228  1.47802011  1.0
  Ge  Ge3  1  1.10039783  0.12237772  0.97802011  1.0
  Ge  Ge4  1  0.64435761  0.12237772  0.52197989  1.0
  Ge  Ge5  1  0.89960217  0.87762228  1.02197989  1.0
  Ge  Ge6  1  1.09629263  0.69235531  1.40393732  1.0
  Ge  Ge7  1  1.21158200  0.30764469  0.90393732  1.0
  Ge  Ge8  1  0.90370737  0.30764469  0.59606268  1.0
  Ge  Ge9  1  0.78841800  0.69235531  1.09606268  1.0
  Ge  Ge10  1  0.46145446  0.21145446  0.25000000  1.0
  Ge  Ge11  1  0.53854554  0.78854554  0.75000000  1.0
