# generated using pymatgen
data_Sr3P6(N4O3)2
_symmetry_space_group_name_H-M   'P 1'
_cell_length_a   7.37719914
_cell_length_b   7.37719914
_cell_length_c   6.11112654
_cell_angle_alpha   90.00000000
_cell_angle_beta   90.00000000
_cell_angle_gamma   120.00000000
_symmetry_Int_Tables_number   1
_chemical_formula_structural   Sr3P6(N4O3)2
_chemical_formula_sum   'Sr3 P6 N8 O6'
_cell_volume   288.02814197
_cell_formula_units_Z   1
loop_
 _symmetry_equiv_pos_site_id
 _symmetry_equiv_pos_as_xyz
  1  'x, y, z'
loop_
 _atom_site_type_symbol
 _atom_site_label
 _atom_site_symmetry_multiplicity
 _atom_site_fract_x
 _atom_site_fract_y
 _atom_site_fract_z
 _atom_site_occupancy
  Sr  Sr0  1  0.33333333  0.66666667  0.11701251  1.0
  Sr  Sr1  1  0.66666667  0.33333333  0.88298749  1.0
  Sr  Sr2  1  0.00000000  0.00000000  0.00000000  1.0
  P  P3  1  0.77858613  0.60169090  0.38991014  1.0
  P  P4  1  0.60169090  0.82310477  0.61008986  1.0
  P  P5  1  0.82310477  0.22141387  0.38991014  1.0
  P  P6  1  0.39830910  0.17689523  0.38991014  1.0
  P  P7  1  0.22141387  0.39830910  0.61008986  1.0
  P  P8  1  0.17689523  0.77858613  0.61008986  1.0
  N  N9  1  0.02828790  0.69700571  0.39503927  1.0
  N  N10  1  0.69700571  0.66871782  0.60496073  1.0
  N  N11  1  0.66871782  0.97171210  0.39503927  1.0
  N  N12  1  0.30299429  0.33128218  0.39503927  1.0
  N  N13  1  0.97171210  0.30299429  0.60496073  1.0
  N  N14  1  0.33128218  0.02828790  0.60496073  1.0
  N  N15  1  0.33333333  0.66666667  0.57857769  1.0
  N  N16  1  0.66666667  0.33333333  0.42142231  1.0
  O  O17  1  0.71255935  0.63613091  0.16071162  1.0
  O  O18  1  0.63613091  0.92357156  0.83928838  1.0
  O  O19  1  0.92357156  0.28744065  0.16071162  1.0
  O  O20  1  0.36386909  0.07642844  0.16071162  1.0
  O  O21  1  0.28744065  0.36386909  0.83928838  1.0
  O  O22  1  0.07642844  0.71255935  0.83928838  1.0
