# generated using pymatgen
data_Gd(BRu)4
_symmetry_space_group_name_H-M   'P 1'
_cell_length_a   9.20760311
_cell_length_b   9.20760311
_cell_length_c   9.20760311
_cell_angle_alpha   131.97795440
_cell_angle_beta   131.97795440
_cell_angle_gamma   70.26384774
_symmetry_Int_Tables_number   1
_chemical_formula_structural   Gd(BRu)4
_chemical_formula_sum   'Gd4 B16 Ru16'
_cell_volume   422.82845284
_cell_formula_units_Z   4
loop_
 _symmetry_equiv_pos_site_id
 _symmetry_equiv_pos_as_xyz
  1  'x, y, z'
loop_
 _atom_site_type_symbol
 _atom_site_label
 _atom_site_symmetry_multiplicity
 _atom_site_fract_x
 _atom_site_fract_y
 _atom_site_fract_z
 _atom_site_occupancy
  Gd  Gd0  1  0.75000000  0.75000000  0.00000000  1.0
  Gd  Gd1  1  1.25000000  1.25000000  1.00000000  1.0
  Gd  Gd2  1  0.00000000  0.50000000  0.50000000  1.0
  Gd  Gd3  1  0.50000000  0.00000000  0.50000000  1.0
  B  B4  1  0.72314315  0.41411417  0.97393475  1.0
  B  B5  1  0.22314315  0.24920840  0.30902898  1.0
  B  B6  1  1.66411417  1.47314315  1.47393475  1.0
  B  B7  1  1.16411417  1.69017942  1.19097102  1.0
  B  B8  1  1.02685685  0.83588583  0.52606525  1.0
  B  B9  1  1.52685685  1.00079160  1.19097102  1.0
  B  B10  1  1.08588583  1.77685685  1.02606525  1.0
  B  B11  1  1.58588583  1.55982058  1.30902898  1.0
  B  B12  1  0.94017942  0.91411417  1.69097102  1.0
  B  B13  1  0.44017942  0.74920840  1.02606525  1.0
  B  B14  1  1.49920840  0.97314315  0.80902898  1.0
  B  B15  1  0.99920840  1.19017942  0.52606525  1.0
  B  B16  1  0.80982058  1.33588583  0.80902898  1.0
  B  B17  1  1.30982058  1.50079160  1.47393475  1.0
  B  B18  1  1.25079160  1.27685685  0.69097102  1.0
  B  B19  1  1.75079160  1.05982058  0.97393475  1.0
  Ru  Ru20  1  1.04108998  1.57284883  1.23729212  1.0
  Ru  Ru21  1  1.54108998  1.30379786  1.46824115  1.0
  Ru  Ru22  1  1.82284883  1.79108998  1.73729212  1.0
  Ru  Ru23  1  1.32284883  1.58555671  1.03175885  1.0
  Ru  Ru24  1  0.70891002  0.67715117  1.26270788  1.0
  Ru  Ru25  1  0.20891002  0.94620214  1.03175885  1.0
  Ru  Ru26  1  0.92715117  1.45891002  0.76270788  1.0
  Ru  Ru27  1  1.42715117  1.66444329  1.46824115  1.0
  Ru  Ru28  1  0.83555671  1.07284883  0.53175885  1.0
  Ru  Ru29  1  1.33555671  0.80379786  0.76270788  1.0
  Ru  Ru30  1  1.55379786  1.29108998  0.96824115  1.0
  Ru  Ru31  1  1.05379786  1.08555671  0.26270788  1.0
  Ru  Ru32  1  0.91444329  0.17715117  0.96824115  1.0
  Ru  Ru33  1  0.41444329  0.44620214  0.73729212  1.0
  Ru  Ru34  1  1.19620214  0.95891002  0.53175885  1.0
  Ru  Ru35  1  1.69620214  1.16444329  1.23729212  1.0
