# generated using pymatgen
data_Co3B2(PO5)3
_symmetry_space_group_name_H-M   'P 1'
_cell_length_a   7.45843317
_cell_length_b   7.45843317
_cell_length_c   11.67681938
_cell_angle_alpha   87.06643963
_cell_angle_beta   92.93356037
_cell_angle_gamma   50.91283734
_symmetry_Int_Tables_number   1
_chemical_formula_structural   Co3B2(PO5)3
_chemical_formula_sum   'Co6 B4 P6 O30'
_cell_volume   500.59441830
_cell_formula_units_Z   2
loop_
 _symmetry_equiv_pos_site_id
 _symmetry_equiv_pos_as_xyz
  1  'x, y, z'
loop_
 _atom_site_type_symbol
 _atom_site_label
 _atom_site_symmetry_multiplicity
 _atom_site_fract_x
 _atom_site_fract_y
 _atom_site_fract_z
 _atom_site_occupancy
  Co  Co0  1  0.81181515  0.05378744  0.78189063  1.0
  Co  Co1  1  0.94621256  -0.81181515  0.28189063  1.0
  Co  Co2  1  0.29175704  -0.12731732  0.91526582  1.0
  Co  Co3  1  1.12731732  -0.29175704  0.41526582  1.0
  Co  Co4  1  0.58035373  -0.50555638  0.58748432  1.0
  Co  Co5  1  0.50555638  0.41964627  0.08748432  1.0
  O  O6  1  1.34352719  -0.61795126  0.91393803  1.0
  O  O7  1  0.61795126  -0.34352719  0.41393803  1.0
  O  O8  1  1.09127860  -0.49592501  0.72398278  1.0
  O  O9  1  0.49592501  -0.09127860  0.22398278  1.0
  O  O10  1  0.57979456  -0.01473154  0.47897594  1.0
  O  O11  1  1.01473154  -0.57979456  0.97897594  1.0
  O  O12  1  0.38952756  0.26993407  0.29636030  1.0
  O  O13  1  0.73006593  -0.38952756  0.79636030  1.0
  O  O14  1  0.74834411  -0.10531314  0.71306646  1.0
  O  O15  1  1.10531314  -0.74834411  0.21306646  1.0
  O  O16  1  0.36647651  0.04245809  0.95177109  1.0
  O  O17  1  0.95754191  -0.36647651  0.45177109  1.0
  O  O18  1  0.26519326  0.05097990  0.65844075  1.0
  O  O19  1  0.94902010  -0.26519326  0.15844075  1.0
  O  O20  1  0.86865826  -0.83149274  0.62288288  1.0
  O  O21  1  0.83149274  0.13134174  0.12288288  1.0
  O  O22  1  1.05126121  -0.81195407  0.44872964  1.0
  O  O23  1  0.81195407  -0.05126121  0.94872964  1.0
  O  O24  1  0.22620196  -0.21020688  0.54917736  1.0
  O  O25  1  1.21020688  -0.22620196  0.04917736  1.0
  O  O26  1  0.46585766  0.39053386  0.46714388  1.0
  O  O27  1  0.60946614  -0.46585766  0.96714388  1.0
  O  O28  1  1.17529200  -0.23486475  0.80198731  1.0
  O  O29  1  0.23486475  -0.17529200  0.30198731  1.0
  O  O30  1  0.74536063  -0.36960372  0.59989801  1.0
  O  O31  1  0.36960372  0.25463937  0.09989801  1.0
  O  O32  1  0.81294717  0.05782275  0.36706585  1.0
  O  O33  1  0.94217725  -0.81294717  0.86706585  1.0
  O  O34  1  0.49870389  0.38640253  0.73010704  1.0
  O  O35  1  0.61359747  -0.49870389  0.23010704  1.0
  B  B36  1  0.73558517  -0.27263585  0.48491292  1.0
  B  B37  1  0.27263585  0.26441483  0.98491292  1.0
  B  B38  1  0.33565183  0.17310767  0.20751805  1.0
  B  B39  1  0.82689233  -0.33565183  0.70751805  1.0
  P  P40  1  1.27065578  -0.48765285  0.78980042  1.0
  P  P41  1  0.48765285  -0.27065578  0.28980042  1.0
  P  P42  1  0.11039910  0.05529107  0.56848941  1.0
  P  P43  1  0.94470893  -0.11039910  0.06848941  1.0
  P  P44  1  0.56957777  0.16886829  0.40396113  1.0
  P  P45  1  0.83113171  -0.56957777  0.90396113  1.0
