# generated using pymatgen
data_Zr3Si
_symmetry_space_group_name_H-M   'P 1'
_cell_length_a   11.02265452
_cell_length_b   11.02265452
_cell_length_c   5.43340826
_cell_angle_alpha   90.00000000
_cell_angle_beta   90.00000000
_cell_angle_gamma   90.00000000
_symmetry_Int_Tables_number   1
_chemical_formula_structural   Zr3Si
_chemical_formula_sum   'Zr24 Si8'
_cell_volume   660.15319628
_cell_formula_units_Z   8
loop_
 _symmetry_equiv_pos_site_id
 _symmetry_equiv_pos_as_xyz
  1  'x, y, z'
loop_
 _atom_site_type_symbol
 _atom_site_label
 _atom_site_symmetry_multiplicity
 _atom_site_fract_x
 _atom_site_fract_y
 _atom_site_fract_z
 _atom_site_occupancy
  Zr  Zr0  1  0.47326322  0.36188082  1.22297365  1.0
  Zr  Zr1  1  0.97326322  0.86188082  0.27702635  1.0
  Zr  Zr2  1  0.36188082  0.52673678  -0.22297365  1.0
  Zr  Zr3  1  0.86188082  0.02673678  0.72297365  1.0
  Zr  Zr4  1  0.52673678  0.63811918  1.22297365  1.0
  Zr  Zr5  1  0.02673678  0.13811918  0.27702635  1.0
  Zr  Zr6  1  0.63811918  0.47326322  -0.22297365  1.0
  Zr  Zr7  1  0.13811918  0.97326322  0.72297365  1.0
  Zr  Zr8  1  0.32044303  0.78373482  0.49106712  1.0
  Zr  Zr9  1  0.82044303  0.28373482  0.00893288  1.0
  Zr  Zr10  1  0.78373482  0.67955697  0.50893288  1.0
  Zr  Zr11  1  0.28373482  0.17955697  0.99106712  1.0
  Zr  Zr12  1  0.67955697  0.21626518  0.49106712  1.0
  Zr  Zr13  1  0.17955697  0.71626518  0.00893288  1.0
  Zr  Zr14  1  0.21626518  0.32044303  0.50893288  1.0
  Zr  Zr15  1  0.71626518  0.82044303  0.99106712  1.0
  Zr  Zr16  1  1.10765933  0.41766080  0.03148510  1.0
  Zr  Zr17  1  0.60765933  0.91766080  0.46851490  1.0
  Zr  Zr18  1  0.41766080  -0.10765933  0.96851490  1.0
  Zr  Zr19  1  0.91766080  0.39234067  0.53148510  1.0
  Zr  Zr20  1  -0.10765933  0.58233920  0.03148510  1.0
  Zr  Zr21  1  0.39234067  0.08233920  0.46851490  1.0
  Zr  Zr22  1  0.58233920  1.10765933  0.96851490  1.0
  Zr  Zr23  1  0.08233920  0.60765933  0.53148510  1.0
  Si  Si24  1  0.45844700  0.29459304  0.71347463  1.0
  Si  Si25  1  0.95844700  0.79459304  -0.21347463  1.0
  Si  Si26  1  0.29459304  0.54155300  0.28652537  1.0
  Si  Si27  1  0.79459304  0.04155300  1.21347463  1.0
  Si  Si28  1  0.54155300  0.70540696  0.71347463  1.0
  Si  Si29  1  0.04155300  0.20540696  -0.21347463  1.0
  Si  Si30  1  0.70540696  0.45844700  0.28652537  1.0
  Si  Si31  1  0.20540696  0.95844700  1.21347463  1.0
