# generated using pymatgen
data_BiAsO4
_symmetry_space_group_name_H-M   'P 1'
_cell_length_a   6.85759398
_cell_length_b   7.35538808
_cell_length_c   8.40845081
_cell_angle_alpha   90.00000000
_cell_angle_beta   126.39502646
_cell_angle_gamma   90.00000000
_symmetry_Int_Tables_number   1
_chemical_formula_structural   BiAsO4
_chemical_formula_sum   'Bi4 As4 O16'
_cell_volume   341.39701514
_cell_formula_units_Z   4
loop_
 _symmetry_equiv_pos_site_id
 _symmetry_equiv_pos_as_xyz
  1  'x, y, z'
loop_
 _atom_site_type_symbol
 _atom_site_label
 _atom_site_symmetry_multiplicity
 _atom_site_fract_x
 _atom_site_fract_y
 _atom_site_fract_z
 _atom_site_occupancy
  Bi  Bi0  1  0.79825722  0.86994720  0.21759925  1.0
  Bi  Bi1  1  0.79825722  0.63005280  0.71759925  1.0
  Bi  Bi2  1  0.20174278  0.36994720  0.28240075  1.0
  Bi  Bi3  1  0.20174278  0.13005280  0.78240075  1.0
  As  As4  1  0.68863796  0.33637295  0.29762251  1.0
  As  As5  1  0.68863796  0.16362705  0.79762251  1.0
  As  As6  1  0.31136204  0.83637295  0.20237749  1.0
  As  As7  1  0.31136204  0.66362705  0.70237749  1.0
  O  O8  1  0.86897576  0.14156502  0.39050327  1.0
  O  O9  1  0.86897576  0.35843498  0.89050327  1.0
  O  O10  1  0.13102424  0.64156502  0.10949673  1.0
  O  O11  1  0.13102424  0.85843498  0.60949673  1.0
  O  O12  1  0.84350913  0.49622475  0.26295804  1.0
  O  O13  1  0.84350913  0.00377525  0.76295804  1.0
  O  O14  1  0.15649087  0.99622475  0.23704196  1.0
  O  O15  1  0.15649087  0.50377525  0.73704196  1.0
  O  O16  1  0.63744743  0.39946414  0.47328045  1.0
  O  O17  1  0.63744743  0.10053586  0.97328045  1.0
  O  O18  1  0.36255257  0.89946414  0.02671955  1.0
  O  O19  1  0.36255257  0.60053586  0.52671955  1.0
  O  O20  1  0.38678528  0.29293660  0.10713333  1.0
  O  O21  1  0.38678528  0.20706340  0.60713333  1.0
  O  O22  1  0.61321472  0.79293660  0.39286667  1.0
  O  O23  1  0.61321472  0.70706340  0.89286667  1.0
