# generated using pymatgen
data_K6BiH3(Cl2F)4
_symmetry_space_group_name_H-M   'P 1'
_cell_length_a   9.23528706
_cell_length_b   9.23528706
_cell_length_c   14.95285032
_cell_angle_alpha   90.00000000
_cell_angle_beta   90.00000000
_cell_angle_gamma   120.00000000
_symmetry_Int_Tables_number   1
_chemical_formula_structural   K6BiH3(Cl2F)4
_chemical_formula_sum   'K12 Bi2 H6 Cl16 F8'
_cell_volume   1104.47379396
_cell_formula_units_Z   2
loop_
 _symmetry_equiv_pos_site_id
 _symmetry_equiv_pos_as_xyz
  1  'x, y, z'
loop_
 _atom_site_type_symbol
 _atom_site_label
 _atom_site_symmetry_multiplicity
 _atom_site_fract_x
 _atom_site_fract_y
 _atom_site_fract_z
 _atom_site_occupancy
  K  K0  1  0.64164116  0.82082058  0.25418840  1.0
  K  K1  1  0.82082058  0.64164116  0.75418840  1.0
  K  K2  1  0.82082058  0.17917942  0.75418840  1.0
  K  K3  1  0.17917942  0.82082058  0.25418840  1.0
  K  K4  1  0.17917942  0.35835884  0.25418840  1.0
  K  K5  1  0.35835884  0.17917942  0.75418840  1.0
  K  K6  1  1.00014345  0.50007173  0.00382564  1.0
  K  K7  1  0.50007173  1.00014345  0.50382564  1.0
  K  K8  1  0.50007173  0.49992827  0.50382564  1.0
  K  K9  1  0.49992827  0.50007173  0.00382564  1.0
  K  K10  1  0.49992827  -0.00014345  0.00382564  1.0
  K  K11  1  -0.00014345  0.49992827  0.50382564  1.0
  Bi  Bi12  1  0.00000000  0.00000000  0.00444784  1.0
  Bi  Bi13  1  0.00000000  0.00000000  0.50444784  1.0
  H  H14  1  0.83989679  0.41994840  0.25509577  1.0
  H  H15  1  0.41994840  0.83989679  0.75509577  1.0
  H  H16  1  0.41994840  0.58005160  0.75509577  1.0
  H  H17  1  0.58005160  0.41994840  0.25509577  1.0
  H  H18  1  0.58005160  0.16010321  0.25509577  1.0
  H  H19  1  0.16010321  0.58005160  0.75509577  1.0
  Cl  Cl20  1  0.28033550  0.14016775  0.10979438  1.0
  Cl  Cl21  1  0.14016775  0.28033550  0.60979438  1.0
  Cl  Cl22  1  0.14016775  0.85983225  0.60979438  1.0
  Cl  Cl23  1  0.85983225  0.14016775  0.10979438  1.0
  Cl  Cl24  1  0.85983225  0.71966450  0.10979438  1.0
  Cl  Cl25  1  0.71966450  0.85983225  0.60979438  1.0
  Cl  Cl26  1  0.27976837  0.13988418  0.39890371  1.0
  Cl  Cl27  1  0.13988418  0.27976837  0.89890371  1.0
  Cl  Cl28  1  0.13988418  0.86011582  0.89890371  1.0
  Cl  Cl29  1  0.86011582  0.13988418  0.39890371  1.0
  Cl  Cl30  1  0.86011582  0.72023163  0.39890371  1.0
  Cl  Cl31  1  0.72023163  0.86011582  0.89890371  1.0
  Cl  Cl32  1  0.33333333  0.66666667  0.11070816  1.0
  Cl  Cl33  1  0.66666667  0.33333333  0.61070816  1.0
  Cl  Cl34  1  0.33333333  0.66666667  0.39753162  1.0
  Cl  Cl35  1  0.66666667  0.33333333  0.89753162  1.0
  F  F36  1  0.96611358  0.48305679  0.25526276  1.0
  F  F37  1  0.48305679  0.96611358  0.75526276  1.0
  F  F38  1  0.48305679  0.51694321  0.75526276  1.0
  F  F39  1  0.51694321  0.48305679  0.25526276  1.0
  F  F40  1  0.51694321  0.03388642  0.25526276  1.0
  F  F41  1  0.03388642  0.51694321  0.75526276  1.0
  F  F42  1  0.33333333  0.66666667  0.75510036  1.0
  F  F43  1  0.66666667  0.33333333  0.25510036  1.0
