# generated using pymatgen
data_TlF
_symmetry_space_group_name_H-M   'P 1'
_cell_length_a   6.56280471
_cell_length_b   6.07004245
_cell_length_c   5.17550029
_cell_angle_alpha   90.00000000
_cell_angle_beta   90.00000000
_cell_angle_gamma   90.00000000
_symmetry_Int_Tables_number   1
_chemical_formula_structural   TlF
_chemical_formula_sum   'Tl4 F4'
_cell_volume   206.17383367
_cell_formula_units_Z   4
loop_
 _symmetry_equiv_pos_site_id
 _symmetry_equiv_pos_as_xyz
  1  'x, y, z'
loop_
 _atom_site_type_symbol
 _atom_site_label
 _atom_site_symmetry_multiplicity
 _atom_site_fract_x
 _atom_site_fract_y
 _atom_site_fract_z
 _atom_site_occupancy
  Tl  Tl0  1  0.76547133  0.49528808  0.75000000  1.0
  Tl  Tl1  1  0.76547133  1.00471192  0.25000000  1.0
  Tl  Tl2  1  0.23452867  -0.00471192  0.75000000  1.0
  Tl  Tl3  1  0.23452867  0.50471192  0.25000000  1.0
  F  F4  1  0.86476734  0.09012086  0.75000000  1.0
  F  F5  1  0.86476734  0.40987914  0.25000000  1.0
  F  F6  1  0.13523266  0.59012086  0.75000000  1.0
  F  F7  1  0.13523266  0.90987914  0.25000000  1.0
