# generated using pymatgen
data_Y2SiO5
_symmetry_space_group_name_H-M   'P 1'
_cell_length_a   9.15146375
_cell_length_b   6.87613406
_cell_length_c   6.74474861
_cell_angle_alpha   90.00000000
_cell_angle_beta   105.30838301
_cell_angle_gamma   90.00000000
_symmetry_Int_Tables_number   1
_chemical_formula_structural   Y2SiO5
_chemical_formula_sum   'Y8 Si4 O20'
_cell_volume   409.36561797
_cell_formula_units_Z   4
loop_
 _symmetry_equiv_pos_site_id
 _symmetry_equiv_pos_as_xyz
  1  'x, y, z'
loop_
 _atom_site_type_symbol
 _atom_site_label
 _atom_site_symmetry_multiplicity
 _atom_site_fract_x
 _atom_site_fract_y
 _atom_site_fract_z
 _atom_site_occupancy
  Y  Y0  1  0.97185052  0.37625193  0.26801520  1.0
  Y  Y1  1  0.97185052  0.12374807  0.76801520  1.0
  Y  Y2  1  0.02814948  0.87625193  0.23198480  1.0
  Y  Y3  1  0.02814948  0.62374807  0.73198480  1.0
  Y  Y4  1  0.63001758  0.36099249  0.45073257  1.0
  Y  Y5  1  0.63001758  0.13900751  0.95073257  1.0
  Y  Y6  1  0.36998242  0.86099249  0.04926743  1.0
  Y  Y7  1  0.36998242  0.63900751  0.54926743  1.0
  Si  Si8  1  0.70053517  0.90921457  0.47844530  1.0
  Si  Si9  1  0.70053517  0.59078543  0.97844530  1.0
  Si  Si10  1  0.29946483  0.40921457  0.02155470  1.0
  Si  Si11  1  0.29946483  0.09078543  0.52155470  1.0
  O  O12  1  0.88801522  0.11979427  0.06310103  1.0
  O  O13  1  0.88801522  0.38020573  0.56310103  1.0
  O  O14  1  0.11198478  0.61979427  0.43689897  1.0
  O  O15  1  0.11198478  0.88020573  0.93689897  1.0
  O  O16  1  0.70917201  0.43047427  0.16807429  1.0
  O  O17  1  0.70917201  0.06952573  0.66807429  1.0
  O  O18  1  0.29082799  0.93047427  0.33192571  1.0
  O  O19  1  0.29082799  0.56952573  0.83192571  1.0
  O  O20  1  0.62941792  0.05267460  0.28196036  1.0
  O  O21  1  0.62941792  0.44732540  0.78196036  1.0
  O  O22  1  0.37058208  0.55267460  0.21803964  1.0
  O  O23  1  0.37058208  0.94732540  0.71803964  1.0
  O  O24  1  0.39655278  0.21458740  0.01602645  1.0
  O  O25  1  0.39655278  0.28541260  0.51602645  1.0
  O  O26  1  0.60344722  0.71458740  0.48397355  1.0
  O  O27  1  0.60344722  0.78541260  0.98397355  1.0
  O  O28  1  0.11535542  0.13731437  0.48734341  1.0
  O  O29  1  0.11535542  0.36268563  0.98734341  1.0
  O  O30  1  0.88464458  0.63731437  0.01265659  1.0
  O  O31  1  0.88464458  0.86268563  0.51265659  1.0
