# generated using pymatgen
data_Co5(Mo3C)4
_symmetry_space_group_name_H-M   'P 1'
_cell_length_a   10.12262268
_cell_length_b   10.12262268
_cell_length_c   10.12262268
_cell_angle_alpha   60.00000000
_cell_angle_beta   60.00000000
_cell_angle_gamma   60.00000000
_symmetry_Int_Tables_number   1
_chemical_formula_structural   Co5(Mo3C)4
_chemical_formula_sum   'Co10 Mo24 C8'
_cell_volume   733.43925187
_cell_formula_units_Z   2
loop_
 _symmetry_equiv_pos_site_id
 _symmetry_equiv_pos_as_xyz
  1  'x, y, z'
loop_
 _atom_site_type_symbol
 _atom_site_label
 _atom_site_symmetry_multiplicity
 _atom_site_fract_x
 _atom_site_fract_y
 _atom_site_fract_z
 _atom_site_occupancy
  Co  Co0  1  0.66565010  -0.33434990  1.00304971  1.0
  Co  Co1  1  0.66565010  0.00304971  0.66565010  1.0
  Co  Co2  1  0.58434990  -0.41565010  0.58434990  1.0
  Co  Co3  1  1.24695029  -0.41565010  0.58434990  1.0
  Co  Co4  1  1.00304971  -0.33434990  0.66565010  1.0
  Co  Co5  1  0.66565010  -0.33434990  0.66565010  1.0
  Co  Co6  1  0.58434990  0.24695029  0.58434990  1.0
  Co  Co7  1  0.58434990  -0.41565010  1.24695029  1.0
  Co  Co8  1  0.50000000  0.50000000  -0.50000000  1.0
  Co  Co9  1  0.75000000  -0.25000000  0.75000000  1.0
  Mo  Mo10  1  0.96972726  -0.59075479  0.65130028  1.0
  Mo  Mo11  1  -0.03027274  0.65130028  0.40924521  1.0
  Mo  Mo12  1  -0.15924521  0.28027274  0.28027274  1.0
  Mo  Mo13  1  0.59869972  0.28027274  0.28027274  1.0
  Mo  Mo14  1  -0.59075479  0.96972726  0.65130028  1.0
  Mo  Mo15  1  0.96972726  -0.03027274  0.65130028  1.0
  Mo  Mo16  1  0.96972726  -0.34869972  0.96972726  1.0
  Mo  Mo17  1  -0.59075479  0.65130028  0.96972726  1.0
  Mo  Mo18  1  0.28027274  -0.15924521  0.28027274  1.0
  Mo  Mo19  1  0.28027274  0.28027274  -0.15924521  1.0
  Mo  Mo20  1  0.59869972  0.28027274  -0.15924521  1.0
  Mo  Mo21  1  0.59869972  -0.15924521  0.28027274  1.0
  Mo  Mo22  1  0.65130028  -0.03027274  0.96972726  1.0
  Mo  Mo23  1  -0.59075479  0.96972726  0.96972726  1.0
  Mo  Mo24  1  0.28027274  0.59869972  -0.15924521  1.0
  Mo  Mo25  1  0.28027274  -0.15924521  0.59869972  1.0
  Mo  Mo26  1  -0.34869972  0.96972726  0.40924521  1.0
  Mo  Mo27  1  0.65130028  -0.59075479  0.96972726  1.0
  Mo  Mo28  1  0.96972726  -0.59075479  0.96972726  1.0
  Mo  Mo29  1  -0.03027274  0.96972726  0.40924521  1.0
  Mo  Mo30  1  0.28027274  0.59869972  0.28027274  1.0
  Mo  Mo31  1  -0.15924521  0.59869972  0.28027274  1.0
  Mo  Mo32  1  -0.15924521  0.28027274  0.59869972  1.0
  Mo  Mo33  1  0.28027274  0.28027274  0.59869972  1.0
  C  C34  1  -0.16880273  0.83119727  0.50640818  1.0
  C  C35  1  0.83119727  -0.49359182  0.83119727  1.0
  C  C36  1  0.41880273  0.41880273  0.41880273  1.0
  C  C37  1  -0.25640818  0.41880273  0.41880273  1.0
  C  C38  1  -0.49359182  0.83119727  0.83119727  1.0
  C  C39  1  0.83119727  -0.16880273  0.83119727  1.0
  C  C40  1  0.41880273  -0.25640818  0.41880273  1.0
  C  C41  1  0.41880273  0.41880273  -0.25640818  1.0
