# generated using pymatgen
data_LiN3O4
_symmetry_space_group_name_H-M   'P 1'
_cell_length_a   10.80633077
_cell_length_b   10.80633077
_cell_length_c   10.80633077
_cell_angle_alpha   147.65832727
_cell_angle_beta   147.65832727
_cell_angle_gamma   46.39000022
_symmetry_Int_Tables_number   1
_chemical_formula_structural   LiN3O4
_chemical_formula_sum   'Li4 N12 O16'
_cell_volume   359.87193081
_cell_formula_units_Z   4
loop_
 _symmetry_equiv_pos_site_id
 _symmetry_equiv_pos_as_xyz
  1  'x, y, z'
loop_
 _atom_site_type_symbol
 _atom_site_label
 _atom_site_symmetry_multiplicity
 _atom_site_fract_x
 _atom_site_fract_y
 _atom_site_fract_z
 _atom_site_occupancy
  Li  Li0  1  0.83041221  0.83041221  1.00000000  1.0
  Li  Li1  1  0.58041221  1.08041221  0.50000000  1.0
  Li  Li2  1  0.91958779  0.41958779  0.50000000  1.0
  Li  Li3  1  0.16958779  0.16958779  0.00000000  1.0
  N  N4  1  0.65598734  0.65598734  1.00000000  1.0
  N  N5  1  0.40598734  0.90598734  0.50000000  1.0
  N  N6  1  1.09401266  0.59401266  0.50000000  1.0
  N  N7  1  0.34401266  0.34401266  -0.00000000  1.0
  N  N8  1  0.80410805  0.84917525  1.26776785  1.0
  N  N9  1  0.58140740  0.53634021  0.73223215  1.0
  N  N10  1  0.59917525  0.83140740  0.54506720  1.0
  N  N11  1  1.28634021  1.05410805  1.45493280  1.0
  N  N12  1  0.94589195  1.40082475  1.23223215  1.0
  N  N13  1  1.16859260  0.71365979  0.76776785  1.0
  N  N14  1  1.15082475  0.41859260  0.95493280  1.0
  N  N15  1  0.46365979  1.19589195  1.04506720  1.0
  O  O16  1  0.82776073  0.97738927  1.48991010  1.0
  O  O17  1  0.48747918  0.33785064  0.51008990  1.0
  O  O18  1  0.72738927  0.73747918  0.64962854  1.0
  O  O19  1  1.08785064  1.07776073  1.35037146  1.0
  O  O20  1  0.92223927  1.27261073  1.01008990  1.0
  O  O21  1  1.26252082  0.91214936  0.98991010  1.0
  O  O22  1  1.02261073  0.51252082  0.85037146  1.0
  O  O23  1  0.66214936  1.17223927  1.14962854  1.0
  O  O24  1  0.91862517  0.89157492  1.30523204  1.0
  O  O25  1  0.58634288  0.61339313  0.69476796  1.0
  O  O26  1  0.64157492  0.83634288  0.47294975  1.0
  O  O27  1  1.36339313  1.16862517  1.52705025  1.0
  O  O28  1  0.83137483  1.35842508  1.19476796  1.0
  O  O29  1  1.16365712  0.63660687  0.80523204  1.0
  O  O30  1  1.10842508  0.41365712  1.02705025  1.0
  O  O31  1  0.38660687  1.08137483  0.97294975  1.0
