# generated using pymatgen
data_Cs2Sn(IO3)6
_symmetry_space_group_name_H-M   'P 1'
_cell_length_a   7.99133612
_cell_length_b   7.99133612
_cell_length_c   7.99133612
_cell_angle_alpha   97.06001541
_cell_angle_beta   97.06001541
_cell_angle_gamma   97.06001541
_symmetry_Int_Tables_number   1
_chemical_formula_structural   Cs2Sn(IO3)6
_chemical_formula_sum   'Cs2 Sn1 I6 O18'
_cell_volume   497.66929873
_cell_formula_units_Z   1
loop_
 _symmetry_equiv_pos_site_id
 _symmetry_equiv_pos_as_xyz
  1  'x, y, z'
loop_
 _atom_site_type_symbol
 _atom_site_label
 _atom_site_symmetry_multiplicity
 _atom_site_fract_x
 _atom_site_fract_y
 _atom_site_fract_z
 _atom_site_occupancy
  Cs  Cs0  1  0.66501584  0.66501584  0.66501584  1.0
  Cs  Cs1  1  0.33498416  0.33498416  0.33498416  1.0
  Sn  Sn2  1  0.00000000  0.00000000  -0.00000000  1.0
  I  I3  1  0.83011697  0.63381204  0.20097187  1.0
  I  I4  1  1.36618796  -0.20097187  0.16988303  1.0
  I  I5  1  0.79902813  0.16988303  0.36618796  1.0
  I  I6  1  1.16988303  0.36618796  -0.20097187  1.0
  I  I7  1  0.63381204  1.20097187  -0.16988303  1.0
  I  I8  1  1.20097187  0.83011697  -0.36618796  1.0
  O  O9  1  0.82216643  0.80205149  0.04442634  1.0
  O  O10  1  1.19794851  -0.04442634  0.17783357  1.0
  O  O11  1  0.95557366  0.17783357  0.19794851  1.0
  O  O12  1  1.17783357  0.19794851  -0.04442634  1.0
  O  O13  1  0.80205149  1.04442634  -0.17783357  1.0
  O  O14  1  1.04442634  0.82216643  -0.19794851  1.0
  O  O15  1  0.59261259  0.59866773  0.19119277  1.0
  O  O16  1  1.40133227  -0.19119277  0.40738741  1.0
  O  O17  1  0.80880723  0.40738741  0.40133227  1.0
  O  O18  1  1.40738741  0.40133227  -0.19119277  1.0
  O  O19  1  0.59866773  1.19119277  -0.40738741  1.0
  O  O20  1  1.19119277  0.59261259  -0.40133227  1.0
  O  O21  1  1.40117093  0.90238008  -0.21277590  1.0
  O  O22  1  1.09761992  0.21277590  -0.40117093  1.0
  O  O23  1  1.21277590  -0.40117093  0.09761992  1.0
  O  O24  1  0.59882907  0.09761992  0.21277590  1.0
  O  O25  1  0.90238008  0.78722410  0.40117093  1.0
  O  O26  1  0.78722410  1.40117093  -0.09761992  1.0
