# generated using pymatgen
data_Ba2Si3Ni
_symmetry_space_group_name_H-M   'P 1'
_cell_length_a   11.43511283
_cell_length_b   11.43511283
_cell_length_c   3.91786809
_cell_angle_alpha   90.00000000
_cell_angle_beta   90.00000000
_cell_angle_gamma   120.00000000
_symmetry_Int_Tables_number   1
_chemical_formula_structural   Ba2Si3Ni
_chemical_formula_sum   'Ba6 Si9 Ni3'
_cell_volume   443.67131413
_cell_formula_units_Z   3
loop_
 _symmetry_equiv_pos_site_id
 _symmetry_equiv_pos_as_xyz
  1  'x, y, z'
loop_
 _atom_site_type_symbol
 _atom_site_label
 _atom_site_symmetry_multiplicity
 _atom_site_fract_x
 _atom_site_fract_y
 _atom_site_fract_z
 _atom_site_occupancy
  Ba  Ba0  1  0.61809901  0.61809901  0.00000000  1.0
  Ba  Ba1  1  0.00000000  0.38190099  0.00000000  1.0
  Ba  Ba2  1  0.38190099  0.00000000  0.00000000  1.0
  Ba  Ba3  1  0.28677242  0.28677242  0.00000000  1.0
  Ba  Ba4  1  -0.00000000  0.71322758  0.00000000  1.0
  Ba  Ba5  1  0.71322758  0.00000000  0.00000000  1.0
  Si  Si6  1  0.21984441  0.68345702  0.50000000  1.0
  Si  Si7  1  0.68345702  0.21984441  0.50000000  1.0
  Si  Si8  1  0.46361261  0.78015559  0.50000000  1.0
  Si  Si9  1  0.31654298  0.53638739  0.50000000  1.0
  Si  Si10  1  0.78015559  0.46361261  0.50000000  1.0
  Si  Si11  1  0.53638739  0.31654298  0.50000000  1.0
  Si  Si12  1  0.87633085  0.87633085  0.50000000  1.0
  Si  Si13  1  -0.00000000  0.12366915  0.50000000  1.0
  Si  Si14  1  0.12366915  0.00000000  0.50000000  1.0
  Ni  Ni15  1  0.33333333  0.66666667  0.00000000  1.0
  Ni  Ni16  1  0.66666667  0.33333333  0.00000000  1.0
  Ni  Ni17  1  0.00000000  0.00000000  0.00000000  1.0
