# generated using pymatgen
data_K3(SeO4)2
_symmetry_space_group_name_H-M   'P 1'
_cell_length_a   8.17248100
_cell_length_b   8.17248100
_cell_length_c   10.21531501
_cell_angle_alpha   76.09382814
_cell_angle_beta   103.90617186
_cell_angle_gamma   136.01756268
_symmetry_Int_Tables_number   1
_chemical_formula_structural   K3(SeO4)2
_chemical_formula_sum   'K6 Se4 O16'
_cell_volume   457.60620996
_cell_formula_units_Z   2
loop_
 _symmetry_equiv_pos_site_id
 _symmetry_equiv_pos_as_xyz
  1  'x, y, z'
loop_
 _atom_site_type_symbol
 _atom_site_label
 _atom_site_symmetry_multiplicity
 _atom_site_fract_x
 _atom_site_fract_y
 _atom_site_fract_z
 _atom_site_occupancy
  O  O0  1  0.59732103  -0.09995621  0.86789552  1.0
  O  O1  1  1.09995621  0.40267897  0.36789552  1.0
  O  O2  1  0.90004379  0.59732103  0.63210448  1.0
  O  O3  1  0.40267897  0.09995621  0.13210448  1.0
  O  O4  1  0.66960382  0.35129997  0.91598938  1.0
  O  O5  1  0.64870003  0.33039618  0.41598938  1.0
  O  O6  1  1.35129997  0.66960382  0.58401062  1.0
  O  O7  1  0.33039618  -0.35129997  0.08401062  1.0
  O  O8  1  0.19100773  -0.05028925  0.87854413  1.0
  O  O9  1  1.05028925  0.80899227  0.37854413  1.0
  O  O10  1  0.94971075  0.19100773  0.62145587  1.0
  O  O11  1  0.80899227  0.05028925  0.12145587  1.0
  O  O12  1  0.33707696  0.34487873  0.93307099  1.0
  O  O13  1  0.65512127  0.66292304  0.43307099  1.0
  O  O14  1  1.34487873  0.33707696  0.56692901  1.0
  O  O15  1  0.66292304  -0.34487873  0.06692901  1.0
  Se  Se16  1  0.40494866  0.18192979  0.96665989  1.0
  Se  Se17  1  0.81807021  0.59505134  0.46665989  1.0
  Se  Se18  1  1.18192979  0.40494866  0.53334011  1.0
  Se  Se19  1  0.59505134  -0.18192979  0.03334011  1.0
  K  K20  1  0.39607499  0.01699788  0.65109539  1.0
  K  K21  1  0.98300212  0.60392501  0.15109539  1.0
  K  K22  1  1.01699788  0.39607499  0.84890461  1.0
  K  K23  1  0.60392501  -0.01699788  0.34890461  1.0
  K  K24  1  0.74087550  0.74087550  0.75000000  1.0
  K  K25  1  0.25912450  0.25912450  0.25000000  1.0
