# generated using pymatgen
data_HfCl
_symmetry_space_group_name_H-M   'P 1'
_cell_length_a   9.69609042
_cell_length_b   9.69609042
_cell_length_c   9.69609042
_cell_angle_alpha   20.12911723
_cell_angle_beta   20.12911723
_cell_angle_gamma   20.12911723
_symmetry_Int_Tables_number   1
_chemical_formula_structural   HfCl
_chemical_formula_sum   'Hf2 Cl2'
_cell_volume   94.45520603
_cell_formula_units_Z   2
loop_
 _symmetry_equiv_pos_site_id
 _symmetry_equiv_pos_as_xyz
  1  'x, y, z'
loop_
 _atom_site_type_symbol
 _atom_site_label
 _atom_site_symmetry_multiplicity
 _atom_site_fract_x
 _atom_site_fract_y
 _atom_site_fract_z
 _atom_site_occupancy
  Hf  Hf0  1  0.70698253  0.70698253  0.70698253  1.0
  Hf  Hf1  1  1.29301747  1.29301747  0.29301747  1.0
  Cl  Cl2  1  0.89811471  0.89811471  0.89811471  1.0
  Cl  Cl3  1  1.10188529  1.10188529  0.10188529  1.0
