# generated using pymatgen
data_ZrSnS3
_symmetry_space_group_name_H-M   'P 1'
_cell_length_a   9.56460991
_cell_length_b   3.75011060
_cell_length_c   14.15359108
_cell_angle_alpha   90.00000000
_cell_angle_beta   90.00000000
_cell_angle_gamma   90.00000000
_symmetry_Int_Tables_number   1
_chemical_formula_structural   ZrSnS3
_chemical_formula_sum   'Zr4 Sn4 S12'
_cell_volume   507.66588758
_cell_formula_units_Z   4
loop_
 _symmetry_equiv_pos_site_id
 _symmetry_equiv_pos_as_xyz
  1  'x, y, z'
loop_
 _atom_site_type_symbol
 _atom_site_label
 _atom_site_symmetry_multiplicity
 _atom_site_fract_x
 _atom_site_fract_y
 _atom_site_fract_z
 _atom_site_occupancy
  Zr  Zr0  1  0.84278174  0.75000000  0.45249623  1.0
  Zr  Zr1  1  0.34278174  0.75000000  0.04750377  1.0
  Zr  Zr2  1  0.15721826  0.25000000  0.54750377  1.0
  Zr  Zr3  1  0.65721826  0.25000000  0.95249623  1.0
  Sn  Sn4  1  0.44327754  0.75000000  0.66645482  1.0
  Sn  Sn5  1  0.94327754  0.75000000  0.83354518  1.0
  Sn  Sn6  1  0.55672246  0.25000000  0.33354518  1.0
  Sn  Sn7  1  0.05672246  0.25000000  0.16645482  1.0
  S  S8  1  0.98927868  0.75000000  0.60592342  1.0
  S  S9  1  0.48927868  0.75000000  0.89407658  1.0
  S  S10  1  0.01072132  0.25000000  0.39407658  1.0
  S  S11  1  0.51072132  0.25000000  0.10592342  1.0
  S  S12  1  0.82205469  0.75000000  0.00756178  1.0
  S  S13  1  0.32205469  0.75000000  0.49243822  1.0
  S  S14  1  0.17794531  0.25000000  0.99243822  1.0
  S  S15  1  0.67794531  0.25000000  0.50756178  1.0
  S  S16  1  0.73550993  0.75000000  0.28733638  1.0
  S  S17  1  0.23550993  0.75000000  0.21266362  1.0
  S  S18  1  0.26449007  0.25000000  0.71266362  1.0
  S  S19  1  0.76449007  0.25000000  0.78733638  1.0
