# generated using pymatgen
data_Mn(SbSe2)2
_symmetry_space_group_name_H-M   'P 1'
_cell_length_a   6.93444152
_cell_length_b   6.93444152
_cell_length_c   15.86285683
_cell_angle_alpha   66.42469786
_cell_angle_beta   113.57530214
_cell_angle_gamma   146.42576416
_symmetry_Int_Tables_number   1
_chemical_formula_structural   Mn(SbSe2)2
_chemical_formula_sum   'Mn2 Sb4 Se8'
_cell_volume   383.26210805
_cell_formula_units_Z   2
loop_
 _symmetry_equiv_pos_site_id
 _symmetry_equiv_pos_as_xyz
  1  'x, y, z'
loop_
 _atom_site_type_symbol
 _atom_site_label
 _atom_site_symmetry_multiplicity
 _atom_site_fract_x
 _atom_site_fract_y
 _atom_site_fract_z
 _atom_site_occupancy
  Mn  Mn0  1  -0.00000000  0.00000000  0.50000000  1.0
  Mn  Mn1  1  0.00000000  0.00000000  0.00000000  1.0
  Sb  Sb2  1  0.64406521  0.35593479  0.37181834  1.0
  Sb  Sb3  1  1.35593479  -0.35593479  0.62818166  1.0
  Sb  Sb4  1  0.23106390  -0.23106390  0.87658091  1.0
  Sb  Sb5  1  0.76893610  -0.76893610  0.12341909  1.0
  Se  Se6  1  1.01224180  -1.01224180  0.66901524  1.0
  Se  Se7  1  -0.01224180  0.01224180  0.33098476  1.0
  Se  Se8  1  0.83868963  0.16131037  0.82770141  1.0
  Se  Se9  1  1.16131037  -0.16131037  0.17229859  1.0
  Se  Se10  1  0.65672082  0.34327918  0.54270570  1.0
  Se  Se11  1  1.34327918  -0.34327918  0.45729430  1.0
  Se  Se12  1  0.60673224  0.39326776  0.95269298  1.0
  Se  Se13  1  1.39326776  -0.39326776  0.04730702  1.0
