# generated using pymatgen
data_Ba3Al3Ge2SbO14
_symmetry_space_group_name_H-M   'P 1'
_cell_length_a   8.64840120
_cell_length_b   8.64840120
_cell_length_c   5.20695781
_cell_angle_alpha   90.00000000
_cell_angle_beta   90.00000000
_cell_angle_gamma   120.00000000
_symmetry_Int_Tables_number   1
_chemical_formula_structural   Ba3Al3Ge2SbO14
_chemical_formula_sum   'Ba3 Al3 Ge2 Sb1 O14'
_cell_volume   337.27670538
_cell_formula_units_Z   1
loop_
 _symmetry_equiv_pos_site_id
 _symmetry_equiv_pos_as_xyz
  1  'x, y, z'
loop_
 _atom_site_type_symbol
 _atom_site_label
 _atom_site_symmetry_multiplicity
 _atom_site_fract_x
 _atom_site_fract_y
 _atom_site_fract_z
 _atom_site_occupancy
  Ba  Ba0  1  0.42590641  0.42590641  0.00000000  1.0
  Ba  Ba1  1  0.00000000  0.57409359  0.00000000  1.0
  Ba  Ba2  1  0.57409359  0.00000000  0.00000000  1.0
  Al  Al3  1  0.74983909  0.74983909  0.50000000  1.0
  Al  Al4  1  0.00000000  0.25016091  0.50000000  1.0
  Al  Al5  1  0.25016091  0.00000000  0.50000000  1.0
  Ge  Ge6  1  0.33333333  0.66666667  0.50922554  1.0
  Ge  Ge7  1  0.66666667  0.33333333  0.49077446  1.0
  Sb  Sb8  1  0.00000000  0.00000000  0.00000000  1.0
  O  O9  1  0.10646063  0.89081211  0.23347083  1.0
  O  O10  1  0.89081211  0.10646063  0.76652917  1.0
  O  O11  1  0.78435149  0.89353937  0.23347083  1.0
  O  O12  1  0.10918789  0.21564851  0.23347083  1.0
  O  O13  1  0.89353937  0.78435149  0.76652917  1.0
  O  O14  1  0.21564851  0.10918789  0.76652917  1.0
  O  O15  1  0.70636546  0.54039306  0.35621597  1.0
  O  O16  1  0.54039306  0.70636546  0.64378403  1.0
  O  O17  1  0.83402760  0.29363454  0.35621597  1.0
  O  O18  1  0.45960694  0.16597240  0.35621597  1.0
  O  O19  1  0.29363454  0.83402760  0.64378403  1.0
  O  O20  1  0.16597240  0.45960694  0.64378403  1.0
  O  O21  1  0.33333333  0.66666667  0.17657482  1.0
  O  O22  1  0.66666667  0.33333333  0.82342518  1.0
