# generated using pymatgen
data_SiO2
_symmetry_space_group_name_H-M   'P 1'
_cell_length_a   8.80611544
_cell_length_b   8.80611544
_cell_length_c   8.80611544
_cell_angle_alpha   90.00000000
_cell_angle_beta   90.00000000
_cell_angle_gamma   90.00000000
_symmetry_Int_Tables_number   1
_chemical_formula_structural   SiO2
_chemical_formula_sum   'Si12 O24'
_cell_volume   682.89372699
_cell_formula_units_Z   12
loop_
 _symmetry_equiv_pos_site_id
 _symmetry_equiv_pos_as_xyz
  1  'x, y, z'
loop_
 _atom_site_type_symbol
 _atom_site_label
 _atom_site_symmetry_multiplicity
 _atom_site_fract_x
 _atom_site_fract_y
 _atom_site_fract_z
 _atom_site_occupancy
  Si  Si0  1  0.64424985  0.58356626  0.83622704  1.0
  Si  Si1  1  0.16377296  0.64424985  0.41643374  1.0
  Si  Si2  1  0.58356626  0.16377296  0.35575015  1.0
  Si  Si3  1  0.64424985  0.41643374  0.16377296  1.0
  Si  Si4  1  0.16377296  0.35575015  0.58356626  1.0
  Si  Si5  1  0.58356626  0.83622704  0.64424985  1.0
  Si  Si6  1  0.35575015  0.58356626  0.16377296  1.0
  Si  Si7  1  0.83622704  0.64424985  0.58356626  1.0
  Si  Si8  1  0.41643374  0.16377296  0.64424985  1.0
  Si  Si9  1  0.35575015  0.41643374  0.83622704  1.0
  Si  Si10  1  0.83622704  0.35575015  0.41643374  1.0
  Si  Si11  1  0.41643374  0.83622704  0.35575015  1.0
  O  O12  1  0.66516595  0.50000000  0.00000000  1.0
  O  O13  1  0.00000000  0.66516595  0.50000000  1.0
  O  O14  1  0.50000000  0.00000000  0.33483405  1.0
  O  O15  1  0.00000000  0.33483405  0.50000000  1.0
  O  O16  1  0.50000000  0.00000000  0.66516595  1.0
  O  O17  1  0.33483405  0.50000000  0.00000000  1.0
  O  O18  1  0.50000000  0.50000000  0.75180705  1.0
  O  O19  1  0.24819295  0.50000000  0.50000000  1.0
  O  O20  1  0.50000000  0.24819295  0.50000000  1.0
  O  O21  1  0.50000000  0.50000000  0.24819295  1.0
  O  O22  1  0.50000000  0.75180705  0.50000000  1.0
  O  O23  1  0.75180705  0.50000000  0.50000000  1.0
  O  O24  1  0.58399421  0.76144654  0.81629764  1.0
  O  O25  1  0.18370236  0.58399421  0.23855346  1.0
  O  O26  1  0.76144654  0.18370236  0.41600579  1.0
  O  O27  1  0.58399421  0.23855346  0.18370236  1.0
  O  O28  1  0.18370236  0.41600579  0.76144654  1.0
  O  O29  1  0.76144654  0.81629764  0.58399421  1.0
  O  O30  1  0.41600579  0.76144654  0.18370236  1.0
  O  O31  1  0.81629764  0.58399421  0.76144654  1.0
  O  O32  1  0.23855346  0.18370236  0.58399421  1.0
  O  O33  1  0.41600579  0.23855346  0.81629764  1.0
  O  O34  1  0.81629764  0.41600579  0.23855346  1.0
  O  O35  1  0.23855346  0.81629764  0.41600579  1.0
