# generated using pymatgen
data_RbSb
_symmetry_space_group_name_H-M   'P 1'
_cell_length_a   7.35745569
_cell_length_b   7.49494757
_cell_length_c   13.00996039
_cell_angle_alpha   90.00000000
_cell_angle_beta   90.00000000
_cell_angle_gamma   90.00000000
_symmetry_Int_Tables_number   1
_chemical_formula_structural   RbSb
_chemical_formula_sum   'Rb8 Sb8'
_cell_volume   717.41793395
_cell_formula_units_Z   8
loop_
 _symmetry_equiv_pos_site_id
 _symmetry_equiv_pos_as_xyz
  1  'x, y, z'
loop_
 _atom_site_type_symbol
 _atom_site_label
 _atom_site_symmetry_multiplicity
 _atom_site_fract_x
 _atom_site_fract_y
 _atom_site_fract_z
 _atom_site_occupancy
  Rb  Rb0  1  0.40362277  0.89992323  0.91926540  1.0
  Rb  Rb1  1  0.90362277  0.60007677  0.08073460  1.0
  Rb  Rb2  1  0.59637723  0.39992323  0.58073460  1.0
  Rb  Rb3  1  0.09637723  0.10007677  0.41926540  1.0
  Rb  Rb4  1  0.83089417  0.85096513  0.70902653  1.0
  Rb  Rb5  1  0.33089417  0.64903487  0.29097347  1.0
  Rb  Rb6  1  0.16910583  0.35096513  0.79097347  1.0
  Rb  Rb7  1  0.66910583  0.14903487  0.20902653  1.0
  Sb  Sb8  1  0.32930966  0.82548038  0.61845550  1.0
  Sb  Sb9  1  0.82930966  0.67451962  0.38154450  1.0
  Sb  Sb10  1  0.67069034  0.32548038  0.88154450  1.0
  Sb  Sb11  1  0.17069034  0.17451962  0.11845550  1.0
  Sb  Sb12  1  0.09040415  0.55517281  0.53489761  1.0
  Sb  Sb13  1  0.59040415  0.94482719  0.46510239  1.0
  Sb  Sb14  1  0.90959585  0.05517281  0.96510239  1.0
  Sb  Sb15  1  0.40959585  0.44482719  0.03489761  1.0
