# generated using pymatgen
data_RbB2SbO6
_symmetry_space_group_name_H-M   'P 1'
_cell_length_a   7.44368822
_cell_length_b   3.90434431
_cell_length_c   9.61249105
_cell_angle_alpha   90.00000000
_cell_angle_beta   90.00000000
_cell_angle_gamma   90.00000000
_symmetry_Int_Tables_number   1
_chemical_formula_structural   RbB2SbO6
_chemical_formula_sum   'Rb2 B4 Sb2 O12'
_cell_volume   279.36515262
_cell_formula_units_Z   2
loop_
 _symmetry_equiv_pos_site_id
 _symmetry_equiv_pos_as_xyz
  1  'x, y, z'
loop_
 _atom_site_type_symbol
 _atom_site_label
 _atom_site_symmetry_multiplicity
 _atom_site_fract_x
 _atom_site_fract_y
 _atom_site_fract_z
 _atom_site_occupancy
  Rb  Rb0  1  0.00000000  0.55683435  0.39386339  1.0
  Rb  Rb1  1  0.50000000  0.44316565  0.89386339  1.0
  B  B2  1  0.66951951  0.98599906  0.21016474  1.0
  B  B3  1  0.16951951  0.01400094  0.71016474  1.0
  B  B4  1  0.33048049  0.98599906  0.21016474  1.0
  B  B5  1  0.83048049  0.01400094  0.71016474  1.0
  Sb  Sb6  1  0.00000000  0.88999673  -0.00894318  1.0
  Sb  Sb7  1  0.50000000  0.11000327  0.49105682  1.0
  O  O8  1  0.00000000  0.39048221  -0.01162193  1.0
  O  O9  1  0.50000000  0.60951779  0.48837807  1.0
  O  O10  1  0.80494125  0.89949942  0.84392641  1.0
  O  O11  1  0.30494125  0.10050058  0.34392641  1.0
  O  O12  1  0.19505875  0.89949942  0.84392641  1.0
  O  O13  1  0.69505875  0.10050058  0.34392641  1.0
  O  O14  1  0.81472747  0.86740586  0.13974602  1.0
  O  O15  1  0.31472747  0.13259414  0.63974602  1.0
  O  O16  1  0.18527253  0.86740586  0.13974602  1.0
  O  O17  1  0.68527253  0.13259414  0.63974602  1.0
  O  O18  1  -0.00000000  0.03235896  0.64642738  1.0
  O  O19  1  0.50000000  0.96764104  0.14642738  1.0
