# generated using pymatgen
data_Li2CuO2
_symmetry_space_group_name_H-M   'P 1'
_cell_length_a   3.54641760
_cell_length_b   3.54641760
_cell_length_c   5.33574975
_cell_angle_alpha   102.81209228
_cell_angle_beta   77.18790772
_cell_angle_gamma   132.67991885
_symmetry_Int_Tables_number   1
_chemical_formula_structural   Li2CuO2
_chemical_formula_sum   'Li2 Cu1 O2'
_cell_volume   47.86699429
_cell_formula_units_Z   1
loop_
 _symmetry_equiv_pos_site_id
 _symmetry_equiv_pos_as_xyz
  1  'x, y, z'
loop_
 _atom_site_type_symbol
 _atom_site_label
 _atom_site_symmetry_multiplicity
 _atom_site_fract_x
 _atom_site_fract_y
 _atom_site_fract_z
 _atom_site_occupancy
  Li  Li0  1  0.82731291  0.17268709  0.64588636  1.0
  Li  Li1  1  0.17268709  -0.17268709  0.35411364  1.0
  Cu  Cu2  1  0.50000000  0.50000000  -0.00000000  1.0
  O  O3  1  0.89847292  0.10152708  0.25881389  1.0
  O  O4  1  0.10152708  -0.10152708  0.74118611  1.0
