# generated using pymatgen
data_MnVPbO5
_symmetry_space_group_name_H-M   'P 1'
_cell_length_a   7.82737970
_cell_length_b   5.98345922
_cell_length_c   9.33038193
_cell_angle_alpha   90.00000000
_cell_angle_beta   90.00000000
_cell_angle_gamma   90.00000000
_symmetry_Int_Tables_number   1
_chemical_formula_structural   MnVPbO5
_chemical_formula_sum   'Mn4 V4 Pb4 O20'
_cell_volume   436.98663888
_cell_formula_units_Z   4
loop_
 _symmetry_equiv_pos_site_id
 _symmetry_equiv_pos_as_xyz
  1  'x, y, z'
loop_
 _atom_site_type_symbol
 _atom_site_label
 _atom_site_symmetry_multiplicity
 _atom_site_fract_x
 _atom_site_fract_y
 _atom_site_fract_z
 _atom_site_occupancy
  Mn  Mn0  1  0.00000000  0.00000000  0.00000000  1.0
  Mn  Mn1  1  0.00000000  0.50000000  0.00000000  1.0
  Mn  Mn2  1  0.50000000  0.00000000  0.50000000  1.0
  Mn  Mn3  1  0.50000000  0.50000000  0.50000000  1.0
  V  V4  1  0.84223855  0.75000000  0.29013507  1.0
  V  V5  1  0.34223855  0.75000000  0.20986493  1.0
  V  V6  1  0.15776145  0.25000000  0.70986493  1.0
  V  V7  1  0.65776145  0.25000000  0.79013507  1.0
  Pb  Pb8  1  0.89946050  0.75000000  0.66739429  1.0
  Pb  Pb9  1  0.39946050  0.75000000  0.83260571  1.0
  Pb  Pb10  1  0.10053950  0.25000000  0.33260571  1.0
  Pb  Pb11  1  0.60053950  0.25000000  0.16739429  1.0
  O  O12  1  0.85410889  0.99401731  0.18449548  1.0
  O  O13  1  0.85410889  0.50598269  0.18449548  1.0
  O  O14  1  0.35410889  0.99401731  0.31550452  1.0
  O  O15  1  0.35410889  0.50598269  0.31550452  1.0
  O  O16  1  0.14589111  0.49401731  0.81550452  1.0
  O  O17  1  0.14589111  0.00598269  0.81550452  1.0
  O  O18  1  0.64589111  0.49401731  0.68449548  1.0
  O  O19  1  0.64589111  0.00598269  0.68449548  1.0
  O  O20  1  0.66760939  0.75000000  0.40775910  1.0
  O  O21  1  0.16760939  0.75000000  0.09224090  1.0
  O  O22  1  0.33239061  0.25000000  0.59224090  1.0
  O  O23  1  0.83239061  0.25000000  0.90775910  1.0
  O  O24  1  0.51482171  0.75000000  0.10522210  1.0
  O  O25  1  0.01482171  0.75000000  0.39477790  1.0
  O  O26  1  0.48517829  0.25000000  0.89477790  1.0
  O  O27  1  0.98517829  0.25000000  0.60522210  1.0
  O  O28  1  0.38549271  0.75000000  0.57366767  1.0
  O  O29  1  0.88549271  0.75000000  0.92633233  1.0
  O  O30  1  0.61450729  0.25000000  0.42633233  1.0
  O  O31  1  0.11450729  0.25000000  0.07366767  1.0
