# generated using pymatgen
data_KH3C3(N5O)2
_symmetry_space_group_name_H-M   'P 1'
_cell_length_a   12.13574469
_cell_length_b   7.85258559
_cell_length_c   5.80289125
_cell_angle_alpha   72.97850391
_cell_angle_beta   71.47283618
_cell_angle_gamma   76.32206411
_symmetry_Int_Tables_number   1
_chemical_formula_structural   KH3C3(N5O)2
_chemical_formula_sum   'K2 H6 C6 N20 O4'
_cell_volume   495.05394998
_cell_formula_units_Z   2
loop_
 _symmetry_equiv_pos_site_id
 _symmetry_equiv_pos_as_xyz
  1  'x, y, z'
loop_
 _atom_site_type_symbol
 _atom_site_label
 _atom_site_symmetry_multiplicity
 _atom_site_fract_x
 _atom_site_fract_y
 _atom_site_fract_z
 _atom_site_occupancy
  K  K0  1  0.91745425  -0.84998006  -0.26659849  1.0
  K  K1  1  0.08254575  -0.15001994  0.26659849  1.0
  H  H2  1  0.61096594  -0.51627678  0.33915232  1.0
  H  H3  1  0.38903406  -0.48372322  -0.33915232  1.0
  H  H4  1  0.79462418  -1.02231925  -0.60654362  1.0
  H  H5  1  0.20537582  0.02231925  0.60654362  1.0
  H  H6  1  0.82233246  -0.82535665  -0.73283806  1.0
  H  H7  1  0.17766754  -0.17464335  0.73283806  1.0
  C  C8  1  0.29270516  -0.68943773  0.69181305  1.0
  C  C9  1  0.70729484  -0.31056227  -0.69181305  1.0
  C  C10  1  0.80209638  -0.33598924  0.09109381  1.0
  C  C11  1  0.19790362  -0.66401076  -0.09109381  1.0
  C  C12  1  0.41453994  -0.77397961  0.38022113  1.0
  C  C13  1  0.58546006  -0.22602039  -0.38022113  1.0
  N  N14  1  0.37919883  -0.58697156  0.59692274  1.0
  N  N15  1  0.62080117  -0.41302844  -0.59692274  1.0
  N  N16  1  0.45899137  -0.63931420  0.39759935  1.0
  N  N17  1  0.54100863  -0.36068580  -0.39759935  1.0
  N  N18  1  0.31286390  -0.81133133  0.55587546  1.0
  N  N19  1  0.68713610  -0.18866867  -0.55587546  1.0
  N  N20  1  0.88184558  -0.22950155  -0.05480397  1.0
  N  N21  1  0.11815442  -0.77049845  0.05480397  1.0
  N  N22  1  0.82155151  -0.48329926  -0.00445486  1.0
  N  N23  1  0.17844849  -0.51670074  0.00445486  1.0
  N  N24  1  0.94826082  -0.31371065  -0.23519766  1.0
  N  N25  1  0.05173918  -0.68628935  0.23519766  1.0
  N  N26  1  0.91367873  -0.46705713  -0.20864497  1.0
  N  N27  1  0.08632127  -0.53294287  0.20864497  1.0
  N  N28  1  0.46549382  -0.87132655  0.19628654  1.0
  N  N29  1  0.53450618  -0.12867345  -0.19628654  1.0
  N  N30  1  0.55839324  -0.83107458  0.04235707  1.0
  N  N31  1  0.44160676  -0.16892542  -0.04235707  1.0
  N  N32  1  0.64301465  -0.81070768  -0.11233197  1.0
  N  N33  1  0.35698535  -0.18929232  0.11233197  1.0
  O  O34  1  0.76439876  -0.61891049  0.07622774  1.0
  O  O35  1  0.23560124  -0.38108951  -0.07622774  1.0
  O  O36  1  0.85520119  -0.94577471  -0.64586951  1.0
  O  O37  1  0.14479881  -0.05422529  0.64586951  1.0
