# generated using pymatgen
data_LaSbSe
_symmetry_space_group_name_H-M   'P 1'
_cell_length_a   4.28733725
_cell_length_b   18.56387803
_cell_length_c   6.05988125
_cell_angle_alpha   90.00000000
_cell_angle_beta   134.91611326
_cell_angle_gamma   90.00000000
_symmetry_Int_Tables_number   1
_chemical_formula_structural   LaSbSe
_chemical_formula_sum   'La4 Sb4 Se4'
_cell_volume   341.53906877
_cell_formula_units_Z   4
loop_
 _symmetry_equiv_pos_site_id
 _symmetry_equiv_pos_as_xyz
  1  'x, y, z'
loop_
 _atom_site_type_symbol
 _atom_site_label
 _atom_site_symmetry_multiplicity
 _atom_site_fract_x
 _atom_site_fract_y
 _atom_site_fract_z
 _atom_site_occupancy
  La  La0  1  0.99335966  0.14908443  0.24314826  1.0
  La  La1  1  0.99335966  0.35091557  0.74314826  1.0
  La  La2  1  0.00664034  0.64908443  0.25685174  1.0
  La  La3  1  0.00664034  0.85091557  0.75685174  1.0
  Sb  Sb4  1  0.48475872  0.49955953  0.23644420  1.0
  Sb  Sb5  1  0.48475872  0.00044047  0.73644420  1.0
  Sb  Sb6  1  0.51524128  0.99955953  0.26355580  1.0
  Sb  Sb7  1  0.51524128  0.50044047  0.76355580  1.0
  Se  Se8  1  0.99412336  0.31523123  0.24418544  1.0
  Se  Se9  1  0.99412336  0.18476877  0.74418544  1.0
  Se  Se10  1  0.00587664  0.81523123  0.25581456  1.0
  Se  Se11  1  0.00587664  0.68476877  0.75581456  1.0
