# generated using pymatgen
data_La3Nb(ClO2)3
_symmetry_space_group_name_H-M   'P 1'
_cell_length_a   9.64318460
_cell_length_b   9.64318460
_cell_length_c   5.38810694
_cell_angle_alpha   90.00000000
_cell_angle_beta   90.00000000
_cell_angle_gamma   120.00000000
_symmetry_Int_Tables_number   1
_chemical_formula_structural   La3Nb(ClO2)3
_chemical_formula_sum   'La6 Nb2 Cl6 O12'
_cell_volume   433.91813338
_cell_formula_units_Z   2
loop_
 _symmetry_equiv_pos_site_id
 _symmetry_equiv_pos_as_xyz
  1  'x, y, z'
loop_
 _atom_site_type_symbol
 _atom_site_label
 _atom_site_symmetry_multiplicity
 _atom_site_fract_x
 _atom_site_fract_y
 _atom_site_fract_z
 _atom_site_occupancy
  La  La0  1  0.68577292  0.59661923  0.25000000  1.0
  La  La1  1  0.59661923  0.91084631  0.75000000  1.0
  La  La2  1  0.91084631  0.31422708  0.25000000  1.0
  La  La3  1  0.40338077  0.08915369  0.25000000  1.0
  La  La4  1  0.31422708  0.40338077  0.75000000  1.0
  La  La5  1  0.08915369  0.68577292  0.75000000  1.0
  Nb  Nb6  1  0.33333333  0.66666667  0.25000000  1.0
  Nb  Nb7  1  0.66666667  0.33333333  0.75000000  1.0
  Cl  Cl8  1  0.05044161  0.80921768  0.25000000  1.0
  Cl  Cl9  1  0.80921768  0.75877607  0.75000000  1.0
  Cl  Cl10  1  0.75877607  0.94955839  0.25000000  1.0
  Cl  Cl11  1  0.19078232  0.24122393  0.25000000  1.0
  Cl  Cl12  1  0.94955839  0.19078232  0.75000000  1.0
  Cl  Cl13  1  0.24122393  0.05044161  0.75000000  1.0
  O  O14  1  0.36463756  0.84050851  0.48474823  1.0
  O  O15  1  0.36463756  0.84050851  0.01525177  1.0
  O  O16  1  0.84050851  0.47587095  0.98474823  1.0
  O  O17  1  0.84050851  0.47587095  0.51525177  1.0
  O  O18  1  0.47587095  0.63536244  0.48474823  1.0
  O  O19  1  0.47587095  0.63536244  0.01525177  1.0
  O  O20  1  0.15949149  0.52412905  0.48474823  1.0
  O  O21  1  0.15949149  0.52412905  0.01525177  1.0
  O  O22  1  0.63536244  0.15949149  0.98474823  1.0
  O  O23  1  0.63536244  0.15949149  0.51525177  1.0
  O  O24  1  0.52412905  0.36463756  0.98474823  1.0
  O  O25  1  0.52412905  0.36463756  0.51525177  1.0
