# generated using pymatgen
data_ZnH12(SO6)2
_symmetry_space_group_name_H-M   'P 1'
_cell_length_a   6.76879666
_cell_length_b   6.53919892
_cell_length_c   7.01575631
_cell_angle_alpha   96.73035582
_cell_angle_beta   101.83596329
_cell_angle_gamma   95.05924850
_symmetry_Int_Tables_number   1
_chemical_formula_structural   ZnH12(SO6)2
_chemical_formula_sum   'Zn1 H12 S2 O12'
_cell_volume   299.81957087
_cell_formula_units_Z   1
loop_
 _symmetry_equiv_pos_site_id
 _symmetry_equiv_pos_as_xyz
  1  'x, y, z'
loop_
 _atom_site_type_symbol
 _atom_site_label
 _atom_site_symmetry_multiplicity
 _atom_site_fract_x
 _atom_site_fract_y
 _atom_site_fract_z
 _atom_site_occupancy
  Zn  Zn0  1  0.00000000  0.00000000  -0.50000000  1.0
  H  H1  1  -0.59314214  -0.93606103  -0.31623247  1.0
  H  H2  1  -0.40685786  -0.06393897  -0.68376753  1.0
  H  H3  1  -0.32920632  -0.82349044  -0.66961769  1.0
  H  H4  1  -0.67079368  -0.17650956  -0.33038231  1.0
  H  H5  1  -0.92647437  -0.79489856  -0.11360208  1.0
  H  H6  1  -0.07352563  -0.20510144  -0.88639792  1.0
  H  H7  1  -0.84734013  -0.70907972  -0.68588182  1.0
  H  H8  1  -0.15265987  -0.29092028  -0.31411818  1.0
  H  H9  1  -0.81658371  -0.60935410  -0.46436605  1.0
  H  H10  1  -0.18341629  -0.39064590  -0.53563395  1.0
  H  H11  1  -0.83927843  -0.19574529  -0.79019059  1.0
  H  H12  1  -0.16072157  -0.80425471  -0.20980941  1.0
  S  S13  1  -0.54715324  -0.50069117  -0.85873301  1.0
  S  S14  1  -0.45284676  -0.49930883  -0.14126699  1.0
  O  O15  1  -0.30247171  -0.95141294  -0.61277994  1.0
  O  O16  1  -0.69752829  -0.04858706  -0.38722006  1.0
  O  O17  1  -0.90756482  -0.70767395  -0.56975211  1.0
  O  O18  1  -0.09243518  -0.29232605  -0.43024789  1.0
  O  O19  1  -0.72684942  -0.65695277  -0.90012957  1.0
  O  O20  1  -0.27315058  -0.34304723  -0.09987043  1.0
  O  O21  1  -0.36952317  -0.55931653  -0.72424092  1.0
  O  O22  1  -0.63047683  -0.44068347  -0.27575908  1.0
  O  O23  1  -0.59070963  -0.28650812  -0.80620431  1.0
  O  O24  1  -0.40929037  -0.71349188  -0.19379569  1.0
  O  O25  1  -0.96302057  -0.12997695  -0.78222744  1.0
  O  O26  1  -0.03697943  -0.87002305  -0.21777256  1.0
