# generated using pymatgen
data_Sr2B4Rh5
_symmetry_space_group_name_H-M   'P 1'
_cell_length_a   7.58098468
_cell_length_b   6.29257152
_cell_length_c   5.77756016
_cell_angle_alpha   77.68742879
_cell_angle_beta   54.18930989
_cell_angle_gamma   48.12326132
_symmetry_Int_Tables_number   1
_chemical_formula_structural   Sr2B4Rh5
_chemical_formula_sum   'Sr2 B4 Rh5'
_cell_volume   159.08209943
_cell_formula_units_Z   1
loop_
 _symmetry_equiv_pos_site_id
 _symmetry_equiv_pos_as_xyz
  1  'x, y, z'
loop_
 _atom_site_type_symbol
 _atom_site_label
 _atom_site_symmetry_multiplicity
 _atom_site_fract_x
 _atom_site_fract_y
 _atom_site_fract_z
 _atom_site_occupancy
  Sr  Sr0  1  0.64440823  0.64440823  -0.64440823  1.0
  Sr  Sr1  1  0.35559177  1.35559177  -0.35559177  1.0
  B  B2  1  1.70700317  0.03689445  -0.03689445  1.0
  B  B3  1  0.96310555  0.29299683  0.70700317  1.0
  B  B4  1  1.03689445  0.70700317  0.29299683  1.0
  B  B5  1  1.29299683  -0.03689445  0.03689445  1.0
  Rh  Rh6  1  0.75000000  0.75000000  0.75000000  1.0
  Rh  Rh7  1  1.25000000  0.25000000  0.25000000  1.0
  Rh  Rh8  1  0.00000000  -0.00000000  1.50000000  1.0
  Rh  Rh9  1  0.50000000  -0.50000000  1.00000000  1.0
  Rh  Rh10  1  0.00000000  0.00000000  0.00000000  1.0
