# generated using pymatgen
data_MgV3O8
_symmetry_space_group_name_H-M   'P 1'
_cell_length_a   9.71907340
_cell_length_b   9.71907340
_cell_length_c   9.71907340
_cell_angle_alpha   118.53260079
_cell_angle_beta   84.38507972
_cell_angle_gamma   128.32952413
_symmetry_Int_Tables_number   1
_chemical_formula_structural   MgV3O8
_chemical_formula_sum   'Mg4 V12 O32'
_cell_volume   605.93173096
_cell_formula_units_Z   4
loop_
 _symmetry_equiv_pos_site_id
 _symmetry_equiv_pos_as_xyz
  1  'x, y, z'
loop_
 _atom_site_type_symbol
 _atom_site_label
 _atom_site_symmetry_multiplicity
 _atom_site_fract_x
 _atom_site_fract_y
 _atom_site_fract_z
 _atom_site_occupancy
  V  V0  1  0.81078969  0.95830325  0.74250825  1.0
  V  V1  1  0.71579500  0.45830325  1.14751356  1.0
  V  V2  1  0.31078969  0.56828144  0.85248644  1.0
  V  V3  1  1.21579500  1.06828144  1.25749175  1.0
  V  V4  1  1.49385470  1.34890545  1.80888700  1.0
  V  V5  1  0.04001845  0.84890545  0.85505075  1.0
  V  V6  1  0.99385470  0.18496770  1.14494925  1.0
  V  V7  1  0.54001845  0.68496770  0.19111300  1.0
  V  V8  1  0.97200335  1.16149028  0.48914934  1.0
  V  V9  1  1.17234093  0.66149028  1.18948693  1.0
  V  V10  1  0.47200335  0.98285400  0.81051307  1.0
  V  V11  1  1.67234093  1.48285400  1.51085066  1.0
  O  O12  1  1.28115504  1.14213756  1.69962967  1.0
  O  O13  1  0.94250789  1.64213756  0.86098252  1.0
  O  O14  1  1.78115504  1.08152537  1.13901748  1.0
  O  O15  1  0.44250789  0.58152537  0.30037033  1.0
  O  O16  1  0.92276707  0.73008868  1.64440958  1.0
  O  O17  1  0.58567910  1.23008868  0.80732161  1.0
  O  O18  1  1.42276707  0.77835749  1.19267839  1.0
  O  O19  1  0.08567910  0.27835749  0.35559042  1.0
  O  O20  1  0.75475019  0.90783408  0.30767161  1.0
  O  O21  1  1.10016246  0.40783408  1.15308388  1.0
  O  O22  1  0.25475019  0.94707858  0.84691612  1.0
  O  O23  1  1.60016246  1.44707858  1.69232839  1.0
  O  O24  1  0.77117941  0.59098229  1.35586346  1.0
  O  O25  1  0.73511883  1.09098229  0.81980289  1.0
  O  O26  1  1.27117941  0.91531594  1.18019711  1.0
  O  O27  1  0.23511883  0.41531594  0.64413654  1.0
  O  O28  1  1.07731919  0.99893517  1.37498193  1.0
  O  O29  1  1.12395324  1.49893517  0.92161598  1.0
  O  O30  1  1.57731919  1.20233726  1.07838402  1.0
  O  O31  1  0.62395324  0.70233726  0.62501807  1.0
  O  O32  1  0.88185487  1.25844390  0.59795017  1.0
  O  O33  1  1.16049373  0.75844390  1.37658902  1.0
  O  O34  1  0.38185487  0.78390471  0.62341098  1.0
  O  O35  1  1.66049373  1.28390471  1.40204983  1.0
  O  O36  1  0.94314304  1.00693834  0.90326466  1.0
  O  O37  1  0.60367368  0.50693834  1.06379529  1.0
  O  O38  1  0.44314304  0.53987839  0.93620471  1.0
  O  O39  1  1.10367368  1.03987839  1.09673534  1.0
  O  O40  1  0.93724068  1.02942761  0.61580921  1.0
  O  O41  1  0.91361840  0.52942761  1.09218693  1.0
  O  O42  1  0.43724068  0.82143147  0.90781307  1.0
  O  O43  1  1.41361840  1.32143147  1.38419079  1.0
  Mg  Mg44  1  1.04412649  0.87656075  1.51430620  1.0
  Mg  Mg45  1  0.86225455  1.37656075  0.83243426  1.0
  Mg  Mg46  1  1.54412649  1.02982029  1.16756574  1.0
  Mg  Mg47  1  0.36225455  0.52982029  0.48569380  1.0
