# generated using pymatgen
data_Na2PH11O8
_symmetry_space_group_name_H-M   'P 1'
_cell_length_a   7.23200557
_cell_length_b   6.44193553
_cell_length_c   9.34345493
_cell_angle_alpha   90.00000000
_cell_angle_beta   90.00000000
_cell_angle_gamma   90.00000000
_symmetry_Int_Tables_number   1
_chemical_formula_structural   Na2PH11O8
_chemical_formula_sum   'Na4 P2 H22 O16'
_cell_volume   435.29394004
_cell_formula_units_Z   2
loop_
 _symmetry_equiv_pos_site_id
 _symmetry_equiv_pos_as_xyz
  1  'x, y, z'
loop_
 _atom_site_type_symbol
 _atom_site_label
 _atom_site_symmetry_multiplicity
 _atom_site_fract_x
 _atom_site_fract_y
 _atom_site_fract_z
 _atom_site_occupancy
  Na  Na0  1  -0.00000000  0.50464238  0.34911384  1.0
  Na  Na1  1  0.50000000  0.49535762  0.84911384  1.0
  Na  Na2  1  0.00000000  0.46134808  0.76822774  1.0
  Na  Na3  1  0.50000000  0.53865192  0.26822774  1.0
  P  P4  1  0.00000000  0.85325311  0.00171011  1.0
  P  P5  1  0.50000000  0.14674689  0.50171011  1.0
  H  H6  1  0.83732394  0.45000323  0.10427184  1.0
  H  H7  1  0.33732394  0.54999677  0.60427184  1.0
  H  H8  1  0.16267606  0.45000323  0.10427184  1.0
  H  H9  1  0.66267606  0.54999677  0.60427184  1.0
  H  H10  1  0.78647939  0.85124406  0.24593510  1.0
  H  H11  1  0.28647939  0.14875594  0.74593510  1.0
  H  H12  1  0.21352061  0.85124406  0.24593510  1.0
  H  H13  1  0.71352061  0.14875594  0.74593510  1.0
  H  H14  1  0.74821376  0.87007888  0.41169770  1.0
  H  H15  1  0.24821376  0.12992112  0.91169770  1.0
  H  H16  1  0.25178624  0.87007888  0.41169770  1.0
  H  H17  1  0.75178624  0.12992112  0.91169770  1.0
  H  H18  1  0.70582695  0.78264125  0.64067944  1.0
  H  H19  1  0.20582695  0.21735875  0.14067944  1.0
  H  H20  1  0.29417305  0.78264125  0.64067944  1.0
  H  H21  1  0.79417305  0.21735875  0.14067944  1.0
  H  H22  1  0.61032664  0.82111032  0.04173205  1.0
  H  H23  1  0.11032664  0.17888968  0.54173205  1.0
  H  H24  1  0.38967336  0.82111032  0.04173205  1.0
  H  H25  1  0.88967336  0.17888968  0.54173205  1.0
  H  H26  1  0.00000000  0.90126573  0.85327621  1.0
  H  H27  1  0.50000000  0.09873427  0.35327621  1.0
  O  O28  1  0.82181558  0.95551514  0.06329012  1.0
  O  O29  1  0.32181558  0.04448486  0.56329012  1.0
  O  O30  1  0.17818442  0.95551514  0.06329012  1.0
  O  O31  1  0.67818442  0.04448486  0.56329012  1.0
  O  O32  1  0.77272949  0.36042541  0.17465401  1.0
  O  O33  1  0.27272949  0.63957459  0.67465401  1.0
  O  O34  1  0.22727051  0.36042541  0.17465401  1.0
  O  O35  1  0.72727051  0.63957459  0.67465401  1.0
  O  O36  1  0.76469888  0.76881437  0.33362684  1.0
  O  O37  1  0.26469888  0.23118563  0.83362684  1.0
  O  O38  1  0.23530112  0.76881437  0.33362684  1.0
  O  O39  1  0.73530112  0.23118563  0.83362684  1.0
  O  O40  1  -0.00000000  0.61481978  0.01256159  1.0
  O  O41  1  0.50000000  0.38518022  0.51256159  1.0
  O  O42  1  0.00000000  0.27020027  0.53803631  1.0
  O  O43  1  0.50000000  0.72979973  0.03803631  1.0
