# generated using pymatgen
data_BaCu(Si2O5)2
_symmetry_space_group_name_H-M   'P 1'
_cell_length_a   7.51938051
_cell_length_b   7.51938051
_cell_length_c   16.55524875
_cell_angle_alpha   90.00000000
_cell_angle_beta   90.00000000
_cell_angle_gamma   90.00000000
_symmetry_Int_Tables_number   1
_chemical_formula_structural   BaCu(Si2O5)2
_chemical_formula_sum   'Ba4 Cu4 Si16 O40'
_cell_volume   936.05169863
_cell_formula_units_Z   4
loop_
 _symmetry_equiv_pos_site_id
 _symmetry_equiv_pos_as_xyz
  1  'x, y, z'
loop_
 _atom_site_type_symbol
 _atom_site_label
 _atom_site_symmetry_multiplicity
 _atom_site_fract_x
 _atom_site_fract_y
 _atom_site_fract_z
 _atom_site_occupancy
  Ba  Ba0  1  0.50000000  0.50000000  0.50000000  1.0
  Ba  Ba1  1  0.50000000  0.50000000  0.00000000  1.0
  Ba  Ba2  1  0.00000000  0.00000000  0.00000000  1.0
  Ba  Ba3  1  0.00000000  0.00000000  0.50000000  1.0
  Cu  Cu4  1  0.00000000  0.50000000  0.40285301  1.0
  Cu  Cu5  1  0.00000000  0.50000000  0.90285301  1.0
  Cu  Cu6  1  0.50000000  0.00000000  0.59714699  1.0
  Cu  Cu7  1  0.50000000  0.00000000  0.09714699  1.0
  Si  Si8  1  0.68547871  0.76463610  0.34476419  1.0
  Si  Si9  1  0.31452129  0.76463610  0.84476419  1.0
  Si  Si10  1  0.68547871  0.23536390  0.84476419  1.0
  Si  Si11  1  0.31452129  0.23536390  0.34476419  1.0
  Si  Si12  1  0.26463610  0.18547871  0.84476419  1.0
  Si  Si13  1  0.73536390  0.18547871  0.34476419  1.0
  Si  Si14  1  0.26463610  0.81452129  0.34476419  1.0
  Si  Si15  1  0.73536390  0.81452129  0.84476419  1.0
  Si  Si16  1  0.81452129  0.73536390  0.65523581  1.0
  Si  Si17  1  0.18547871  0.73536390  0.15523581  1.0
  Si  Si18  1  0.81452129  0.26463610  0.15523581  1.0
  Si  Si19  1  0.18547871  0.26463610  0.65523581  1.0
  Si  Si20  1  0.23536390  0.31452129  0.15523581  1.0
  Si  Si21  1  0.76463610  0.31452129  0.65523581  1.0
  Si  Si22  1  0.23536390  0.68547871  0.65523581  1.0
  Si  Si23  1  0.76463610  0.68547871  0.15523581  1.0
  O  O24  1  0.72147524  0.72147524  0.25000000  1.0
  O  O25  1  0.27852476  0.72147524  0.75000000  1.0
  O  O26  1  0.72147524  0.27852476  0.75000000  1.0
  O  O27  1  0.27852476  0.27852476  0.25000000  1.0
  O  O28  1  0.22147524  0.22147524  0.75000000  1.0
  O  O29  1  0.77852476  0.22147524  0.25000000  1.0
  O  O30  1  0.22147524  0.77852476  0.25000000  1.0
  O  O31  1  0.77852476  0.77852476  0.75000000  1.0
  O  O32  1  0.74976368  0.96999750  0.36326169  1.0
  O  O33  1  0.25023632  0.96999750  0.86326169  1.0
  O  O34  1  0.74976368  0.03000250  0.86326169  1.0
  O  O35  1  0.25023632  0.03000250  0.36326169  1.0
  O  O36  1  0.46999750  0.24976368  0.86326169  1.0
  O  O37  1  0.53000250  0.24976368  0.36326169  1.0
  O  O38  1  0.46999750  0.75023632  0.36326169  1.0
  O  O39  1  0.53000250  0.75023632  0.86326169  1.0
  O  O40  1  0.75023632  0.53000250  0.63673831  1.0
  O  O41  1  0.24976368  0.53000250  0.13673831  1.0
  O  O42  1  0.75023632  0.46999750  0.13673831  1.0
  O  O43  1  0.24976368  0.46999750  0.63673831  1.0
  O  O44  1  0.03000250  0.25023632  0.13673831  1.0
  O  O45  1  0.96999750  0.25023632  0.63673831  1.0
  O  O46  1  0.03000250  0.74976368  0.63673831  1.0
  O  O47  1  0.96999750  0.74976368  0.13673831  1.0
  O  O48  1  0.77489083  0.62945478  0.40802772  1.0
  O  O49  1  0.22510917  0.62945478  0.90802772  1.0
  O  O50  1  0.77489083  0.37054522  0.90802772  1.0
  O  O51  1  0.22510917  0.37054522  0.40802772  1.0
  O  O52  1  0.12945478  0.27489083  0.90802772  1.0
  O  O53  1  0.87054522  0.27489083  0.40802772  1.0
  O  O54  1  0.12945478  0.72510917  0.40802772  1.0
  O  O55  1  0.87054522  0.72510917  0.90802772  1.0
  O  O56  1  0.72510917  0.87054522  0.59197228  1.0
  O  O57  1  0.27489083  0.87054522  0.09197228  1.0
  O  O58  1  0.72510917  0.12945478  0.09197228  1.0
  O  O59  1  0.27489083  0.12945478  0.59197228  1.0
  O  O60  1  0.37054522  0.22510917  0.09197228  1.0
  O  O61  1  0.62945478  0.22510917  0.59197228  1.0
  O  O62  1  0.37054522  0.77489083  0.59197228  1.0
  O  O63  1  0.62945478  0.77489083  0.09197228  1.0
