# generated using pymatgen
data_Ir(SeBr3)3
_symmetry_space_group_name_H-M   'P 1'
_cell_length_a   8.06879357
_cell_length_b   14.47288126
_cell_length_c   8.69421213
_cell_angle_alpha   81.15021875
_cell_angle_beta   70.36034943
_cell_angle_gamma   88.99944648
_symmetry_Int_Tables_number   1
_chemical_formula_structural   Ir(SeBr3)3
_chemical_formula_sum   'Ir2 Se6 Br18'
_cell_volume   944.20995927
_cell_formula_units_Z   2
loop_
 _symmetry_equiv_pos_site_id
 _symmetry_equiv_pos_as_xyz
  1  'x, y, z'
loop_
 _atom_site_type_symbol
 _atom_site_label
 _atom_site_symmetry_multiplicity
 _atom_site_fract_x
 _atom_site_fract_y
 _atom_site_fract_z
 _atom_site_occupancy
  Ir  Ir0  1  -0.78177466  -0.75288772  -0.71174070  1.0
  Ir  Ir1  1  -0.21822534  -0.24711228  -0.28825930  1.0
  Se  Se2  1  -0.65141385  -0.62539674  -0.64035545  1.0
  Se  Se3  1  -0.34858615  -0.37460326  -0.35964455  1.0
  Se  Se4  1  -0.64310620  -0.86950012  -0.57392566  1.0
  Se  Se5  1  -0.35689380  -0.13049988  -0.42607434  1.0
  Se  Se6  1  -0.43599553  -0.25531833  -1.01431377  1.0
  Se  Se7  1  -0.56400447  -0.74468167  0.01431377  1.0
  Br  Br8  1  -0.92637085  -0.23324564  -0.51712203  1.0
  Br  Br9  1  -0.07362915  -0.76675436  -0.48287797  1.0
  Br  Br10  1  -0.88852005  -0.86242773  -0.86613923  1.0
  Br  Br11  1  -0.11147995  -0.13757227  -0.13386077  1.0
  Br  Br12  1  -0.87442936  -0.61432730  -0.88739350  1.0
  Br  Br13  1  -0.12557064  -0.38567270  -0.11260650  1.0
  Br  Br14  1  -0.82491462  -0.58569758  -0.38068708  1.0
  Br  Br15  1  -0.17508538  -0.41430242  -0.61931292  1.0
  Br  Br16  1  -0.75640128  -0.86130704  -0.28436669  1.0
  Br  Br17  1  -0.24359872  -0.13869296  -0.71563331  1.0
  Br  Br18  1  -0.64191771  -0.38567099  -0.95896677  1.0
  Br  Br19  1  -0.35808229  -0.61432901  -0.04103323  1.0
  Br  Br20  1  -0.39395882  -0.68407728  -0.57778718  1.0
  Br  Br21  1  -0.60604118  -0.31592272  -0.42221282  1.0
  Br  Br22  1  -0.36978882  -0.87064742  -0.97596738  1.0
  Br  Br23  1  -0.63021118  -0.12935258  -0.02403262  1.0
  Br  Br24  1  -0.24377856  -0.97705103  -0.43859922  1.0
  Br  Br25  1  -0.75622144  -0.02294897  -0.56140078  1.0
