# generated using pymatgen
data_KHg
_symmetry_space_group_name_H-M   'P 1'
_cell_length_a   7.06456940
_cell_length_b   6.72409258
_cell_length_c   7.21028121
_cell_angle_alpha   101.99794592
_cell_angle_beta   108.16903971
_cell_angle_gamma   90.85148998
_symmetry_Int_Tables_number   1
_chemical_formula_structural   KHg
_chemical_formula_sum   'K4 Hg4'
_cell_volume   317.15032008
_cell_formula_units_Z   4
loop_
 _symmetry_equiv_pos_site_id
 _symmetry_equiv_pos_as_xyz
  1  'x, y, z'
loop_
 _atom_site_type_symbol
 _atom_site_label
 _atom_site_symmetry_multiplicity
 _atom_site_fract_x
 _atom_site_fract_y
 _atom_site_fract_z
 _atom_site_occupancy
  K  K0  1  -0.20510030  -0.81704721  -0.86070387  1.0
  K  K1  1  -0.79489970  -0.18295279  -0.13929613  1.0
  K  K2  1  -0.65447352  -0.74043932  -0.44537800  1.0
  K  K3  1  -0.34552648  -0.25956068  -0.55462200  1.0
  Hg  Hg4  1  -0.72373814  -0.63899299  -0.93896021  1.0
  Hg  Hg5  1  -0.27626186  -0.36100701  -0.06103979  1.0
  Hg  Hg6  1  -0.89510352  -0.29672137  -0.69718133  1.0
  Hg  Hg7  1  -0.10489648  -0.70327863  -0.30281867  1.0
