# generated using pymatgen
data_Ba6Zn7F26
_symmetry_space_group_name_H-M   'P 1'
_cell_length_a   10.31094222
_cell_length_b   10.31094222
_cell_length_c   12.47725459
_cell_angle_alpha   53.90665542
_cell_angle_beta   126.09334458
_cell_angle_gamma   146.12083074
_symmetry_Int_Tables_number   1
_chemical_formula_structural   Ba6Zn7F26
_chemical_formula_sum   'Ba6 Zn7 F26'
_cell_volume   582.61236071
_cell_formula_units_Z   1
loop_
 _symmetry_equiv_pos_site_id
 _symmetry_equiv_pos_as_xyz
  1  'x, y, z'
loop_
 _atom_site_type_symbol
 _atom_site_label
 _atom_site_symmetry_multiplicity
 _atom_site_fract_x
 _atom_site_fract_y
 _atom_site_fract_z
 _atom_site_occupancy
  Ba  Ba0  1  0.65873005  0.34126995  0.39865960  1.0
  Ba  Ba1  1  1.34126995  -0.34126995  0.60134040  1.0
  Ba  Ba2  1  0.64127073  0.35872927  0.90539256  1.0
  Ba  Ba3  1  1.35872927  -0.35872927  0.09460744  1.0
  Ba  Ba4  1  0.85194694  -0.85194694  0.34496735  1.0
  Ba  Ba5  1  0.14805306  -0.14805306  0.65503265  1.0
  Zn  Zn6  1  0.77885630  0.22114370  0.79198824  1.0
  Zn  Zn7  1  1.22114370  -0.22114370  0.20801176  1.0
  Zn  Zn8  1  0.97944717  -0.97944717  0.71282176  1.0
  Zn  Zn9  1  0.02055283  -0.02055283  0.28717824  1.0
  Zn  Zn10  1  0.50000000  0.50000000  0.50000000  1.0
  Zn  Zn11  1  0.74476787  0.74476787  0.00000000  1.0
  Zn  Zn12  1  0.25523213  0.25523213  -0.00000000  1.0
  F  F13  1  1.71552479  -0.22010298  0.57765997  1.0
  F  F14  1  1.22010298  -0.71552479  0.57765997  1.0
  F  F15  1  0.77989702  0.71552479  0.42234003  1.0
  F  F16  1  0.28447521  0.22010298  0.42234003  1.0
  F  F17  1  0.89497501  -0.89497501  0.18426360  1.0
  F  F18  1  0.10502499  -0.10502499  0.81573640  1.0
  F  F19  1  1.71896955  -0.25221973  0.82120427  1.0
  F  F20  1  1.25221973  -0.71896955  0.82120427  1.0
  F  F21  1  0.74778027  0.71896955  0.17879573  1.0
  F  F22  1  0.28103045  0.25221973  0.17879573  1.0
  F  F23  1  0.40970823  -0.40970823  0.92654679  1.0
  F  F24  1  0.59029177  -0.59029177  0.07345321  1.0
  F  F25  1  0.91107138  0.08892862  0.92311915  1.0
  F  F26  1  1.08892862  -0.08892862  0.07688085  1.0
  F  F27  1  0.85189676  -0.85189676  0.58017630  1.0
  F  F28  1  0.14810324  -0.14810324  0.41982370  1.0
  F  F29  1  0.52413186  0.01784525  0.65140929  1.0
  F  F30  1  0.98215475  0.47586814  0.65140929  1.0
  F  F31  1  1.01784525  -0.47586814  0.34859071  1.0
  F  F32  1  1.47586814  -0.01784525  0.34859071  1.0
  F  F33  1  0.52097133  0.00519125  0.88377528  1.0
  F  F34  1  0.99480875  0.47902867  0.88377528  1.0
  F  F35  1  1.00519125  -0.47902867  0.11622472  1.0
  F  F36  1  1.47902867  -0.00519125  0.11622472  1.0
  F  F37  1  0.62275902  0.37724098  0.66924856  1.0
  F  F38  1  1.37724098  -0.37724098  0.33075144  1.0
