# generated using pymatgen
data_As4S3
_symmetry_space_group_name_H-M   'P 1'
_cell_length_a   12.05163818
_cell_length_b   10.89585100
_cell_length_c   7.16094119
_cell_angle_alpha   90.00000000
_cell_angle_beta   90.00000000
_cell_angle_gamma   90.00000000
_symmetry_Int_Tables_number   1
_chemical_formula_structural   As4S3
_chemical_formula_sum   'As16 S12'
_cell_volume   940.32362509
_cell_formula_units_Z   4
loop_
 _symmetry_equiv_pos_site_id
 _symmetry_equiv_pos_as_xyz
  1  'x, y, z'
loop_
 _atom_site_type_symbol
 _atom_site_label
 _atom_site_symmetry_multiplicity
 _atom_site_fract_x
 _atom_site_fract_y
 _atom_site_fract_z
 _atom_site_occupancy
  As  As0  1  0.92852381  0.86603890  0.22843750  1.0
  As  As1  1  0.92852381  0.63396110  0.22843750  1.0
  As  As2  1  0.42852381  0.86603890  0.27156250  1.0
  As  As3  1  0.42852381  0.63396110  0.27156250  1.0
  As  As4  1  0.07147619  0.36603890  0.77156250  1.0
  As  As5  1  0.07147619  0.13396110  0.77156250  1.0
  As  As6  1  0.57147619  0.36603890  0.72843750  1.0
  As  As7  1  0.57147619  0.13396110  0.72843750  1.0
  As  As8  1  0.92508896  0.25000000  0.59427505  1.0
  As  As9  1  0.42508896  0.25000000  0.90572495  1.0
  As  As10  1  0.07491104  0.75000000  0.40572495  1.0
  As  As11  1  0.57491104  0.75000000  0.09427505  1.0
  As  As12  1  0.68288119  0.25000000  0.15852966  1.0
  As  As13  1  0.18288119  0.25000000  0.34147034  1.0
  As  As14  1  0.31711881  0.75000000  0.84147034  1.0
  As  As15  1  0.81711881  0.75000000  0.65852966  1.0
  S  S16  1  0.80436704  0.90722838  0.45191220  1.0
  S  S17  1  0.80436704  0.59277162  0.45191220  1.0
  S  S18  1  0.30436704  0.90722838  0.04808780  1.0
  S  S19  1  0.30436704  0.59277162  0.04808780  1.0
  S  S20  1  0.19563296  0.40722838  0.54808780  1.0
  S  S21  1  0.19563296  0.09277162  0.54808780  1.0
  S  S22  1  0.69563296  0.40722838  0.95191220  1.0
  S  S23  1  0.69563296  0.09277162  0.95191220  1.0
  S  S24  1  0.99580464  0.25000000  0.30518513  1.0
  S  S25  1  0.49580464  0.25000000  0.19481487  1.0
  S  S26  1  0.00419536  0.75000000  0.69481487  1.0
  S  S27  1  0.50419536  0.75000000  0.80518513  1.0
