# generated using pymatgen
data_Ca2Si5Pt3
_symmetry_space_group_name_H-M   'P 1'
_cell_length_a   8.25041755
_cell_length_b   8.25041755
_cell_length_c   8.25041755
_cell_angle_alpha   104.47440827
_cell_angle_beta   90.70142971
_cell_angle_gamma   137.54523639
_symmetry_Int_Tables_number   1
_chemical_formula_structural   Ca2Si5Pt3
_chemical_formula_sum   'Ca4 Si10 Pt6'
_cell_volume   350.04311184
_cell_formula_units_Z   2
loop_
 _symmetry_equiv_pos_site_id
 _symmetry_equiv_pos_as_xyz
  1  'x, y, z'
loop_
 _atom_site_type_symbol
 _atom_site_label
 _atom_site_symmetry_multiplicity
 _atom_site_fract_x
 _atom_site_fract_y
 _atom_site_fract_z
 _atom_site_occupancy
  Ca  Ca0  1  0.62892239  0.73321590  0.36213830  1.0
  Ca  Ca1  1  0.87107761  0.23321590  1.10429351  1.0
  Ca  Ca2  1  0.12892239  0.76678410  0.89570649  1.0
  Ca  Ca3  1  1.37107761  1.26678410  1.63786170  1.0
  Si  Si4  1  0.88821496  0.65010930  1.53832426  1.0
  Si  Si5  1  0.61178504  1.15010930  0.76189434  1.0
  Si  Si6  1  1.38821496  0.84989070  1.23810566  1.0
  Si  Si7  1  0.11178504  0.34989070  0.46167574  1.0
  Si  Si8  1  0.47963599  0.75000000  0.72963599  1.0
  Si  Si9  1  0.97963599  1.25000000  0.72963599  1.0
  Si  Si10  1  1.52036401  1.25000000  1.27036401  1.0
  Si  Si11  1  1.02036401  0.75000000  1.27036401  1.0
  Si  Si12  1  0.75000000  0.75000000  0.00000000  1.0
  Si  Si13  1  0.25000000  0.25000000  -0.00000000  1.0
  Pt  Pt14  1  0.86379988  0.88497711  0.74877699  1.0
  Pt  Pt15  1  0.63620012  0.38497711  1.02117724  1.0
  Pt  Pt16  1  0.36379988  0.61502289  0.97882276  1.0
  Pt  Pt17  1  1.13620012  1.11502289  1.25122301  1.0
  Pt  Pt18  1  0.75000000  1.25000000  0.50000000  1.0
  Pt  Pt19  1  0.25000000  0.75000000  0.50000000  1.0
