# generated using pymatgen
data_CdH9C3NCl3
_symmetry_space_group_name_H-M   'P 1'
_cell_length_a   9.34292781
_cell_length_b   9.34292781
_cell_length_c   6.73830043
_cell_angle_alpha   90.00000000
_cell_angle_beta   90.00000000
_cell_angle_gamma   120.00000000
_symmetry_Int_Tables_number   1
_chemical_formula_structural   CdH9C3NCl3
_chemical_formula_sum   'Cd2 H18 C6 N2 Cl6'
_cell_volume   509.38598075
_cell_formula_units_Z   2
loop_
 _symmetry_equiv_pos_site_id
 _symmetry_equiv_pos_as_xyz
  1  'x, y, z'
loop_
 _atom_site_type_symbol
 _atom_site_label
 _atom_site_symmetry_multiplicity
 _atom_site_fract_x
 _atom_site_fract_y
 _atom_site_fract_z
 _atom_site_occupancy
  C  C0  1  0.31104342  0.80805958  0.25000000  1.0
  C  C1  1  0.49701616  0.68895658  0.25000000  1.0
  C  C2  1  0.19194042  0.50298384  0.25000000  1.0
  C  C3  1  0.68895658  0.19194042  0.75000000  1.0
  C  C4  1  0.50298384  0.31104342  0.75000000  1.0
  C  C5  1  0.80805958  0.49701616  0.75000000  1.0
  N  N6  1  0.33333333  0.66666667  0.25000000  1.0
  N  N7  1  0.66666667  0.33333333  0.75000000  1.0
  Cl  Cl8  1  0.85269148  0.11001351  0.25000000  1.0
  Cl  Cl9  1  0.25732203  0.14730852  0.25000000  1.0
  Cl  Cl10  1  0.88998649  0.74267797  0.25000000  1.0
  Cl  Cl11  1  0.14730852  0.88998649  0.75000000  1.0
  Cl  Cl12  1  0.74267797  0.85269148  0.75000000  1.0
  Cl  Cl13  1  0.11001351  0.25732203  0.75000000  1.0
  H  H14  1  0.17980120  0.77092141  0.25000000  1.0
  H  H15  1  0.59112021  0.82019880  0.25000000  1.0
  H  H16  1  0.22907859  0.40887979  0.25000000  1.0
  H  H17  1  0.82019880  0.22907859  0.75000000  1.0
  H  H18  1  0.40887979  0.17980120  0.75000000  1.0
  H  H19  1  0.77092141  0.59112021  0.75000000  1.0
  H  H20  1  0.37210702  0.88504803  0.38139934  1.0
  H  H21  1  0.51294100  0.62789298  0.38139934  1.0
  H  H22  1  0.11495197  0.48705900  0.38139934  1.0
  H  H23  1  0.62789298  0.11495197  0.88139934  1.0
  H  H24  1  0.48705900  0.37210702  0.88139934  1.0
  H  H25  1  0.88504803  0.51294100  0.88139934  1.0
  H  H26  1  0.62789298  0.11495197  0.61860066  1.0
  H  H27  1  0.48705900  0.37210702  0.61860066  1.0
  H  H28  1  0.88504803  0.51294100  0.61860066  1.0
  H  H29  1  0.37210702  0.88504803  0.11860066  1.0
  H  H30  1  0.51294100  0.62789298  0.11860066  1.0
  H  H31  1  0.11495197  0.48705900  0.11860066  1.0
  Cd  Cd32  1  0.00000000  0.00000000  0.50000000  1.0
  Cd  Cd33  1  0.00000000  0.00000000  0.00000000  1.0
