# generated using pymatgen
data_SbP(Cl2F3)2
_symmetry_space_group_name_H-M   'P 1'
_cell_length_a   9.11629203
_cell_length_b   9.11629203
_cell_length_c   6.75286827
_cell_angle_alpha   90.00000000
_cell_angle_beta   90.00000000
_cell_angle_gamma   90.00000000
_symmetry_Int_Tables_number   1
_chemical_formula_structural   SbP(Cl2F3)2
_chemical_formula_sum   'Sb2 P2 Cl8 F12'
_cell_volume   561.20913986
_cell_formula_units_Z   2
loop_
 _symmetry_equiv_pos_site_id
 _symmetry_equiv_pos_as_xyz
  1  'x, y, z'
loop_
 _atom_site_type_symbol
 _atom_site_label
 _atom_site_symmetry_multiplicity
 _atom_site_fract_x
 _atom_site_fract_y
 _atom_site_fract_z
 _atom_site_occupancy
  Cl  Cl0  1  0.51721003  0.32486455  0.66752807  1.0
  Cl  Cl1  1  0.48278997  0.67513545  0.66752807  1.0
  Cl  Cl2  1  0.82486455  0.98278997  0.66752807  1.0
  Cl  Cl3  1  0.17513545  0.01721003  0.66752807  1.0
  Cl  Cl4  1  0.98278997  0.17513545  0.33247193  1.0
  Cl  Cl5  1  0.01721003  0.82486455  0.33247193  1.0
  Cl  Cl6  1  0.67513545  0.51721003  0.33247193  1.0
  Cl  Cl7  1  0.32486455  0.48278997  0.33247193  1.0
  Sb  Sb8  1  0.50000000  0.00000000  0.14946897  1.0
  Sb  Sb9  1  0.00000000  0.50000000  0.85053103  1.0
  P  P10  1  0.50000000  0.50000000  0.50000000  1.0
  P  P11  1  0.00000000  0.00000000  0.50000000  1.0
  F  F12  1  0.50000000  0.00000000  0.43430416  1.0
  F  F13  1  0.00000000  0.50000000  0.56569584  1.0
  F  F14  1  0.50000000  0.00000000  0.86254680  1.0
  F  F15  1  0.00000000  0.50000000  0.13745320  1.0
  F  F16  1  0.53636200  0.20862710  0.14785950  1.0
  F  F17  1  0.46363800  0.79137290  0.14785950  1.0
  F  F18  1  0.70862710  0.96363800  0.14785950  1.0
  F  F19  1  0.29137290  0.03636200  0.14785950  1.0
  F  F20  1  0.96363800  0.29137290  0.85214050  1.0
  F  F21  1  0.03636200  0.70862710  0.85214050  1.0
  F  F22  1  0.79137290  0.53636200  0.85214050  1.0
  F  F23  1  0.20862710  0.46363800  0.85214050  1.0
