# generated using pymatgen
data_LiFeSiO4
_symmetry_space_group_name_H-M   'P 1'
_cell_length_a   11.37675207
_cell_length_b   5.27526621
_cell_length_c   5.95330692
_cell_angle_alpha   90.00000000
_cell_angle_beta   90.00000000
_cell_angle_gamma   90.00000000
_symmetry_Int_Tables_number   1
_chemical_formula_structural   LiFeSiO4
_chemical_formula_sum   'Li4 Fe4 Si4 O16'
_cell_volume   357.29007113
_cell_formula_units_Z   4
loop_
 _symmetry_equiv_pos_site_id
 _symmetry_equiv_pos_as_xyz
  1  'x, y, z'
loop_
 _atom_site_type_symbol
 _atom_site_label
 _atom_site_symmetry_multiplicity
 _atom_site_fract_x
 _atom_site_fract_y
 _atom_site_fract_z
 _atom_site_occupancy
  Li  Li0  1  0.83113651  0.69045561  0.01338734  1.0
  Li  Li1  1  0.33113651  0.80954439  0.01338734  1.0
  Li  Li2  1  0.16886349  0.30954439  0.51338734  1.0
  Li  Li3  1  0.66886349  0.19045561  0.51338734  1.0
  Fe  Fe4  1  0.07495154  0.68663302  0.24329322  1.0
  Fe  Fe5  1  0.92504846  0.31336698  0.74329322  1.0
  Fe  Fe6  1  0.42504846  0.18663302  0.74329322  1.0
  Fe  Fe7  1  0.57495154  0.81336698  0.24329322  1.0
  Si  Si8  1  0.91465049  0.18724391  0.25036435  1.0
  Si  Si9  1  0.08534951  0.81275609  0.75036435  1.0
  Si  Si10  1  0.58534951  0.68724391  0.75036435  1.0
  Si  Si11  1  0.41465049  0.31275609  0.25036435  1.0
  O  O12  1  0.93590088  0.87891861  0.22397260  1.0
  O  O13  1  0.06409912  0.12108139  0.72397260  1.0
  O  O14  1  0.56409912  0.37891861  0.72397260  1.0
  O  O15  1  0.43590088  0.62108139  0.22397260  1.0
  O  O16  1  0.04211351  0.33527349  0.27211302  1.0
  O  O17  1  0.95788649  0.66472651  0.77211302  1.0
  O  O18  1  0.45788649  0.83527349  0.77211302  1.0
  O  O19  1  0.54211351  0.16472651  0.27211302  1.0
  O  O20  1  0.84636587  0.29056650  0.02381260  1.0
  O  O21  1  0.16435172  0.75379938  0.97755686  1.0
  O  O22  1  0.66435172  0.74620062  0.97755686  1.0
  O  O23  1  0.34636587  0.20943350  0.02381260  1.0
  O  O24  1  0.15363413  0.70943350  0.52381260  1.0
  O  O25  1  0.83564828  0.24620062  0.47755686  1.0
  O  O26  1  0.33564828  0.25379938  0.47755686  1.0
  O  O27  1  0.65363413  0.79056650  0.52381260  1.0
