# generated using pymatgen
data_Ca(BO3)2
_symmetry_space_group_name_H-M   'P 1'
_cell_length_a   6.88053129
_cell_length_b   6.88053129
_cell_length_c   4.47724188
_cell_angle_alpha   81.50108966
_cell_angle_beta   98.49891034
_cell_angle_gamma   92.17128452
_symmetry_Int_Tables_number   1
_chemical_formula_structural   Ca(BO3)2
_chemical_formula_sum   'Ca2 B4 O12'
_cell_volume   207.30274622
_cell_formula_units_Z   2
loop_
 _symmetry_equiv_pos_site_id
 _symmetry_equiv_pos_as_xyz
  1  'x, y, z'
loop_
 _atom_site_type_symbol
 _atom_site_label
 _atom_site_symmetry_multiplicity
 _atom_site_fract_x
 _atom_site_fract_y
 _atom_site_fract_z
 _atom_site_occupancy
  Ca  Ca0  1  0.72815744  -0.27184256  0.25000000  1.0
  Ca  Ca1  1  1.27184256  0.27184256  0.75000000  1.0
  B  B2  1  1.63188327  0.22610730  0.40218082  1.0
  B  B3  1  0.77389270  -0.63188327  0.90218082  1.0
  B  B4  1  1.22610730  0.63188327  0.09781918  1.0
  B  B5  1  0.36811673  -0.22610730  0.59781918  1.0
  O  O6  1  1.72658678  0.03906021  0.40850384  1.0
  O  O7  1  0.96093979  -0.72658678  0.90850384  1.0
  O  O8  1  1.03906021  0.72658678  0.09149616  1.0
  O  O9  1  0.27341322  -0.03906021  0.59149616  1.0
  O  O10  1  0.38227784  -0.28596477  0.30356553  1.0
  O  O11  1  1.28596477  0.61772216  0.80356553  1.0
  O  O12  1  0.71403523  -0.61772216  0.19643447  1.0
  O  O13  1  1.61772216  0.28596477  0.69643447  1.0
  O  O14  1  1.43638343  0.16954330  0.25476253  1.0
  O  O15  1  0.83045670  -0.43638343  0.75476253  1.0
  O  O16  1  1.16954330  0.43638343  0.24523747  1.0
  O  O17  1  0.56361657  -0.16954330  0.74523747  1.0
