# generated using pymatgen
data_CsSO2F
_symmetry_space_group_name_H-M   'P 1'
_cell_length_a   9.30204458
_cell_length_b   6.44574546
_cell_length_c   8.04731080
_cell_angle_alpha   90.00000000
_cell_angle_beta   90.00000000
_cell_angle_gamma   90.00000000
_symmetry_Int_Tables_number   1
_chemical_formula_structural   CsSO2F
_chemical_formula_sum   'Cs4 S4 O8 F4'
_cell_volume   482.50558276
_cell_formula_units_Z   4
loop_
 _symmetry_equiv_pos_site_id
 _symmetry_equiv_pos_as_xyz
  1  'x, y, z'
loop_
 _atom_site_type_symbol
 _atom_site_label
 _atom_site_symmetry_multiplicity
 _atom_site_fract_x
 _atom_site_fract_y
 _atom_site_fract_z
 _atom_site_occupancy
  Cs  Cs0  1  0.81531995  0.25000000  0.63166419  1.0
  Cs  Cs1  1  0.31531995  0.25000000  0.86833581  1.0
  Cs  Cs2  1  0.18468005  0.75000000  0.36833581  1.0
  Cs  Cs3  1  0.68468005  0.75000000  0.13166419  1.0
  S  S4  1  0.46137523  0.25000000  0.33233514  1.0
  S  S5  1  0.96137523  0.25000000  0.16766486  1.0
  S  S6  1  0.53862477  0.75000000  0.66766486  1.0
  S  S7  1  0.03862477  0.75000000  0.83233514  1.0
  O  O8  1  0.43027572  0.44105356  0.23515841  1.0
  O  O9  1  0.93027572  0.05894644  0.26484159  1.0
  O  O10  1  0.56972428  0.94105356  0.76484159  1.0
  O  O11  1  0.06972428  0.55894644  0.73515841  1.0
  O  O12  1  0.56972428  0.55894644  0.76484159  1.0
  O  O13  1  0.06972428  0.94105356  0.73515841  1.0
  O  O14  1  0.43027572  0.05894644  0.23515841  1.0
  O  O15  1  0.93027572  0.44105356  0.26484159  1.0
  F  F16  1  0.30828020  0.25000000  0.46908903  1.0
  F  F17  1  0.80828020  0.25000000  0.03091097  1.0
  F  F18  1  0.69171980  0.75000000  0.53091097  1.0
  F  F19  1  0.19171980  0.75000000  0.96908903  1.0
