# generated using pymatgen
data_SnH8(CI)4
_symmetry_space_group_name_H-M   'P 1'
_cell_length_a   9.93103498
_cell_length_b   9.93103498
_cell_length_c   7.60775954
_cell_angle_alpha   90.00000000
_cell_angle_beta   90.00000000
_cell_angle_gamma   90.00000000
_symmetry_Int_Tables_number   1
_chemical_formula_structural   SnH8(CI)4
_chemical_formula_sum   'Sn2 H16 C8 I8'
_cell_volume   750.31875258
_cell_formula_units_Z   2
loop_
 _symmetry_equiv_pos_site_id
 _symmetry_equiv_pos_as_xyz
  1  'x, y, z'
loop_
 _atom_site_type_symbol
 _atom_site_label
 _atom_site_symmetry_multiplicity
 _atom_site_fract_x
 _atom_site_fract_y
 _atom_site_fract_z
 _atom_site_occupancy
  Sn  Sn0  1  0.00000000  0.00000000  0.50000000  1.0
  Sn  Sn1  1  0.50000000  0.50000000  0.00000000  1.0
  H  H2  1  0.22676641  0.14830771  0.41321586  1.0
  H  H3  1  0.27323359  0.64830771  0.08678414  1.0
  H  H4  1  0.77323359  0.85169229  0.41321586  1.0
  H  H5  1  0.72676641  0.35169229  0.08678414  1.0
  H  H6  1  0.14830771  0.77323359  0.58678414  1.0
  H  H7  1  0.64830771  0.72676641  0.91321586  1.0
  H  H8  1  0.85169229  0.22676641  0.58678414  1.0
  H  H9  1  0.35169229  0.27323359  0.91321586  1.0
  H  H10  1  0.19014845  0.03365272  0.23657821  1.0
  H  H11  1  0.30985155  0.53365272  0.26342179  1.0
  H  H12  1  0.80985155  0.96634728  0.23657821  1.0
  H  H13  1  0.69014845  0.46634728  0.26342179  1.0
  H  H14  1  0.03365272  0.80985155  0.76342179  1.0
  H  H15  1  0.53365272  0.69014845  0.73657821  1.0
  H  H16  1  0.96634728  0.19014845  0.76342179  1.0
  H  H17  1  0.46634728  0.30985155  0.73657821  1.0
  C  C18  1  0.14702544  0.10182694  0.33467052  1.0
  C  C19  1  0.35297456  0.60182694  0.16532948  1.0
  C  C20  1  0.85297456  0.89817306  0.33467052  1.0
  C  C21  1  0.64702544  0.39817306  0.16532948  1.0
  C  C22  1  0.10182694  0.85297456  0.66532948  1.0
  C  C23  1  0.60182694  0.64702544  0.83467052  1.0
  C  C24  1  0.89817306  0.14702544  0.66532948  1.0
  C  C25  1  0.39817306  0.35297456  0.83467052  1.0
  I  I26  1  0.05828992  0.26627232  0.18611613  1.0
  I  I27  1  0.44171008  0.76627232  0.31388387  1.0
  I  I28  1  0.94171008  0.73372768  0.18611613  1.0
  I  I29  1  0.55828992  0.23372768  0.31388387  1.0
  I  I30  1  0.26627232  0.94171008  0.81388387  1.0
  I  I31  1  0.76627232  0.55828992  0.68611613  1.0
  I  I32  1  0.73372768  0.05828992  0.81388387  1.0
  I  I33  1  0.23372768  0.44171008  0.68611613  1.0
