# generated using pymatgen
data_Li6Br3N
_symmetry_space_group_name_H-M   'P 1'
_cell_length_a   6.21990058
_cell_length_b   6.33308574
_cell_length_c   11.04364035
_cell_angle_alpha   90.00000000
_cell_angle_beta   123.79121555
_cell_angle_gamma   90.00000000
_symmetry_Int_Tables_number   1
_chemical_formula_structural   Li6Br3N
_chemical_formula_sum   'Li12 Br6 N2'
_cell_volume   361.53349519
_cell_formula_units_Z   2
loop_
 _symmetry_equiv_pos_site_id
 _symmetry_equiv_pos_as_xyz
  1  'x, y, z'
loop_
 _atom_site_type_symbol
 _atom_site_label
 _atom_site_symmetry_multiplicity
 _atom_site_fract_x
 _atom_site_fract_y
 _atom_site_fract_z
 _atom_site_occupancy
  Li  Li0  1  0.29429435  0.07324284  0.19151814  1.0
  Li  Li1  1  0.29429435  0.42675716  0.69151814  1.0
  Li  Li2  1  0.70570565  0.57324284  0.30848186  1.0
  Li  Li3  1  0.70570565  0.92675716  0.80848186  1.0
  Li  Li4  1  0.91708631  0.76676701  0.08001080  1.0
  Li  Li5  1  0.91708631  0.73323299  0.58001080  1.0
  Li  Li6  1  0.08291369  0.26676701  0.41998920  1.0
  Li  Li7  1  0.08291369  0.23323299  0.91998920  1.0
  Li  Li8  1  0.78466959  0.17046156  0.03483238  1.0
  Li  Li9  1  0.78466959  0.32953844  0.53483238  1.0
  Li  Li10  1  0.21533041  0.67046156  0.46516762  1.0
  Li  Li11  1  0.21533041  0.82953844  0.96516762  1.0
  Br  Br12  1  0.24919842  0.48036562  0.25776081  1.0
  Br  Br13  1  0.24919842  0.01963438  0.75776081  1.0
  Br  Br14  1  0.75080158  0.98036562  0.24223919  1.0
  Br  Br15  1  0.75080158  0.51963438  0.74223919  1.0
  Br  Br16  1  0.50000000  0.00000000  0.50000000  1.0
  Br  Br17  1  0.50000000  0.50000000  -0.00000000  1.0
  N  N18  1  0.00000000  0.00000000  0.00000000  1.0
  N  N19  1  0.00000000  0.50000000  0.50000000  1.0
