# generated using pymatgen
data_Bi2MoO6
_symmetry_space_group_name_H-M   'P 1'
_cell_length_a   5.67443179
_cell_length_b   16.50273179
_cell_length_c   5.70203479
_cell_angle_alpha   90.00000000
_cell_angle_beta   90.00000000
_cell_angle_gamma   90.00000000
_symmetry_Int_Tables_number   1
_chemical_formula_structural   Bi2MoO6
_chemical_formula_sum   'Bi8 Mo4 O24'
_cell_volume   533.95921265
_cell_formula_units_Z   4
loop_
 _symmetry_equiv_pos_site_id
 _symmetry_equiv_pos_as_xyz
  1  'x, y, z'
loop_
 _atom_site_type_symbol
 _atom_site_label
 _atom_site_symmetry_multiplicity
 _atom_site_fract_x
 _atom_site_fract_y
 _atom_site_fract_z
 _atom_site_occupancy
  Bi  Bi0  1  0.52787443  0.07594054  0.52170535  1.0
  Bi  Bi1  1  0.02787443  0.92405946  0.52170535  1.0
  Bi  Bi2  1  0.47212557  0.92405946  0.02170535  1.0
  Bi  Bi3  1  0.97212557  0.07594054  0.02170535  1.0
  Bi  Bi4  1  0.97178452  0.57608960  0.50875118  1.0
  Bi  Bi5  1  0.47178452  0.42391040  0.50875118  1.0
  Bi  Bi6  1  0.02821548  0.42391040  1.00875118  1.0
  Bi  Bi7  1  0.52821548  0.57608960  1.00875118  1.0
  Mo  Mo8  1  0.00336415  0.25023806  0.47658400  1.0
  Mo  Mo9  1  0.50336415  0.74976194  0.47658400  1.0
  Mo  Mo10  1  0.99663585  0.74976194  0.97658400  1.0
  Mo  Mo11  1  0.49663585  0.25023806  0.97658400  1.0
  O  O12  1  0.60654464  0.64996574  0.36732802  1.0
  O  O13  1  0.10654464  0.35003426  0.36732802  1.0
  O  O14  1  0.39345536  0.35003426  0.86732802  1.0
  O  O15  1  0.89345536  0.64996574  0.86732802  1.0
  O  O16  1  0.70933175  0.28368789  0.18156649  1.0
  O  O17  1  0.20933175  0.71631211  0.18156649  1.0
  O  O18  1  0.29066825  0.71631211  0.68156649  1.0
  O  O19  1  0.79066825  0.28368789  0.68156649  1.0
  O  O20  1  0.73492420  -0.00099964  0.23464004  1.0
  O  O21  1  0.23492420  1.00099964  0.23464004  1.0
  O  O22  1  0.26507580  1.00099964  0.73464004  1.0
  O  O23  1  0.76507580  -0.00099964  0.73464004  1.0
  O  O24  1  0.76691186  0.49967247  0.22093903  1.0
  O  O25  1  0.26691186  0.50032753  0.22093903  1.0
  O  O26  1  0.23308814  0.50032753  0.72093903  1.0
  O  O27  1  0.73308814  0.49967247  0.72093903  1.0
  O  O28  1  0.88896568  0.15074708  0.37801104  1.0
  O  O29  1  0.38896568  0.84925292  0.37801104  1.0
  O  O30  1  0.11103432  0.84925292  0.87801104  1.0
  O  O31  1  0.61103432  0.15074708  0.87801104  1.0
  O  O32  1  0.26036194  0.21656394  0.15467485  1.0
  O  O33  1  0.76036194  0.78343606  0.15467485  1.0
  O  O34  1  0.73963806  0.78343606  0.65467485  1.0
  O  O35  1  0.23963806  0.21656394  0.65467485  1.0
