# generated using pymatgen
data_ZrO2
_symmetry_space_group_name_H-M   'P 1'
_cell_length_a   5.11406353
_cell_length_b   5.11425975
_cell_length_c   5.11399388
_cell_angle_alpha   90.00000000
_cell_angle_beta   89.98336931
_cell_angle_gamma   90.00000000
_symmetry_Int_Tables_number   1
_chemical_formula_structural   ZrO2
_chemical_formula_sum   'Zr4 O8'
_cell_volume   133.75471065
_cell_formula_units_Z   4
loop_
 _symmetry_equiv_pos_site_id
 _symmetry_equiv_pos_as_xyz
  1  'x, y, z'
loop_
 _atom_site_type_symbol
 _atom_site_label
 _atom_site_symmetry_multiplicity
 _atom_site_fract_x
 _atom_site_fract_y
 _atom_site_fract_z
 _atom_site_occupancy
  Zr  Zr0  1  0.50000000  0.00000000  0.50000000  1.0
  Zr  Zr1  1  0.50000000  0.50000000  0.00000000  1.0
  Zr  Zr2  1  0.00000000  0.00000000  0.00000000  1.0
  Zr  Zr3  1  -0.00000000  0.50000000  0.50000000  1.0
  O  O4  1  0.74998059  0.75001466  0.75009696  1.0
  O  O5  1  0.74998059  0.74998534  0.25009696  1.0
  O  O6  1  0.25001941  0.25001466  0.74990304  1.0
  O  O7  1  0.25001941  0.24998534  0.24990304  1.0
  O  O8  1  0.24997809  0.74995489  0.75001827  1.0
  O  O9  1  0.24997809  0.75004511  0.25001827  1.0
  O  O10  1  0.75002191  0.24995489  0.74998173  1.0
  O  O11  1  0.75002191  0.25004511  0.24998173  1.0
