# generated using pymatgen
data_CaMnGe
_symmetry_space_group_name_H-M   'P 1'
_cell_length_a   4.20581959
_cell_length_b   4.20581959
_cell_length_c   7.14540191
_cell_angle_alpha   90.00000000
_cell_angle_beta   90.00000000
_cell_angle_gamma   90.00000000
_symmetry_Int_Tables_number   1
_chemical_formula_structural   CaMnGe
_chemical_formula_sum   'Ca2 Mn2 Ge2'
_cell_volume   126.39443176
_cell_formula_units_Z   2
loop_
 _symmetry_equiv_pos_site_id
 _symmetry_equiv_pos_as_xyz
  1  'x, y, z'
loop_
 _atom_site_type_symbol
 _atom_site_label
 _atom_site_symmetry_multiplicity
 _atom_site_fract_x
 _atom_site_fract_y
 _atom_site_fract_z
 _atom_site_occupancy
  Ca  Ca0  1  0.50000000  0.00000000  0.66695482  1.0
  Ca  Ca1  1  0.00000000  0.50000000  0.33304518  1.0
  Mn  Mn2  1  0.00000000  0.00000000  0.00000000  1.0
  Mn  Mn3  1  0.50000000  0.50000000  0.00000000  1.0
  Ge  Ge4  1  0.50000000  0.00000000  0.20427524  1.0
  Ge  Ge5  1  0.00000000  0.50000000  0.79572476  1.0
