# generated using pymatgen
data_Ta11(FeSe4)2
_symmetry_space_group_name_H-M   'P 1'
_cell_length_a   12.21588394
_cell_length_b   19.69053348
_cell_length_c   3.41789182
_cell_angle_alpha   90.00000000
_cell_angle_beta   90.00000000
_cell_angle_gamma   90.00000000
_symmetry_Int_Tables_number   1
_chemical_formula_structural   Ta11(FeSe4)2
_chemical_formula_sum   'Ta22 Fe4 Se16'
_cell_volume   822.13037336
_cell_formula_units_Z   2
loop_
 _symmetry_equiv_pos_site_id
 _symmetry_equiv_pos_as_xyz
  1  'x, y, z'
loop_
 _atom_site_type_symbol
 _atom_site_label
 _atom_site_symmetry_multiplicity
 _atom_site_fract_x
 _atom_site_fract_y
 _atom_site_fract_z
 _atom_site_occupancy
  Ta  Ta0  1  0.44407689  0.75643105  0.50000000  1.0
  Ta  Ta1  1  0.94407689  0.74356895  0.00000000  1.0
  Ta  Ta2  1  0.55592311  0.24356895  0.50000000  1.0
  Ta  Ta3  1  0.05592311  0.25643105  0.00000000  1.0
  Ta  Ta4  1  0.17825640  0.55427647  0.50000000  1.0
  Ta  Ta5  1  0.67825640  0.94572353  0.00000000  1.0
  Ta  Ta6  1  0.82174360  0.44572353  0.50000000  1.0
  Ta  Ta7  1  0.32174360  0.05427647  0.00000000  1.0
  Ta  Ta8  1  0.17433295  0.14756840  0.50000000  1.0
  Ta  Ta9  1  0.67433295  0.35243160  0.00000000  1.0
  Ta  Ta10  1  0.82566705  0.85243160  0.50000000  1.0
  Ta  Ta11  1  0.32566705  0.64756840  0.00000000  1.0
  Ta  Ta12  1  0.14941477  0.71210755  0.50000000  1.0
  Ta  Ta13  1  0.64941477  0.78789245  0.00000000  1.0
  Ta  Ta14  1  0.85058523  0.28789245  0.50000000  1.0
  Ta  Ta15  1  0.35058523  0.21210755  0.00000000  1.0
  Ta  Ta16  1  0.93610574  0.61605102  0.50000000  1.0
  Ta  Ta17  1  0.43610574  0.88394898  0.00000000  1.0
  Ta  Ta18  1  0.06389426  0.38394898  0.50000000  1.0
  Ta  Ta19  1  0.56389426  0.11605102  0.00000000  1.0
  Ta  Ta20  1  0.50000000  0.00000000  0.50000000  1.0
  Ta  Ta21  1  0.00000000  0.50000000  0.00000000  1.0
  Fe  Fe22  1  0.40818803  0.12672303  0.50000000  1.0
  Fe  Fe23  1  0.90818803  0.37327697  0.00000000  1.0
  Fe  Fe24  1  0.59181197  0.87327697  0.50000000  1.0
  Fe  Fe25  1  0.09181197  0.62672303  0.00000000  1.0
  Se  Se26  1  0.38807865  0.55417089  0.50000000  1.0
  Se  Se27  1  0.88807865  0.94582911  0.00000000  1.0
  Se  Se28  1  0.61192135  0.44582911  0.50000000  1.0
  Se  Se29  1  0.11192135  0.05417089  0.00000000  1.0
  Se  Se30  1  0.29504053  0.94440570  0.50000000  1.0
  Se  Se31  1  0.79504053  0.55559430  0.00000000  1.0
  Se  Se32  1  0.70495947  0.05559430  0.50000000  1.0
  Se  Se33  1  0.20495947  0.44440570  0.00000000  1.0
  Se  Se34  1  0.03893862  0.82627014  0.50000000  1.0
  Se  Se35  1  0.53893862  0.67372986  0.00000000  1.0
  Se  Se36  1  0.96106138  0.17372986  0.50000000  1.0
  Se  Se37  1  0.46106138  0.32627014  0.00000000  1.0
  Se  Se38  1  0.78143960  0.71553127  0.50000000  1.0
  Se  Se39  1  0.28143960  0.78446873  0.00000000  1.0
  Se  Se40  1  0.21856040  0.28446873  0.50000000  1.0
  Se  Se41  1  0.71856040  0.21553127  0.00000000  1.0
