# generated using pymatgen
data_NaNiSO4F
_symmetry_space_group_name_H-M   'P 1'
_cell_length_a   6.71031768
_cell_length_b   8.64552187
_cell_length_c   7.20902141
_cell_angle_alpha   90.00000000
_cell_angle_beta   114.88047243
_cell_angle_gamma   90.00000000
_symmetry_Int_Tables_number   1
_chemical_formula_structural   NaNiSO4F
_chemical_formula_sum   'Na4 Ni4 S4 O16 F4'
_cell_volume   379.40901694
_cell_formula_units_Z   4
loop_
 _symmetry_equiv_pos_site_id
 _symmetry_equiv_pos_as_xyz
  1  'x, y, z'
loop_
 _atom_site_type_symbol
 _atom_site_label
 _atom_site_symmetry_multiplicity
 _atom_site_fract_x
 _atom_site_fract_y
 _atom_site_fract_z
 _atom_site_occupancy
  Na  Na0  1  0.74979507  0.91364574  0.24216345  1.0
  Na  Na1  1  0.74979507  0.58635426  0.74216345  1.0
  Na  Na2  1  0.25020493  0.41364574  0.25783655  1.0
  Na  Na3  1  0.25020493  0.08635426  0.75783655  1.0
  Ni  Ni4  1  0.75066909  0.24934132  0.50024361  1.0
  Ni  Ni5  1  0.75066909  0.25065868  1.00024362  1.0
  Ni  Ni6  1  0.24933091  0.74934132  -0.00024361  1.0
  Ni  Ni7  1  0.24933091  0.75065868  0.49975639  1.0
  S  S8  1  0.25038258  0.06669124  0.24974898  1.0
  S  S9  1  0.25038258  0.43330876  0.74974898  1.0
  S  S10  1  0.74961742  0.56669124  0.25025102  1.0
  S  S11  1  0.74961742  0.93330876  0.75025102  1.0
  O  O12  1  0.85516212  0.46782527  0.14496521  1.0
  O  O13  1  0.85516212  0.03217473  0.64496521  1.0
  O  O14  1  0.14483788  0.96782527  0.35503479  1.0
  O  O15  1  0.14483788  0.53217473  0.85503479  1.0
  O  O16  1  0.64591835  0.46814602  0.35782516  1.0
  O  O17  1  0.64591835  0.03185398  0.85782516  1.0
  O  O18  1  0.35408165  0.96814602  0.14217484  1.0
  O  O19  1  0.35408165  0.53185398  0.64217484  1.0
  O  O20  1  0.41991282  0.16888261  0.40449242  1.0
  O  O21  1  0.41991282  0.33111739  0.90449242  1.0
  O  O22  1  0.58008718  0.66888261  0.09550758  1.0
  O  O23  1  0.58008718  0.83111739  0.59550758  1.0
  O  O24  1  0.91775309  0.67071413  0.40364535  1.0
  O  O25  1  0.91775309  0.82928587  0.90364535  1.0
  O  O26  1  0.08224691  0.17071413  0.09635465  1.0
  O  O27  1  0.08224691  0.32928587  0.59635465  1.0
  F  F28  1  0.75028257  0.16491538  0.24991700  1.0
  F  F29  1  0.75028257  0.33508462  0.74991700  1.0
  F  F30  1  0.24971743  0.66491538  0.25008300  1.0
  F  F31  1  0.24971743  0.83508462  0.75008300  1.0
