# generated using pymatgen
data_KFe(SO4)2
_symmetry_space_group_name_H-M   'P 1'
_cell_length_a   4.94509426
_cell_length_b   4.94509426
_cell_length_c   8.07349796
_cell_angle_alpha   86.55515645
_cell_angle_beta   93.44484355
_cell_angle_gamma   115.98437236
_symmetry_Int_Tables_number   1
_chemical_formula_structural   KFe(SO4)2
_chemical_formula_sum   'K1 Fe1 S2 O8'
_cell_volume   177.02546923
_cell_formula_units_Z   1
loop_
 _symmetry_equiv_pos_site_id
 _symmetry_equiv_pos_as_xyz
  1  'x, y, z'
loop_
 _atom_site_type_symbol
 _atom_site_label
 _atom_site_symmetry_multiplicity
 _atom_site_fract_x
 _atom_site_fract_y
 _atom_site_fract_z
 _atom_site_occupancy
  K  K0  1  0.00000000  -0.00000000  0.50000000  1.0
  O  O1  1  0.69071902  -0.69071902  0.62986995  1.0
  O  O2  1  0.30928098  -0.30928098  0.37013005  1.0
  O  O3  1  0.76803545  -0.76803545  0.93166711  1.0
  O  O4  1  0.23196455  -0.23196455  0.06833289  1.0
  O  O5  1  1.30031447  0.23426440  0.82037108  1.0
  O  O6  1  0.76573560  -0.30031447  0.82037108  1.0
  O  O7  1  1.23426440  0.30031447  0.17962892  1.0
  O  O8  1  0.69968553  -0.23426440  0.17962892  1.0
  Fe  Fe9  1  0.00000000  0.00000000  0.00000000  1.0
  S  S10  1  0.63529026  -0.63529026  0.79771890  1.0
  S  S11  1  0.36470974  -0.36470974  0.20228110  1.0
