# generated using pymatgen
data_BaMgSiO4
_symmetry_space_group_name_H-M   'P 1'
_cell_length_a   9.23790021
_cell_length_b   9.23790021
_cell_length_c   8.83587746
_cell_angle_alpha   90.00000000
_cell_angle_beta   90.00000000
_cell_angle_gamma   120.00000000
_symmetry_Int_Tables_number   1
_chemical_formula_structural   BaMgSiO4
_chemical_formula_sum   'Ba6 Mg6 Si6 O24'
_cell_volume   653.02055098
_cell_formula_units_Z   6
loop_
 _symmetry_equiv_pos_site_id
 _symmetry_equiv_pos_as_xyz
  1  'x, y, z'
loop_
 _atom_site_type_symbol
 _atom_site_label
 _atom_site_symmetry_multiplicity
 _atom_site_fract_x
 _atom_site_fract_y
 _atom_site_fract_z
 _atom_site_occupancy
  Ba  Ba0  1  0.33333333  0.66666667  0.02041555  1.0
  Ba  Ba1  1  0.66666667  0.33333333  0.52041555  1.0
  Ba  Ba2  1  0.33333333  0.66666667  0.50730529  1.0
  Ba  Ba3  1  0.66666667  0.33333333  0.00730529  1.0
  Ba  Ba4  1  0.00000000  0.00000000  0.00028660  1.0
  Ba  Ba5  1  0.00000000  0.00000000  0.50028660  1.0
  Mg  Mg6  1  0.33342523  0.01367301  0.21047971  1.0
  Mg  Mg7  1  0.01367301  0.68024778  0.71047971  1.0
  Mg  Mg8  1  0.68024777  0.66657477  0.21047971  1.0
  Mg  Mg9  1  0.98632699  0.31975222  0.21047971  1.0
  Mg  Mg10  1  0.66657477  0.98632699  0.71047971  1.0
  Mg  Mg11  1  0.31975223  0.33342523  0.71047971  1.0
  Si  Si12  1  0.01305613  0.67363497  0.31583682  1.0
  Si  Si13  1  0.67363497  0.66057884  0.81583682  1.0
  Si  Si14  1  0.66057884  0.98694387  0.31583682  1.0
  Si  Si15  1  0.32636503  0.33942116  0.31583682  1.0
  Si  Si16  1  0.98694387  0.32636503  0.81583682  1.0
  Si  Si17  1  0.33942116  0.01305613  0.81583682  1.0
  O  O18  1  0.35238790  0.06703488  0.99574909  1.0
  O  O19  1  0.06703488  0.71464698  0.49574909  1.0
  O  O20  1  0.71464698  0.64761210  0.99574909  1.0
  O  O21  1  0.93296512  0.28535302  0.99574909  1.0
  O  O22  1  0.64761210  0.93296512  0.49574909  1.0
  O  O23  1  0.28535302  0.35238790  0.49574909  1.0
  O  O24  1  0.46705919  0.90682022  0.25274867  1.0
  O  O25  1  0.90682022  0.43976103  0.75274867  1.0
  O  O26  1  0.43976103  0.53294081  0.25274867  1.0
  O  O27  1  0.09317978  0.56023897  0.25274867  1.0
  O  O28  1  0.53294081  0.09317978  0.75274867  1.0
  O  O29  1  0.56023897  0.46705919  0.75274867  1.0
  O  O30  1  0.09286457  0.85627328  0.22995243  1.0
  O  O31  1  0.85627328  0.76340871  0.72995243  1.0
  O  O32  1  0.76340871  0.90713543  0.22995243  1.0
  O  O33  1  0.14372672  0.23659129  0.22995243  1.0
  O  O34  1  0.90713543  0.14372672  0.72995243  1.0
  O  O35  1  0.23659129  0.09286457  0.72995243  1.0
  O  O36  1  0.80755098  0.57230731  0.30189746  1.0
  O  O37  1  0.57230731  0.76475633  0.80189746  1.0
  O  O38  1  0.76475633  0.19244902  0.30189746  1.0
  O  O39  1  0.42769269  0.23524367  0.30189746  1.0
  O  O40  1  0.19244902  0.42769269  0.80189746  1.0
  O  O41  1  0.23524367  0.80755098  0.80189746  1.0
