# generated using pymatgen
data_Ni(BMo)3
_symmetry_space_group_name_H-M   'P 1'
_cell_length_a   4.51458306
_cell_length_b   4.51458306
_cell_length_c   10.77670707
_cell_angle_alpha   90.00000000
_cell_angle_beta   90.00000000
_cell_angle_gamma   138.62942694
_symmetry_Int_Tables_number   1
_chemical_formula_structural   Ni(BMo)3
_chemical_formula_sum   'Ni2 B6 Mo6'
_cell_volume   145.16922351
_cell_formula_units_Z   2
loop_
 _symmetry_equiv_pos_site_id
 _symmetry_equiv_pos_as_xyz
  1  'x, y, z'
loop_
 _atom_site_type_symbol
 _atom_site_label
 _atom_site_symmetry_multiplicity
 _atom_site_fract_x
 _atom_site_fract_y
 _atom_site_fract_z
 _atom_site_occupancy
  Ni  Ni0  1  0.00000000  0.00000000  0.00000000  1.0
  Ni  Ni1  1  0.00000000  0.00000000  0.50000000  1.0
  B  B2  1  0.41136013  0.58863987  0.89544656  1.0
  B  B3  1  0.41136013  0.58863987  0.60455344  1.0
  B  B4  1  -0.41136013  0.41136013  0.39544656  1.0
  B  B5  1  -0.41136013  0.41136013  0.10455344  1.0
  B  B6  1  0.29315991  0.70684009  0.75000000  1.0
  B  B7  1  -0.29315991  0.29315991  0.25000000  1.0
  Mo  Mo8  1  0.28686476  0.71313524  0.39124180  1.0
  Mo  Mo9  1  0.28686476  0.71313524  0.10875820  1.0
  Mo  Mo10  1  -0.28686476  0.28686476  0.89124180  1.0
  Mo  Mo11  1  -0.28686476  0.28686476  0.60875820  1.0
  Mo  Mo12  1  -0.00110101  0.00110101  0.75000000  1.0
  Mo  Mo13  1  0.00110101  -0.00110101  0.25000000  1.0
