# generated using pymatgen
data_K3CrO4
_symmetry_space_group_name_H-M   'P 1'
_cell_length_a   8.36208803
_cell_length_b   8.36208803
_cell_length_c   8.36208803
_cell_angle_alpha   90.00000000
_cell_angle_beta   90.00000000
_cell_angle_gamma   90.00000000
_symmetry_Int_Tables_number   1
_chemical_formula_structural   K3CrO4
_chemical_formula_sum   'K12 Cr4 O16'
_cell_volume   584.71496072
_cell_formula_units_Z   4
loop_
 _symmetry_equiv_pos_site_id
 _symmetry_equiv_pos_as_xyz
  1  'x, y, z'
loop_
 _atom_site_type_symbol
 _atom_site_label
 _atom_site_symmetry_multiplicity
 _atom_site_fract_x
 _atom_site_fract_y
 _atom_site_fract_z
 _atom_site_occupancy
  K  K0  1  0.76127336  0.26127336  0.23872664  1.0
  K  K1  1  0.26127336  0.23872664  0.76127336  1.0
  K  K2  1  0.23872664  0.76127336  0.26127336  1.0
  K  K3  1  0.73872664  0.73872664  0.73872664  1.0
  K  K4  1  0.52945690  0.02945690  0.47054310  1.0
  K  K5  1  0.02945690  0.47054310  0.52945690  1.0
  K  K6  1  0.47054310  0.52945690  0.02945690  1.0
  K  K7  1  -0.02945690  -0.02945690  -0.02945690  1.0
  K  K8  1  0.28374393  0.78374393  0.71625607  1.0
  K  K9  1  0.78374393  0.71625607  0.28374393  1.0
  K  K10  1  0.71625607  0.28374393  0.78374393  1.0
  K  K11  1  0.21625607  0.21625607  0.21625607  1.0
  Cr  Cr12  1  0.98600456  0.48600456  0.01399544  1.0
  Cr  Cr13  1  0.48600456  0.01399544  0.98600456  1.0
  Cr  Cr14  1  0.01399544  0.98600456  0.48600456  1.0
  Cr  Cr15  1  0.51399544  0.51399544  0.51399544  1.0
  O  O16  1  0.53853899  0.99582655  0.78768340  1.0
  O  O17  1  1.03853899  0.50417345  0.21231660  1.0
  O  O18  1  0.49582655  0.71231660  0.46146101  1.0
  O  O19  1  0.99582655  0.78768340  0.53853899  1.0
  O  O20  1  0.21231660  1.03853899  0.50417345  1.0
  O  O21  1  0.71231660  0.46146101  0.49582655  1.0
  O  O22  1  0.46146101  0.49582655  0.71231660  1.0
  O  O23  1  -0.03853899  0.00417345  0.28768340  1.0
  O  O24  1  0.50417345  0.21231660  1.03853899  1.0
  O  O25  1  0.00417345  0.28768340  -0.03853899  1.0
  O  O26  1  0.78768340  0.53853899  0.99582655  1.0
  O  O27  1  0.28768340  -0.03853899  0.00417345  1.0
  O  O28  1  0.10291969  0.60291969  0.89708031  1.0
  O  O29  1  0.60291969  0.89708031  0.10291969  1.0
  O  O30  1  0.89708031  0.10291969  0.60291969  1.0
  O  O31  1  0.39708031  0.39708031  0.39708031  1.0
