# generated using pymatgen
data_Ni3Ag2P3HO12
_symmetry_space_group_name_H-M   'P 1'
_cell_length_a   9.19675580
_cell_length_b   9.19675580
_cell_length_c   9.19675580
_cell_angle_alpha   85.95458611
_cell_angle_beta   138.12826817
_cell_angle_gamma   109.02048569
_symmetry_Int_Tables_number   1
_chemical_formula_structural   Ni3Ag2P3HO12
_chemical_formula_sum   'Ni6 Ag4 P6 H2 O24'
_cell_volume   472.23444217
_cell_formula_units_Z   2
loop_
 _symmetry_equiv_pos_site_id
 _symmetry_equiv_pos_as_xyz
  1  'x, y, z'
loop_
 _atom_site_type_symbol
 _atom_site_label
 _atom_site_symmetry_multiplicity
 _atom_site_fract_x
 _atom_site_fract_y
 _atom_site_fract_z
 _atom_site_occupancy
  Ag  Ag0  1  1.08376107  1.24129981  1.34246126  1.0
  Ag  Ag1  1  0.89883856  0.74129981  0.65753874  1.0
  Ag  Ag2  1  -0.00276460  -0.00276460  0.00000000  1.0
  Ag  Ag3  1  0.99723540  0.49723540  0.50000000  1.0
  H  H4  1  0.72591095  1.43684336  0.78906759  1.0
  H  H5  1  1.64777577  0.93684336  1.21093241  1.0
  P  P6  1  0.99925255  1.17113641  1.67971412  1.0
  P  P7  1  1.49142229  1.67113641  1.67188387  1.0
  P  P8  1  0.99925255  0.81953842  0.32811613  1.0
  P  P9  1  0.49142229  0.31953842  0.32028588  1.0
  P  P10  1  1.42544279  0.73823746  1.18720533  1.0
  P  P11  1  0.55103213  1.23823746  0.81279467  1.0
  Ni  Ni12  1  0.49651196  0.49651196  -0.00000000  1.0
  Ni  Ni13  1  1.49651196  0.99651196  0.50000000  1.0
  Ni  Ni14  1  1.00534567  1.62614420  1.12522370  1.0
  Ni  Ni15  1  0.50092050  1.12614420  1.12079853  1.0
  Ni  Ni16  1  1.00534567  0.38012197  0.87920147  1.0
  Ni  Ni17  1  1.50092050  0.88012197  0.87477630  1.0
  O  O18  1  1.26743477  1.57493091  1.42119383  1.0
  O  O19  1  1.15373708  1.07493091  1.80749614  1.0
  O  O20  1  0.26743477  0.34624094  0.19250386  1.0
  O  O21  1  1.15373708  0.84624094  0.57880617  1.0
  O  O22  1  0.55117391  0.83303062  0.40822736  1.0
  O  O23  1  1.42480326  1.33303062  1.78185671  1.0
  O  O24  1  0.55117391  0.64294655  0.21814329  1.0
  O  O25  1  1.42480326  1.14294655  1.59177264  1.0
  O  O26  1  0.80215452  1.38433343  0.91782109  1.0
  O  O27  1  1.46651233  0.88433343  1.08217891  1.0
  O  O28  1  1.15050284  0.64284617  1.00765667  1.0
  O  O29  1  0.63518950  1.14284617  0.99234333  1.0
  O  O30  1  1.14530429  1.85491378  1.28372784  1.0
  O  O31  1  0.57118593  1.35491378  1.20960948  1.0
  O  O32  1  1.14530429  0.36157645  0.79039052  1.0
  O  O33  1  1.57118593  0.86157645  0.71627216  1.0
  O  O34  1  0.84913497  1.63086744  1.20763219  1.0
  O  O35  1  0.42323525  1.13086744  1.28173247  1.0
  O  O36  1  0.84913497  0.14150278  0.71826753  1.0
  O  O37  1  1.42323525  0.64150278  0.79236781  1.0
  O  O38  1  0.84398837  1.13905843  1.42810486  1.0
  O  O39  1  1.71095357  1.63905843  1.79507006  1.0
  O  O40  1  0.84398837  0.91588351  0.20492994  1.0
  O  O41  1  0.71095357  0.41588351  0.57189514  1.0
