# generated using pymatgen
data_Cs2KMn3F12
_symmetry_space_group_name_H-M   'P 1'
_cell_length_a   7.75743341
_cell_length_b   7.75743341
_cell_length_c   12.94860365
_cell_angle_alpha   73.90601167
_cell_angle_beta   106.09398833
_cell_angle_gamma   119.94656096
_symmetry_Int_Tables_number   1
_chemical_formula_structural   Cs2KMn3F12
_chemical_formula_sum   'Cs4 K2 Mn6 F24'
_cell_volume   639.64060794
_cell_formula_units_Z   2
loop_
 _symmetry_equiv_pos_site_id
 _symmetry_equiv_pos_as_xyz
  1  'x, y, z'
loop_
 _atom_site_type_symbol
 _atom_site_label
 _atom_site_symmetry_multiplicity
 _atom_site_fract_x
 _atom_site_fract_y
 _atom_site_fract_z
 _atom_site_occupancy
  Cs  Cs0  1  0.60173865  -0.02248852  0.18049143  1.0
  Cs  Cs1  1  1.02248852  0.39826135  0.68049143  1.0
  Cs  Cs2  1  0.97751148  -0.39826135  0.31950857  1.0
  Cs  Cs3  1  1.39826135  0.02248852  0.81950857  1.0
  K  K4  1  1.27210629  0.27210629  0.25000000  1.0
  K  K5  1  0.72789371  -0.27210629  0.75000000  1.0
  Mn  Mn6  1  1.50000000  -0.00000000  0.50000000  1.0
  Mn  Mn7  1  1.00000000  -0.50000000  0.00000000  1.0
  Mn  Mn8  1  0.50000000  -0.50000000  0.50000000  1.0
  Mn  Mn9  1  0.50000000  -0.50000000  0.00000000  1.0
  Mn  Mn10  1  0.00000000  -0.00000000  0.50000000  1.0
  Mn  Mn11  1  -0.00000000  0.00000000  -0.00000000  1.0
  F  F12  1  0.95685006  -0.00979644  0.35459926  1.0
  F  F13  1  1.00979644  0.04314994  0.85459926  1.0
  F  F14  1  0.99020356  -0.04314994  0.14540074  1.0
  F  F15  1  1.04314994  0.00979644  0.64540074  1.0
  F  F16  1  0.72102560  -0.17966801  0.97322379  1.0
  F  F17  1  1.17966801  0.27897440  0.47322379  1.0
  F  F18  1  0.82033199  -0.27897440  0.52677621  1.0
  F  F19  1  1.27897440  0.17966801  0.02677621  1.0
  F  F20  1  0.46135350  -0.39981721  0.35326122  1.0
  F  F21  1  1.39981721  0.53864650  0.85326122  1.0
  F  F22  1  0.60018279  -0.53864650  0.14673878  1.0
  F  F23  1  1.53864650  0.39981721  0.64673878  1.0
  F  F24  1  1.75811704  0.08555471  0.47072472  1.0
  F  F25  1  0.91444529  -0.75811704  0.97072472  1.0
  F  F26  1  1.08555471  0.75811704  0.02927528  1.0
  F  F27  1  0.24188296  -0.08555471  0.52927528  1.0
  F  F28  1  0.39511710  -0.01067341  0.35363060  1.0
  F  F29  1  1.01067341  0.60488290  0.85363060  1.0
  F  F30  1  0.98932659  -0.60488290  0.14636940  1.0
  F  F31  1  1.60488290  0.01067341  0.64636940  1.0
  F  F32  1  1.57065959  0.32323173  0.46634363  1.0
  F  F33  1  0.67676827  -0.57065959  0.96634363  1.0
  F  F34  1  1.32323173  0.57065959  0.03365637  1.0
  F  F35  1  0.42934041  -0.32323173  0.53365637  1.0
