# generated using pymatgen
data_KO2
_symmetry_space_group_name_H-M   'P 1'
_cell_length_a   4.38150643
_cell_length_b   4.38150643
_cell_length_c   4.38150643
_cell_angle_alpha   126.41271658
_cell_angle_beta   126.41271658
_cell_angle_gamma   79.21086557
_symmetry_Int_Tables_number   1
_chemical_formula_structural   KO2
_chemical_formula_sum   'K1 O2'
_cell_volume   52.67478226
_cell_formula_units_Z   1
loop_
 _symmetry_equiv_pos_site_id
 _symmetry_equiv_pos_as_xyz
  1  'x, y, z'
loop_
 _atom_site_type_symbol
 _atom_site_label
 _atom_site_symmetry_multiplicity
 _atom_site_fract_x
 _atom_site_fract_y
 _atom_site_fract_z
 _atom_site_occupancy
  K  K0  1  0.00000000  0.00000000  0.00000000  1.0
  O  O1  1  0.59972100  0.59972100  1.00000000  1.0
  O  O2  1  0.40027900  0.40027900  0.00000000  1.0
