# generated using pymatgen
data_NaZnH2C3O7
_symmetry_space_group_name_H-M   'P 1'
_cell_length_a   5.97469943
_cell_length_b   15.56089083
_cell_length_c   7.33287019
_cell_angle_alpha   90.00000000
_cell_angle_beta   101.23127609
_cell_angle_gamma   90.00000000
_symmetry_Int_Tables_number   1
_chemical_formula_structural   NaZnH2C3O7
_chemical_formula_sum   'Na4 Zn4 H8 C12 O28'
_cell_volume   668.69282128
_cell_formula_units_Z   4
loop_
 _symmetry_equiv_pos_site_id
 _symmetry_equiv_pos_as_xyz
  1  'x, y, z'
loop_
 _atom_site_type_symbol
 _atom_site_label
 _atom_site_symmetry_multiplicity
 _atom_site_fract_x
 _atom_site_fract_y
 _atom_site_fract_z
 _atom_site_occupancy
  Na  Na0  1  0.98787295  0.81870074  0.30829788  1.0
  Na  Na1  1  0.01212705  0.31870074  0.19170212  1.0
  Na  Na2  1  0.01212705  0.18129926  0.69170212  1.0
  Na  Na3  1  0.98787295  0.68129926  0.80829788  1.0
  Zn  Zn4  1  0.78404894  0.90002281  0.71056630  1.0
  Zn  Zn5  1  0.21595106  0.40002281  0.78943370  1.0
  Zn  Zn6  1  0.21595106  0.09997719  0.28943370  1.0
  Zn  Zn7  1  0.78404894  0.59997719  0.21056630  1.0
  H  H8  1  0.67447207  0.97339170  0.37319353  1.0
  H  H9  1  0.32552793  0.47339170  0.12680647  1.0
  H  H10  1  0.32552793  0.02660830  0.62680647  1.0
  H  H11  1  0.67447207  0.52660830  0.87319353  1.0
  H  H12  1  0.56518539  0.87777472  0.36631353  1.0
  H  H13  1  0.43481461  0.37777472  0.13368647  1.0
  H  H14  1  0.43481461  0.12222528  0.63368647  1.0
  H  H15  1  0.56518539  0.62222528  0.86631353  1.0
  C  C16  1  0.31098182  0.84962996  0.71019311  1.0
  C  C17  1  0.68901818  0.34962996  0.78980689  1.0
  C  C18  1  0.68901818  0.15037004  0.28980689  1.0
  C  C19  1  0.31098182  0.65037004  0.21019311  1.0
  C  C20  1  0.46464877  0.76805086  0.75258834  1.0
  C  C21  1  0.53535123  0.26805086  0.74741166  1.0
  C  C22  1  0.53535123  0.23194914  0.24741166  1.0
  C  C23  1  0.46464877  0.73194914  0.25258834  1.0
  C  C24  1  0.99302335  0.03761403  0.93027009  1.0
  C  C25  1  0.00697665  0.53761403  0.56972991  1.0
  C  C26  1  0.00697665  0.96238597  0.06972991  1.0
  C  C27  1  0.99302335  0.46238597  0.43027009  1.0
  O  O28  1  0.89161263  0.02428868  0.76387482  1.0
  O  O29  1  0.10838737  0.52428868  0.73612518  1.0
  O  O30  1  0.10838737  0.97571132  0.23612518  1.0
  O  O31  1  0.89161263  0.47571132  0.26387482  1.0
  O  O32  1  0.08420796  0.10770343  0.99069104  1.0
  O  O33  1  0.91579204  0.60770343  0.50930896  1.0
  O  O34  1  0.91579204  0.89229657  0.00930896  1.0
  O  O35  1  0.08420796  0.39229657  0.49069104  1.0
  O  O36  1  0.70250774  0.91376119  0.42013146  1.0
  O  O37  1  0.29749226  0.41376119  0.07986854  1.0
  O  O38  1  0.29749226  0.08623881  0.57986854  1.0
  O  O39  1  0.70250774  0.58623881  0.92013146  1.0
  O  O40  1  0.37649844  0.70039322  0.79980490  1.0
  O  O41  1  0.62350156  0.20039322  0.70019510  1.0
  O  O42  1  0.62350156  0.29960678  0.20019510  1.0
  O  O43  1  0.37649844  0.79960678  0.29980490  1.0
  O  O44  1  0.09804017  0.83660452  0.67374751  1.0
  O  O45  1  0.90195983  0.33660452  0.82625249  1.0
  O  O46  1  0.90195983  0.16339548  0.32625249  1.0
  O  O47  1  0.09804017  0.66339548  0.17374751  1.0
  O  O48  1  0.41447971  0.92089598  0.71445767  1.0
  O  O49  1  0.58552029  0.42089598  0.78554233  1.0
  O  O50  1  0.58552029  0.07910402  0.28554233  1.0
  O  O51  1  0.41447971  0.57910402  0.21445767  1.0
  O  O52  1  0.67182864  0.77616423  0.73639329  1.0
  O  O53  1  0.32817136  0.27616423  0.76360671  1.0
  O  O54  1  0.32817136  0.22383577  0.26360671  1.0
  O  O55  1  0.67182864  0.72383577  0.23639329  1.0
