# generated using pymatgen
data_Cr(Bi3O5)4
_symmetry_space_group_name_H-M   'P 1'
_cell_length_a   8.94539822
_cell_length_b   8.94539822
_cell_length_c   8.94539822
_cell_angle_alpha   109.47122063
_cell_angle_beta   109.47122063
_cell_angle_gamma   109.47122063
_symmetry_Int_Tables_number   1
_chemical_formula_structural   Cr(Bi3O5)4
_chemical_formula_sum   'Cr1 Bi12 O20'
_cell_volume   551.03241242
_cell_formula_units_Z   1
loop_
 _symmetry_equiv_pos_site_id
 _symmetry_equiv_pos_as_xyz
  1  'x, y, z'
loop_
 _atom_site_type_symbol
 _atom_site_label
 _atom_site_symmetry_multiplicity
 _atom_site_fract_x
 _atom_site_fract_y
 _atom_site_fract_z
 _atom_site_occupancy
  Cr  Cr0  1  0.00000000  0.00000000  0.00000000  1.0
  Bi  Bi1  1  0.49575621  0.33578920  0.19454970  1.0
  Bi  Bi2  1  1.14123950  1.30120651  0.80545030  1.0
  Bi  Bi3  1  0.19454970  0.49575621  0.33578920  1.0
  Bi  Bi4  1  1.15996701  0.85876050  1.66421080  1.0
  Bi  Bi5  1  0.33578920  0.19454970  0.49575621  1.0
  Bi  Bi6  1  0.69879349  0.84003299  0.50424379  1.0
  Bi  Bi7  1  0.85876050  1.66421080  1.15996701  1.0
  Bi  Bi8  1  0.50424379  0.69879349  0.84003299  1.0
  Bi  Bi9  1  0.84003299  0.50424379  0.69879349  1.0
  Bi  Bi10  1  0.80545030  1.14123950  1.30120651  1.0
  Bi  Bi11  1  1.30120651  0.80545030  1.14123950  1.0
  Bi  Bi12  1  1.66421080  1.15996701  0.85876050  1.0
  O  O13  1  0.73575660  0.62127950  0.37836547  1.0
  O  O14  1  1.24291403  1.35739114  0.62163453  1.0
  O  O15  1  0.37836547  0.73575660  0.62127950  1.0
  O  O16  1  1.11447710  0.75708597  1.37872050  1.0
  O  O17  1  0.62127950  0.37836547  0.73575660  1.0
  O  O18  1  0.64260886  0.88552290  0.26424340  1.0
  O  O19  1  0.75708597  1.37872050  1.11447710  1.0
  O  O20  1  0.26424340  0.64260886  0.88552290  1.0
  O  O21  1  0.88552290  0.26424340  0.64260886  1.0
  O  O22  1  0.62163453  1.24291403  1.35739114  1.0
  O  O23  1  1.35739114  0.62163453  1.24291403  1.0
  O  O24  1  1.37872050  1.11447710  0.75708597  1.0
  O  O25  1  0.80081303  0.80081303  0.80081303  1.0
  O  O26  1  1.00000000  1.00000000  0.19918697  1.0
  O  O27  1  1.00000000  0.19918697  1.00000000  1.0
  O  O28  1  0.19918697  1.00000000  1.00000000  1.0
  O  O29  1  0.39223293  0.39223293  0.39223293  1.0
  O  O30  1  1.00000000  1.00000000  0.60776707  1.0
  O  O31  1  1.00000000  0.60776707  1.00000000  1.0
  O  O32  1  0.60776707  1.00000000  1.00000000  1.0
