# generated using pymatgen
data_Lu5NiPb3
_symmetry_space_group_name_H-M   'P 1'
_cell_length_a   9.00244201
_cell_length_b   9.00244201
_cell_length_c   6.56896424
_cell_angle_alpha   90.00000000
_cell_angle_beta   90.00000000
_cell_angle_gamma   120.00000000
_symmetry_Int_Tables_number   1
_chemical_formula_structural   Lu5NiPb3
_chemical_formula_sum   'Lu10 Ni2 Pb6'
_cell_volume   461.05017842
_cell_formula_units_Z   2
loop_
 _symmetry_equiv_pos_site_id
 _symmetry_equiv_pos_as_xyz
  1  'x, y, z'
loop_
 _atom_site_type_symbol
 _atom_site_label
 _atom_site_symmetry_multiplicity
 _atom_site_fract_x
 _atom_site_fract_y
 _atom_site_fract_z
 _atom_site_occupancy
  Lu  Lu0  1  0.76276110  0.76276110  0.25000000  1.0
  Lu  Lu1  1  0.76276110  -0.00000000  0.75000000  1.0
  Lu  Lu2  1  -0.00000000  0.76276110  0.75000000  1.0
  Lu  Lu3  1  0.00000000  0.23723890  0.25000000  1.0
  Lu  Lu4  1  0.23723890  0.23723890  0.75000000  1.0
  Lu  Lu5  1  0.23723890  0.00000000  0.25000000  1.0
  Lu  Lu6  1  0.33333333  0.66666667  0.50000000  1.0
  Lu  Lu7  1  0.33333333  0.66666667  0.00000000  1.0
  Lu  Lu8  1  0.66666667  0.33333333  0.50000000  1.0
  Lu  Lu9  1  0.66666667  0.33333333  -0.00000000  1.0
  Ni  Ni10  1  -0.00000000  0.00000000  0.50000000  1.0
  Ni  Ni11  1  -0.00000000  -0.00000000  -0.00000000  1.0
  Pb  Pb12  1  0.40035291  0.40035291  0.25000000  1.0
  Pb  Pb13  1  0.40035291  0.00000000  0.75000000  1.0
  Pb  Pb14  1  0.00000000  0.40035291  0.75000000  1.0
  Pb  Pb15  1  0.00000000  0.59964709  0.25000000  1.0
  Pb  Pb16  1  0.59964709  0.59964709  0.75000000  1.0
  Pb  Pb17  1  0.59964709  -0.00000000  0.25000000  1.0
