# generated using pymatgen
data_Al3(SiO5)2
_symmetry_space_group_name_H-M   'P 1'
_cell_length_a   6.09424782
_cell_length_b   7.86403114
_cell_length_c   7.30727988
_cell_angle_alpha   116.51860624
_cell_angle_beta   93.43411850
_cell_angle_gamma   91.23198507
_symmetry_Int_Tables_number   1
_chemical_formula_structural   Al3(SiO5)2
_chemical_formula_sum   'Al6 Si4 O20'
_cell_volume   312.33947804
_cell_formula_units_Z   2
loop_
 _symmetry_equiv_pos_site_id
 _symmetry_equiv_pos_as_xyz
  1  'x, y, z'
loop_
 _atom_site_type_symbol
 _atom_site_label
 _atom_site_symmetry_multiplicity
 _atom_site_fract_x
 _atom_site_fract_y
 _atom_site_fract_z
 _atom_site_occupancy
  O  O0  1  -0.00139307  -0.00272875  -0.00243178  1.0
  O  O1  1  0.08546786  0.05004040  -0.60843207  1.0
  O  O2  1  0.23516158  0.16878384  -0.17092681  1.0
  O  O3  1  0.32204380  0.22158017  -0.77690968  1.0
  O  O4  1  0.45556147  0.37028359  -0.38107664  1.0
  O  O5  1  0.49864145  -0.00275090  -0.50246318  1.0
  O  O6  1  0.58539893  0.05002979  -0.10847280  1.0
  O  O7  1  0.73523363  0.16878863  -0.67088462  1.0
  O  O8  1  0.82199431  0.22160483  -0.27687138  1.0
  O  O9  1  0.86509144  0.84856094  -0.39825176  1.0
  O  O10  1  0.95559647  0.37030686  -0.88104082  1.0
  O  O11  1  0.29926040  0.75622316  -0.26688974  1.0
  O  O12  1  0.02145795  0.46261420  -0.51247117  1.0
  O  O13  1  0.18319574  0.70470793  -0.66300586  1.0
  O  O14  1  0.79935386  0.75623603  -0.76683011  1.0
  O  O15  1  0.52132959  0.46260803  -0.01250573  1.0
  O  O16  1  0.13748932  0.51413114  -0.11631495  1.0
  O  O17  1  0.68315404  0.70473366  -0.16298954  1.0
  O  O18  1  0.63757942  0.51411815  -0.61624350  1.0
  O  O19  1  0.36504106  0.84853477  -0.89830138  1.0
  Al  Al20  1  0.01703528  0.21464321  -0.73681030  1.0
  Al  Al21  1  0.30359779  0.00418573  -0.04253758  1.0
  Al  Al22  1  0.41031461  0.60942206  -0.13969188  1.0
  Al  Al23  1  0.51696757  0.21464696  -0.23684505  1.0
  Al  Al24  1  0.80366142  0.00420199  -0.54248641  1.0
  Al  Al25  1  0.91036654  0.60941901  -0.63964294  1.0
  Si  Si26  1  0.03731235  0.32313233  -0.10998679  1.0
  Si  Si27  1  0.28333495  0.89570806  -0.66935558  1.0
  Si  Si28  1  0.53735108  0.32309893  -0.61000100  1.0
  Si  Si29  1  0.78329916  0.89573524  -0.16932896  1.0
