# generated using pymatgen
data_GePbS3
_symmetry_space_group_name_H-M   'P 1'
_cell_length_a   7.56668549
_cell_length_b   10.65155402
_cell_length_c   6.95728964
_cell_angle_alpha   90.00000000
_cell_angle_beta   105.03969926
_cell_angle_gamma   90.00000000
_symmetry_Int_Tables_number   1
_chemical_formula_structural   GePbS3
_chemical_formula_sum   'Ge4 Pb4 S12'
_cell_volume   541.52907273
_cell_formula_units_Z   4
loop_
 _symmetry_equiv_pos_site_id
 _symmetry_equiv_pos_as_xyz
  1  'x, y, z'
loop_
 _atom_site_type_symbol
 _atom_site_label
 _atom_site_symmetry_multiplicity
 _atom_site_fract_x
 _atom_site_fract_y
 _atom_site_fract_z
 _atom_site_occupancy
  Ge  Ge0  1  0.81132610  0.78945808  0.98800698  1.0
  Ge  Ge1  1  0.81132610  0.71054192  0.48800698  1.0
  Ge  Ge2  1  0.18867390  0.28945808  0.51199302  1.0
  Ge  Ge3  1  0.18867390  0.21054192  0.01199302  1.0
  Pb  Pb4  1  0.37287588  0.91987427  0.72231207  1.0
  Pb  Pb5  1  0.37287588  0.58012573  0.22231207  1.0
  Pb  Pb6  1  0.62712412  0.41987427  0.77768793  1.0
  Pb  Pb7  1  0.62712412  0.08012573  0.27768793  1.0
  S  S8  1  0.99763150  0.22692743  0.69931943  1.0
  S  S9  1  0.99763150  0.27307257  0.19931943  1.0
  S  S10  1  0.00236850  0.72692743  0.80068057  1.0
  S  S11  1  0.00236850  0.77307257  0.30068057  1.0
  S  S12  1  0.72536162  0.98740126  0.92089748  1.0
  S  S13  1  0.72536162  0.51259874  0.42089748  1.0
  S  S14  1  0.27463838  0.48740126  0.57910252  1.0
  S  S15  1  0.27463838  0.01259874  0.07910252  1.0
  S  S16  1  0.55933690  0.67358857  0.90870838  1.0
  S  S17  1  0.55933690  0.82641143  0.40870838  1.0
  S  S18  1  0.44066310  0.17358857  0.59129162  1.0
  S  S19  1  0.44066310  0.32641143  0.09129162  1.0
