# generated using pymatgen
data_BaH2(CO2)2
_symmetry_space_group_name_H-M   'P 1'
_cell_length_a   6.82797121
_cell_length_b   7.78732674
_cell_length_c   9.16094462
_cell_angle_alpha   90.00000000
_cell_angle_beta   90.00000000
_cell_angle_gamma   90.00000000
_symmetry_Int_Tables_number   1
_chemical_formula_structural   BaH2(CO2)2
_chemical_formula_sum   'Ba4 H8 C8 O16'
_cell_volume   487.10247470
_cell_formula_units_Z   4
loop_
 _symmetry_equiv_pos_site_id
 _symmetry_equiv_pos_as_xyz
  1  'x, y, z'
loop_
 _atom_site_type_symbol
 _atom_site_label
 _atom_site_symmetry_multiplicity
 _atom_site_fract_x
 _atom_site_fract_y
 _atom_site_fract_z
 _atom_site_occupancy
  Ba  Ba0  1  0.42627332  0.21480378  0.83350367  1.0
  Ba  Ba1  1  0.92627332  0.28519622  0.16649633  1.0
  Ba  Ba2  1  0.07372668  0.78519622  0.33350367  1.0
  Ba  Ba3  1  0.57372668  0.71480378  0.66649633  1.0
  H  H4  1  0.51266272  0.04891556  0.29056072  1.0
  H  H5  1  1.01266272  0.45108444  0.70943928  1.0
  H  H6  1  -0.01266272  0.95108444  0.79056072  1.0
  H  H7  1  0.48733728  0.54891556  0.20943928  1.0
  H  H8  1  0.75738020  0.71309066  0.01381910  1.0
  H  H9  1  0.25738020  0.78690934  0.98618090  1.0
  H  H10  1  0.74261980  0.28690934  0.51381910  1.0
  H  H11  1  0.24261980  0.21309066  0.48618090  1.0
  C  C12  1  0.43081104  0.11770178  0.20374989  1.0
  C  C13  1  0.93081104  0.38229822  0.79625011  1.0
  C  C14  1  0.06918896  0.88229822  0.70374989  1.0
  C  C15  1  0.56918896  0.61770178  0.29625011  1.0
  C  C16  1  0.74796533  0.85606382  0.01183632  1.0
  C  C17  1  0.24796533  0.64393618  0.98816368  1.0
  C  C18  1  0.75203467  0.14393618  0.51183632  1.0
  C  C19  1  0.25203467  0.35606382  0.48816368  1.0
  O  O20  1  0.25374410  0.07310650  0.18318389  1.0
  O  O21  1  0.75374410  0.42689350  0.81681611  1.0
  O  O22  1  0.24625590  0.92689350  0.68318389  1.0
  O  O23  1  0.74625590  0.57310650  0.31681611  1.0
  O  O24  1  0.52114026  0.23189037  0.13196030  1.0
  O  O25  1  0.02114026  0.26810963  0.86803970  1.0
  O  O26  1  0.97885974  0.76810963  0.63196030  1.0
  O  O27  1  0.47885974  0.73189037  0.36803970  1.0
  O  O28  1  0.63743791  0.92105587  0.91501638  1.0
  O  O29  1  0.13743791  0.57894413  0.08498362  1.0
  O  O30  1  0.86256209  0.07894413  0.41501638  1.0
  O  O31  1  0.36256209  0.42105587  0.58498362  1.0
  O  O32  1  0.84930634  0.93575519  0.10494023  1.0
  O  O33  1  0.34930634  0.56424481  0.89505977  1.0
  O  O34  1  0.65069366  0.06424481  0.60494023  1.0
  O  O35  1  0.15069366  0.43575519  0.39505977  1.0
