# generated using pymatgen
data_C
_symmetry_space_group_name_H-M   'P 1'
_cell_length_a   17.09887681
_cell_length_b   17.09887681
_cell_length_c   17.09887681
_cell_angle_alpha   8.27308078
_cell_angle_beta   8.27308078
_cell_angle_gamma   8.27308078
_symmetry_Int_Tables_number   1
_chemical_formula_structural   C
_chemical_formula_sum   C8
_cell_volume   89.79583933
_cell_formula_units_Z   8
loop_
 _symmetry_equiv_pos_site_id
 _symmetry_equiv_pos_as_xyz
  1  'x, y, z'
loop_
 _atom_site_type_symbol
 _atom_site_label
 _atom_site_symmetry_multiplicity
 _atom_site_fract_x
 _atom_site_fract_y
 _atom_site_fract_z
 _atom_site_occupancy
  C  C0  1  0.95759141  -0.04240859  -0.04240859  1.0
  C  C1  1  0.04240859  0.04240859  0.04240859  1.0
  C  C2  1  0.87588126  -0.12411874  -0.12411874  1.0
  C  C3  1  0.12411874  0.12411874  0.12411874  1.0
  C  C4  1  0.79078598  -0.20921402  -0.20921402  1.0
  C  C5  1  0.20921402  0.20921402  0.20921402  1.0
  C  C6  1  0.62425939  0.62425939  -0.37574061  1.0
  C  C7  1  0.37574061  0.37574061  -0.62425939  1.0
