# generated using pymatgen
data_KNa3WO5
_symmetry_space_group_name_H-M   'P 1'
_cell_length_a   5.92694334
_cell_length_b   5.92694334
_cell_length_c   9.17730899
_cell_angle_alpha   79.10655803
_cell_angle_beta   100.89344197
_cell_angle_gamma   100.91970061
_symmetry_Int_Tables_number   1
_chemical_formula_structural   KNa3WO5
_chemical_formula_sum   'K2 Na6 W2 O10'
_cell_volume   306.89725412
_cell_formula_units_Z   2
loop_
 _symmetry_equiv_pos_site_id
 _symmetry_equiv_pos_as_xyz
  1  'x, y, z'
loop_
 _atom_site_type_symbol
 _atom_site_label
 _atom_site_symmetry_multiplicity
 _atom_site_fract_x
 _atom_site_fract_y
 _atom_site_fract_z
 _atom_site_occupancy
  K  K0  1  0.74795065  0.74795065  -0.00000000  1.0
  K  K1  1  0.25204935  0.25204935  -0.00000000  1.0
  Na  Na2  1  1.64721866  -0.15877175  0.61289011  1.0
  Na  Na3  1  1.15877175  -0.64721866  0.61289011  1.0
  Na  Na4  1  0.84122825  0.64721866  0.38710989  1.0
  Na  Na5  1  0.35278134  0.15877175  0.38710989  1.0
  Na  Na6  1  0.81342310  0.18657690  0.22626154  1.0
  Na  Na7  1  1.18657690  -0.18657690  0.77373846  1.0
  W  W8  1  0.69220251  0.30779749  0.75921220  1.0
  W  W9  1  1.30779749  -0.30779749  0.24078780  1.0
  O  O10  1  0.44714743  0.11756261  0.65632110  1.0
  O  O11  1  0.88243739  0.55285257  0.65632110  1.0
  O  O12  1  1.11756261  -0.55285257  0.34367890  1.0
  O  O13  1  1.55285257  -0.11756261  0.34367890  1.0
  O  O14  1  0.90064114  0.09935886  0.74989447  1.0
  O  O15  1  1.09935886  -0.09935886  0.25010553  1.0
  O  O16  1  0.74705134  0.25294866  0.96552751  1.0
  O  O17  1  1.25294866  -0.25294866  0.03447249  1.0
  O  O18  1  1.48161708  -0.48161708  0.75929340  1.0
  O  O19  1  0.51838292  0.48161708  0.24070660  1.0
