# generated using pymatgen
data_FeH4C3O8
_symmetry_space_group_name_H-M   'P 1'
_cell_length_a   9.01234297
_cell_length_b   7.05612229
_cell_length_c   6.03693469
_cell_angle_alpha   98.41070284
_cell_angle_beta   99.71597433
_cell_angle_gamma   91.17213538
_symmetry_Int_Tables_number   1
_chemical_formula_structural   FeH4C3O8
_chemical_formula_sum   'Fe2 H8 C6 O16'
_cell_volume   373.92441473
_cell_formula_units_Z   2
loop_
 _symmetry_equiv_pos_site_id
 _symmetry_equiv_pos_as_xyz
  1  'x, y, z'
loop_
 _atom_site_type_symbol
 _atom_site_label
 _atom_site_symmetry_multiplicity
 _atom_site_fract_x
 _atom_site_fract_y
 _atom_site_fract_z
 _atom_site_occupancy
  Fe  Fe0  1  -0.75944571  -0.72160542  -0.52252043  1.0
  Fe  Fe1  1  -0.24055429  -0.27839458  -0.47747957  1.0
  C  C2  1  -0.99369874  -0.94363304  -0.87711768  1.0
  C  C3  1  -0.00630126  -0.05636696  -0.12288232  1.0
  C  C4  1  -0.48753517  -0.56285150  -0.61006430  1.0
  C  C5  1  -0.51246483  -0.43714850  -0.38993570  1.0
  C  C6  1  -0.98482316  -0.45545765  -0.60381735  1.0
  C  C7  1  -0.01517684  -0.54454235  -0.39618265  1.0
  O  O8  1  -0.60584768  -0.20867556  -0.87405872  1.0
  O  O9  1  -0.39415232  -0.79132444  -0.12594128  1.0
  O  O10  1  -0.10772382  -0.88490101  -0.80563681  1.0
  O  O11  1  -0.89227618  -0.11509899  -0.19436319  1.0
  O  O12  1  -0.87205136  -0.51173567  -0.68825954  1.0
  O  O13  1  -0.12794864  -0.48826433  -0.31174046  1.0
  O  O14  1  -0.85660980  -0.92139712  -0.76672773  1.0
  O  O15  1  -0.14339020  -0.07860288  -0.23327227  1.0
  O  O16  1  -0.92343143  -0.66622104  -0.32890955  1.0
  O  O17  1  -0.07656857  -0.33377896  -0.67109045  1.0
  O  O18  1  -0.58319709  -0.69989496  -0.69020371  1.0
  O  O19  1  -0.41680291  -0.30010504  -0.30979629  1.0
  O  O20  1  -0.66568480  -0.90434821  -0.31856614  1.0
  O  O21  1  -0.33431520  -0.09565179  -0.68143386  1.0
  O  O22  1  -0.37424056  -0.51998923  -0.69287676  1.0
  O  O23  1  -0.62575944  -0.48001077  -0.30712324  1.0
  H  H24  1  -0.62524219  -0.29521070  -1.01952125  1.0
  H  H25  1  -0.37475781  -0.70478930  0.01952125  1.0
  H  H26  1  -0.69338873  -0.12922446  -0.87158271  1.0
  H  H27  1  -0.30661127  -0.87077554  -0.12841729  1.0
  H  H28  1  -0.26827144  -1.02258257  -0.75717952  1.0
  H  H29  1  -0.73172856  0.02258257  -0.24282048  1.0
  H  H30  1  -0.56080021  -0.87230992  -0.22406062  1.0
  H  H31  1  -0.43919979  -0.12769008  -0.77593938  1.0
