# generated using pymatgen
data_KCrP2O7
_symmetry_space_group_name_H-M   'P 1'
_cell_length_a   7.45988987
_cell_length_b   10.01296110
_cell_length_c   8.28065811
_cell_angle_alpha   90.00000000
_cell_angle_beta   107.04772058
_cell_angle_gamma   90.00000000
_symmetry_Int_Tables_number   1
_chemical_formula_structural   KCrP2O7
_chemical_formula_sum   'K4 Cr4 P8 O28'
_cell_volume   591.35103632
_cell_formula_units_Z   4
loop_
 _symmetry_equiv_pos_site_id
 _symmetry_equiv_pos_as_xyz
  1  'x, y, z'
loop_
 _atom_site_type_symbol
 _atom_site_label
 _atom_site_symmetry_multiplicity
 _atom_site_fract_x
 _atom_site_fract_y
 _atom_site_fract_z
 _atom_site_occupancy
  K  K0  1  0.82226528  0.82214215  0.44360635  1.0
  K  K1  1  0.82226528  0.67785785  0.94360635  1.0
  K  K2  1  0.17773472  0.32214215  0.05639365  1.0
  K  K3  1  0.17773472  0.17785785  0.55639365  1.0
  Cr  Cr4  1  0.76355922  0.39902903  0.23873281  1.0
  Cr  Cr5  1  0.76355922  0.10097097  0.73873281  1.0
  Cr  Cr6  1  0.23644078  0.89902903  0.26126719  1.0
  Cr  Cr7  1  0.23644078  0.60097097  0.76126719  1.0
  P  P8  1  0.86902812  0.09734506  0.16820779  1.0
  P  P9  1  0.86902812  0.40265494  0.66820779  1.0
  P  P10  1  0.13097188  0.59734506  0.33179221  1.0
  P  P11  1  0.13097188  0.90265494  0.83179221  1.0
  P  P12  1  0.56124474  0.13503653  0.30765858  1.0
  P  P13  1  0.56124474  0.36496347  0.80765858  1.0
  P  P14  1  0.43875526  0.63503653  0.19234142  1.0
  P  P15  1  0.43875526  0.86496347  0.69234142  1.0
  O  O16  1  0.99254432  0.49646572  0.22121756  1.0
  O  O17  1  0.99254432  0.00353428  0.72121756  1.0
  O  O18  1  0.00745568  0.99646572  0.27878244  1.0
  O  O19  1  0.00745568  0.50353428  0.77878244  1.0
  O  O20  1  0.91851086  0.23725267  0.24812583  1.0
  O  O21  1  0.91851086  0.26274733  0.74812583  1.0
  O  O22  1  0.08148914  0.73725267  0.25187417  1.0
  O  O23  1  0.08148914  0.76274733  0.75187417  1.0
  O  O24  1  0.85877390  0.40670876  0.48358847  1.0
  O  O25  1  0.85877390  0.09329124  0.98358847  1.0
  O  O26  1  0.14122610  0.90670876  0.01641153  1.0
  O  O27  1  0.14122610  0.59329124  0.51641153  1.0
  O  O28  1  0.68221358  0.10437189  0.48720484  1.0
  O  O29  1  0.68221358  0.39562811  0.98720484  1.0
  O  O30  1  0.31778642  0.60437189  0.01279516  1.0
  O  O31  1  0.31778642  0.89562811  0.51279516  1.0
  O  O32  1  0.66401530  0.05589078  0.18512319  1.0
  O  O33  1  0.66401530  0.44410922  0.68512319  1.0
  O  O34  1  0.33598470  0.55589078  0.31487681  1.0
  O  O35  1  0.33598470  0.94410922  0.81487681  1.0
  O  O36  1  0.54968360  0.28381641  0.25442848  1.0
  O  O37  1  0.54968360  0.21618359  0.75442848  1.0
  O  O38  1  0.45031640  0.78381641  0.24557152  1.0
  O  O39  1  0.45031640  0.71618359  0.74557152  1.0
  O  O40  1  0.36161482  0.07823828  0.26243781  1.0
  O  O41  1  0.36161482  0.42176172  0.76243781  1.0
  O  O42  1  0.63838518  0.57823828  0.23756219  1.0
  O  O43  1  0.63838518  0.92176172  0.73756219  1.0
