# generated using pymatgen
data_Na4HgP2
_symmetry_space_group_name_H-M   'P 1'
_cell_length_a   9.05518434
_cell_length_b   9.05518434
_cell_length_c   9.05518434
_cell_angle_alpha   32.21992733
_cell_angle_beta   32.21992733
_cell_angle_gamma   32.21992733
_symmetry_Int_Tables_number   1
_chemical_formula_structural   Na4HgP2
_chemical_formula_sum   'Na4 Hg1 P2'
_cell_volume   187.59853616
_cell_formula_units_Z   1
loop_
 _symmetry_equiv_pos_site_id
 _symmetry_equiv_pos_as_xyz
  1  'x, y, z'
loop_
 _atom_site_type_symbol
 _atom_site_label
 _atom_site_symmetry_multiplicity
 _atom_site_fract_x
 _atom_site_fract_y
 _atom_site_fract_z
 _atom_site_occupancy
  Na  Na0  1  0.79294179  0.79294179  0.79294179  1.0
  Na  Na1  1  1.20705821  1.20705821  0.20705821  1.0
  Na  Na2  1  1.59617246  0.59617246  0.59617246  1.0
  Na  Na3  1  1.40382754  0.40382754  0.40382754  1.0
  Hg  Hg4  1  0.00000000  0.00000000  -0.00000000  1.0
  P  P5  1  0.90636276  0.90636276  0.90636276  1.0
  P  P6  1  1.09363724  1.09363724  0.09363724  1.0
