# generated using pymatgen
data_MnNiAs
_symmetry_space_group_name_H-M   'P 1'
_cell_length_a   6.18614254
_cell_length_b   3.79160080
_cell_length_c   7.04396266
_cell_angle_alpha   90.00000000
_cell_angle_beta   90.00000000
_cell_angle_gamma   90.00000000
_symmetry_Int_Tables_number   1
_chemical_formula_structural   MnNiAs
_chemical_formula_sum   'Mn4 Ni4 As4'
_cell_volume   165.21884199
_cell_formula_units_Z   4
loop_
 _symmetry_equiv_pos_site_id
 _symmetry_equiv_pos_as_xyz
  1  'x, y, z'
loop_
 _atom_site_type_symbol
 _atom_site_label
 _atom_site_symmetry_multiplicity
 _atom_site_fract_x
 _atom_site_fract_y
 _atom_site_fract_z
 _atom_site_occupancy
  Mn  Mn0  1  0.97229046  0.75000000  0.67910924  1.0
  Mn  Mn1  1  0.47229046  0.75000000  0.82089076  1.0
  Mn  Mn2  1  0.02770954  0.25000000  0.32089076  1.0
  Mn  Mn3  1  0.52770954  0.25000000  0.17910924  1.0
  Ni  Ni4  1  0.86022972  0.75000000  0.05606532  1.0
  Ni  Ni5  1  0.36022972  0.75000000  0.44393468  1.0
  Ni  Ni6  1  0.13977028  0.25000000  0.94393468  1.0
  Ni  Ni7  1  0.63977028  0.25000000  0.55606532  1.0
  As  As8  1  0.74409765  0.75000000  0.37431162  1.0
  As  As9  1  0.24409765  0.75000000  0.12568838  1.0
  As  As10  1  0.25590235  0.25000000  0.62568838  1.0
  As  As11  1  0.75590235  0.25000000  0.87431162  1.0
