# generated using pymatgen
data_Eu2C(NO)2
_symmetry_space_group_name_H-M   'P 1'
_cell_length_a   3.84920120
_cell_length_b   3.84920120
_cell_length_c   8.32495918
_cell_angle_alpha   90.00000000
_cell_angle_beta   90.00000000
_cell_angle_gamma   120.00000000
_symmetry_Int_Tables_number   1
_chemical_formula_structural   Eu2C(NO)2
_chemical_formula_sum   'Eu2 C1 N2 O2'
_cell_volume   106.82034350
_cell_formula_units_Z   1
loop_
 _symmetry_equiv_pos_site_id
 _symmetry_equiv_pos_as_xyz
  1  'x, y, z'
loop_
 _atom_site_type_symbol
 _atom_site_label
 _atom_site_symmetry_multiplicity
 _atom_site_fract_x
 _atom_site_fract_y
 _atom_site_fract_z
 _atom_site_occupancy
  Eu  Eu0  1  0.33333333  0.66666667  0.31926591  1.0
  Eu  Eu1  1  0.66666667  0.33333333  0.68073409  1.0
  C  C2  1  0.00000000  0.00000000  0.00000000  1.0
  N  N3  1  0.00000000  0.00000000  0.14838843  1.0
  N  N4  1  0.00000000  0.00000000  0.85161157  1.0
  O  O5  1  0.33333333  0.66666667  0.60338795  1.0
  O  O6  1  0.66666667  0.33333333  0.39661205  1.0
