# generated using pymatgen
data_YVO2
_symmetry_space_group_name_H-M   'P 1'
_cell_length_a   7.10157115
_cell_length_b   7.10157115
_cell_length_c   7.10157115
_cell_angle_alpha   129.96044619
_cell_angle_beta   129.96044619
_cell_angle_gamma   73.47000586
_symmetry_Int_Tables_number   1
_chemical_formula_structural   YVO2
_chemical_formula_sum   'Y4 V4 O8'
_cell_volume   205.36076388
_cell_formula_units_Z   4
loop_
 _symmetry_equiv_pos_site_id
 _symmetry_equiv_pos_as_xyz
  1  'x, y, z'
loop_
 _atom_site_type_symbol
 _atom_site_label
 _atom_site_symmetry_multiplicity
 _atom_site_fract_x
 _atom_site_fract_y
 _atom_site_fract_z
 _atom_site_occupancy
  Y  Y0  1  0.37500000  0.62500000  0.75000000  1.0
  Y  Y1  1  0.87500000  0.62500000  1.25000000  1.0
  Y  Y2  1  0.37500000  1.12500000  0.75000000  1.0
  Y  Y3  1  0.37500000  0.62500000  0.25000000  1.0
  V  V4  1  0.87500000  0.12500000  0.75000000  1.0
  V  V5  1  0.37500000  0.12500000  0.25000000  1.0
  V  V6  1  0.87500000  0.62500000  0.75000000  1.0
  V  V7  1  0.87500000  1.12500000  1.25000000  1.0
  O  O8  1  1.17121268  0.95237831  1.78116040  1.0
  O  O9  1  0.57878209  0.85994773  1.28116040  1.0
  O  O10  1  1.04762169  0.82878209  1.21883436  1.0
  O  O11  1  1.14005227  1.42121268  1.71883436  1.0
  O  O12  1  0.17121791  0.39005227  0.21883960  1.0
  O  O13  1  0.57878732  0.29762169  0.71883960  1.0
  O  O14  1  0.60994773  0.82878732  0.78116564  1.0
  O  O15  1  0.70237831  0.42121791  0.28116564  1.0
