# generated using pymatgen
data_MnAl2O4
_symmetry_space_group_name_H-M   'P 1'
_cell_length_a   5.84550974
_cell_length_b   5.84550974
_cell_length_c   5.84550974
_cell_angle_alpha   60.00000000
_cell_angle_beta   60.00000000
_cell_angle_gamma   60.00000000
_symmetry_Int_Tables_number   1
_chemical_formula_structural   MnAl2O4
_chemical_formula_sum   'Mn2 Al4 O8'
_cell_volume   141.23819772
_cell_formula_units_Z   2
loop_
 _symmetry_equiv_pos_site_id
 _symmetry_equiv_pos_as_xyz
  1  'x, y, z'
loop_
 _atom_site_type_symbol
 _atom_site_label
 _atom_site_symmetry_multiplicity
 _atom_site_fract_x
 _atom_site_fract_y
 _atom_site_fract_z
 _atom_site_occupancy
  Mn  Mn0  1  0.50000000  -0.50000000  0.50000000  1.0
  Mn  Mn1  1  0.75000000  0.75000000  0.75000000  1.0
  Al  Al2  1  0.62500000  1.12500000  0.12500000  1.0
  Al  Al3  1  0.12500000  1.62500000  0.12500000  1.0
  Al  Al4  1  0.12500000  0.12500000  1.62500000  1.0
  Al  Al5  1  0.12500000  0.12500000  0.12500000  1.0
  O  O6  1  -0.07707936  1.35902645  0.35902645  1.0
  O  O7  1  0.35902645  0.92292064  0.35902645  1.0
  O  O8  1  0.35902645  1.35902645  -0.07707936  1.0
  O  O9  1  0.35902645  1.35902645  0.35902645  1.0
  O  O10  1  -0.67292064  0.89097355  0.89097355  1.0
  O  O11  1  0.89097355  -0.67292064  0.89097355  1.0
  O  O12  1  0.89097355  0.89097355  -0.67292064  1.0
  O  O13  1  0.89097355  0.89097355  0.89097355  1.0
