# generated using pymatgen
data_VO2
_symmetry_space_group_name_H-M   'P 1'
_cell_length_a   6.28165812
_cell_length_b   6.28165812
_cell_length_c   6.42304496
_cell_angle_alpha   73.76981583
_cell_angle_beta   106.23018417
_cell_angle_gamma   145.61784560
_symmetry_Int_Tables_number   1
_chemical_formula_structural   VO2
_chemical_formula_sum   'V4 O8'
_cell_volume   136.86239182
_cell_formula_units_Z   4
loop_
 _symmetry_equiv_pos_site_id
 _symmetry_equiv_pos_as_xyz
  1  'x, y, z'
loop_
 _atom_site_type_symbol
 _atom_site_label
 _atom_site_symmetry_multiplicity
 _atom_site_fract_x
 _atom_site_fract_y
 _atom_site_fract_z
 _atom_site_occupancy
  V  V0  1  0.69676797  0.30323203  0.78087313  1.0
  V  V1  1  0.30323203  -0.30323203  0.21912687  1.0
  V  V2  1  0.39986339  -0.39986339  0.79556232  1.0
  V  V3  1  0.60013661  0.39986339  0.20443768  1.0
  O  O4  1  0.86515594  0.13484406  0.79639597  1.0
  O  O5  1  0.13484406  -0.13484406  0.20360403  1.0
  O  O6  1  0.63751398  0.36248602  0.50639133  1.0
  O  O7  1  0.36248602  -0.36248602  0.49360867  1.0
  O  O8  1  0.55864265  0.44135735  0.86694386  1.0
  O  O9  1  0.44135735  -0.44135735  0.13305614  1.0
  O  O10  1  0.23316638  -0.23316638  0.84276608  1.0
  O  O11  1  0.76683362  0.23316638  0.15723392  1.0
