# generated using pymatgen
data_Zn3Mo2O9
_symmetry_space_group_name_H-M   'P 1'
_cell_length_a   7.91943653
_cell_length_b   7.18672536
_cell_length_c   8.55201369
_cell_angle_alpha   90.00000000
_cell_angle_beta   117.42998359
_cell_angle_gamma   90.00000000
_symmetry_Int_Tables_number   1
_chemical_formula_structural   Zn3Mo2O9
_chemical_formula_sum   'Zn6 Mo4 O18'
_cell_volume   432.01467849
_cell_formula_units_Z   2
loop_
 _symmetry_equiv_pos_site_id
 _symmetry_equiv_pos_as_xyz
  1  'x, y, z'
loop_
 _atom_site_type_symbol
 _atom_site_label
 _atom_site_symmetry_multiplicity
 _atom_site_fract_x
 _atom_site_fract_y
 _atom_site_fract_z
 _atom_site_occupancy
  Zn  Zn0  1  0.35083218  0.25000000  0.21344254  1.0
  Zn  Zn1  1  0.64916782  0.75000000  0.78655746  1.0
  Zn  Zn2  1  0.11846834  0.25000000  0.77210704  1.0
  Zn  Zn3  1  0.88153166  0.75000000  0.22789296  1.0
  Zn  Zn4  1  0.00000000  0.50000000  0.00000000  1.0
  Zn  Zn5  1  0.00000000  0.00000000  0.00000000  1.0
  Mo  Mo6  1  0.83857631  0.25000000  0.28664879  1.0
  Mo  Mo7  1  0.16142369  0.75000000  0.71335121  1.0
  Mo  Mo8  1  0.54920029  0.25000000  0.70418762  1.0
  Mo  Mo9  1  0.45079971  0.75000000  0.29581238  1.0
  O  O10  1  0.91694235  0.45080914  0.21454477  1.0
  O  O11  1  0.91694235  0.04919086  0.21454477  1.0
  O  O12  1  0.08305765  0.95080914  0.78545523  1.0
  O  O13  1  0.08305765  0.54919086  0.78545523  1.0
  O  O14  1  0.69593693  0.45067694  0.79452671  1.0
  O  O15  1  0.69593693  0.04932306  0.79452671  1.0
  O  O16  1  0.30406307  0.95067694  0.20547329  1.0
  O  O17  1  0.30406307  0.54932306  0.20547329  1.0
  O  O18  1  0.93306601  0.25000000  0.51817236  1.0
  O  O19  1  0.06693399  0.75000000  0.48182764  1.0
  O  O20  1  0.58722622  0.25000000  0.19035186  1.0
  O  O21  1  0.41277378  0.75000000  0.80964814  1.0
  O  O22  1  0.45017527  0.25000000  0.47223833  1.0
  O  O23  1  0.54982473  0.75000000  0.52776167  1.0
  O  O24  1  0.36184865  0.25000000  0.76222352  1.0
  O  O25  1  0.63815135  0.75000000  0.23777648  1.0
  O  O26  1  0.10109157  0.25000000  0.99707396  1.0
  O  O27  1  0.89890843  0.75000000  0.00292604  1.0
