# generated using pymatgen
data_BaY2CuO5
_symmetry_space_group_name_H-M   'P 1'
_cell_length_a   12.23986803
_cell_length_b   5.69838605
_cell_length_c   7.23262614
_cell_angle_alpha   90.00000000
_cell_angle_beta   90.00000000
_cell_angle_gamma   90.00000000
_symmetry_Int_Tables_number   1
_chemical_formula_structural   BaY2CuO5
_chemical_formula_sum   'Ba4 Y8 Cu4 O20'
_cell_volume   504.45754315
_cell_formula_units_Z   4
loop_
 _symmetry_equiv_pos_site_id
 _symmetry_equiv_pos_as_xyz
  1  'x, y, z'
loop_
 _atom_site_type_symbol
 _atom_site_label
 _atom_site_symmetry_multiplicity
 _atom_site_fract_x
 _atom_site_fract_y
 _atom_site_fract_z
 _atom_site_occupancy
  Ba  Ba0  1  0.09553044  0.75000000  0.56812798  1.0
  Ba  Ba1  1  0.59553044  0.75000000  0.93187202  1.0
  Ba  Ba2  1  0.90446956  0.25000000  0.43187202  1.0
  Ba  Ba3  1  0.40446956  0.25000000  0.06812798  1.0
  Y  Y4  1  0.21314588  0.75000000  0.11288715  1.0
  Y  Y5  1  0.71314588  0.75000000  0.38711285  1.0
  Y  Y6  1  0.78685412  0.25000000  0.88711285  1.0
  Y  Y7  1  0.28685412  0.25000000  0.61288715  1.0
  Y  Y8  1  0.92615665  0.75000000  0.10391148  1.0
  Y  Y9  1  0.42615665  0.75000000  0.39608852  1.0
  Y  Y10  1  0.07384335  0.25000000  0.89608852  1.0
  Y  Y11  1  0.57384335  0.25000000  0.60391148  1.0
  Cu  Cu12  1  0.33936202  0.75000000  0.78156176  1.0
  Cu  Cu13  1  0.83936202  0.75000000  0.71843824  1.0
  Cu  Cu14  1  0.66063798  0.25000000  0.21843824  1.0
  Cu  Cu15  1  0.16063798  0.25000000  0.28156176  1.0
  O  O16  1  0.43185954  0.99430485  0.66116002  1.0
  O  O17  1  0.43185954  0.50569515  0.66116002  1.0
  O  O18  1  0.93185954  0.99430485  0.83883998  1.0
  O  O19  1  0.93185954  0.50569515  0.83883998  1.0
  O  O20  1  0.56814046  0.49430485  0.33883998  1.0
  O  O21  1  0.56814046  0.00569515  0.33883998  1.0
  O  O22  1  0.06814046  0.49430485  0.16116002  1.0
  O  O23  1  0.06814046  0.00569515  0.16116002  1.0
  O  O24  1  0.22820036  0.99639777  0.85525127  1.0
  O  O25  1  0.22820036  0.50360223  0.85525127  1.0
  O  O26  1  0.72820036  0.99639777  0.64474873  1.0
  O  O27  1  0.72820036  0.50360223  0.64474873  1.0
  O  O28  1  0.77179964  0.49639777  0.14474873  1.0
  O  O29  1  0.77179964  0.00360223  0.14474873  1.0
  O  O30  1  0.27179964  0.49639777  0.35525127  1.0
  O  O31  1  0.27179964  0.00360223  0.35525127  1.0
  O  O32  1  0.40067179  0.75000000  0.08419031  1.0
  O  O33  1  0.90067179  0.75000000  0.41580969  1.0
  O  O34  1  0.59932821  0.25000000  0.91580969  1.0
  O  O35  1  0.09932821  0.25000000  0.58419031  1.0
