# generated using pymatgen
data_Ba4NaAuO8
_symmetry_space_group_name_H-M   'P 1'
_cell_length_a   8.44432485
_cell_length_b   8.44432485
_cell_length_c   8.44432485
_cell_angle_alpha   139.72444494
_cell_angle_beta   139.72444494
_cell_angle_gamma   58.27192952
_symmetry_Int_Tables_number   1
_chemical_formula_structural   Ba4NaAuO8
_chemical_formula_sum   'Ba4 Na1 Au1 O8'
_cell_volume   249.35710708
_cell_formula_units_Z   1
loop_
 _symmetry_equiv_pos_site_id
 _symmetry_equiv_pos_as_xyz
  1  'x, y, z'
loop_
 _atom_site_type_symbol
 _atom_site_label
 _atom_site_symmetry_multiplicity
 _atom_site_fract_x
 _atom_site_fract_y
 _atom_site_fract_z
 _atom_site_occupancy
  Ba  Ba0  1  0.37377087  0.87377087  0.50000000  1.0
  Ba  Ba1  1  0.62622913  0.12622913  0.50000000  1.0
  Ba  Ba2  1  0.87377087  0.37377087  0.50000000  1.0
  Ba  Ba3  1  0.12622913  0.62622913  0.50000000  1.0
  Na  Na4  1  0.00000000  0.00000000  0.00000000  1.0
  Au  Au5  1  0.50000000  0.50000000  1.00000000  1.0
  O  O6  1  0.74022450  0.74022450  1.48044899  1.0
  O  O7  1  0.25977550  0.74022450  1.00000000  1.0
  O  O8  1  0.74022450  0.25977550  1.00000000  1.0
  O  O9  1  0.25977550  0.25977550  0.51955101  1.0
  O  O10  1  0.82312704  0.82312704  1.00000000  1.0
  O  O11  1  0.17687296  0.17687296  0.00000000  1.0
  O  O12  1  0.71879714  0.71879714  1.00000000  1.0
  O  O13  1  0.28120286  0.28120286  -0.00000000  1.0
