# generated using pymatgen
data_SmIn2Rh
_symmetry_space_group_name_H-M   'P 1'
_cell_length_a   5.60293145
_cell_length_b   5.60293145
_cell_length_c   8.15707913
_cell_angle_alpha   90.00000000
_cell_angle_beta   90.00000000
_cell_angle_gamma   133.82604839
_symmetry_Int_Tables_number   1
_chemical_formula_structural   SmIn2Rh
_chemical_formula_sum   'Sm2 In4 Rh2'
_cell_volume   184.74334947
_cell_formula_units_Z   2
loop_
 _symmetry_equiv_pos_site_id
 _symmetry_equiv_pos_as_xyz
  1  'x, y, z'
loop_
 _atom_site_type_symbol
 _atom_site_label
 _atom_site_symmetry_multiplicity
 _atom_site_fract_x
 _atom_site_fract_y
 _atom_site_fract_z
 _atom_site_occupancy
  Sm  Sm0  1  0.43523445  0.56476555  0.75000000  1.0
  Sm  Sm1  1  -0.43523445  0.43523445  0.25000000  1.0
  In  In2  1  0.14776472  0.85223528  0.94858497  1.0
  In  In3  1  0.14776472  0.85223528  0.55141503  1.0
  In  In4  1  -0.14776472  0.14776472  0.44858497  1.0
  In  In5  1  -0.14776472  0.14776472  0.05141503  1.0
  Rh  Rh6  1  -0.28396729  0.28396729  0.75000000  1.0
  Rh  Rh7  1  0.28396729  0.71603271  0.25000000  1.0
