# generated using pymatgen
data_Cs2Te(O4F)2
_symmetry_space_group_name_H-M   'P 1'
_cell_length_a   8.66488624
_cell_length_b   10.31419250
_cell_length_c   7.85127214
_cell_angle_alpha   90.00000000
_cell_angle_beta   90.00000000
_cell_angle_gamma   90.00000000
_symmetry_Int_Tables_number   1
_chemical_formula_structural   Cs2Te(O4F)2
_chemical_formula_sum   'Cs4 Te2 O16 F4'
_cell_volume   701.67843394
_cell_formula_units_Z   2
loop_
 _symmetry_equiv_pos_site_id
 _symmetry_equiv_pos_as_xyz
  1  'x, y, z'
loop_
 _atom_site_type_symbol
 _atom_site_label
 _atom_site_symmetry_multiplicity
 _atom_site_fract_x
 _atom_site_fract_y
 _atom_site_fract_z
 _atom_site_occupancy
  F  F0  1  0.17527356  -0.05091174  0.50000000  1.0
  F  F1  1  0.67527356  0.55091174  0.00000000  1.0
  F  F2  1  0.82472644  1.05091174  0.50000000  1.0
  F  F3  1  0.32472644  0.44908826  0.00000000  1.0
  Cs  Cs4  1  0.90209137  0.79322656  0.50000000  1.0
  Cs  Cs5  1  0.40209137  0.70677344  -0.00000000  1.0
  Cs  Cs6  1  0.09790863  0.20677344  0.50000000  1.0
  Cs  Cs7  1  0.59790863  0.29322656  0.00000000  1.0
  O  O8  1  0.37322796  0.80009156  0.50000000  1.0
  O  O9  1  0.87322796  0.69990844  -0.00000000  1.0
  O  O10  1  0.62677204  0.19990844  0.50000000  1.0
  O  O11  1  0.12677204  0.30009156  0.00000000  1.0
  O  O12  1  0.12662716  0.90849627  0.16292652  1.0
  O  O13  1  0.12662716  0.90849627  0.83707348  1.0
  O  O14  1  0.62662716  0.59150373  0.66292652  1.0
  O  O15  1  0.62662716  0.59150373  0.33707348  1.0
  O  O16  1  0.87337284  0.09150373  0.16292652  1.0
  O  O17  1  0.87337284  0.09150373  0.83707348  1.0
  O  O18  1  0.37337284  0.40849627  0.66292652  1.0
  O  O19  1  0.37337284  0.40849627  0.33707348  1.0
  O  O20  1  0.31016133  0.69244546  0.50000000  1.0
  O  O21  1  0.81016133  0.80755454  -0.00000000  1.0
  O  O22  1  0.68983867  0.30755454  0.50000000  1.0
  O  O23  1  0.18983867  0.19244546  0.00000000  1.0
  Te  Te24  1  0.50000000  0.50000000  0.50000000  1.0
  Te  Te25  1  0.00000000  0.00000000  0.00000000  1.0
