# generated using pymatgen
data_La3Pt4
_symmetry_space_group_name_H-M   'P 1'
_cell_length_a   8.28420881
_cell_length_b   8.28420881
_cell_length_c   8.28420881
_cell_angle_alpha   114.59338939
_cell_angle_beta   114.59338939
_cell_angle_gamma   114.59338939
_symmetry_Int_Tables_number   1
_chemical_formula_structural   La3Pt4
_chemical_formula_sum   'La6 Pt8'
_cell_volume   329.66268604
_cell_formula_units_Z   2
loop_
 _symmetry_equiv_pos_site_id
 _symmetry_equiv_pos_as_xyz
  1  'x, y, z'
loop_
 _atom_site_type_symbol
 _atom_site_label
 _atom_site_symmetry_multiplicity
 _atom_site_fract_x
 _atom_site_fract_y
 _atom_site_fract_z
 _atom_site_occupancy
  La  La0  1  1.09243072  0.21751663  0.46803888  1.0
  La  La1  1  0.53196112  -0.09243072  -0.21751663  1.0
  La  La2  1  0.78248337  0.53196112  -0.09243072  1.0
  La  La3  1  0.90756928  0.78248337  0.53196112  1.0
  La  La4  1  0.46803888  0.09243072  0.21751663  1.0
  La  La5  1  1.21751663  1.46803888  0.09243072  1.0
  Pt  Pt6  1  0.94503488  0.44260133  0.27834353  1.0
  Pt  Pt7  1  0.72165647  1.05496512  -0.44260133  1.0
  Pt  Pt8  1  0.55739867  -0.27834353  0.05496512  1.0
  Pt  Pt9  1  1.05496512  0.55739867  0.72165647  1.0
  Pt  Pt10  1  1.27834353  0.94503488  0.44260133  1.0
  Pt  Pt11  1  0.44260133  0.27834353  -0.05496512  1.0
  Pt  Pt12  1  0.50000000  0.50000000  0.50000000  1.0
  Pt  Pt13  1  -0.00000000  -0.00000000  -0.00000000  1.0
