# generated using pymatgen
data_CaSi2
_symmetry_space_group_name_H-M   'P 1'
_cell_length_a   10.36890753
_cell_length_b   10.36890753
_cell_length_c   10.36890753
_cell_angle_alpha   21.54369588
_cell_angle_beta   21.54369588
_cell_angle_gamma   21.54369588
_symmetry_Int_Tables_number   1
_chemical_formula_structural   CaSi2
_chemical_formula_sum   'Ca2 Si4'
_cell_volume   131.71804091
_cell_formula_units_Z   2
loop_
 _symmetry_equiv_pos_site_id
 _symmetry_equiv_pos_as_xyz
  1  'x, y, z'
loop_
 _atom_site_type_symbol
 _atom_site_label
 _atom_site_symmetry_multiplicity
 _atom_site_fract_x
 _atom_site_fract_y
 _atom_site_fract_z
 _atom_site_occupancy
  Ca  Ca0  1  0.91980241  0.91980241  0.91980241  1.0
  Ca  Ca1  1  1.08019759  1.08019759  0.08019759  1.0
  Si  Si2  1  0.81738700  0.81738700  0.81738700  1.0
  Si  Si3  1  1.18261300  1.18261300  0.18261300  1.0
  Si  Si4  1  1.65297043  0.65297043  0.65297043  1.0
  Si  Si5  1  1.34702957  0.34702957  0.34702957  1.0
