# generated using pymatgen
data_Y2(Al3Co)3
_symmetry_space_group_name_H-M   'P 1'
_cell_length_a   7.37321437
_cell_length_b   7.37321437
_cell_length_c   9.31912920
_cell_angle_alpha   90.00000000
_cell_angle_beta   90.00000000
_cell_angle_gamma   60.77099172
_symmetry_Int_Tables_number   1
_chemical_formula_structural   Y2(Al3Co)3
_chemical_formula_sum   'Y4 Al18 Co6'
_cell_volume   442.12143635
_cell_formula_units_Z   2
loop_
 _symmetry_equiv_pos_site_id
 _symmetry_equiv_pos_as_xyz
  1  'x, y, z'
loop_
 _atom_site_type_symbol
 _atom_site_label
 _atom_site_symmetry_multiplicity
 _atom_site_fract_x
 _atom_site_fract_y
 _atom_site_fract_z
 _atom_site_occupancy
  Y  Y0  1  -0.00672372  1.32774594  0.25000000  1.0
  Y  Y1  1  0.32774594  0.99327628  0.75000000  1.0
  Y  Y2  1  -0.32774594  1.00672372  0.25000000  1.0
  Y  Y3  1  0.00672372  0.67225406  0.75000000  1.0
  Al  Al4  1  -0.00174459  0.66471110  0.42904310  1.0
  Al  Al5  1  -0.00174459  0.66471110  0.07095690  1.0
  Al  Al6  1  -0.33528890  0.99825541  0.92904310  1.0
  Al  Al7  1  -0.33528890  0.99825541  0.57095690  1.0
  Al  Al8  1  0.33528890  1.00174459  0.42904310  1.0
  Al  Al9  1  0.33528890  1.00174459  0.07095690  1.0
  Al  Al10  1  0.00174459  1.33528890  0.92904310  1.0
  Al  Al11  1  0.00174459  1.33528890  0.57095690  1.0
  Al  Al12  1  0.33868997  0.44645339  0.25000000  1.0
  Al  Al13  1  -0.55354661  1.33868997  0.75000000  1.0
  Al  Al14  1  0.55354661  0.66131003  0.25000000  1.0
  Al  Al15  1  -0.33868997  1.55354661  0.75000000  1.0
  Al  Al16  1  0.33225740  0.66774260  0.95805978  1.0
  Al  Al17  1  0.33225740  0.66774260  0.54194022  1.0
  Al  Al18  1  -0.33225740  1.33225740  0.45805978  1.0
  Al  Al19  1  -0.33225740  1.33225740  0.04194022  1.0
  Al  Al20  1  0.12526456  0.87473544  0.25000000  1.0
  Al  Al21  1  -0.12526456  1.12526456  0.75000000  1.0
  Co  Co22  1  0.67094465  0.67094465  0.50000000  1.0
  Co  Co23  1  0.67094465  0.67094465  0.00000000  1.0
  Co  Co24  1  0.32905535  0.32905535  0.50000000  1.0
  Co  Co25  1  0.32905535  0.32905535  0.00000000  1.0
  Co  Co26  1  0.00000000  0.00000000  0.50000000  1.0
  Co  Co27  1  0.00000000  0.00000000  0.00000000  1.0
