# generated using pymatgen
data_NaCN5O3
_symmetry_space_group_name_H-M   'P 1'
_cell_length_a   4.93445679
_cell_length_b   8.09558289
_cell_length_c   12.66570174
_cell_angle_alpha   90.00000000
_cell_angle_beta   90.00000000
_cell_angle_gamma   90.00000000
_symmetry_Int_Tables_number   1
_chemical_formula_structural   NaCN5O3
_chemical_formula_sum   'Na4 C4 N20 O12'
_cell_volume   505.96063717
_cell_formula_units_Z   4
loop_
 _symmetry_equiv_pos_site_id
 _symmetry_equiv_pos_as_xyz
  1  'x, y, z'
loop_
 _atom_site_type_symbol
 _atom_site_label
 _atom_site_symmetry_multiplicity
 _atom_site_fract_x
 _atom_site_fract_y
 _atom_site_fract_z
 _atom_site_occupancy
  Na  Na0  1  0.03093085  0.72172827  0.63494231  1.0
  Na  Na1  1  0.53093085  0.77827173  0.36505769  1.0
  Na  Na2  1  0.96906915  0.22172827  0.86505769  1.0
  Na  Na3  1  0.46906915  0.27827173  0.13494231  1.0
  C  C4  1  0.41280115  0.72799313  0.86971323  1.0
  C  C5  1  0.91280115  0.77200687  0.13028677  1.0
  C  C6  1  0.58719885  0.22799313  0.63028677  1.0
  C  C7  1  0.08719885  0.27200687  0.36971323  1.0
  N  N8  1  0.48754380  0.48802695  0.91320935  1.0
  N  N9  1  0.98754380  0.01197305  0.08679065  1.0
  N  N10  1  0.51245620  0.98802695  0.58679065  1.0
  N  N11  1  0.01245620  0.51197305  0.41320935  1.0
  N  N12  1  0.43033868  0.90360908  0.86205378  1.0
  N  N13  1  0.93033868  0.59639092  0.13794622  1.0
  N  N14  1  0.56966132  0.40360908  0.63794622  1.0
  N  N15  1  0.06966132  0.09639092  0.36205378  1.0
  N  N16  1  0.26832080  0.48484073  0.84652209  1.0
  N  N17  1  0.76832080  0.01515927  0.15347791  1.0
  N  N18  1  0.73167920  0.98484073  0.65347791  1.0
  N  N19  1  0.23167920  0.51515927  0.34652209  1.0
  N  N20  1  0.22438573  0.63966172  0.81881520  1.0
  N  N21  1  0.72438573  0.86033828  0.18118480  1.0
  N  N22  1  0.77561427  0.13966172  0.68118480  1.0
  N  N23  1  0.27561427  0.36033828  0.31881520  1.0
  N  N24  1  0.08254402  0.86133253  0.07060386  1.0
  N  N25  1  0.58254402  0.63866747  0.92939614  1.0
  N  N26  1  0.91745598  0.36133253  0.42939614  1.0
  N  N27  1  0.41745598  0.13866747  0.57060386  1.0
  O  O28  1  0.41466554  0.85751976  0.54660414  1.0
  O  O29  1  0.91466554  0.64248024  0.45339586  1.0
  O  O30  1  0.58533446  0.35751976  0.95339586  1.0
  O  O31  1  0.08533446  0.14248024  0.04660414  1.0
  O  O32  1  0.37887610  0.47283495  0.59332367  1.0
  O  O33  1  0.87887610  0.02716505  0.40667633  1.0
  O  O34  1  0.62112390  0.97283495  0.90667633  1.0
  O  O35  1  0.12112390  0.52716505  0.09332367  1.0
  O  O36  1  0.25096896  0.97550887  0.81030171  1.0
  O  O37  1  0.75096896  0.52449113  0.18969829  1.0
  O  O38  1  0.74903104  0.47550887  0.68969829  1.0
  O  O39  1  0.24903104  0.02449113  0.31030171  1.0
