# generated using pymatgen
data_YNiSb
_symmetry_space_group_name_H-M   'P 1'
_cell_length_a   7.24240112
_cell_length_b   4.42697220
_cell_length_c   7.62490618
_cell_angle_alpha   90.00000000
_cell_angle_beta   90.00000000
_cell_angle_gamma   90.00000000
_symmetry_Int_Tables_number   1
_chemical_formula_structural   YNiSb
_chemical_formula_sum   'Y4 Ni4 Sb4'
_cell_volume   244.46904340
_cell_formula_units_Z   4
loop_
 _symmetry_equiv_pos_site_id
 _symmetry_equiv_pos_as_xyz
  1  'x, y, z'
loop_
 _atom_site_type_symbol
 _atom_site_label
 _atom_site_symmetry_multiplicity
 _atom_site_fract_x
 _atom_site_fract_y
 _atom_site_fract_z
 _atom_site_occupancy
  Y  Y0  1  0.99287343  0.75000000  0.70526935  1.0
  Y  Y1  1  0.49287343  0.75000000  0.79473065  1.0
  Y  Y2  1  0.00712657  0.25000000  0.29473065  1.0
  Y  Y3  1  0.50712657  0.25000000  0.20526935  1.0
  Ni  Ni4  1  0.67817710  0.75000000  0.42156540  1.0
  Ni  Ni5  1  0.17817710  0.75000000  0.07843460  1.0
  Ni  Ni6  1  0.32182290  0.25000000  0.57843460  1.0
  Ni  Ni7  1  0.82182290  0.25000000  0.92156540  1.0
  Sb  Sb8  1  0.79096955  0.75000000  0.09420118  1.0
  Sb  Sb9  1  0.29096955  0.75000000  0.40579882  1.0
  Sb  Sb10  1  0.20903045  0.25000000  0.90579882  1.0
  Sb  Sb11  1  0.70903045  0.25000000  0.59420118  1.0
