# generated using pymatgen
data_Fe7(SiO3)8
_symmetry_space_group_name_H-M   'P 1'
_cell_length_a   10.43609723
_cell_length_b   10.43609723
_cell_length_c   5.35869657
_cell_angle_alpha   85.94508067
_cell_angle_beta   94.05491933
_cell_angle_gamma   56.47851371
_symmetry_Int_Tables_number   1
_chemical_formula_structural   Fe7(SiO3)8
_chemical_formula_sum   'Fe7 Si8 O24'
_cell_volume   481.09313361
_cell_formula_units_Z   1
loop_
 _symmetry_equiv_pos_site_id
 _symmetry_equiv_pos_as_xyz
  1  'x, y, z'
loop_
 _atom_site_type_symbol
 _atom_site_label
 _atom_site_symmetry_multiplicity
 _atom_site_fract_x
 _atom_site_fract_y
 _atom_site_fract_z
 _atom_site_occupancy
  Fe  Fe0  1  0.00000000  0.00000000  0.00000000  1.0
  Fe  Fe1  1  0.92169258  -0.07830742  0.50000000  1.0
  Fe  Fe2  1  0.07830742  0.07830742  0.50000000  1.0
  Fe  Fe3  1  0.81920971  -0.18079029  -0.00000000  1.0
  Fe  Fe4  1  0.18079029  0.18079029  0.00000000  1.0
  Fe  Fe5  1  0.77205027  -0.22794973  0.50000000  1.0
  Fe  Fe6  1  0.22794973  0.22794973  0.50000000  1.0
  O  O7  1  0.46128112  -0.22974736  0.54642647  1.0
  O  O8  1  1.22974736  -0.46128112  0.54642647  1.0
  O  O9  1  0.77025264  -0.53871888  0.45357353  1.0
  O  O10  1  0.53871888  0.22974736  0.45357353  1.0
  O  O11  1  0.67084608  -0.67084608  0.74695232  1.0
  O  O12  1  0.32915392  -0.32915392  0.25304768  1.0
  O  O13  1  0.51731556  0.22258528  0.94465061  1.0
  O  O14  1  0.77741472  -0.51731556  0.94465061  1.0
  O  O15  1  1.22258528  -0.48268444  0.05534939  1.0
  O  O16  1  0.48268444  -0.22258528  0.05534939  1.0
  O  O17  1  0.90196733  -0.90196733  0.28789682  1.0
  O  O18  1  0.09803267  -0.09803267  0.71210318  1.0
  O  O19  1  0.79126755  0.02256923  0.78628671  1.0
  O  O20  1  0.97743077  -0.79126755  0.78628671  1.0
  O  O21  1  1.02256923  -0.20873245  0.21371329  1.0
  O  O22  1  0.20873245  -0.02256923  0.21371329  1.0
  O  O23  1  0.31450514  0.03654091  0.74036412  1.0
  O  O24  1  0.96345909  -0.31450514  0.74036412  1.0
  O  O25  1  1.03654091  -0.68549486  0.25963588  1.0
  O  O26  1  0.68549486  -0.03654091  0.25963588  1.0
  O  O27  1  0.63383590  -0.14793678  0.76284329  1.0
  O  O28  1  1.14793678  -0.63383590  0.76284329  1.0
  O  O29  1  0.85206322  -0.36616410  0.23715671  1.0
  O  O30  1  0.36616410  0.14793678  0.23715671  1.0
  Si  Si31  1  0.63089876  0.19999548  0.73286774  1.0
  Si  Si32  1  0.80000452  -0.63089876  0.73286774  1.0
  Si  Si33  1  1.19999548  -0.36910124  0.26713226  1.0
  Si  Si34  1  0.36910124  -0.19999548  0.26713226  1.0
  Si  Si35  1  0.47374975  -0.14093698  0.77704185  1.0
  Si  Si36  1  1.14093698  -0.47374975  0.77704185  1.0
  Si  Si37  1  0.85906302  -0.52625025  0.22295815  1.0
  Si  Si38  1  0.52625025  0.14093698  0.22295815  1.0
