# generated using pymatgen
data_La5BPb3
_symmetry_space_group_name_H-M   'P 1'
_cell_length_a   9.74707431
_cell_length_b   9.74707431
_cell_length_c   6.95116914
_cell_angle_alpha   90.00000000
_cell_angle_beta   90.00000000
_cell_angle_gamma   120.00000000
_symmetry_Int_Tables_number   1
_chemical_formula_structural   La5BPb3
_chemical_formula_sum   'La10 B2 Pb6'
_cell_volume   571.92231444
_cell_formula_units_Z   2
loop_
 _symmetry_equiv_pos_site_id
 _symmetry_equiv_pos_as_xyz
  1  'x, y, z'
loop_
 _atom_site_type_symbol
 _atom_site_label
 _atom_site_symmetry_multiplicity
 _atom_site_fract_x
 _atom_site_fract_y
 _atom_site_fract_z
 _atom_site_occupancy
  La  La0  1  0.77677948  0.77677948  0.25000000  1.0
  La  La1  1  0.77677948  0.00000000  0.75000000  1.0
  La  La2  1  0.00000000  0.77677948  0.75000000  1.0
  La  La3  1  0.00000000  0.22322052  0.25000000  1.0
  La  La4  1  0.22322052  0.22322052  0.75000000  1.0
  La  La5  1  0.22322052  -0.00000000  0.25000000  1.0
  La  La6  1  0.33333333  0.66666667  0.50000000  1.0
  La  La7  1  0.33333333  0.66666667  0.00000000  1.0
  La  La8  1  0.66666667  0.33333333  0.50000000  1.0
  La  La9  1  0.66666667  0.33333333  0.00000000  1.0
  B  B10  1  0.00000000  0.00000000  0.50000000  1.0
  B  B11  1  -0.00000000  -0.00000000  0.00000000  1.0
  Pb  Pb12  1  0.40889100  0.40889100  0.25000000  1.0
  Pb  Pb13  1  0.40889100  0.00000000  0.75000000  1.0
  Pb  Pb14  1  0.00000000  0.40889100  0.75000000  1.0
  Pb  Pb15  1  0.00000000  0.59110900  0.25000000  1.0
  Pb  Pb16  1  0.59110900  0.59110900  0.75000000  1.0
  Pb  Pb17  1  0.59110900  -0.00000000  0.25000000  1.0
