# generated using pymatgen
data_Hf3(CrGa3)2
_symmetry_space_group_name_H-M   'P 1'
_cell_length_a   5.31946197
_cell_length_b   8.72265608
_cell_length_c   7.73815156
_cell_angle_alpha   90.00000000
_cell_angle_beta   90.00000000
_cell_angle_gamma   90.00000000
_symmetry_Int_Tables_number   1
_chemical_formula_structural   Hf3(CrGa3)2
_chemical_formula_sum   'Hf6 Cr4 Ga12'
_cell_volume   359.04897350
_cell_formula_units_Z   2
loop_
 _symmetry_equiv_pos_site_id
 _symmetry_equiv_pos_as_xyz
  1  'x, y, z'
loop_
 _atom_site_type_symbol
 _atom_site_label
 _atom_site_symmetry_multiplicity
 _atom_site_fract_x
 _atom_site_fract_y
 _atom_site_fract_z
 _atom_site_occupancy
  Hf  Hf0  1  0.50000000  0.77882561  0.15719403  1.0
  Hf  Hf1  1  0.50000000  0.22117439  0.15719403  1.0
  Hf  Hf2  1  0.00000000  0.72117439  0.84280597  1.0
  Hf  Hf3  1  0.00000000  0.27882561  0.84280597  1.0
  Hf  Hf4  1  0.50000000  0.50000000  0.71291907  1.0
  Hf  Hf5  1  0.00000000  0.00000000  0.28708093  1.0
  Cr  Cr6  1  0.25000000  0.25000000  0.50000000  1.0
  Cr  Cr7  1  0.25000000  0.75000000  0.50000000  1.0
  Cr  Cr8  1  0.75000000  0.25000000  0.50000000  1.0
  Cr  Cr9  1  0.75000000  0.75000000  0.50000000  1.0
  Ga  Ga10  1  0.50000000  0.18698384  0.76741837  1.0
  Ga  Ga11  1  0.50000000  0.81301616  0.76741837  1.0
  Ga  Ga12  1  0.00000000  0.31301616  0.23258163  1.0
  Ga  Ga13  1  0.00000000  0.68698384  0.23258163  1.0
  Ga  Ga14  1  0.50000000  0.50000000  0.36509398  1.0
  Ga  Ga15  1  0.00000000  0.00000000  0.63490602  1.0
  Ga  Ga16  1  0.00000000  0.50000000  0.56071055  1.0
  Ga  Ga17  1  0.50000000  0.00000000  0.43928945  1.0
  Ga  Ga18  1  0.26035222  0.50000000  0.03600783  1.0
  Ga  Ga19  1  0.73964778  0.50000000  0.03600783  1.0
  Ga  Ga20  1  0.23964778  0.00000000  0.96399217  1.0
  Ga  Ga21  1  0.76035222  0.00000000  0.96399217  1.0
