# generated using pymatgen
data_P2O5
_symmetry_space_group_name_H-M   'P 1'
_cell_length_a   9.71890061
_cell_length_b   4.95683520
_cell_length_c   7.42658737
_cell_angle_alpha   90.00000000
_cell_angle_beta   90.00000000
_cell_angle_gamma   90.00000000
_symmetry_Int_Tables_number   1
_chemical_formula_structural   P2O5
_chemical_formula_sum   'P8 O20'
_cell_volume   357.77576246
_cell_formula_units_Z   4
loop_
 _symmetry_equiv_pos_site_id
 _symmetry_equiv_pos_as_xyz
  1  'x, y, z'
loop_
 _atom_site_type_symbol
 _atom_site_label
 _atom_site_symmetry_multiplicity
 _atom_site_fract_x
 _atom_site_fract_y
 _atom_site_fract_z
 _atom_site_occupancy
  P  P0  1  0.39345662  0.75000000  0.64907222  1.0
  P  P1  1  0.89345662  0.75000000  0.85092778  1.0
  P  P2  1  0.60654338  0.25000000  0.35092778  1.0
  P  P3  1  0.10654338  0.25000000  0.14907222  1.0
  P  P4  1  0.24978825  0.75000000  0.28580849  1.0
  P  P5  1  0.74978825  0.75000000  0.21419151  1.0
  P  P6  1  0.75021175  0.25000000  0.71419151  1.0
  P  P7  1  0.25021175  0.25000000  0.78580849  1.0
  O  O8  1  0.35338012  -0.00133607  0.77516615  1.0
  O  O9  1  0.35338012  0.50133607  0.77516615  1.0
  O  O10  1  0.85338012  -0.00133607  0.72483385  1.0
  O  O11  1  0.85338012  0.50133607  0.72483385  1.0
  O  O12  1  0.64661988  0.49866393  0.22483385  1.0
  O  O13  1  0.64661988  0.00133607  0.22483385  1.0
  O  O14  1  0.14661988  0.49866393  0.27516615  1.0
  O  O15  1  0.14661988  0.00133607  0.27516615  1.0
  O  O16  1  0.36653582  0.75000000  0.16207435  1.0
  O  O17  1  0.86653582  0.75000000  0.33792565  1.0
  O  O18  1  0.63346418  0.25000000  0.83792565  1.0
  O  O19  1  0.13346418  0.25000000  0.66207435  1.0
  O  O20  1  0.27588646  0.75000000  0.49914826  1.0
  O  O21  1  0.77588646  0.75000000  1.00085174  1.0
  O  O22  1  0.72411354  0.25000000  0.50085174  1.0
  O  O23  1  0.22411354  0.25000000  -0.00085174  1.0
  O  O24  1  0.03846641  0.75000000  0.90578696  1.0
  O  O25  1  0.53846641  0.75000000  0.59421304  1.0
  O  O26  1  0.96153359  0.25000000  0.09421304  1.0
  O  O27  1  0.46153359  0.25000000  0.40578696  1.0
