# generated using pymatgen
data_Ti2CuS4
_symmetry_space_group_name_H-M   'P 1'
_cell_length_a   12.29808370
_cell_length_b   12.29808370
_cell_length_c   12.29808370
_cell_angle_alpha   33.23977976
_cell_angle_beta   33.23977976
_cell_angle_gamma   33.23977976
_symmetry_Int_Tables_number   1
_chemical_formula_structural   Ti2CuS4
_chemical_formula_sum   'Ti8 Cu4 S16'
_cell_volume   497.52954073
_cell_formula_units_Z   4
loop_
 _symmetry_equiv_pos_site_id
 _symmetry_equiv_pos_as_xyz
  1  'x, y, z'
loop_
 _atom_site_type_symbol
 _atom_site_label
 _atom_site_symmetry_multiplicity
 _atom_site_fract_x
 _atom_site_fract_y
 _atom_site_fract_z
 _atom_site_occupancy
  S  S0  1  1.38491111  0.38491111  0.86179044  1.0
  S  S1  1  1.38491111  0.86179044  0.38491111  1.0
  S  S2  1  1.13820956  0.61508889  0.61508889  1.0
  S  S3  1  1.61508889  0.13820956  0.61508889  1.0
  S  S4  1  1.61508889  0.61508889  0.13820956  1.0
  S  S5  1  1.86179044  0.38491111  0.38491111  1.0
  S  S6  1  1.20150298  1.20150298  -0.27599871  1.0
  S  S7  1  1.20150298  0.72400129  0.20150298  1.0
  S  S8  1  1.27599871  0.79849702  0.79849702  1.0
  S  S9  1  1.79849702  0.27599871  0.79849702  1.0
  S  S10  1  1.79849702  0.79849702  0.27599871  1.0
  S  S11  1  0.72400129  1.20150298  0.20150298  1.0
  S  S12  1  0.87648326  0.87648326  0.87648326  1.0
  S  S13  1  1.12351674  1.12351674  0.12351674  1.0
  S  S14  1  0.71161475  0.71161475  0.71161475  1.0
  S  S15  1  1.28838525  1.28838525  0.28838525  1.0
  Ti  Ti16  1  0.00000000  0.00000000  0.00000000  1.0
  Ti  Ti17  1  1.50000000  0.50000000  0.50000000  1.0
  Ti  Ti18  1  1.08243985  1.08243985  0.58167220  1.0
  Ti  Ti19  1  1.08243985  1.58167220  0.08243985  1.0
  Ti  Ti20  1  1.41832780  0.91756015  -0.08243985  1.0
  Ti  Ti21  1  0.91756015  1.41832780  -0.08243985  1.0
  Ti  Ti22  1  0.91756015  0.91756015  0.41832780  1.0
  Ti  Ti23  1  1.58167220  1.08243985  0.08243985  1.0
  Cu  Cu24  1  0.81214988  0.81214988  0.81214988  1.0
  Cu  Cu25  1  1.18785012  1.18785012  0.18785012  1.0
  Cu  Cu26  1  1.64664521  0.64664521  0.64664521  1.0
  Cu  Cu27  1  1.35335479  0.35335479  0.35335479  1.0
