# generated using pymatgen
data_TlAuCl4
_symmetry_space_group_name_H-M   'P 1'
_cell_length_a   6.83537839
_cell_length_b   6.83537839
_cell_length_c   10.17067792
_cell_angle_alpha   80.11651889
_cell_angle_beta   99.88348111
_cell_angle_gamma   128.16636632
_symmetry_Int_Tables_number   1
_chemical_formula_structural   TlAuCl4
_chemical_formula_sum   'Tl2 Au2 Cl8'
_cell_volume   366.74406354
_cell_formula_units_Z   2
loop_
 _symmetry_equiv_pos_site_id
 _symmetry_equiv_pos_as_xyz
  1  'x, y, z'
loop_
 _atom_site_type_symbol
 _atom_site_label
 _atom_site_symmetry_multiplicity
 _atom_site_fract_x
 _atom_site_fract_y
 _atom_site_fract_z
 _atom_site_occupancy
  Tl  Tl0  1  0.72129914  0.72129914  0.75000000  1.0
  Tl  Tl1  1  0.27870086  0.27870086  0.25000000  1.0
  Au  Au2  1  0.50000000  0.00000000  -0.00000000  1.0
  Au  Au3  1  1.00000000  0.50000000  0.50000000  1.0
  Cl  Cl4  1  0.70017846  0.23052094  0.65034581  1.0
  Cl  Cl5  1  0.76947906  0.29982154  0.15034581  1.0
  Cl  Cl6  1  1.23052094  0.70017846  0.84965419  1.0
  Cl  Cl7  1  0.29982154  -0.23052094  0.34965419  1.0
  Cl  Cl8  1  0.30427334  0.18489009  0.93363399  1.0
  Cl  Cl9  1  0.81510991  0.69572666  0.43363399  1.0
  Cl  Cl10  1  1.18489009  0.30427334  0.56636601  1.0
  Cl  Cl11  1  0.69572666  -0.18489009  0.06636601  1.0
