# generated using pymatgen
data_In7Te10
_symmetry_space_group_name_H-M   'P 1'
_cell_length_a   10.96801788
_cell_length_b   10.96801788
_cell_length_c   10.96801788
_cell_angle_alpha   89.00978601
_cell_angle_beta   89.00978601
_cell_angle_gamma   89.00978601
_symmetry_Int_Tables_number   1
_chemical_formula_structural   In7Te10
_chemical_formula_sum   'In14 Te20'
_cell_volume   1318.83981454
_cell_formula_units_Z   2
loop_
 _symmetry_equiv_pos_site_id
 _symmetry_equiv_pos_as_xyz
  1  'x, y, z'
loop_
 _atom_site_type_symbol
 _atom_site_label
 _atom_site_symmetry_multiplicity
 _atom_site_fract_x
 _atom_site_fract_y
 _atom_site_fract_z
 _atom_site_occupancy
  In  In0  1  0.83504889  0.24537050  -0.32972222  1.0
  In  In1  1  0.32972222  0.75462950  -0.83504889  1.0
  In  In2  1  0.75462950  0.16495111  -0.67027778  1.0
  In  In3  1  0.16495111  0.32972222  -0.24537050  1.0
  In  In4  1  0.67027778  0.83504889  -0.75462950  1.0
  In  In5  1  0.24537050  0.67027778  -0.16495111  1.0
  In  In6  1  0.64858567  0.92134573  -0.38617426  1.0
  In  In7  1  1.38617426  1.07865427  0.35141433  1.0
  In  In8  1  1.07865427  1.35141433  0.38617426  1.0
  In  In9  1  1.35141433  1.38617426  0.07865427  1.0
  In  In10  1  0.61382574  0.64858567  -0.07865427  1.0
  In  In11  1  0.92134573  0.61382574  -0.35141433  1.0
  In  In12  1  0.92658211  0.92658211  -0.07341789  1.0
  In  In13  1  1.07341789  1.07341789  0.07341789  1.0
  Te  Te14  1  0.72499054  0.05983088  -0.18011569  1.0
  Te  Te15  1  0.18011569  0.94016912  -0.72499054  1.0
  Te  Te16  1  0.94016912  0.27500946  -0.81988431  1.0
  Te  Te17  1  0.27500946  0.18011569  -0.05983088  1.0
  Te  Te18  1  0.81988431  -0.27500946  0.05983088  1.0
  Te  Te19  1  1.05983088  -0.18011569  -0.27500946  1.0
  Te  Te20  1  1.57508514  1.07117487  0.16682986  1.0
  Te  Te21  1  0.83317014  0.92882513  -0.57508514  1.0
  Te  Te22  1  0.92882513  0.42491486  -0.16682986  1.0
  Te  Te23  1  0.42491486  0.83317014  -0.07117487  1.0
  Te  Te24  1  1.16682986  1.57508514  0.07117487  1.0
  Te  Te25  1  1.07117487  1.16682986  0.57508514  1.0
  Te  Te26  1  0.33113440  0.50000000  -0.33113440  1.0
  Te  Te27  1  0.50000000  0.66886560  -0.66886560  1.0
  Te  Te28  1  0.66886560  0.33113440  -0.50000000  1.0
  Te  Te29  1  0.40748822  1.00000000  -0.40748822  1.0
  Te  Te30  1  -0.00000000  0.59251178  -0.59251178  1.0
  Te  Te31  1  0.59251178  -0.59251178  -0.00000000  1.0
  Te  Te32  1  0.66217024  0.66217024  -0.33782976  1.0
  Te  Te33  1  0.33782976  0.33782976  -0.66217024  1.0
