# generated using pymatgen
data_H4I3N
_symmetry_space_group_name_H-M   'P 1'
_cell_length_a   10.90568742
_cell_length_b   6.82096828
_cell_length_c   9.96280996
_cell_angle_alpha   90.00000000
_cell_angle_beta   90.00000000
_cell_angle_gamma   90.00000000
_symmetry_Int_Tables_number   1
_chemical_formula_structural   H4I3N
_chemical_formula_sum   'H16 I12 N4'
_cell_volume   741.10701036
_cell_formula_units_Z   4
loop_
 _symmetry_equiv_pos_site_id
 _symmetry_equiv_pos_as_xyz
  1  'x, y, z'
loop_
 _atom_site_type_symbol
 _atom_site_label
 _atom_site_symmetry_multiplicity
 _atom_site_fract_x
 _atom_site_fract_y
 _atom_site_fract_z
 _atom_site_occupancy
  H  H0  1  0.43195862  0.75000000  0.56371321  1.0
  H  H1  1  0.93195862  0.75000000  0.93628679  1.0
  H  H2  1  0.56804138  0.25000000  0.43628679  1.0
  H  H3  1  0.06804138  0.25000000  0.06371321  1.0
  H  H4  1  0.17550686  0.37421274  0.97557043  1.0
  H  H5  1  0.17550686  0.12578726  0.97557043  1.0
  H  H6  1  0.67550686  0.37421274  0.52442957  1.0
  H  H7  1  0.67550686  0.12578726  0.52442957  1.0
  H  H8  1  0.82449314  0.87421274  0.02442957  1.0
  H  H9  1  0.82449314  0.62578726  0.02442957  1.0
  H  H10  1  0.32449314  0.87421274  0.47557043  1.0
  H  H11  1  0.32449314  0.62578726  0.47557043  1.0
  H  H12  1  0.28407506  0.75000000  0.61667810  1.0
  H  H13  1  0.78407506  0.75000000  0.88332190  1.0
  H  H14  1  0.71592494  0.25000000  0.38332190  1.0
  H  H15  1  0.21592494  0.25000000  0.11667810  1.0
  I  I16  1  0.37653919  0.75000000  0.05661309  1.0
  I  I17  1  0.87653919  0.75000000  0.44338691  1.0
  I  I18  1  0.62346081  0.25000000  0.94338691  1.0
  I  I19  1  0.12346081  0.25000000  0.55661309  1.0
  I  I20  1  0.16207834  0.75000000  0.85277570  1.0
  I  I21  1  0.66207834  0.75000000  0.64722430  1.0
  I  I22  1  0.83792166  0.25000000  0.14722430  1.0
  I  I23  1  0.33792166  0.25000000  0.35277570  1.0
  I  I24  1  0.08057286  0.75000000  0.26433077  1.0
  I  I25  1  0.58057286  0.75000000  0.23566923  1.0
  I  I26  1  0.91942714  0.25000000  0.73566923  1.0
  I  I27  1  0.41942714  0.25000000  0.76433077  1.0
  N  N28  1  0.34077364  0.75000000  0.53274194  1.0
  N  N29  1  0.84077364  0.75000000  0.96725806  1.0
  N  N30  1  0.65922636  0.25000000  0.46725806  1.0
  N  N31  1  0.15922636  0.25000000  0.03274194  1.0
