# generated using pymatgen
data_La3SbO3
_symmetry_space_group_name_H-M   'P 1'
_cell_length_a   7.28113261
_cell_length_b   7.28113261
_cell_length_c   12.44039383
_cell_angle_alpha   62.72632163
_cell_angle_beta   117.27367837
_cell_angle_gamma   147.14262998
_symmetry_Int_Tables_number   1
_chemical_formula_structural   La3SbO3
_chemical_formula_sum   'La6 Sb2 O6'
_cell_volume   314.34902015
_cell_formula_units_Z   2
loop_
 _symmetry_equiv_pos_site_id
 _symmetry_equiv_pos_as_xyz
  1  'x, y, z'
loop_
 _atom_site_type_symbol
 _atom_site_label
 _atom_site_symmetry_multiplicity
 _atom_site_fract_x
 _atom_site_fract_y
 _atom_site_fract_z
 _atom_site_occupancy
  La  La0  1  0.84450191  0.15549809  0.79282360  1.0
  La  La1  1  1.15549809  -0.15549809  0.20717640  1.0
  La  La2  1  0.62747482  0.37252518  0.89858115  1.0
  La  La3  1  1.37252518  -0.37252518  0.10141885  1.0
  La  La4  1  0.61934053  0.38065947  0.44444961  1.0
  La  La5  1  1.38065947  -0.38065947  0.55555039  1.0
  Sb  Sb6  1  0.87881816  -0.87881816  0.31885278  1.0
  Sb  Sb7  1  0.12118184  -0.12118184  0.68114722  1.0
  O  O8  1  0.83731345  0.16268655  0.98731966  1.0
  O  O9  1  1.16268655  -0.16268655  0.01268034  1.0
  O  O10  1  0.81024203  -0.81024203  0.58933729  1.0
  O  O11  1  0.18975797  -0.18975797  0.41066271  1.0
  O  O12  1  1.43573722  -0.43573722  0.79954516  1.0
  O  O13  1  0.56426278  0.43573722  0.20045484  1.0
