# generated using pymatgen
data_Cs2Sb
_symmetry_space_group_name_H-M   'P 1'
_cell_length_a   16.60170890
_cell_length_b   6.51179412
_cell_length_c   11.28803133
_cell_angle_alpha   90.00000000
_cell_angle_beta   90.00000000
_cell_angle_gamma   90.00000000
_symmetry_Int_Tables_number   1
_chemical_formula_structural   Cs2Sb
_chemical_formula_sum   'Cs16 Sb8'
_cell_volume   1220.31419109
_cell_formula_units_Z   8
loop_
 _symmetry_equiv_pos_site_id
 _symmetry_equiv_pos_as_xyz
  1  'x, y, z'
loop_
 _atom_site_type_symbol
 _atom_site_label
 _atom_site_symmetry_multiplicity
 _atom_site_fract_x
 _atom_site_fract_y
 _atom_site_fract_z
 _atom_site_occupancy
  Cs  Cs0  1  0.47990776  0.75000000  0.15287162  1.0
  Cs  Cs1  1  0.97990776  0.75000000  0.34712838  1.0
  Cs  Cs2  1  0.52009224  0.25000000  0.84712838  1.0
  Cs  Cs3  1  0.02009224  0.25000000  0.65287162  1.0
  Cs  Cs4  1  0.29048116  0.75000000  0.88378386  1.0
  Cs  Cs5  1  0.79048116  0.75000000  0.61621614  1.0
  Cs  Cs6  1  0.70951884  0.25000000  0.11621614  1.0
  Cs  Cs7  1  0.20951884  0.25000000  0.38378386  1.0
  Cs  Cs8  1  0.23741620  0.75000000  0.21793652  1.0
  Cs  Cs9  1  0.73741620  0.75000000  0.28206348  1.0
  Cs  Cs10  1  0.76258380  0.25000000  0.78206348  1.0
  Cs  Cs11  1  0.26258380  0.25000000  0.71793652  1.0
  Cs  Cs12  1  0.05628002  0.75000000  0.90306509  1.0
  Cs  Cs13  1  0.55628002  0.75000000  0.59693491  1.0
  Cs  Cs14  1  0.94371998  0.25000000  0.09693491  1.0
  Cs  Cs15  1  0.44371998  0.25000000  0.40306509  1.0
  Sb  Sb16  1  0.33403198  0.75000000  0.53997652  1.0
  Sb  Sb17  1  0.83403198  0.75000000  0.96002348  1.0
  Sb  Sb18  1  0.66596802  0.25000000  0.46002348  1.0
  Sb  Sb19  1  0.16596802  0.25000000  0.03997652  1.0
  Sb  Sb20  1  0.15763417  0.75000000  0.57221906  1.0
  Sb  Sb21  1  0.65763417  0.75000000  0.92778094  1.0
  Sb  Sb22  1  0.84236583  0.25000000  0.42778094  1.0
  Sb  Sb23  1  0.34236583  0.25000000  0.07221906  1.0
