# generated using pymatgen
data_Tb2GaNi2
_symmetry_space_group_name_H-M   'P 1'
_cell_length_a   5.35352130
_cell_length_b   5.35352130
_cell_length_c   5.35352130
_cell_angle_alpha   133.71977032
_cell_angle_beta   119.83759059
_cell_angle_gamma   79.12453048
_symmetry_Int_Tables_number   1
_chemical_formula_structural   Tb2GaNi2
_chemical_formula_sum   'Tb2 Ga1 Ni2'
_cell_volume   93.19682491
_cell_formula_units_Z   1
loop_
 _symmetry_equiv_pos_site_id
 _symmetry_equiv_pos_as_xyz
  1  'x, y, z'
loop_
 _atom_site_type_symbol
 _atom_site_label
 _atom_site_symmetry_multiplicity
 _atom_site_fract_x
 _atom_site_fract_y
 _atom_site_fract_z
 _atom_site_occupancy
  Tb  Tb0  1  0.70182627  0.20182627  0.50000000  1.0
  Tb  Tb1  1  0.29817373  0.79817373  0.50000000  1.0
  Ga  Ga2  1  0.00000000  0.00000000  0.00000000  1.0
  Ni  Ni3  1  0.26799481  0.50000000  0.76799481  1.0
  Ni  Ni4  1  0.73200519  0.50000000  1.23200519  1.0
