# generated using pymatgen
data_Na2Cd(SO4)2
_symmetry_space_group_name_H-M   'P 1'
_cell_length_a   6.62387974
_cell_length_b   6.62387974
_cell_length_c   8.90326796
_cell_angle_alpha   70.60872691
_cell_angle_beta   109.39127309
_cell_angle_gamma   102.00749113
_symmetry_Int_Tables_number   1
_chemical_formula_structural   Na2Cd(SO4)2
_chemical_formula_sum   'Na4 Cd2 S4 O16'
_cell_volume   345.46945247
_cell_formula_units_Z   2
loop_
 _symmetry_equiv_pos_site_id
 _symmetry_equiv_pos_as_xyz
  1  'x, y, z'
loop_
 _atom_site_type_symbol
 _atom_site_label
 _atom_site_symmetry_multiplicity
 _atom_site_fract_x
 _atom_site_fract_y
 _atom_site_fract_z
 _atom_site_occupancy
  Na  Na0  1  0.80167808  0.07766498  0.55782272  1.0
  Na  Na1  1  0.92233502  0.19832192  0.05782272  1.0
  Na  Na2  1  1.07766498  -0.19832192  0.94217728  1.0
  Na  Na3  1  1.19832192  -0.07766498  0.44217728  1.0
  Cd  Cd4  1  0.43037185  0.43037185  0.75000000  1.0
  Cd  Cd5  1  0.56962815  0.56962815  0.25000000  1.0
  S  S6  1  1.52334318  -0.09614024  0.81415666  1.0
  S  S7  1  1.09614024  -0.52334318  0.31415666  1.0
  S  S8  1  0.90385976  0.52334318  0.68584334  1.0
  S  S9  1  0.47665682  0.09614024  0.18584334  1.0
  O  O10  1  0.38411163  0.08458014  0.74212187  1.0
  O  O11  1  0.91541986  0.61588837  0.24212187  1.0
  O  O12  1  1.08458014  -0.61588837  0.75787813  1.0
  O  O13  1  1.61588837  -0.08458014  0.25787813  1.0
  O  O14  1  1.49037083  -0.19553087  0.67590391  1.0
  O  O15  1  1.19553087  -0.49037083  0.17590391  1.0
  O  O16  1  0.80446913  0.49037083  0.82409609  1.0
  O  O17  1  0.50962917  0.19553087  0.32409609  1.0
  O  O18  1  1.44843342  -0.26107654  0.95164378  1.0
  O  O19  1  1.26107654  -0.44843342  0.45164378  1.0
  O  O20  1  0.73892346  0.44843342  0.54835622  1.0
  O  O21  1  0.55156658  0.26107654  0.04835622  1.0
  O  O22  1  1.75597591  -0.01745006  0.86856282  1.0
  O  O23  1  1.01745006  -0.75597591  0.36856282  1.0
  O  O24  1  0.98254994  0.75597591  0.63143718  1.0
  O  O25  1  0.24402409  0.01745006  0.13143718  1.0
