# generated using pymatgen
data_H7NF4
_symmetry_space_group_name_H-M   'P 1'
_cell_length_a   6.34221869
_cell_length_b   6.34221869
_cell_length_c   6.34221869
_cell_angle_alpha   74.76263096
_cell_angle_beta   74.76263096
_cell_angle_gamma   74.76263096
_symmetry_Int_Tables_number   1
_chemical_formula_structural   H7NF4
_chemical_formula_sum   'H14 N2 F8'
_cell_volume   232.28633784
_cell_formula_units_Z   2
loop_
 _symmetry_equiv_pos_site_id
 _symmetry_equiv_pos_as_xyz
  1  'x, y, z'
loop_
 _atom_site_type_symbol
 _atom_site_label
 _atom_site_symmetry_multiplicity
 _atom_site_fract_x
 _atom_site_fract_y
 _atom_site_fract_z
 _atom_site_occupancy
  H  H0  1  0.19164278  0.83152720  -1.00353317  1.0
  H  H1  1  0.69164278  0.49646683  -0.66847280  1.0
  H  H2  1  0.33152720  0.69164278  -0.50353317  1.0
  H  H3  1  0.83152720  -0.00353317  -0.80835722  1.0
  H  H4  1  0.49646683  0.33152720  -0.30835722  1.0
  H  H5  1  -0.00353317  0.19164278  -0.16847280  1.0
  H  H6  1  1.26448084  1.10403308  0.35491319  1.0
  H  H7  1  0.76448084  0.85491319  -0.39596692  1.0
  H  H8  1  0.60403308  0.76448084  -0.14508681  1.0
  H  H9  1  1.10403308  1.35491319  0.26448084  1.0
  H  H10  1  0.85491319  0.60403308  -0.23551916  1.0
  H  H11  1  1.35491319  1.26448084  0.10403308  1.0
  H  H12  1  1.34251947  1.34251947  0.34251947  1.0
  H  H13  1  0.84251947  0.84251947  -0.15748053  1.0
  N  N14  1  1.26641384  1.26641384  0.26641384  1.0
  N  N15  1  0.76641384  0.76641384  -0.23358616  1.0
  F  F16  1  0.33417416  0.72005264  -0.98992088  1.0
  F  F17  1  0.83417416  0.51007912  -0.77994736  1.0
  F  F18  1  0.22005264  0.83417416  -0.48992088  1.0
  F  F19  1  0.72005264  0.01007912  -0.66582584  1.0
  F  F20  1  0.51007912  0.22005264  -0.16582584  1.0
  F  F21  1  0.01007912  0.33417416  -0.27994736  1.0
  F  F22  1  -0.01620316  -0.01620316  -0.01620316  1.0
  F  F23  1  0.48379684  0.48379684  -0.51620316  1.0
