# generated using pymatgen
data_H12C4Se(NO)2
_symmetry_space_group_name_H-M   'P 1'
_cell_length_a   6.60238892
_cell_length_b   6.60238892
_cell_length_c   11.17966172
_cell_angle_alpha   74.74532008
_cell_angle_beta   105.25467992
_cell_angle_gamma   86.32994241
_symmetry_Int_Tables_number   1
_chemical_formula_structural   H12C4Se(NO)2
_chemical_formula_sum   'H24 C8 Se2 N4 O4'
_cell_volume   448.93026218
_cell_formula_units_Z   2
loop_
 _symmetry_equiv_pos_site_id
 _symmetry_equiv_pos_as_xyz
  1  'x, y, z'
loop_
 _atom_site_type_symbol
 _atom_site_label
 _atom_site_symmetry_multiplicity
 _atom_site_fract_x
 _atom_site_fract_y
 _atom_site_fract_z
 _atom_site_occupancy
  H  H0  1  0.46247054  -0.14011741  0.22415219  1.0
  H  H1  1  0.85988259  -0.53752946  0.27584781  1.0
  H  H2  1  1.53752946  0.14011741  0.77584781  1.0
  H  H3  1  1.14011741  0.53752946  0.72415219  1.0
  H  H4  1  0.54347300  -0.20770183  0.39841018  1.0
  H  H5  1  0.79229817  -0.45652700  0.10158982  1.0
  H  H6  1  1.45652700  0.20770183  0.60158982  1.0
  H  H7  1  1.20770183  0.45652700  0.89841018  1.0
  H  H8  1  0.41403939  -0.38642715  0.31825712  1.0
  H  H9  1  0.61357285  -0.58596061  0.18174288  1.0
  H  H10  1  1.58596061  0.38642715  0.68174288  1.0
  H  H11  1  1.38642715  0.58596061  0.81825712  1.0
  H  H12  1  0.98766520  -0.13679246  0.41207235  1.0
  H  H13  1  0.86320754  -0.01233480  0.08792765  1.0
  H  H14  1  1.01233480  0.13679246  0.58792765  1.0
  H  H15  1  1.13679246  0.01233480  0.91207235  1.0
  H  H16  1  1.14377243  0.61788948  0.43417882  1.0
  H  H17  1  1.61788948  0.14377243  0.06582118  1.0
  H  H18  1  0.85622757  -0.61788948  0.56582118  1.0
  H  H19  1  0.38211052  -0.14377243  0.93417882  1.0
  H  H20  1  0.26025064  -0.19249848  0.50941902  1.0
  H  H21  1  0.80750152  -0.73974936  0.99058098  1.0
  H  H22  1  1.73974936  0.19249848  0.49058098  1.0
  H  H23  1  1.19249848  0.73974936  0.00941902  1.0
  C  C24  1  0.42149796  -0.21831019  0.31220554  1.0
  C  C25  1  0.78168981  -0.57850204  0.18779446  1.0
  C  C26  1  1.57850204  0.21831019  0.68779446  1.0
  C  C27  1  1.21831019  0.57850204  0.81220554  1.0
  C  C28  1  1.14675043  0.78820009  0.42254551  1.0
  C  C29  1  1.78820009  0.14675043  0.07745449  1.0
  C  C30  1  0.85324957  -0.78820009  0.57745449  1.0
  C  C31  1  0.21179991  -0.14675043  0.92254551  1.0
  Se  Se32  1  1.16851267  0.16851267  0.25000000  1.0
  Se  Se33  1  0.83148733  -0.16851267  0.75000000  1.0
  N  N34  1  0.20735962  -0.12624344  0.30363975  1.0
  N  N35  1  0.87375656  -0.79264038  0.19636025  1.0
  N  N36  1  1.79264038  0.12624344  0.69636025  1.0
  N  N37  1  1.12624344  0.79264038  0.80363975  1.0
  O  O38  1  1.27706896  0.23762225  0.13142664  1.0
  O  O39  1  1.23762225  0.27706896  0.36857336  1.0
  O  O40  1  0.72293104  -0.23762225  0.86857336  1.0
  O  O41  1  0.76237775  -0.27706896  0.63142664  1.0
