# generated using pymatgen
data_Mg4AlSi6
_symmetry_space_group_name_H-M   'P 1'
_cell_length_a   8.50881619
_cell_length_b   8.50881619
_cell_length_c   6.68148504
_cell_angle_alpha   88.63421652
_cell_angle_beta   91.36578348
_cell_angle_gamma   155.29939604
_symmetry_Int_Tables_number   1
_chemical_formula_structural   Mg4AlSi6
_chemical_formula_sum   'Mg4 Al1 Si6'
_cell_volume   202.08313568
_cell_formula_units_Z   1
loop_
 _symmetry_equiv_pos_site_id
 _symmetry_equiv_pos_as_xyz
  1  'x, y, z'
loop_
 _atom_site_type_symbol
 _atom_site_label
 _atom_site_symmetry_multiplicity
 _atom_site_fract_x
 _atom_site_fract_y
 _atom_site_fract_z
 _atom_site_occupancy
  Mg  Mg0  1  0.66636184  -0.66636184  0.98949624  1.0
  Mg  Mg1  1  1.33363816  -0.33363816  0.01050376  1.0
  Mg  Mg2  1  0.58012883  -0.58012883  0.40539268  1.0
  Mg  Mg3  1  1.41987117  -0.41987117  0.59460732  1.0
  Al  Al4  1  0.50000000  0.50000000  0.00000000  1.0
  Si  Si5  1  0.94678724  -0.94678724  0.24796133  1.0
  Si  Si6  1  1.05321276  -0.05321276  0.75203867  1.0
  Si  Si7  1  0.78878868  -0.78878868  0.71228583  1.0
  Si  Si8  1  1.21121132  -0.21121132  0.28771417  1.0
  Si  Si9  1  0.80794282  -0.80794282  0.34505320  1.0
  Si  Si10  1  1.19205718  -0.19205718  0.65494680  1.0
