# generated using pymatgen
data_Sm2(Al3Ir)3
_symmetry_space_group_name_H-M   'P 1'
_cell_length_a   7.58402283
_cell_length_b   7.58402283
_cell_length_c   9.63198546
_cell_angle_alpha   90.00000000
_cell_angle_beta   90.00000000
_cell_angle_gamma   60.61104213
_symmetry_Int_Tables_number   1
_chemical_formula_structural   Sm2(Al3Ir)3
_chemical_formula_sum   'Sm4 Al18 Ir6'
_cell_volume   482.71076419
_cell_formula_units_Z   2
loop_
 _symmetry_equiv_pos_site_id
 _symmetry_equiv_pos_as_xyz
  1  'x, y, z'
loop_
 _atom_site_type_symbol
 _atom_site_label
 _atom_site_symmetry_multiplicity
 _atom_site_fract_x
 _atom_site_fract_y
 _atom_site_fract_z
 _atom_site_occupancy
  Sm  Sm0  1  -0.00482529  0.32888895  0.75000000  1.0
  Sm  Sm1  1  -0.67111105  0.99517471  0.25000000  1.0
  Sm  Sm2  1  -0.32888895  1.00482529  0.75000000  1.0
  Sm  Sm3  1  0.00482529  0.67111105  0.25000000  1.0
  Al  Al4  1  0.00184796  0.66461664  0.92769000  1.0
  Al  Al5  1  0.00184796  0.66461664  0.57231000  1.0
  Al  Al6  1  -0.33538336  1.00184796  0.42769000  1.0
  Al  Al7  1  -0.33538336  1.00184796  0.07231000  1.0
  Al  Al8  1  -0.66461664  0.99815204  0.92769000  1.0
  Al  Al9  1  -0.66461664  0.99815204  0.57231000  1.0
  Al  Al10  1  -0.00184796  0.33538336  0.42769000  1.0
  Al  Al11  1  -0.00184796  0.33538336  0.07231000  1.0
  Al  Al12  1  0.33834571  0.45310318  0.75000000  1.0
  Al  Al13  1  -0.54689682  1.33834571  0.25000000  1.0
  Al  Al14  1  -0.45310318  0.66165429  0.75000000  1.0
  Al  Al15  1  -0.33834571  0.54689682  0.25000000  1.0
  Al  Al16  1  -0.66612086  0.66612086  0.45267299  1.0
  Al  Al17  1  -0.66612086  0.66612086  0.04732701  1.0
  Al  Al18  1  -0.33387914  0.33387914  0.95267299  1.0
  Al  Al19  1  -0.33387914  0.33387914  0.54732701  1.0
  Al  Al20  1  -0.86945442  0.86945442  0.75000000  1.0
  Al  Al21  1  -0.13054558  0.13054558  0.25000000  1.0
  Ir  Ir22  1  -0.32920765  0.67079235  0.00000000  1.0
  Ir  Ir23  1  -0.32920765  0.67079235  0.50000000  1.0
  Ir  Ir24  1  0.32920765  0.32920765  0.00000000  1.0
  Ir  Ir25  1  0.32920765  0.32920765  0.50000000  1.0
  Ir  Ir26  1  0.00000000  0.00000000  0.00000000  1.0
  Ir  Ir27  1  0.00000000  0.00000000  0.50000000  1.0
