# generated using pymatgen
data_Na3BeAl(SiO4)2
_symmetry_space_group_name_H-M   'P 1'
_cell_length_a   6.94003767
_cell_length_b   7.27896747
_cell_length_c   7.39187937
_cell_angle_alpha   90.00000000
_cell_angle_beta   90.00000000
_cell_angle_gamma   90.00000000
_symmetry_Int_Tables_number   1
_chemical_formula_structural   Na3BeAl(SiO4)2
_chemical_formula_sum   'Na6 Be2 Al2 Si4 O16'
_cell_volume   373.41045824
_cell_formula_units_Z   2
loop_
 _symmetry_equiv_pos_site_id
 _symmetry_equiv_pos_as_xyz
  1  'x, y, z'
loop_
 _atom_site_type_symbol
 _atom_site_label
 _atom_site_symmetry_multiplicity
 _atom_site_fract_x
 _atom_site_fract_y
 _atom_site_fract_z
 _atom_site_occupancy
  Na  Na0  1  0.24753641  0.21225723  0.82432458  1.0
  Na  Na1  1  0.74753641  0.28774277  0.17567542  1.0
  Na  Na2  1  0.75246359  0.78774277  0.82432458  1.0
  Na  Na3  1  0.25246359  0.71225723  0.17567542  1.0
  Na  Na4  1  0.50000000  0.50000000  0.53389922  1.0
  Na  Na5  1  0.00000000  0.00000000  0.46610078  1.0
  Be  Be6  1  0.50000000  0.50000000  0.93406768  1.0
  Be  Be7  1  0.00000000  0.00000000  0.06593232  1.0
  Al  Al8  1  0.50000000  0.00000000  0.46723540  1.0
  Al  Al9  1  0.00000000  0.50000000  0.53276460  1.0
  Si  Si10  1  0.23532374  0.79985480  0.75988069  1.0
  Si  Si11  1  0.73532374  0.70014520  0.24011931  1.0
  Si  Si12  1  0.76467626  0.20014520  0.75988069  1.0
  Si  Si13  1  0.26467626  0.29985480  0.24011931  1.0
  O  O14  1  0.41543224  0.66124668  0.79533483  1.0
  O  O15  1  0.91543224  0.83875332  0.20466517  1.0
  O  O16  1  0.58456776  0.33875332  0.79533483  1.0
  O  O17  1  0.08456776  0.16124668  0.20466517  1.0
  O  O18  1  0.29748172  0.95779927  0.60646766  1.0
  O  O19  1  0.79748172  0.54220073  0.39353234  1.0
  O  O20  1  0.70251828  0.04220073  0.60646766  1.0
  O  O21  1  0.20251828  0.45779927  0.39353234  1.0
  O  O22  1  0.17086439  0.91079575  0.94109942  1.0
  O  O23  1  0.67086439  0.58920425  0.05890058  1.0
  O  O24  1  0.82913561  0.08920425  0.94109942  1.0
  O  O25  1  0.32913561  0.41079575  0.05890058  1.0
  O  O26  1  0.04501585  0.69586739  0.66866411  1.0
  O  O27  1  0.54501585  0.80413261  0.33133589  1.0
  O  O28  1  0.95498415  0.30413261  0.66866411  1.0
  O  O29  1  0.45498415  0.19586739  0.33133589  1.0
