# generated using pymatgen
data_SnO
_symmetry_space_group_name_H-M   'P 1'
_cell_length_a   3.85950977
_cell_length_b   5.03706623
_cell_length_c   3.87302584
_cell_angle_alpha   90.00000000
_cell_angle_beta   90.00000000
_cell_angle_gamma   90.00000000
_symmetry_Int_Tables_number   1
_chemical_formula_structural   SnO
_chemical_formula_sum   'Sn2 O2'
_cell_volume   75.29397050
_cell_formula_units_Z   2
loop_
 _symmetry_equiv_pos_site_id
 _symmetry_equiv_pos_as_xyz
  1  'x, y, z'
loop_
 _atom_site_type_symbol
 _atom_site_label
 _atom_site_symmetry_multiplicity
 _atom_site_fract_x
 _atom_site_fract_y
 _atom_site_fract_z
 _atom_site_occupancy
  Sn  Sn0  1  0.50000000  0.73071020  0.37499901  1.0
  Sn  Sn1  1  0.00000000  0.26928980  -0.12500099  1.0
  O  O2  1  0.50000000  0.50063402  0.87500099  1.0
  O  O3  1  0.00000000  0.49936598  0.37500099  1.0
