# generated using pymatgen
data_CsFeP(H6O5)2
_symmetry_space_group_name_H-M   'P 1'
_cell_length_a   7.19033022
_cell_length_b   7.19033022
_cell_length_c   7.19033022
_cell_angle_alpha   60.00000000
_cell_angle_beta   60.00000000
_cell_angle_gamma   60.00000000
_symmetry_Int_Tables_number   1
_chemical_formula_structural   CsFeP(H6O5)2
_chemical_formula_sum   'Cs1 Fe1 P1 H12 O10'
_cell_volume   262.86424131
_cell_formula_units_Z   1
loop_
 _symmetry_equiv_pos_site_id
 _symmetry_equiv_pos_as_xyz
  1  'x, y, z'
loop_
 _atom_site_type_symbol
 _atom_site_label
 _atom_site_symmetry_multiplicity
 _atom_site_fract_x
 _atom_site_fract_y
 _atom_site_fract_z
 _atom_site_occupancy
  Cs  Cs0  1  0.25000000  0.25000000  0.25000000  1.0
  Fe  Fe1  1  0.00000000  0.00000000  0.00000000  1.0
  P  P2  1  0.75000000  0.75000000  -0.25000000  1.0
  H  H3  1  0.73557207  1.14801272  -0.26442793  1.0
  H  H4  1  -0.26442793  0.73557207  1.14801272  1.0
  H  H5  1  -0.61915685  0.73557207  1.14801272  1.0
  H  H6  1  0.38084315  1.14801272  -0.26442793  1.0
  H  H7  1  1.14801272  0.73557207  -0.26442793  1.0
  H  H8  1  -0.61915685  0.73557207  0.73557207  1.0
  H  H9  1  1.14801272  0.73557207  -0.61915685  1.0
  H  H10  1  -0.26442793  0.73557207  0.38084315  1.0
  H  H11  1  -0.26442793  0.38084315  0.73557207  1.0
  H  H12  1  1.14801272  0.38084315  -0.26442793  1.0
  H  H13  1  0.73557207  1.14801272  -0.61915685  1.0
  H  H14  1  -0.26442793  0.38084315  1.14801272  1.0
  O  O15  1  -0.78984096  0.78984096  0.78984096  1.0
  O  O16  1  -0.21015904  0.78984096  0.21015904  1.0
  O  O17  1  -0.21015904  0.21015904  0.78984096  1.0
  O  O18  1  0.21015904  1.21015904  -0.21015904  1.0
  O  O19  1  0.21015904  -0.21015904  0.21015904  1.0
  O  O20  1  -0.21015904  0.21015904  0.21015904  1.0
  O  O21  1  -0.33898732  0.66101268  0.66101268  1.0
  O  O22  1  1.01696195  0.66101268  -0.33898732  1.0
  O  O23  1  -0.33898732  0.66101268  1.01696195  1.0
  O  O24  1  0.66101268  1.01696195  -0.33898732  1.0
