# generated using pymatgen
data_Na2Ca(PO3)4
_symmetry_space_group_name_H-M   'P 1'
_cell_length_a   9.81115085
_cell_length_b   9.81115085
_cell_length_c   5.02912305
_cell_angle_alpha   90.00000000
_cell_angle_beta   90.00000000
_cell_angle_gamma   90.00000000
_symmetry_Int_Tables_number   1
_chemical_formula_structural   Na2Ca(PO3)4
_chemical_formula_sum   'Na4 Ca2 P8 O24'
_cell_volume   484.09675114
_cell_formula_units_Z   2
loop_
 _symmetry_equiv_pos_site_id
 _symmetry_equiv_pos_as_xyz
  1  'x, y, z'
loop_
 _atom_site_type_symbol
 _atom_site_label
 _atom_site_symmetry_multiplicity
 _atom_site_fract_x
 _atom_site_fract_y
 _atom_site_fract_z
 _atom_site_occupancy
  Na  Na0  1  0.25000000  0.25000000  0.50000000  1.0
  Na  Na1  1  0.75000000  0.25000000  0.50000000  1.0
  Na  Na2  1  0.25000000  0.75000000  0.50000000  1.0
  Na  Na3  1  0.75000000  0.75000000  0.50000000  1.0
  Ca  Ca4  1  0.50000000  0.50000000  0.50000000  1.0
  Ca  Ca5  1  0.00000000  0.00000000  0.50000000  1.0
  P  P6  1  0.50000000  0.78231645  0.00000000  1.0
  P  P7  1  0.00000000  0.71768355  -0.00000000  1.0
  P  P8  1  0.00000000  0.28231645  -0.00000000  1.0
  P  P9  1  0.50000000  0.21768355  0.00000000  1.0
  P  P10  1  0.78231645  0.50000000  -0.00000000  1.0
  P  P11  1  0.71768355  0.00000000  0.00000000  1.0
  P  P12  1  0.28231645  0.00000000  -0.00000000  1.0
  P  P13  1  0.21768355  0.50000000  0.00000000  1.0
  O  O14  1  0.61340007  0.88659993  0.12657650  1.0
  O  O15  1  0.11340007  0.61340007  0.12657650  1.0
  O  O16  1  0.88659993  0.38659993  0.12657650  1.0
  O  O17  1  0.38659993  0.11340007  0.12657650  1.0
  O  O18  1  0.88659993  0.61340007  0.87342350  1.0
  O  O19  1  0.38659993  0.88659993  0.87342350  1.0
  O  O20  1  0.61340007  0.11340007  0.87342350  1.0
  O  O21  1  0.11340007  0.38659993  0.87342350  1.0
  O  O22  1  0.29297487  0.44116841  0.23360459  1.0
  O  O23  1  0.79297487  0.05883159  0.23360459  1.0
  O  O24  1  0.20702513  0.94116841  0.23360459  1.0
  O  O25  1  0.70702513  0.55883159  0.23360459  1.0
  O  O26  1  0.20702513  0.05883159  0.76639541  1.0
  O  O27  1  0.70702513  0.44116841  0.76639541  1.0
  O  O28  1  0.29297487  0.55883159  0.76639541  1.0
  O  O29  1  0.79297487  0.94116841  0.76639541  1.0
  O  O30  1  0.44116841  0.29297487  0.76639541  1.0
  O  O31  1  0.05883159  0.79297487  0.76639541  1.0
  O  O32  1  0.94116841  0.20702513  0.76639541  1.0
  O  O33  1  0.55883159  0.70702513  0.76639541  1.0
  O  O34  1  0.05883159  0.20702513  0.23360459  1.0
  O  O35  1  0.44116841  0.70702513  0.23360459  1.0
  O  O36  1  0.55883159  0.29297487  0.23360459  1.0
  O  O37  1  0.94116841  0.79297487  0.23360459  1.0
