# generated using pymatgen
data_TiGeIr
_symmetry_space_group_name_H-M   'P 1'
_cell_length_a   6.30246910
_cell_length_b   3.97489409
_cell_length_c   7.41797029
_cell_angle_alpha   90.00000000
_cell_angle_beta   90.00000000
_cell_angle_gamma   90.00000000
_symmetry_Int_Tables_number   1
_chemical_formula_structural   TiGeIr
_chemical_formula_sum   'Ti4 Ge4 Ir4'
_cell_volume   185.83237460
_cell_formula_units_Z   4
loop_
 _symmetry_equiv_pos_site_id
 _symmetry_equiv_pos_as_xyz
  1  'x, y, z'
loop_
 _atom_site_type_symbol
 _atom_site_label
 _atom_site_symmetry_multiplicity
 _atom_site_fract_x
 _atom_site_fract_y
 _atom_site_fract_z
 _atom_site_occupancy
  Ti  Ti0  1  0.97203400  0.75000000  0.68864998  1.0
  Ti  Ti1  1  0.47203400  0.75000000  0.81135002  1.0
  Ti  Ti2  1  0.02796600  0.25000000  0.31135002  1.0
  Ti  Ti3  1  0.52796600  0.25000000  0.18864998  1.0
  Ge  Ge4  1  0.74227025  0.75000000  0.37881259  1.0
  Ge  Ge5  1  0.24227025  0.75000000  0.12118741  1.0
  Ge  Ge6  1  0.25772975  0.25000000  0.62118741  1.0
  Ge  Ge7  1  0.75772975  0.25000000  0.87881259  1.0
  Ir  Ir8  1  0.84601819  0.75000000  0.06009824  1.0
  Ir  Ir9  1  0.34601819  0.75000000  0.43990176  1.0
  Ir  Ir10  1  0.15398181  0.25000000  0.93990176  1.0
  Ir  Ir11  1  0.65398181  0.25000000  0.56009824  1.0
