# generated using pymatgen
data_Mg3B(HO2)3
_symmetry_space_group_name_H-M   'P 1'
_cell_length_a   9.08573565
_cell_length_b   9.08573565
_cell_length_c   3.19219705
_cell_angle_alpha   90.00000000
_cell_angle_beta   90.00000000
_cell_angle_gamma   120.00000000
_symmetry_Int_Tables_number   1
_chemical_formula_structural   Mg3B(HO2)3
_chemical_formula_sum   'Mg6 B2 H6 O12'
_cell_volume   228.21307200
_cell_formula_units_Z   2
loop_
 _symmetry_equiv_pos_site_id
 _symmetry_equiv_pos_as_xyz
  1  'x, y, z'
loop_
 _atom_site_type_symbol
 _atom_site_label
 _atom_site_symmetry_multiplicity
 _atom_site_fract_x
 _atom_site_fract_y
 _atom_site_fract_z
 _atom_site_occupancy
  Mg  Mg0  1  0.96663484  0.62372244  0.25000000  1.0
  Mg  Mg1  1  0.65708760  0.03336516  0.25000000  1.0
  Mg  Mg2  1  0.37627756  0.34291240  0.25000000  1.0
  Mg  Mg3  1  0.03336516  0.37627756  0.75000000  1.0
  Mg  Mg4  1  0.34291240  0.96663484  0.75000000  1.0
  Mg  Mg5  1  0.62372244  0.65708760  0.75000000  1.0
  B  B6  1  0.33333333  0.66666667  0.25000000  1.0
  B  B7  1  0.66666667  0.33333333  0.75000000  1.0
  H  H8  1  0.99769472  0.16855317  0.25000000  1.0
  H  H9  1  0.17085845  0.00230528  0.25000000  1.0
  H  H10  1  0.83144683  0.82914155  0.25000000  1.0
  H  H11  1  0.00230528  0.83144683  0.75000000  1.0
  H  H12  1  0.82914155  0.99769472  0.75000000  1.0
  H  H13  1  0.16855317  0.17085845  0.75000000  1.0
  O  O14  1  0.91506978  0.20665019  0.25000000  1.0
  O  O15  1  0.29158040  0.08493022  0.25000000  1.0
  O  O16  1  0.79334981  0.70841960  0.25000000  1.0
  O  O17  1  0.08493022  0.79334981  0.75000000  1.0
  O  O18  1  0.70841960  0.91506978  0.75000000  1.0
  O  O19  1  0.20665019  0.29158040  0.75000000  1.0
  O  O20  1  0.15743996  0.55603682  0.25000000  1.0
  O  O21  1  0.39859686  0.84256004  0.25000000  1.0
  O  O22  1  0.44396318  0.60140314  0.25000000  1.0
  O  O23  1  0.84256004  0.44396318  0.75000000  1.0
  O  O24  1  0.60140314  0.15743996  0.75000000  1.0
  O  O25  1  0.55603682  0.39859686  0.75000000  1.0
