# generated using pymatgen
data_Ba3Sr4B3O9F5
_symmetry_space_group_name_H-M   'P 1'
_cell_length_a   10.87161407
_cell_length_b   10.87161407
_cell_length_c   7.09480944
_cell_angle_alpha   90.00000000
_cell_angle_beta   90.00000000
_cell_angle_gamma   120.00000000
_symmetry_Int_Tables_number   1
_chemical_formula_structural   Ba3Sr4B3O9F5
_chemical_formula_sum   'Ba6 Sr8 B6 O18 F10'
_cell_volume   726.20531148
_cell_formula_units_Z   2
loop_
 _symmetry_equiv_pos_site_id
 _symmetry_equiv_pos_as_xyz
  1  'x, y, z'
loop_
 _atom_site_type_symbol
 _atom_site_label
 _atom_site_symmetry_multiplicity
 _atom_site_fract_x
 _atom_site_fract_y
 _atom_site_fract_z
 _atom_site_occupancy
  Ba  Ba0  1  0.71881094  0.85940547  0.17373572  1.0
  Ba  Ba1  1  0.85940547  0.71881094  0.67373572  1.0
  Ba  Ba2  1  0.85940547  0.14059453  0.67373572  1.0
  Ba  Ba3  1  0.14059453  0.85940547  0.17373572  1.0
  Ba  Ba4  1  0.14059453  0.28118906  0.17373572  1.0
  Ba  Ba5  1  0.28118906  0.14059453  0.67373572  1.0
  Sr  Sr6  1  0.92891996  0.46445998  0.33395109  1.0
  Sr  Sr7  1  0.46445998  0.92891996  0.83395109  1.0
  Sr  Sr8  1  0.46445998  0.53554002  0.83395109  1.0
  Sr  Sr9  1  0.53554002  0.46445998  0.33395109  1.0
  Sr  Sr10  1  0.53554002  0.07108004  0.33395109  1.0
  Sr  Sr11  1  0.07108004  0.53554002  0.83395109  1.0
  Sr  Sr12  1  0.33333333  0.66666667  0.40465946  1.0
  Sr  Sr13  1  0.66666667  0.33333333  0.90465946  1.0
  B  B14  1  0.37765502  0.18882751  0.11410389  1.0
  B  B15  1  0.18882751  0.37765502  0.61410389  1.0
  B  B16  1  0.18882751  0.81117249  0.61410389  1.0
  B  B17  1  0.81117249  0.18882751  0.11410389  1.0
  B  B18  1  0.81117249  0.62234498  0.11410389  1.0
  B  B19  1  0.62234498  0.81117249  0.61410389  1.0
  O  O20  1  0.68952488  0.59890860  0.01991545  1.0
  O  O21  1  0.68952488  0.09061628  0.01991545  1.0
  O  O22  1  0.59890860  0.68952488  0.51991545  1.0
  O  O23  1  0.59890860  0.90938372  0.51991545  1.0
  O  O24  1  0.90938372  0.59890860  0.01991545  1.0
  O  O25  1  0.90938372  0.31047512  0.01991545  1.0
  O  O26  1  0.40109140  0.31047512  0.01991545  1.0
  O  O27  1  0.40109140  0.09061628  0.01991545  1.0
  O  O28  1  0.31047512  0.90938372  0.51991545  1.0
  O  O29  1  0.31047512  0.40109140  0.51991545  1.0
  O  O30  1  0.09061628  0.68952488  0.51991545  1.0
  O  O31  1  0.09061628  0.40109140  0.51991545  1.0
  O  O32  1  0.33216199  0.16608099  0.30013460  1.0
  O  O33  1  0.16608099  0.33216199  0.80013460  1.0
  O  O34  1  0.16608099  0.83391901  0.80013460  1.0
  O  O35  1  0.83391901  0.16608099  0.30013460  1.0
  O  O36  1  0.83391901  0.66783801  0.30013460  1.0
  O  O37  1  0.66783801  0.83391901  0.80013460  1.0
  F  F38  1  0.15460752  0.57730376  0.15904261  1.0
  F  F39  1  0.57730376  0.15460752  0.65904261  1.0
  F  F40  1  0.57730376  0.42269624  0.65904261  1.0
  F  F41  1  0.42269624  0.57730376  0.15904261  1.0
  F  F42  1  0.42269624  0.84539248  0.15904261  1.0
  F  F43  1  0.84539248  0.42269624  0.65904261  1.0
  F  F44  1  0.33333333  0.66666667  0.75359075  1.0
  F  F45  1  0.66666667  0.33333333  0.25359075  1.0
  F  F46  1  0.00000000  0.00000000  0.08845338  1.0
  F  F47  1  0.00000000  0.00000000  0.58845338  1.0
