# generated using pymatgen
data_K2SmNb5O15
_symmetry_space_group_name_H-M   'P 1'
_cell_length_a   12.68383054
_cell_length_b   12.68383054
_cell_length_c   3.93852179
_cell_angle_alpha   90.00000000
_cell_angle_beta   90.00000000
_cell_angle_gamma   90.00000000
_symmetry_Int_Tables_number   1
_chemical_formula_structural   K2SmNb5O15
_chemical_formula_sum   'K4 Sm2 Nb10 O30'
_cell_volume   633.62764109
_cell_formula_units_Z   2
loop_
 _symmetry_equiv_pos_site_id
 _symmetry_equiv_pos_as_xyz
  1  'x, y, z'
loop_
 _atom_site_type_symbol
 _atom_site_label
 _atom_site_symmetry_multiplicity
 _atom_site_fract_x
 _atom_site_fract_y
 _atom_site_fract_z
 _atom_site_occupancy
  K  K0  1  0.32897965  0.17102035  0.50000000  1.0
  K  K1  1  0.82897965  0.32897965  0.50000000  1.0
  K  K2  1  0.67102035  0.82897965  0.50000000  1.0
  K  K3  1  0.17102035  0.67102035  0.50000000  1.0
  Sm  Sm4  1  0.50000000  0.50000000  0.50000000  1.0
  Sm  Sm5  1  0.00000000  0.00000000  0.50000000  1.0
  Nb  Nb6  1  0.42397029  0.71301677  0.00000000  1.0
  Nb  Nb7  1  0.92397029  0.78698323  0.00000000  1.0
  Nb  Nb8  1  0.28698323  0.42397029  0.00000000  1.0
  Nb  Nb9  1  0.78698323  0.07602971  0.00000000  1.0
  Nb  Nb10  1  0.57602971  0.28698323  0.00000000  1.0
  Nb  Nb11  1  0.07602971  0.21301677  0.00000000  1.0
  Nb  Nb12  1  0.71301677  0.57602971  0.00000000  1.0
  Nb  Nb13  1  0.21301677  0.92397029  0.00000000  1.0
  Nb  Nb14  1  0.50000000  0.00000000  0.00000000  1.0
  Nb  Nb15  1  0.00000000  0.50000000  0.00000000  1.0
  O  O16  1  0.42163596  0.69003747  0.50000000  1.0
  O  O17  1  0.92163596  0.80996253  0.50000000  1.0
  O  O18  1  0.30996253  0.42163596  0.50000000  1.0
  O  O19  1  0.80996253  0.07836404  0.50000000  1.0
  O  O20  1  0.57836404  0.30996253  0.50000000  1.0
  O  O21  1  0.07836404  0.19003747  0.50000000  1.0
  O  O22  1  0.69003747  0.57836404  0.50000000  1.0
  O  O23  1  0.19003747  0.92163596  0.50000000  1.0
  O  O24  1  0.50070038  0.84254361  0.00000000  1.0
  O  O25  1  0.00070038  0.65745639  0.00000000  1.0
  O  O26  1  0.15745639  0.50070038  0.00000000  1.0
  O  O27  1  0.65745639  -0.00070038  0.00000000  1.0
  O  O28  1  0.49929962  0.15745639  0.00000000  1.0
  O  O29  1  -0.00070038  0.34254361  0.00000000  1.0
  O  O30  1  0.84254361  0.49929962  0.00000000  1.0
  O  O31  1  0.34254361  0.00070038  0.00000000  1.0
  O  O32  1  0.36689161  0.56011475  0.00000000  1.0
  O  O33  1  0.86689161  0.93988525  0.00000000  1.0
  O  O34  1  0.43988525  0.36689161  0.00000000  1.0
  O  O35  1  0.93988525  0.13310839  0.00000000  1.0
  O  O36  1  0.63310839  0.43988525  0.00000000  1.0
  O  O37  1  0.13310839  0.06011475  0.00000000  1.0
  O  O38  1  0.56011475  0.63310839  0.00000000  1.0
  O  O39  1  0.06011475  0.86689161  0.00000000  1.0
  O  O40  1  0.78441131  0.71558869  0.00000000  1.0
  O  O41  1  0.28441131  0.78441131  0.00000000  1.0
  O  O42  1  0.21558869  0.28441131  0.00000000  1.0
  O  O43  1  0.71558869  0.21558869  0.00000000  1.0
  O  O44  1  0.50000000  0.00000000  0.50000000  1.0
  O  O45  1  0.00000000  0.50000000  0.50000000  1.0
