# generated using pymatgen
data_MgB2O7
_symmetry_space_group_name_H-M   'P 1'
_cell_length_a   7.31191080
_cell_length_b   7.31191080
_cell_length_c   8.89654976
_cell_angle_alpha   90.00000000
_cell_angle_beta   90.00000000
_cell_angle_gamma   90.00000000
_symmetry_Int_Tables_number   1
_chemical_formula_structural   MgB2O7
_chemical_formula_sum   'Mg4 B8 O28'
_cell_volume   475.64548756
_cell_formula_units_Z   4
loop_
 _symmetry_equiv_pos_site_id
 _symmetry_equiv_pos_as_xyz
  1  'x, y, z'
loop_
 _atom_site_type_symbol
 _atom_site_label
 _atom_site_symmetry_multiplicity
 _atom_site_fract_x
 _atom_site_fract_y
 _atom_site_fract_z
 _atom_site_occupancy
  Mg  Mg0  1  0.75124466  0.25135312  0.27435055  1.0
  Mg  Mg1  1  0.25135312  0.24875534  0.77435055  1.0
  Mg  Mg2  1  0.24875534  0.74864688  0.27435055  1.0
  Mg  Mg3  1  0.74864688  0.75124466  0.77435055  1.0
  B  B4  1  0.86470299  0.86543106  0.42111514  1.0
  B  B5  1  0.86543106  0.13529701  0.92111514  1.0
  B  B6  1  0.13529701  0.13456894  0.42111514  1.0
  B  B7  1  0.13456894  0.86470299  0.92111514  1.0
  B  B8  1  0.63460384  0.63535058  0.12763680  1.0
  B  B9  1  0.63535058  0.36539616  0.62763680  1.0
  B  B10  1  0.36539616  0.36464942  0.12763680  1.0
  B  B11  1  0.36464942  0.63460384  0.62763680  1.0
  O  O12  1  0.96765854  0.74668400  0.32494849  1.0
  O  O13  1  0.74668400  0.03234146  0.82494849  1.0
  O  O14  1  0.03234146  0.25331600  0.32494849  1.0
  O  O15  1  0.25331600  0.96765854  0.82494849  1.0
  O  O16  1  0.78357098  0.78556551  0.55017081  1.0
  O  O17  1  0.78556551  0.21642902  0.05017081  1.0
  O  O18  1  0.21642902  0.21443449  0.55017081  1.0
  O  O19  1  0.21443449  0.78357098  0.05017081  1.0
  O  O20  1  0.75340565  0.53240881  0.22375770  1.0
  O  O21  1  0.53240881  0.24659435  0.72375770  1.0
  O  O22  1  0.24659435  0.46759119  0.22375770  1.0
  O  O23  1  0.46759119  0.75340565  0.72375770  1.0
  O  O24  1  0.74733749  0.97022475  0.32537856  1.0
  O  O25  1  0.97022475  0.25266251  0.82537856  1.0
  O  O26  1  0.25266251  0.02977525  0.32537856  1.0
  O  O27  1  0.02977525  0.74733749  0.82537856  1.0
  O  O28  1  0.71433357  0.71648565  -0.00147176  1.0
  O  O29  1  0.71648565  0.28566643  0.49852824  1.0
  O  O30  1  0.28566643  0.28351435  -0.00147176  1.0
  O  O31  1  0.28351435  0.71433357  0.49852824  1.0
  O  O32  1  0.52990412  0.75268993  0.22345385  1.0
  O  O33  1  0.75268993  0.47009588  0.72345385  1.0
  O  O34  1  0.47009588  0.24731007  0.22345385  1.0
  O  O35  1  0.24731007  0.52990412  0.72345385  1.0
  O  O36  1  0.50000000  0.50000000  0.06065729  1.0
  O  O37  1  0.50000000  0.50000000  0.56065729  1.0
  O  O38  1  0.00000000  0.00000000  -0.01183756  1.0
  O  O39  1  0.00000000  0.00000000  0.48816244  1.0
