# generated using pymatgen
data_KNaO
_symmetry_space_group_name_H-M   'P 1'
_cell_length_a   4.04723158
_cell_length_b   4.04723158
_cell_length_c   6.28732409
_cell_angle_alpha   90.00000000
_cell_angle_beta   90.00000000
_cell_angle_gamma   90.00000000
_symmetry_Int_Tables_number   1
_chemical_formula_structural   KNaO
_chemical_formula_sum   'K2 Na2 O2'
_cell_volume   102.98689327
_cell_formula_units_Z   2
loop_
 _symmetry_equiv_pos_site_id
 _symmetry_equiv_pos_as_xyz
  1  'x, y, z'
loop_
 _atom_site_type_symbol
 _atom_site_label
 _atom_site_symmetry_multiplicity
 _atom_site_fract_x
 _atom_site_fract_y
 _atom_site_fract_z
 _atom_site_occupancy
  K  K0  1  0.50000000  0.00000000  0.63281605  1.0
  K  K1  1  0.00000000  0.50000000  0.36718395  1.0
  Na  Na2  1  0.00000000  0.00000000  0.00000000  1.0
  Na  Na3  1  0.50000000  0.50000000  0.00000000  1.0
  O  O4  1  0.50000000  0.00000000  0.20794706  1.0
  O  O5  1  0.00000000  0.50000000  0.79205294  1.0
