# generated using pymatgen
data_Ba2CdSe3
_symmetry_space_group_name_H-M   'P 1'
_cell_length_a   9.38306298
_cell_length_b   4.54583202
_cell_length_c   18.13354616
_cell_angle_alpha   90.00000000
_cell_angle_beta   90.00000000
_cell_angle_gamma   90.00000000
_symmetry_Int_Tables_number   1
_chemical_formula_structural   Ba2CdSe3
_chemical_formula_sum   'Ba8 Cd4 Se12'
_cell_volume   773.46516116
_cell_formula_units_Z   4
loop_
 _symmetry_equiv_pos_site_id
 _symmetry_equiv_pos_as_xyz
  1  'x, y, z'
loop_
 _atom_site_type_symbol
 _atom_site_label
 _atom_site_symmetry_multiplicity
 _atom_site_fract_x
 _atom_site_fract_y
 _atom_site_fract_z
 _atom_site_occupancy
  Ba  Ba0  1  0.92245162  0.75000000  0.78442379  1.0
  Ba  Ba1  1  0.42245162  0.75000000  0.71557621  1.0
  Ba  Ba2  1  0.07754838  0.25000000  0.21557621  1.0
  Ba  Ba3  1  0.57754838  0.25000000  0.28442379  1.0
  Ba  Ba4  1  0.75988655  0.75000000  0.03939826  1.0
  Ba  Ba5  1  0.25988655  0.75000000  0.46060174  1.0
  Ba  Ba6  1  0.24011345  0.25000000  0.96060174  1.0
  Ba  Ba7  1  0.74011345  0.25000000  0.53939826  1.0
  Cd  Cd8  1  0.87513590  0.75000000  0.36666188  1.0
  Cd  Cd9  1  0.37513590  0.75000000  0.13333812  1.0
  Cd  Cd10  1  0.12486410  0.25000000  0.63333812  1.0
  Cd  Cd11  1  0.62486410  0.25000000  0.86666188  1.0
  Se  Se12  1  0.98506226  0.75000000  0.59601155  1.0
  Se  Se13  1  0.48506226  0.75000000  0.90398845  1.0
  Se  Se14  1  0.01493774  0.25000000  0.40398845  1.0
  Se  Se15  1  0.51493774  0.25000000  0.09601155  1.0
  Se  Se16  1  0.81389962  0.75000000  0.22264710  1.0
  Se  Se17  1  0.31389962  0.75000000  0.27735290  1.0
  Se  Se18  1  0.18610038  0.25000000  0.77735290  1.0
  Se  Se19  1  0.68610038  0.25000000  0.72264710  1.0
  Se  Se20  1  0.61749742  0.75000000  0.42797020  1.0
  Se  Se21  1  0.11749742  0.75000000  0.07202980  1.0
  Se  Se22  1  0.38250258  0.25000000  0.57202980  1.0
  Se  Se23  1  0.88250258  0.25000000  0.92797020  1.0
