# generated using pymatgen
data_NaAl(WO4)2
_symmetry_space_group_name_H-M   'P 1'
_cell_length_a   5.57303139
_cell_length_b   5.57303139
_cell_length_c   13.66458043
_cell_angle_alpha   89.76095791
_cell_angle_beta   90.23904209
_cell_angle_gamma   122.30655283
_symmetry_Int_Tables_number   1
_chemical_formula_structural   NaAl(WO4)2
_chemical_formula_sum   'Na2 Al2 W4 O16'
_cell_volume   358.70233873
_cell_formula_units_Z   2
loop_
 _symmetry_equiv_pos_site_id
 _symmetry_equiv_pos_as_xyz
  1  'x, y, z'
loop_
 _atom_site_type_symbol
 _atom_site_label
 _atom_site_symmetry_multiplicity
 _atom_site_fract_x
 _atom_site_fract_y
 _atom_site_fract_z
 _atom_site_occupancy
  Na  Na0  1  0.07174797  0.07174797  0.25000000  1.0
  Na  Na1  1  0.92825203  0.92825203  0.75000000  1.0
  Al  Al2  1  0.00000000  0.00000000  0.00000000  1.0
  Al  Al3  1  0.00000000  -0.00000000  0.50000000  1.0
  W  W4  1  0.69903173  0.36047800  0.38190923  1.0
  W  W5  1  0.63952200  0.30096827  0.88190923  1.0
  W  W6  1  0.36047800  -0.30096827  0.11809077  1.0
  W  W7  1  1.30096827  0.63952200  0.61809077  1.0
  O  O8  1  1.10671817  0.25321193  0.60937333  1.0
  O  O9  1  0.74678807  -0.10671817  0.10937333  1.0
  O  O10  1  0.25321193  0.10671817  0.89062667  1.0
  O  O11  1  0.89328183  0.74678807  0.39062667  1.0
  O  O12  1  1.20607098  0.38284010  0.04622652  1.0
  O  O13  1  0.61715990  -0.20607098  0.54622652  1.0
  O  O14  1  0.38284010  0.20607098  0.45377348  1.0
  O  O15  1  0.79392902  0.61715990  0.95377348  1.0
  O  O16  1  0.91900770  0.22883506  0.42100950  1.0
  O  O17  1  0.77116494  0.08099230  0.92100950  1.0
  O  O18  1  0.22883506  -0.08099230  0.07899050  1.0
  O  O19  1  1.08099230  0.77116494  0.57899050  1.0
  O  O20  1  1.25790362  0.58870673  0.23959016  1.0
  O  O21  1  0.41129327  -0.25790362  0.73959016  1.0
  O  O22  1  0.58870673  0.25790362  0.26040984  1.0
  O  O23  1  0.74209638  0.41129327  0.76040984  1.0
