# generated using pymatgen
data_Cs2LiVS4
_symmetry_space_group_name_H-M   'P 1'
_cell_length_a   14.28841908
_cell_length_b   12.78646394
_cell_length_c   7.61691994
_cell_angle_alpha   84.88914380
_cell_angle_beta   63.04024238
_cell_angle_gamma   32.07061382
_symmetry_Int_Tables_number   1
_chemical_formula_structural   Cs2LiVS4
_chemical_formula_sum   'Cs4 Li2 V2 S8'
_cell_volume   514.88242788
_cell_formula_units_Z   2
loop_
 _symmetry_equiv_pos_site_id
 _symmetry_equiv_pos_as_xyz
  1  'x, y, z'
loop_
 _atom_site_type_symbol
 _atom_site_label
 _atom_site_symmetry_multiplicity
 _atom_site_fract_x
 _atom_site_fract_y
 _atom_site_fract_z
 _atom_site_occupancy
  Cs  Cs0  1  0.17656630  1.17656630  -0.17656630  1.0
  Cs  Cs1  1  0.82343370  0.82343370  -0.82343370  1.0
  Cs  Cs2  1  0.07343370  0.07343370  1.42656630  1.0
  Cs  Cs3  1  1.42656630  0.42656630  0.07343370  1.0
  Li  Li4  1  -0.50000000  0.50000000  0.50000000  1.0
  Li  Li5  1  0.75000000  0.75000000  0.75000000  1.0
  V  V6  1  0.00000000  0.00000000  0.00000000  1.0
  V  V7  1  1.25000000  0.25000000  0.25000000  1.0
  S  S8  1  0.82408784  1.07679381  -0.64703046  1.0
  S  S9  1  0.74614881  -0.64703046  1.07679381  1.0
  S  S10  1  -0.64703046  0.74614881  0.82408784  1.0
  S  S11  1  1.07679381  0.82408784  0.74614881  1.0
  S  S12  1  1.42591216  0.17320619  -0.10296954  1.0
  S  S13  1  1.50385119  -0.10296954  0.17320619  1.0
  S  S14  1  0.89703046  0.50385119  0.42591216  1.0
  S  S15  1  1.17320619  0.42591216  0.50385119  1.0
