# generated using pymatgen
data_NaBH3C6F5
_symmetry_space_group_name_H-M   'P 1'
_cell_length_a   4.78684785
_cell_length_b   6.27253250
_cell_length_c   14.04145174
_cell_angle_alpha   90.00000000
_cell_angle_beta   97.29229547
_cell_angle_gamma   90.00000000
_symmetry_Int_Tables_number   1
_chemical_formula_structural   NaBH3C6F5
_chemical_formula_sum   'Na2 B2 H6 C12 F10'
_cell_volume   418.19370376
_cell_formula_units_Z   2
loop_
 _symmetry_equiv_pos_site_id
 _symmetry_equiv_pos_as_xyz
  1  'x, y, z'
loop_
 _atom_site_type_symbol
 _atom_site_label
 _atom_site_symmetry_multiplicity
 _atom_site_fract_x
 _atom_site_fract_y
 _atom_site_fract_z
 _atom_site_occupancy
  Na  Na0  1  0.18943550  0.93751974  0.91710949  1.0
  Na  Na1  1  0.81056450  0.43751974  0.08289051  1.0
  B  B2  1  0.69735705  0.19186262  0.91254162  1.0
  B  B3  1  0.30264295  0.69186262  0.08745838  1.0
  H  H4  1  0.93121404  0.24553314  0.95098994  1.0
  H  H5  1  0.06878596  0.74553314  0.04901006  1.0
  H  H6  1  0.69524246  -0.00195518  0.89954712  1.0
  H  H7  1  0.30475754  0.49804482  0.10045288  1.0
  H  H8  1  0.52281182  0.23008514  0.96789871  1.0
  H  H9  1  0.47718818  0.73008514  0.03210129  1.0
  C  C10  1  0.74182738  0.50476785  0.78652264  1.0
  C  C11  1  0.25817262  0.00476785  0.21347736  1.0
  C  C12  1  0.66749318  0.83412145  0.34750387  1.0
  C  C13  1  0.33250682  0.33412145  0.65249613  1.0
  C  C14  1  0.67256440  0.60920823  0.69908195  1.0
  C  C15  1  0.32743560  0.10920823  0.30091805  1.0
  C  C16  1  0.61718415  0.31587705  0.81184180  1.0
  C  C17  1  0.38281585  0.81587705  0.18815820  1.0
  C  C18  1  0.58880598  0.73839374  0.25870248  1.0
  C  C19  1  0.41119402  0.23839374  0.74129752  1.0
  C  C20  1  0.46580701  0.52287100  0.63108331  1.0
  C  C21  1  0.53419299  0.02287100  0.36891669  1.0
  F  F22  1  0.94886831  0.59888877  0.85029374  1.0
  F  F23  1  0.05113169  0.09888877  0.14970626  1.0
  F  F24  1  0.86962236  0.74928067  0.41180141  1.0
  F  F25  1  0.13037764  0.24928067  0.58819859  1.0
  F  F26  1  0.80307412  0.79205452  0.67957085  1.0
  F  F27  1  0.19692588  0.29205452  0.32042915  1.0
  F  F28  1  0.72988668  0.55409401  0.24086754  1.0
  F  F29  1  0.27011332  0.05409401  0.75913246  1.0
  F  F30  1  0.39453260  0.62089724  0.54639746  1.0
  F  F31  1  0.60546740  0.12089724  0.45360254  1.0
