# generated using pymatgen
data_Cs2Sn(H2N)6
_symmetry_space_group_name_H-M   'P 1'
_cell_length_a   7.26336029
_cell_length_b   7.26336029
_cell_length_c   5.94152314
_cell_angle_alpha   90.00000000
_cell_angle_beta   90.00000000
_cell_angle_gamma   120.00000000
_symmetry_Int_Tables_number   1
_chemical_formula_structural   Cs2Sn(H2N)6
_chemical_formula_sum   'Cs2 Sn1 H12 N6'
_cell_volume   271.45859628
_cell_formula_units_Z   1
loop_
 _symmetry_equiv_pos_site_id
 _symmetry_equiv_pos_as_xyz
  1  'x, y, z'
loop_
 _atom_site_type_symbol
 _atom_site_label
 _atom_site_symmetry_multiplicity
 _atom_site_fract_x
 _atom_site_fract_y
 _atom_site_fract_z
 _atom_site_occupancy
  Cs  Cs0  1  0.33333333  0.66666667  0.17788988  1.0
  Cs  Cs1  1  0.66666667  0.33333333  0.82211012  1.0
  Sn  Sn2  1  0.00000000  0.00000000  0.00000000  1.0
  H  H3  1  0.79548434  0.76846620  0.36778466  1.0
  H  H4  1  0.76846620  0.97298186  0.63221534  1.0
  H  H5  1  0.97298186  0.20451566  0.36778466  1.0
  H  H6  1  0.23153380  0.02701814  0.36778466  1.0
  H  H7  1  0.20451566  0.23153380  0.63221534  1.0
  H  H8  1  0.02701814  0.79548434  0.63221534  1.0
  H  H9  1  0.87362287  0.62959209  0.22656925  1.0
  H  H10  1  0.62959209  0.75596922  0.77343075  1.0
  H  H11  1  0.75596922  0.12637713  0.22656925  1.0
  H  H12  1  0.37040791  0.24403078  0.22656925  1.0
  H  H13  1  0.12637713  0.37040791  0.77343075  1.0
  H  H14  1  0.24403078  0.87362287  0.77343075  1.0
  N  N15  1  0.79667753  0.71484193  0.20817285  1.0
  N  N16  1  0.71484193  0.91816439  0.79182715  1.0
  N  N17  1  0.91816439  0.20332247  0.20817285  1.0
  N  N18  1  0.28515807  0.08183561  0.20817285  1.0
  N  N19  1  0.20332247  0.28515807  0.79182715  1.0
  N  N20  1  0.08183561  0.79667753  0.79182715  1.0
