# generated using pymatgen
data_ScMnSi2
_symmetry_space_group_name_H-M   'P 1'
_cell_length_a   9.04233653
_cell_length_b   9.75502090
_cell_length_c   7.89746546
_cell_angle_alpha   90.00000000
_cell_angle_beta   90.00000000
_cell_angle_gamma   90.00000000
_symmetry_Int_Tables_number   1
_chemical_formula_structural   ScMnSi2
_chemical_formula_sum   'Sc12 Mn12 Si24'
_cell_volume   696.62106923
_cell_formula_units_Z   12
loop_
 _symmetry_equiv_pos_site_id
 _symmetry_equiv_pos_as_xyz
  1  'x, y, z'
loop_
 _atom_site_type_symbol
 _atom_site_label
 _atom_site_symmetry_multiplicity
 _atom_site_fract_x
 _atom_site_fract_y
 _atom_site_fract_z
 _atom_site_occupancy
  Sc  Sc0  1  0.16799211  0.82400072  0.00000000  1.0
  Sc  Sc1  1  0.66799211  0.67599928  0.00000000  1.0
  Sc  Sc2  1  0.83200789  0.17599928  0.00000000  1.0
  Sc  Sc3  1  0.33200789  0.32400072  0.00000000  1.0
  Sc  Sc4  1  0.17212462  0.54819737  0.75333987  1.0
  Sc  Sc5  1  0.17212462  0.54819737  0.24666013  1.0
  Sc  Sc6  1  0.67212462  0.95180263  0.75333987  1.0
  Sc  Sc7  1  0.67212462  0.95180263  0.24666013  1.0
  Sc  Sc8  1  0.82787538  0.45180263  0.75333987  1.0
  Sc  Sc9  1  0.82787538  0.45180263  0.24666013  1.0
  Sc  Sc10  1  0.32787538  0.04819737  0.75333987  1.0
  Sc  Sc11  1  0.32787538  0.04819737  0.24666013  1.0
  Mn  Mn12  1  0.50000000  0.50000000  0.75458478  1.0
  Mn  Mn13  1  0.50000000  0.50000000  0.24541522  1.0
  Mn  Mn14  1  0.00000000  0.00000000  0.75458478  1.0
  Mn  Mn15  1  0.00000000  0.00000000  0.24541522  1.0
  Mn  Mn16  1  0.41933416  0.75446061  0.75098686  1.0
  Mn  Mn17  1  0.41933416  0.75446061  0.24901314  1.0
  Mn  Mn18  1  0.91933416  0.74553939  0.75098686  1.0
  Mn  Mn19  1  0.91933416  0.74553939  0.24901314  1.0
  Mn  Mn20  1  0.58066584  0.24553939  0.75098686  1.0
  Mn  Mn21  1  0.58066584  0.24553939  0.24901314  1.0
  Mn  Mn22  1  0.08066584  0.25446061  0.75098686  1.0
  Mn  Mn23  1  0.08066584  0.25446061  0.24901314  1.0
  Si  Si24  1  0.46228339  0.87789830  0.00000000  1.0
  Si  Si25  1  0.96228339  0.62210170  0.00000000  1.0
  Si  Si26  1  0.53771661  0.12210170  0.00000000  1.0
  Si  Si27  1  0.03771661  0.37789830  0.00000000  1.0
  Si  Si28  1  0.16791809  0.81873364  0.65206343  1.0
  Si  Si29  1  0.16791809  0.81873364  0.34793657  1.0
  Si  Si30  1  0.66791809  0.68126636  0.65206343  1.0
  Si  Si31  1  0.66791809  0.68126636  0.34793657  1.0
  Si  Si32  1  0.83208191  0.18126636  0.65206343  1.0
  Si  Si33  1  0.83208191  0.18126636  0.34793657  1.0
  Si  Si34  1  0.33208191  0.31873364  0.65206343  1.0
  Si  Si35  1  0.33208191  0.31873364  0.34793657  1.0
  Si  Si36  1  0.45952093  0.87395058  0.50000000  1.0
  Si  Si37  1  0.95952093  0.62604942  0.50000000  1.0
  Si  Si38  1  0.54047907  0.12604942  0.50000000  1.0
  Si  Si39  1  0.04047907  0.37395058  0.50000000  1.0
  Si  Si40  1  0.38950304  0.61093223  0.50000000  1.0
  Si  Si41  1  0.88950304  0.88906777  0.50000000  1.0
  Si  Si42  1  0.61049696  0.38906777  0.50000000  1.0
  Si  Si43  1  0.11049696  0.11093223  0.50000000  1.0
  Si  Si44  1  0.37417410  0.61129082  0.00000000  1.0
  Si  Si45  1  0.87417410  0.88870918  0.00000000  1.0
  Si  Si46  1  0.62582590  0.38870918  0.00000000  1.0
  Si  Si47  1  0.12582590  0.11129082  0.00000000  1.0
