# generated using pymatgen
data_CsCoF3
_symmetry_space_group_name_H-M   'P 1'
_cell_length_a   6.16690087
_cell_length_b   6.16690087
_cell_length_c   14.72757079
_cell_angle_alpha   90.00000000
_cell_angle_beta   90.00000000
_cell_angle_gamma   120.00000000
_symmetry_Int_Tables_number   1
_chemical_formula_structural   CsCoF3
_chemical_formula_sum   'Cs6 Co6 F18'
_cell_volume   485.06024898
_cell_formula_units_Z   6
loop_
 _symmetry_equiv_pos_site_id
 _symmetry_equiv_pos_as_xyz
  1  'x, y, z'
loop_
 _atom_site_type_symbol
 _atom_site_label
 _atom_site_symmetry_multiplicity
 _atom_site_fract_x
 _atom_site_fract_y
 _atom_site_fract_z
 _atom_site_occupancy
  Cs  Cs0  1  0.33333333  0.66666667  0.40631425  1.0
  Cs  Cs1  1  0.33333333  0.66666667  0.09368575  1.0
  Cs  Cs2  1  0.66666667  0.33333333  0.90631425  1.0
  Cs  Cs3  1  0.66666667  0.33333333  0.59368575  1.0
  Cs  Cs4  1  0.00000000  0.00000000  0.25000000  1.0
  Cs  Cs5  1  0.00000000  0.00000000  0.75000000  1.0
  Co  Co6  1  0.33333333  0.66666667  0.84361271  1.0
  Co  Co7  1  0.33333333  0.66666667  0.65638729  1.0
  Co  Co8  1  0.66666667  0.33333333  0.34361271  1.0
  Co  Co9  1  0.66666667  0.33333333  0.15638729  1.0
  Co  Co10  1  0.00000000  0.00000000  0.50000000  1.0
  Co  Co11  1  0.00000000  0.00000000  0.00000000  1.0
  F  F12  1  0.16669224  0.83330776  0.92050035  1.0
  F  F13  1  0.16669224  0.83330776  0.57949965  1.0
  F  F14  1  0.16669224  0.33338447  0.92050035  1.0
  F  F15  1  0.16669224  0.33338447  0.57949965  1.0
  F  F16  1  0.83330776  0.16669224  0.42050035  1.0
  F  F17  1  0.83330776  0.16669224  0.07949965  1.0
  F  F18  1  0.83330776  0.66661553  0.42050035  1.0
  F  F19  1  0.83330776  0.66661553  0.07949965  1.0
  F  F20  1  0.66661553  0.83330776  0.92050035  1.0
  F  F21  1  0.66661553  0.83330776  0.57949965  1.0
  F  F22  1  0.33338447  0.16669224  0.42050035  1.0
  F  F23  1  0.33338447  0.16669224  0.07949965  1.0
  F  F24  1  0.52290933  0.47709067  0.25000000  1.0
  F  F25  1  0.52290933  0.04581865  0.25000000  1.0
  F  F26  1  0.47709067  0.52290933  0.75000000  1.0
  F  F27  1  0.47709067  0.95418135  0.75000000  1.0
  F  F28  1  0.95418135  0.47709067  0.25000000  1.0
  F  F29  1  0.04581865  0.52290933  0.75000000  1.0
