# generated using pymatgen
data_NaB2(ClO2)4
_symmetry_space_group_name_H-M   'P 1'
_cell_length_a   10.42495747
_cell_length_b   10.42495747
_cell_length_c   5.75623702
_cell_angle_alpha   90.00000000
_cell_angle_beta   90.00000000
_cell_angle_gamma   90.00000000
_symmetry_Int_Tables_number   1
_chemical_formula_structural   NaB2(ClO2)4
_chemical_formula_sum   'Na2 B4 Cl8 O16'
_cell_volume   625.58633203
_cell_formula_units_Z   2
loop_
 _symmetry_equiv_pos_site_id
 _symmetry_equiv_pos_as_xyz
  1  'x, y, z'
loop_
 _atom_site_type_symbol
 _atom_site_label
 _atom_site_symmetry_multiplicity
 _atom_site_fract_x
 _atom_site_fract_y
 _atom_site_fract_z
 _atom_site_occupancy
  Na  Na0  1  0.50000000  0.50000000  0.00000000  1.0
  Na  Na1  1  0.00000000  0.00000000  0.00000000  1.0
  B  B2  1  0.75000000  0.25000000  0.50000000  1.0
  B  B3  1  0.75000000  0.75000000  0.50000000  1.0
  B  B4  1  0.25000000  0.75000000  0.50000000  1.0
  B  B5  1  0.25000000  0.25000000  0.50000000  1.0
  Cl  Cl6  1  0.16822315  0.33177685  0.70074574  1.0
  Cl  Cl7  1  0.16822315  0.66822315  0.70074574  1.0
  Cl  Cl8  1  0.66822315  0.83177685  0.29925426  1.0
  Cl  Cl9  1  0.66822315  0.16822315  0.29925426  1.0
  Cl  Cl10  1  0.33177685  0.16822315  0.29925426  1.0
  Cl  Cl11  1  0.33177685  0.83177685  0.29925426  1.0
  Cl  Cl12  1  0.83177685  0.66822315  0.70074574  1.0
  Cl  Cl13  1  0.83177685  0.33177685  0.70074574  1.0
  O  O14  1  0.17863599  0.93785153  0.73682144  1.0
  O  O15  1  0.17863599  0.06214847  0.73682144  1.0
  O  O16  1  0.67863599  0.43785153  0.26317856  1.0
  O  O17  1  0.67863599  0.56214847  0.26317856  1.0
  O  O18  1  0.93785153  0.17863599  0.26317856  1.0
  O  O19  1  0.93785153  0.82136401  0.26317856  1.0
  O  O20  1  0.43785153  0.67863599  0.73682144  1.0
  O  O21  1  0.43785153  0.32136401  0.73682144  1.0
  O  O22  1  0.82136401  0.93785153  0.73682144  1.0
  O  O23  1  0.82136401  0.06214847  0.73682144  1.0
  O  O24  1  0.32136401  0.43785153  0.26317856  1.0
  O  O25  1  0.32136401  0.56214847  0.26317856  1.0
  O  O26  1  0.06214847  0.17863599  0.26317856  1.0
  O  O27  1  0.06214847  0.82136401  0.26317856  1.0
  O  O28  1  0.56214847  0.67863599  0.73682144  1.0
  O  O29  1  0.56214847  0.32136401  0.73682144  1.0
