# generated using pymatgen
data_Na4TlAu
_symmetry_space_group_name_H-M   'P 1'
_cell_length_a   12.89425283
_cell_length_b   12.20165584
_cell_length_c   5.74075638
_cell_angle_alpha   83.61692914
_cell_angle_beta   70.12223914
_cell_angle_gamma   26.26083172
_symmetry_Int_Tables_number   1
_chemical_formula_structural   Na4TlAu
_chemical_formula_sum   'Na8 Tl2 Au2'
_cell_volume   332.59225934
_cell_formula_units_Z   2
loop_
 _symmetry_equiv_pos_site_id
 _symmetry_equiv_pos_as_xyz
  1  'x, y, z'
loop_
 _atom_site_type_symbol
 _atom_site_label
 _atom_site_symmetry_multiplicity
 _atom_site_fract_x
 _atom_site_fract_y
 _atom_site_fract_z
 _atom_site_occupancy
  Na  Na0  1  1.52778343  0.19361895  -0.19361895  1.0
  Na  Na1  1  0.80638105  0.47221657  0.52778343  1.0
  Na  Na2  1  1.19361895  0.52778343  0.47221657  1.0
  Na  Na3  1  1.47221657  -0.19361895  0.19361895  1.0
  Na  Na4  1  0.79374020  0.79374020  -0.79374020  1.0
  Na  Na5  1  0.20625980  1.20625980  -0.20625980  1.0
  Na  Na6  1  0.66393983  -0.66393983  0.66393983  1.0
  Na  Na7  1  0.33606017  -0.33606017  1.33606017  1.0
  Tl  Tl8  1  0.93342761  0.93342761  -0.93342761  1.0
  Tl  Tl9  1  0.06657239  1.06657239  -0.06657239  1.0
  Au  Au10  1  0.75000000  0.75000000  0.75000000  1.0
  Au  Au11  1  1.25000000  0.25000000  0.25000000  1.0
