# generated using pymatgen
data_YSeF
_symmetry_space_group_name_H-M   'P 1'
_cell_length_a   7.47049003
_cell_length_b   7.47049003
_cell_length_c   7.47049003
_cell_angle_alpha   36.82402825
_cell_angle_beta   36.82402826
_cell_angle_gamma   36.82402827
_symmetry_Int_Tables_number   1
_chemical_formula_structural   YSeF
_chemical_formula_sum   'Y2 Se2 F2'
_cell_volume   134.15299417
_cell_formula_units_Z   2
loop_
 _symmetry_equiv_pos_site_id
 _symmetry_equiv_pos_as_xyz
  1  'x, y, z'
loop_
 _atom_site_type_symbol
 _atom_site_label
 _atom_site_symmetry_multiplicity
 _atom_site_fract_x
 _atom_site_fract_y
 _atom_site_fract_z
 _atom_site_occupancy
  Y  Y0  1  0.74407775  0.74407775  0.74407775  1.0
  Y  Y1  1  1.25592225  1.25592225  0.25592225  1.0
  Se  Se2  1  0.89034970  0.89034970  0.89034970  1.0
  Se  Se3  1  1.10965030  1.10965030  0.10965030  1.0
  F  F4  1  1.64213978  0.64213978  0.64213978  1.0
  F  F5  1  1.35786022  0.35786022  0.35786022  1.0
