# generated using pymatgen
data_NaCa2Al2As2O11F4
_symmetry_space_group_name_H-M   'P 1'
_cell_length_a   5.60860602
_cell_length_b   10.96436708
_cell_length_c   9.90994549
_cell_angle_alpha   90.00000000
_cell_angle_beta   107.44303983
_cell_angle_gamma   90.00000000
_symmetry_Int_Tables_number   1
_chemical_formula_structural   NaCa2Al2As2O11F4
_chemical_formula_sum   'Na2 Ca4 Al4 As4 O22 F8'
_cell_volume   581.38679385
_cell_formula_units_Z   2
loop_
 _symmetry_equiv_pos_site_id
 _symmetry_equiv_pos_as_xyz
  1  'x, y, z'
loop_
 _atom_site_type_symbol
 _atom_site_label
 _atom_site_symmetry_multiplicity
 _atom_site_fract_x
 _atom_site_fract_y
 _atom_site_fract_z
 _atom_site_occupancy
  Al  Al0  1  0.23432364  0.90730298  0.74468808  1.0
  Al  Al1  1  0.23432364  0.59269702  0.74468808  1.0
  Al  Al2  1  0.76567636  0.40730298  0.25531192  1.0
  Al  Al3  1  0.76567636  0.09269702  0.25531192  1.0
  F  F4  1  0.12673876  0.96565548  0.89938367  1.0
  F  F5  1  0.12673876  0.53434452  0.89938367  1.0
  F  F6  1  0.87326124  0.46565548  0.10061633  1.0
  F  F7  1  0.87326124  0.03434452  0.10061633  1.0
  F  F8  1  0.32540550  0.43638192  0.72867343  1.0
  F  F9  1  0.32540550  0.06361808  0.72867343  1.0
  F  F10  1  0.67459450  0.93638192  0.27132657  1.0
  F  F11  1  0.67459450  0.56361808  0.27132657  1.0
  Ca  Ca12  1  0.24243523  0.91557415  0.14355739  1.0
  Ca  Ca13  1  0.24243523  0.58442585  0.14355739  1.0
  Ca  Ca14  1  0.75756477  0.41557415  0.85644261  1.0
  Ca  Ca15  1  0.75756477  0.08442585  0.85644261  1.0
  As  As16  1  0.39369391  0.75000000  0.50874530  1.0
  As  As17  1  0.60630609  0.25000000  0.49125470  1.0
  As  As18  1  0.63700763  0.75000000  0.96508516  1.0
  As  As19  1  0.36299237  0.25000000  0.03491484  1.0
  O  O20  1  0.57000076  0.88072673  0.85884445  1.0
  O  O21  1  0.57000076  0.61927327  0.85884445  1.0
  O  O22  1  0.42999924  0.38072673  0.14115555  1.0
  O  O23  1  0.42999924  0.11927327  0.14115555  1.0
  O  O24  1  0.28391129  0.75000000  0.32594754  1.0
  O  O25  1  0.71608871  0.25000000  0.67405246  1.0
  O  O26  1  0.43616754  0.75000000  0.06804187  1.0
  O  O27  1  0.56383246  0.25000000  0.93195813  1.0
  O  O28  1  0.87424641  0.92599159  0.65696072  1.0
  O  O29  1  0.87424641  0.57400841  0.65696072  1.0
  O  O30  1  0.12575359  0.42599159  0.34303928  1.0
  O  O31  1  0.12575359  0.07400841  0.34303928  1.0
  O  O32  1  0.14521759  0.75000000  0.78054611  1.0
  O  O33  1  0.85478241  0.25000000  0.21945389  1.0
  O  O34  1  0.72779038  0.75000000  0.54531301  1.0
  O  O35  1  0.27220962  0.25000000  0.45468699  1.0
  O  O36  1  0.28444653  0.87955822  0.56829412  1.0
  O  O37  1  0.28444653  0.62044178  0.56829412  1.0
  O  O38  1  0.71555347  0.37955822  0.43170588  1.0
  O  O39  1  0.71555347  0.12044178  0.43170588  1.0
  O  O40  1  0.93722618  0.75000000  0.07514189  1.0
  O  O41  1  0.06277382  0.25000000  0.92485811  1.0
  Na  Na42  1  0.82841506  0.75000000  0.31997640  1.0
  Na  Na43  1  0.17158494  0.25000000  0.68002360  1.0
