# generated using pymatgen
data_KNaGdTaO5
_symmetry_space_group_name_H-M   'P 1'
_cell_length_a   5.71925278
_cell_length_b   5.71925278
_cell_length_c   8.34344836
_cell_angle_alpha   90.00000000
_cell_angle_beta   90.00000000
_cell_angle_gamma   90.00000000
_symmetry_Int_Tables_number   1
_chemical_formula_structural   KNaGdTaO5
_chemical_formula_sum   'K2 Na2 Gd2 Ta2 O10'
_cell_volume   272.91296440
_cell_formula_units_Z   2
loop_
 _symmetry_equiv_pos_site_id
 _symmetry_equiv_pos_as_xyz
  1  'x, y, z'
loop_
 _atom_site_type_symbol
 _atom_site_label
 _atom_site_symmetry_multiplicity
 _atom_site_fract_x
 _atom_site_fract_y
 _atom_site_fract_z
 _atom_site_occupancy
  K  K0  1  0.00000000  0.00000000  0.00000000  1.0
  K  K1  1  0.50000000  0.50000000  0.00000000  1.0
  Na  Na2  1  0.50000000  0.00000000  0.75925893  1.0
  Na  Na3  1  0.00000000  0.50000000  0.24074107  1.0
  Gd  Gd4  1  0.00000000  0.00000000  0.50000000  1.0
  Gd  Gd5  1  0.50000000  0.50000000  0.50000000  1.0
  Ta  Ta6  1  0.50000000  0.00000000  0.26246795  1.0
  Ta  Ta7  1  0.00000000  0.50000000  0.73753205  1.0
  O  O8  1  0.73144942  0.23144942  0.33380086  1.0
  O  O9  1  0.73144942  0.76855058  0.33380086  1.0
  O  O10  1  0.23144942  0.73144942  0.66619914  1.0
  O  O11  1  0.23144942  0.26855058  0.66619914  1.0
  O  O12  1  0.76855058  0.73144942  0.66619914  1.0
  O  O13  1  0.76855058  0.26855058  0.66619914  1.0
  O  O14  1  0.26855058  0.23144942  0.33380086  1.0
  O  O15  1  0.26855058  0.76855058  0.33380086  1.0
  O  O16  1  0.50000000  0.00000000  0.03890703  1.0
  O  O17  1  0.00000000  0.50000000  0.96109297  1.0
