# generated using pymatgen
data_Ca2YNbO6
_symmetry_space_group_name_H-M   'P 1'
_cell_length_a   5.61907479
_cell_length_b   5.84794435
_cell_length_c   9.85252665
_cell_angle_alpha   90.00000000
_cell_angle_beta   124.62009204
_cell_angle_gamma   90.00000000
_symmetry_Int_Tables_number   1
_chemical_formula_structural   Ca2YNbO6
_chemical_formula_sum   'Ca4 Y2 Nb2 O12'
_cell_volume   266.42952584
_cell_formula_units_Z   2
loop_
 _symmetry_equiv_pos_site_id
 _symmetry_equiv_pos_as_xyz
  1  'x, y, z'
loop_
 _atom_site_type_symbol
 _atom_site_label
 _atom_site_symmetry_multiplicity
 _atom_site_fract_x
 _atom_site_fract_y
 _atom_site_fract_z
 _atom_site_occupancy
  Ca  Ca0  1  0.73890896  0.05278911  0.25361843  1.0
  Ca  Ca1  1  0.73890896  0.44721089  0.75361843  1.0
  Ca  Ca2  1  0.26109104  0.55278911  0.24638157  1.0
  Ca  Ca3  1  0.26109104  0.94721089  0.74638157  1.0
  Y  Y4  1  0.00000000  0.50000000  0.50000000  1.0
  Y  Y5  1  0.00000000  0.00000000  0.00000000  1.0
  Nb  Nb6  1  0.50000000  0.50000000  -0.00000000  1.0
  Nb  Nb7  1  0.50000000  0.00000000  0.50000000  1.0
  O  O8  1  0.84674452  0.45144759  0.23363637  1.0
  O  O9  1  0.84674452  0.04855241  0.73363637  1.0
  O  O10  1  0.15325548  0.95144759  0.26636363  1.0
  O  O11  1  0.15325548  0.54855241  0.76636363  1.0
  O  O12  1  0.73443036  0.81571584  0.44529641  1.0
  O  O13  1  0.73443036  0.68428416  0.94529641  1.0
  O  O14  1  0.26556964  0.31571584  0.05470359  1.0
  O  O15  1  0.26556964  0.18428416  0.55470359  1.0
  O  O16  1  0.61334767  0.28530174  0.43381628  1.0
  O  O17  1  0.61334767  0.21469826  0.93381628  1.0
  O  O18  1  0.38665233  0.78530174  0.06618372  1.0
  O  O19  1  0.38665233  0.71469826  0.56618372  1.0
