# generated using pymatgen
data_KTlS2
_symmetry_space_group_name_H-M   'P 1'
_cell_length_a   8.04733112
_cell_length_b   8.04733112
_cell_length_c   15.47945807
_cell_angle_alpha   81.28867274
_cell_angle_beta   98.71132726
_cell_angle_gamma   89.93207696
_symmetry_Int_Tables_number   1
_chemical_formula_structural   KTlS2
_chemical_formula_sum   'K8 Tl8 S16'
_cell_volume   979.14893286
_cell_formula_units_Z   8
loop_
 _symmetry_equiv_pos_site_id
 _symmetry_equiv_pos_as_xyz
  1  'x, y, z'
loop_
 _atom_site_type_symbol
 _atom_site_label
 _atom_site_symmetry_multiplicity
 _atom_site_fract_x
 _atom_site_fract_y
 _atom_site_fract_z
 _atom_site_occupancy
  K  K0  1  1.66119766  0.26248862  0.12159064  1.0
  K  K1  1  0.73751138  -0.66119766  0.62159064  1.0
  K  K2  1  1.26248862  0.66119766  0.37840936  1.0
  K  K3  1  0.33880234  -0.26248862  0.87840936  1.0
  K  K4  1  1.26385035  0.15675434  0.38325980  1.0
  K  K5  1  0.84324566  -0.26385035  0.88325980  1.0
  K  K6  1  1.15675434  0.26385035  0.11674020  1.0
  K  K7  1  0.73614965  -0.15675434  0.61674020  1.0
  Tl  Tl8  1  0.72069803  -0.08001455  0.34354933  1.0
  Tl  Tl9  1  1.08001455  0.27930197  0.84354933  1.0
  Tl  Tl10  1  0.91998545  -0.27930197  0.15645067  1.0
  Tl  Tl11  1  1.27930197  0.08001455  0.65645067  1.0
  Tl  Tl12  1  0.42114211  -0.27681979  0.14978318  1.0
  Tl  Tl13  1  1.27681979  0.57885789  0.64978318  1.0
  Tl  Tl14  1  0.72318021  -0.57885789  0.35021682  1.0
  Tl  Tl15  1  1.57885789  0.27681979  0.85021682  1.0
  S  S16  1  0.64517012  -0.29173549  0.05071379  1.0
  S  S17  1  1.29173549  0.35482988  0.55071379  1.0
  S  S18  1  0.70826451  -0.35482988  0.44928621  1.0
  S  S19  1  1.35482988  0.29173549  0.94928621  1.0
  S  S20  1  1.71572049  0.13638656  0.44919963  1.0
  S  S21  1  0.86361344  -0.71572049  0.94919963  1.0
  S  S22  1  1.13638656  0.71572049  0.05080037  1.0
  S  S23  1  0.28427951  -0.13638656  0.55080037  1.0
  S  S24  1  0.43610882  -0.03148107  0.23670720  1.0
  S  S25  1  1.03148107  0.56389118  0.73670720  1.0
  S  S26  1  0.96851893  -0.56389118  0.26329280  1.0
  S  S27  1  1.56389118  0.03148107  0.76329280  1.0
  S  S28  1  0.95913654  -0.04086346  0.25000000  1.0
  S  S29  1  1.04086346  0.04086346  0.75000000  1.0
  S  S30  1  1.43486214  0.43486214  0.25000000  1.0
  S  S31  1  0.56513786  -0.43486214  0.75000000  1.0
