# generated using pymatgen
data_RbAuC2(SN)2
_symmetry_space_group_name_H-M   'P 1'
_cell_length_a   8.12854416
_cell_length_b   8.12854416
_cell_length_c   18.81988594
_cell_angle_alpha   69.01759525
_cell_angle_beta   110.98240475
_cell_angle_gamma   135.45668257
_symmetry_Int_Tables_number   1
_chemical_formula_structural   RbAuC2(SN)2
_chemical_formula_sum   'Rb4 Au4 C8 S8 N8'
_cell_volume   804.29767630
_cell_formula_units_Z   4
loop_
 _symmetry_equiv_pos_site_id
 _symmetry_equiv_pos_as_xyz
  1  'x, y, z'
loop_
 _atom_site_type_symbol
 _atom_site_label
 _atom_site_symmetry_multiplicity
 _atom_site_fract_x
 _atom_site_fract_y
 _atom_site_fract_z
 _atom_site_occupancy
  Rb  Rb0  1  1.18126561  -0.13744693  0.54530380  1.0
  Rb  Rb1  1  0.86255307  -0.81873439  0.95469620  1.0
  Rb  Rb2  1  0.81873439  0.13744693  0.45469620  1.0
  Rb  Rb3  1  1.13744693  0.81873439  0.04530380  1.0
  Au  Au4  1  0.65525534  0.65525534  0.75000000  1.0
  Au  Au5  1  0.34474466  0.34474466  0.25000000  1.0
  Au  Au6  1  0.16014359  0.16014359  0.75000000  1.0
  Au  Au7  1  0.83985641  0.83985641  0.25000000  1.0
  C  C8  1  1.44049382  -0.56315102  0.59446108  1.0
  C  C9  1  0.43684898  0.44049382  0.90553892  1.0
  C  C10  1  0.55950618  0.56315102  0.40553892  1.0
  C  C11  1  1.56315102  -0.44049382  0.09446108  1.0
  C  C12  1  0.84038598  -0.73792895  0.63631375  1.0
  C  C13  1  1.26207105  -0.15961402  0.86368625  1.0
  C  C14  1  1.15961402  0.73792895  0.36368625  1.0
  C  C15  1  0.73792895  0.15961402  0.13631375  1.0
  S  S16  1  1.70130799  -0.32381695  0.63056639  1.0
  S  S17  1  0.67618305  0.70130799  0.86943361  1.0
  S  S18  1  0.29869201  0.32381695  0.36943361  1.0
  S  S19  1  1.32381695  -0.70130799  0.13056639  1.0
  S  S20  1  1.01205449  -0.65741895  0.72104749  1.0
  S  S21  1  1.34258105  0.01205449  0.77895251  1.0
  S  S22  1  0.98794551  0.65741895  0.27895251  1.0
  S  S23  1  0.65741895  -0.01205449  0.22104749  1.0
  N  N24  1  1.26171485  -0.72907780  0.56576231  1.0
  N  N25  1  0.27092220  0.26171485  0.93423769  1.0
  N  N26  1  0.73828515  0.72907780  0.43423769  1.0
  N  N27  1  1.72907780  -0.26171485  0.06576231  1.0
  N  N28  1  1.72160482  0.21712800  0.57518998  1.0
  N  N29  1  1.21712800  -0.27839518  0.92481002  1.0
  N  N30  1  0.27839518  -0.21712800  0.42481002  1.0
  N  N31  1  0.78287200  0.27839518  0.07518998  1.0
