# generated using pymatgen
data_Ta9(CoS3)2
_symmetry_space_group_name_H-M   'P 1'
_cell_length_a   10.33794864
_cell_length_b   10.33794864
_cell_length_c   6.59409198
_cell_angle_alpha   90.00000000
_cell_angle_beta   90.00000000
_cell_angle_gamma   120.00000000
_symmetry_Int_Tables_number   1
_chemical_formula_structural   Ta9(CoS3)2
_chemical_formula_sum   'Ta18 Co4 S12'
_cell_volume   610.31546262
_cell_formula_units_Z   2
loop_
 _symmetry_equiv_pos_site_id
 _symmetry_equiv_pos_as_xyz
  1  'x, y, z'
loop_
 _atom_site_type_symbol
 _atom_site_label
 _atom_site_symmetry_multiplicity
 _atom_site_fract_x
 _atom_site_fract_y
 _atom_site_fract_z
 _atom_site_occupancy
  Ta  Ta0  1  0.21197641  0.74026345  0.50000000  1.0
  Ta  Ta1  1  0.74026345  0.21197641  0.50000000  1.0
  Ta  Ta2  1  0.52828704  0.78802359  0.50000000  1.0
  Ta  Ta3  1  0.25973655  0.47171296  0.50000000  1.0
  Ta  Ta4  1  0.78802359  0.52828704  0.50000000  1.0
  Ta  Ta5  1  0.47171296  0.25973655  0.50000000  1.0
  Ta  Ta6  1  0.19136704  0.73967979  -0.00000000  1.0
  Ta  Ta7  1  0.73967979  0.19136704  -0.00000000  1.0
  Ta  Ta8  1  0.54831275  0.80863296  0.00000000  1.0
  Ta  Ta9  1  0.26032021  0.45168725  -0.00000000  1.0
  Ta  Ta10  1  0.80863296  0.54831275  0.00000000  1.0
  Ta  Ta11  1  0.45168725  0.26032021  0.00000000  1.0
  Ta  Ta12  1  0.54334554  0.54334554  0.74886433  1.0
  Ta  Ta13  1  0.54334554  0.54334554  0.25113567  1.0
  Ta  Ta14  1  0.00000000  0.45665446  0.74886433  1.0
  Ta  Ta15  1  0.00000000  0.45665446  0.25113567  1.0
  Ta  Ta16  1  0.45665446  -0.00000000  0.74886433  1.0
  Ta  Ta17  1  0.45665446  0.00000000  0.25113567  1.0
  Co  Co18  1  0.33333333  0.66666667  0.77972376  1.0
  Co  Co19  1  0.33333333  0.66666667  0.22027624  1.0
  Co  Co20  1  0.66666667  0.33333333  0.77972376  1.0
  Co  Co21  1  0.66666667  0.33333333  0.22027624  1.0
  S  S22  1  0.29671968  0.29671968  0.73738109  1.0
  S  S23  1  0.29671968  0.29671968  0.26261891  1.0
  S  S24  1  0.00000000  0.70328032  0.73738109  1.0
  S  S25  1  0.00000000  0.70328032  0.26261891  1.0
  S  S26  1  0.70328032  0.00000000  0.73738109  1.0
  S  S27  1  0.70328032  0.00000000  0.26261891  1.0
  S  S28  1  0.72577371  0.72577371  0.50000000  1.0
  S  S29  1  -0.00000000  0.27422629  0.50000000  1.0
  S  S30  1  0.27422629  -0.00000000  0.50000000  1.0
  S  S31  1  0.72714856  0.72714856  -0.00000000  1.0
  S  S32  1  -0.00000000  0.27285144  -0.00000000  1.0
  S  S33  1  0.27285144  -0.00000000  -0.00000000  1.0
