# generated using pymatgen
data_Hf12Zn5N
_symmetry_space_group_name_H-M   'P 1'
_cell_length_a   11.47500469
_cell_length_b   11.47500469
_cell_length_c   11.47500469
_cell_angle_alpha   60.00000000
_cell_angle_beta   60.00000000
_cell_angle_gamma   60.00000000
_symmetry_Int_Tables_number   1
_chemical_formula_structural   Hf12Zn5N
_chemical_formula_sum   'Hf24 Zn10 N2'
_cell_volume   1068.42395655
_cell_formula_units_Z   2
loop_
 _symmetry_equiv_pos_site_id
 _symmetry_equiv_pos_as_xyz
  1  'x, y, z'
loop_
 _atom_site_type_symbol
 _atom_site_label
 _atom_site_symmetry_multiplicity
 _atom_site_fract_x
 _atom_site_fract_y
 _atom_site_fract_z
 _atom_site_occupancy
  Hf  Hf0  1  0.99762326  -0.74419066  0.74894413  1.0
  Hf  Hf1  1  -0.00237674  0.74894413  0.25580934  1.0
  Hf  Hf2  1  -0.00580934  0.25237674  0.25237674  1.0
  Hf  Hf3  1  0.50105587  0.25237674  0.25237674  1.0
  Hf  Hf4  1  -0.74419066  0.99762326  0.74894413  1.0
  Hf  Hf5  1  0.99762326  -0.00237674  0.74894413  1.0
  Hf  Hf6  1  0.99762326  -0.25105587  0.99762326  1.0
  Hf  Hf7  1  -0.74419066  0.74894413  0.99762326  1.0
  Hf  Hf8  1  0.25237674  -0.00580934  0.25237674  1.0
  Hf  Hf9  1  0.25237674  0.25237674  -0.00580934  1.0
  Hf  Hf10  1  0.50105587  0.25237674  -0.00580934  1.0
  Hf  Hf11  1  0.50105587  -0.00580934  0.25237674  1.0
  Hf  Hf12  1  0.74894413  -0.00237674  0.99762326  1.0
  Hf  Hf13  1  -0.74419066  0.99762326  0.99762326  1.0
  Hf  Hf14  1  0.25237674  0.50105587  -0.00580934  1.0
  Hf  Hf15  1  0.25237674  -0.00580934  0.50105587  1.0
  Hf  Hf16  1  -0.25105587  0.99762326  0.25580934  1.0
  Hf  Hf17  1  0.74894413  -0.74419066  0.99762326  1.0
  Hf  Hf18  1  0.99762326  -0.74419066  0.99762326  1.0
  Hf  Hf19  1  -0.00237674  0.99762326  0.25580934  1.0
  Hf  Hf20  1  0.25237674  0.50105587  0.25237674  1.0
  Hf  Hf21  1  -0.00580934  0.50105587  0.25237674  1.0
  Hf  Hf22  1  -0.00580934  0.25237674  0.50105587  1.0
  Hf  Hf23  1  0.25237674  0.25237674  0.50105587  1.0
  Zn  Zn24  1  0.66672890  -0.33327110  0.99981329  1.0
  Zn  Zn25  1  0.66672890  -0.00018671  0.66672890  1.0
  Zn  Zn26  1  0.58327110  -0.41672890  0.58327110  1.0
  Zn  Zn27  1  1.25018671  -0.41672890  0.58327110  1.0
  Zn  Zn28  1  0.99981329  -0.33327110  0.66672890  1.0
  Zn  Zn29  1  0.66672890  -0.33327110  0.66672890  1.0
  Zn  Zn30  1  0.58327110  0.25018671  0.58327110  1.0
  Zn  Zn31  1  0.58327110  -0.41672890  1.25018671  1.0
  Zn  Zn32  1  0.50000000  0.50000000  -0.50000000  1.0
  Zn  Zn33  1  0.75000000  -0.25000000  0.75000000  1.0
  N  N34  1  0.00000000  1.00000000  -0.00000000  1.0
  N  N35  1  0.25000000  0.25000000  0.25000000  1.0
