# generated using pymatgen
data_Na2TiSiO5
_symmetry_space_group_name_H-M   'P 1'
_cell_length_a   9.23943856
_cell_length_b   4.87292827
_cell_length_c   9.97179162
_cell_angle_alpha   90.00000000
_cell_angle_beta   90.00000000
_cell_angle_gamma   90.00000000
_symmetry_Int_Tables_number   1
_chemical_formula_structural   Na2TiSiO5
_chemical_formula_sum   'Na8 Ti4 Si4 O20'
_cell_volume   448.96118419
_cell_formula_units_Z   4
loop_
 _symmetry_equiv_pos_site_id
 _symmetry_equiv_pos_as_xyz
  1  'x, y, z'
loop_
 _atom_site_type_symbol
 _atom_site_label
 _atom_site_symmetry_multiplicity
 _atom_site_fract_x
 _atom_site_fract_y
 _atom_site_fract_z
 _atom_site_occupancy
  Na  Na0  1  0.75130175  0.49369309  0.00542019  1.0
  Na  Na1  1  0.75130175  0.50630691  0.50542019  1.0
  Na  Na2  1  0.24869825  0.49369309  0.00542019  1.0
  Na  Na3  1  0.24869825  0.50630691  0.50542019  1.0
  Na  Na4  1  0.50000000  0.90798456  0.00827403  1.0
  Na  Na5  1  0.50000000  0.09201544  0.50827403  1.0
  Na  Na6  1  0.00000000  0.49527479  0.25400868  1.0
  Na  Na7  1  0.00000000  0.50472521  0.75400868  1.0
  Ti  Ti8  1  0.50000000  0.52590659  0.28757173  1.0
  Ti  Ti9  1  0.50000000  0.47409341  0.78757173  1.0
  Ti  Ti10  1  0.00000000  0.96959479  0.50100024  1.0
  Ti  Ti11  1  0.00000000  0.03040521  1.00100024  1.0
  Si  Si12  1  0.75003362  0.99558924  0.25150007  1.0
  Si  Si13  1  0.75003362  0.00441076  0.75150007  1.0
  Si  Si14  1  0.24996638  0.99558924  0.25150007  1.0
  Si  Si15  1  0.24996638  0.00441076  0.75150007  1.0
  O  O16  1  0.85365112  0.85571154  0.36676152  1.0
  O  O17  1  0.85365112  0.14428846  0.86676152  1.0
  O  O18  1  0.14634888  0.85571154  0.36676152  1.0
  O  O19  1  0.14634888  0.14428846  0.86676152  1.0
  O  O20  1  0.85256001  0.86292083  0.63564397  1.0
  O  O21  1  0.85256001  0.13707917  0.13564397  1.0
  O  O22  1  0.14743999  0.86292083  0.63564397  1.0
  O  O23  1  0.14743999  0.13707917  0.13564397  1.0
  O  O24  1  0.64895951  0.24079720  0.31600645  1.0
  O  O25  1  0.64895951  0.75920280  0.81600645  1.0
  O  O26  1  0.35104049  0.24079720  0.31600645  1.0
  O  O27  1  0.35104049  0.75920280  0.81600645  1.0
  O  O28  1  0.64751017  0.75037252  0.18704230  1.0
  O  O29  1  0.64751017  0.24962748  0.68704230  1.0
  O  O30  1  0.35248983  0.75037252  0.18704230  1.0
  O  O31  1  0.35248983  0.24962748  0.68704230  1.0
  O  O32  1  0.50000000  0.64727039  0.44853262  1.0
  O  O33  1  0.50000000  0.35272961  0.94853262  1.0
  O  O34  1  0.00000000  0.67804635  0.00026371  1.0
  O  O35  1  0.00000000  0.32195365  0.50026371  1.0
