# generated using pymatgen
data_NaZn2H3(SO4)2
_symmetry_space_group_name_H-M   'P 1'
_cell_length_a   6.38548024
_cell_length_b   9.11979351
_cell_length_c   7.93958103
_cell_angle_alpha   64.06599668
_cell_angle_beta   67.86708422
_cell_angle_gamma   68.31830408
_symmetry_Int_Tables_number   1
_chemical_formula_structural   NaZn2H3(SO4)2
_chemical_formula_sum   'Na2 Zn4 H6 S4 O16'
_cell_volume   373.34944382
_cell_formula_units_Z   2
loop_
 _symmetry_equiv_pos_site_id
 _symmetry_equiv_pos_as_xyz
  1  'x, y, z'
loop_
 _atom_site_type_symbol
 _atom_site_label
 _atom_site_symmetry_multiplicity
 _atom_site_fract_x
 _atom_site_fract_y
 _atom_site_fract_z
 _atom_site_occupancy
  Na  Na0  1  -0.15845985  0.58703255  -0.82734723  1.0
  Na  Na1  1  0.15845985  0.41296745  -0.17265277  1.0
  Zn  Zn2  1  0.50711630  0.30453204  -0.82607925  1.0
  Zn  Zn3  1  -0.50711630  0.69546796  -0.17392075  1.0
  Zn  Zn4  1  0.50000000  0.00000000  -0.00000000  1.0
  Zn  Zn5  1  0.00000000  0.00000000  0.00000000  1.0
  H  H6  1  -0.21722581  0.76586438  -0.55846301  1.0
  H  H7  1  0.21722581  0.23413562  -0.44153699  1.0
  H  H8  1  -0.61983479  1.00832557  -0.27930578  1.0
  H  H9  1  0.61983479  -0.00832557  -0.72069422  1.0
  H  H10  1  -0.47014942  0.76760786  -0.55422772  1.0
  H  H11  1  0.47014942  0.23239214  -0.44577228  1.0
  S  S12  1  0.28324482  0.65138465  -0.70081742  1.0
  S  S13  1  -0.28324482  0.34861535  -0.29918258  1.0
  S  S14  1  -0.03961783  0.80069675  -0.25610831  1.0
  S  S15  1  0.03961783  0.19930325  -0.74389169  1.0
  O  O16  1  0.39976132  0.57265859  -0.86412416  1.0
  O  O17  1  -0.39976132  0.42734141  -0.13587584  1.0
  O  O18  1  0.21061974  0.69793479  -0.24763091  1.0
  O  O19  1  -0.21061974  0.30206521  -0.75236909  1.0
  O  O20  1  0.04866220  0.77021912  -0.74447195  1.0
  O  O21  1  -0.04866220  0.22978088  -0.25552805  1.0
  O  O22  1  -0.13780523  0.86709668  -0.07978268  1.0
  O  O23  1  0.13780523  0.13290332  -0.92021732  1.0
  O  O24  1  0.64181608  0.06889229  -0.85627502  1.0
  O  O25  1  -0.64181608  0.93110771  -0.14372498  1.0
  O  O26  1  0.16437925  0.34364188  -0.82407633  1.0
  O  O27  1  -0.16437925  0.65635812  -0.17592367  1.0
  O  O28  1  -0.38602696  0.79549706  -0.49378486  1.0
  O  O29  1  0.38602696  0.20450294  -0.50621514  1.0
  O  O30  1  -0.55632639  0.76444407  -0.74538079  1.0
  O  O31  1  0.55632639  0.23555593  -0.25461921  1.0
