# generated using pymatgen
data_RbP(HO2)2
_symmetry_space_group_name_H-M   'P 1'
_cell_length_a   6.57852029
_cell_length_b   6.57852029
_cell_length_c   6.57852029
_cell_angle_alpha   108.33341547
_cell_angle_beta   108.33341547
_cell_angle_gamma   111.77161247
_symmetry_Int_Tables_number   1
_chemical_formula_structural   RbP(HO2)2
_chemical_formula_sum   'Rb2 P2 H4 O8'
_cell_volume   218.89460412
_cell_formula_units_Z   2
loop_
 _symmetry_equiv_pos_site_id
 _symmetry_equiv_pos_as_xyz
  1  'x, y, z'
loop_
 _atom_site_type_symbol
 _atom_site_label
 _atom_site_symmetry_multiplicity
 _atom_site_fract_x
 _atom_site_fract_y
 _atom_site_fract_z
 _atom_site_occupancy
  Rb  Rb0  1  0.50000000  0.50000000  -0.00000000  1.0
  Rb  Rb1  1  1.25000000  0.75000000  0.50000000  1.0
  P  P2  1  -0.00000000  -0.00000000  -0.00000000  1.0
  P  P3  1  0.75000000  1.25000000  0.50000000  1.0
  H  H4  1  0.87500000  0.99278021  0.61778021  1.0
  H  H5  1  0.74278021  1.12500000  1.11778021  1.0
  H  H6  1  1.00721979  1.62500000  0.88221979  1.0
  H  H7  1  0.37500000  0.25721979  0.38221979  1.0
  O  O8  1  1.02796382  0.98337897  0.76889565  1.0
  O  O9  1  0.72203618  0.99093183  0.45541514  1.0
  O  O10  1  0.73337897  1.27796382  1.26889565  1.0
  O  O11  1  1.01662103  1.78551669  1.04458486  1.0
  O  O12  1  0.53551669  0.26662103  0.54458486  1.0
  O  O13  1  1.21448331  1.25906817  1.23110435  1.0
  O  O14  1  1.74093183  0.97203618  0.95541514  1.0
  O  O15  1  1.00906817  1.46448331  0.73110435  1.0
