# generated using pymatgen
data_Ba3NaRu2O9
_symmetry_space_group_name_H-M   'P 1'
_cell_length_a   5.92768060
_cell_length_b   5.92768060
_cell_length_c   14.72115704
_cell_angle_alpha   90.00000000
_cell_angle_beta   90.00000000
_cell_angle_gamma   120.00000000
_symmetry_Int_Tables_number   1
_chemical_formula_structural   Ba3NaRu2O9
_chemical_formula_sum   'Ba6 Na2 Ru4 O18'
_cell_volume   447.96302233
_cell_formula_units_Z   2
loop_
 _symmetry_equiv_pos_site_id
 _symmetry_equiv_pos_as_xyz
  1  'x, y, z'
loop_
 _atom_site_type_symbol
 _atom_site_label
 _atom_site_symmetry_multiplicity
 _atom_site_fract_x
 _atom_site_fract_y
 _atom_site_fract_z
 _atom_site_occupancy
  Ru  Ru0  1  0.33333333  0.66666667  0.84450495  1.0
  Ru  Ru1  1  0.33333333  0.66666667  0.65549505  1.0
  Ru  Ru2  1  0.66666667  0.33333333  0.34450495  1.0
  Ru  Ru3  1  0.66666667  0.33333333  0.15549505  1.0
  Na  Na4  1  0.00000000  0.00000000  0.50000000  1.0
  Na  Na5  1  0.00000000  0.00000000  0.00000000  1.0
  O  O6  1  0.51750838  0.48249162  0.25000000  1.0
  O  O7  1  0.51750838  0.03501676  0.25000000  1.0
  O  O8  1  0.48249162  0.51750838  0.75000000  1.0
  O  O9  1  0.48249162  0.96498324  0.75000000  1.0
  O  O10  1  0.96498324  0.48249162  0.25000000  1.0
  O  O11  1  0.03501676  0.51750838  0.75000000  1.0
  O  O12  1  0.17763051  0.82236949  0.90922097  1.0
  O  O13  1  0.17763051  0.82236949  0.59077903  1.0
  O  O14  1  0.17763051  0.35526102  0.90922097  1.0
  O  O15  1  0.17763051  0.35526102  0.59077903  1.0
  O  O16  1  0.82236949  0.17763051  0.40922097  1.0
  O  O17  1  0.82236949  0.17763051  0.09077903  1.0
  O  O18  1  0.82236949  0.64473898  0.40922097  1.0
  O  O19  1  0.82236949  0.64473898  0.09077903  1.0
  O  O20  1  0.64473898  0.82236949  0.90922097  1.0
  O  O21  1  0.64473898  0.82236949  0.59077903  1.0
  O  O22  1  0.35526102  0.17763051  0.40922097  1.0
  O  O23  1  0.35526102  0.17763051  0.09077903  1.0
  Ba  Ba24  1  0.33333333  0.66666667  0.40767967  1.0
  Ba  Ba25  1  0.33333333  0.66666667  0.09232033  1.0
  Ba  Ba26  1  0.66666667  0.33333333  0.90767967  1.0
  Ba  Ba27  1  0.66666667  0.33333333  0.59232033  1.0
  Ba  Ba28  1  0.00000000  0.00000000  0.25000000  1.0
  Ba  Ba29  1  0.00000000  0.00000000  0.75000000  1.0
