# generated using pymatgen
data_Ag2CO3
_symmetry_space_group_name_H-M   'P 1'
_cell_length_a   3.35269101
_cell_length_b   9.75045519
_cell_length_c   5.03182913
_cell_angle_alpha   90.00000000
_cell_angle_beta   97.49474413
_cell_angle_gamma   90.00000000
_symmetry_Int_Tables_number   1
_chemical_formula_structural   Ag2CO3
_chemical_formula_sum   'Ag4 C2 O6'
_cell_volume   163.08653821
_cell_formula_units_Z   2
loop_
 _symmetry_equiv_pos_site_id
 _symmetry_equiv_pos_as_xyz
  1  'x, y, z'
loop_
 _atom_site_type_symbol
 _atom_site_label
 _atom_site_symmetry_multiplicity
 _atom_site_fract_x
 _atom_site_fract_y
 _atom_site_fract_z
 _atom_site_occupancy
  Ag  Ag0  1  0.76046796  0.93070442  0.79872195  1.0
  Ag  Ag1  1  0.76046796  0.56929558  0.79872195  1.0
  Ag  Ag2  1  0.23953204  0.43070442  0.20127805  1.0
  Ag  Ag3  1  0.23953204  0.06929558  0.20127805  1.0
  C  C4  1  0.81242655  0.25000000  0.71770808  1.0
  C  C5  1  0.18757345  0.75000000  0.28229192  1.0
  O  O6  1  0.71610937  0.36475951  0.59732478  1.0
  O  O7  1  0.71610937  0.13524049  0.59732478  1.0
  O  O8  1  0.28389063  0.86475951  0.40267522  1.0
  O  O9  1  0.28389063  0.63524049  0.40267522  1.0
  O  O10  1  1.00970239  0.25000000  0.96005546  1.0
  O  O11  1  -0.00970239  0.75000000  0.03994454  1.0
