# generated using pymatgen
data_Mg2Al2Se5
_symmetry_space_group_name_H-M   'P 1'
_cell_length_a   3.91436451
_cell_length_b   3.91436451
_cell_length_c   16.98946299
_cell_angle_alpha   90.00000000
_cell_angle_beta   90.00000000
_cell_angle_gamma   120.00000000
_symmetry_Int_Tables_number   1
_chemical_formula_structural   Mg2Al2Se5
_chemical_formula_sum   'Mg2 Al2 Se5'
_cell_volume   225.44095382
_cell_formula_units_Z   1
loop_
 _symmetry_equiv_pos_site_id
 _symmetry_equiv_pos_as_xyz
  1  'x, y, z'
loop_
 _atom_site_type_symbol
 _atom_site_label
 _atom_site_symmetry_multiplicity
 _atom_site_fract_x
 _atom_site_fract_y
 _atom_site_fract_z
 _atom_site_occupancy
  Mg  Mg0  1  0.33333333  0.66666667  0.09436549  1.0
  Mg  Mg1  1  0.66666667  0.33333333  0.90563451  1.0
  Al  Al2  1  0.33333333  0.66666667  0.68629991  1.0
  Al  Al3  1  0.66666667  0.33333333  0.31370009  1.0
  Se  Se4  1  0.33333333  0.66666667  0.37696383  1.0
  Se  Se5  1  0.66666667  0.33333333  0.62303617  1.0
  Se  Se6  1  0.33333333  0.66666667  0.82240466  1.0
  Se  Se7  1  0.66666667  0.33333333  0.17759534  1.0
  Se  Se8  1  0.00000000  0.00000000  0.00000000  1.0
