# generated using pymatgen
data_Ba3GeI2
_symmetry_space_group_name_H-M   'P 1'
_cell_length_a   16.57497056
_cell_length_b   15.80927814
_cell_length_c   8.76506874
_cell_angle_alpha   79.17907447
_cell_angle_beta   69.52820371
_cell_angle_gamma   31.29272183
_symmetry_Int_Tables_number   1
_chemical_formula_structural   Ba3GeI2
_chemical_formula_sum   'Ba12 Ge4 I8'
_cell_volume   1088.09666138
_cell_formula_units_Z   4
loop_
 _symmetry_equiv_pos_site_id
 _symmetry_equiv_pos_as_xyz
  1  'x, y, z'
loop_
 _atom_site_type_symbol
 _atom_site_label
 _atom_site_symmetry_multiplicity
 _atom_site_fract_x
 _atom_site_fract_y
 _atom_site_fract_z
 _atom_site_occupancy
  Ba  Ba0  1  -0.20754470  1.20754470  0.20754470  1.0
  Ba  Ba1  1  0.20754470  0.79245530  -0.20754470  1.0
  Ba  Ba2  1  0.45754470  0.04245530  0.04245530  1.0
  Ba  Ba3  1  0.04245530  0.45754470  0.45754470  1.0
  Ba  Ba4  1  0.30536873  0.87753653  0.15499263  1.0
  Ba  Ba5  1  0.66210210  0.15499263  0.87753653  1.0
  Ba  Ba6  1  0.15499263  0.66210210  0.30536873  1.0
  Ba  Ba7  1  0.87753653  0.30536873  0.66210210  1.0
  Ba  Ba8  1  -0.05536873  0.37246347  0.09500737  1.0
  Ba  Ba9  1  0.58789790  0.09500737  0.37246347  1.0
  Ba  Ba10  1  0.09500737  0.58789790  -0.05536873  1.0
  Ba  Ba11  1  0.37246347  -0.05536873  0.58789790  1.0
  Ge  Ge12  1  -0.08406668  0.91593332  0.08406668  1.0
  Ge  Ge13  1  0.08406668  1.08406668  -0.08406668  1.0
  Ge  Ge14  1  0.33406668  0.33406668  0.16593332  1.0
  Ge  Ge15  1  0.16593332  0.16593332  0.33406668  1.0
  I  I16  1  0.57789182  0.57789182  0.42210818  1.0
  I  I17  1  0.42210818  0.42210818  0.57789182  1.0
  I  I18  1  0.67210818  -0.32789182  0.82789182  1.0
  I  I19  1  0.82789182  -0.17210818  0.67210818  1.0
  I  I20  1  -0.25368402  0.74631598  0.25368402  1.0
  I  I21  1  0.25368402  0.25368402  -0.25368402  1.0
  I  I22  1  0.50368402  0.50368402  -0.00368402  1.0
  I  I23  1  -0.00368402  0.99631598  0.50368402  1.0
