# generated using pymatgen
data_In3Te3I
_symmetry_space_group_name_H-M   'P 1'
_cell_length_a   12.12583629
_cell_length_b   4.40695650
_cell_length_c   21.18765348
_cell_angle_alpha   90.00000000
_cell_angle_beta   90.00000000
_cell_angle_gamma   90.00000000
_symmetry_Int_Tables_number   1
_chemical_formula_structural   In3Te3I
_chemical_formula_sum   'In12 Te12 I4'
_cell_volume   1132.22652599
_cell_formula_units_Z   4
loop_
 _symmetry_equiv_pos_site_id
 _symmetry_equiv_pos_as_xyz
  1  'x, y, z'
loop_
 _atom_site_type_symbol
 _atom_site_label
 _atom_site_symmetry_multiplicity
 _atom_site_fract_x
 _atom_site_fract_y
 _atom_site_fract_z
 _atom_site_occupancy
  In  In0  1  0.94908636  0.75000000  0.60243025  1.0
  In  In1  1  0.44908636  0.75000000  0.89756975  1.0
  In  In2  1  0.05091364  0.25000000  0.39756975  1.0
  In  In3  1  0.55091364  0.25000000  0.10243025  1.0
  In  In4  1  0.83681168  0.75000000  0.13277307  1.0
  In  In5  1  0.33681168  0.75000000  0.36722693  1.0
  In  In6  1  0.16318832  0.25000000  0.86722693  1.0
  In  In7  1  0.66318832  0.25000000  0.63277307  1.0
  In  In8  1  0.82363046  0.75000000  0.49032850  1.0
  In  In9  1  0.32363046  0.75000000  0.00967150  1.0
  In  In10  1  0.17636954  0.25000000  0.50967150  1.0
  In  In11  1  0.67636954  0.25000000  0.99032850  1.0
  Te  Te12  1  0.90835024  0.75000000  0.36395137  1.0
  Te  Te13  1  0.40835024  0.75000000  0.13604863  1.0
  Te  Te14  1  0.09164976  0.25000000  0.63604863  1.0
  Te  Te15  1  0.59164976  0.25000000  0.86395137  1.0
  Te  Te16  1  0.83181238  0.75000000  0.99796694  1.0
  Te  Te17  1  0.33181238  0.75000000  0.50203306  1.0
  Te  Te18  1  0.16818762  0.25000000  0.00203306  1.0
  Te  Te19  1  0.66818762  0.25000000  0.49796694  1.0
  Te  Te20  1  0.77141104  0.75000000  0.69383912  1.0
  Te  Te21  1  0.27141104  0.75000000  0.80616088  1.0
  Te  Te22  1  0.22858896  0.25000000  0.30616088  1.0
  Te  Te23  1  0.72858896  0.25000000  0.19383912  1.0
  I  I24  1  0.55460033  0.75000000  0.32997357  1.0
  I  I25  1  0.05460033  0.75000000  0.17002643  1.0
  I  I26  1  0.44539967  0.25000000  0.67002643  1.0
  I  I27  1  0.94539967  0.25000000  0.82997357  1.0
