# generated using pymatgen
data_Cu2H3ClO3
_symmetry_space_group_name_H-M   'P 1'
_cell_length_a   5.91102163
_cell_length_b   6.23331939
_cell_length_c   5.71714615
_cell_angle_alpha   90.00000000
_cell_angle_beta   91.88716775
_cell_angle_gamma   90.00000000
_symmetry_Int_Tables_number   1
_chemical_formula_structural   Cu2H3ClO3
_chemical_formula_sum   'Cu4 H6 Cl2 O6'
_cell_volume   210.53563061
_cell_formula_units_Z   2
loop_
 _symmetry_equiv_pos_site_id
 _symmetry_equiv_pos_as_xyz
  1  'x, y, z'
loop_
 _atom_site_type_symbol
 _atom_site_label
 _atom_site_symmetry_multiplicity
 _atom_site_fract_x
 _atom_site_fract_y
 _atom_site_fract_z
 _atom_site_occupancy
  Cu  Cu0  1  1.01138292  0.25000000  0.96239904  1.0
  Cu  Cu1  1  -0.01138292  0.75000000  0.03760096  1.0
  Cu  Cu2  1  0.50000000  0.50000000  0.00000000  1.0
  Cu  Cu3  1  0.50000000  0.00000000  0.00000000  1.0
  H  H4  1  0.80132243  0.95940043  0.70836271  1.0
  H  H5  1  0.80132243  0.54059957  0.70836271  1.0
  H  H6  1  0.19867757  0.45940043  0.29163729  1.0
  H  H7  1  0.19867757  0.04059957  0.29163729  1.0
  H  H8  1  0.52101872  0.25000000  0.32593132  1.0
  H  H9  1  0.47898128  0.75000000  0.67406868  1.0
  Cl  Cl10  1  0.26801282  0.25000000  0.60419598  1.0
  Cl  Cl11  1  0.73198718  0.75000000  0.39580402  1.0
  O  O12  1  0.81093490  0.99587825  0.87748217  1.0
  O  O13  1  0.81093490  0.50412175  0.87748217  1.0
  O  O14  1  0.18906510  0.49587825  0.12251783  1.0
  O  O15  1  0.18906510  0.00412175  0.12251783  1.0
  O  O16  1  0.59078804  0.25000000  0.17129309  1.0
  O  O17  1  0.40921196  0.75000000  0.82870691  1.0
