# generated using pymatgen
data_CoSiH12(OF)6
_symmetry_space_group_name_H-M   'P 1'
_cell_length_a   6.44822637
_cell_length_b   6.44822637
_cell_length_c   6.44822637
_cell_angle_alpha   96.65820914
_cell_angle_beta   96.65820914
_cell_angle_gamma   96.65820914
_symmetry_Int_Tables_number   1
_chemical_formula_structural   CoSiH12(OF)6
_chemical_formula_sum   'Co1 Si1 H12 O6 F6'
_cell_volume   262.22560574
_cell_formula_units_Z   1
loop_
 _symmetry_equiv_pos_site_id
 _symmetry_equiv_pos_as_xyz
  1  'x, y, z'
loop_
 _atom_site_type_symbol
 _atom_site_label
 _atom_site_symmetry_multiplicity
 _atom_site_fract_x
 _atom_site_fract_y
 _atom_site_fract_z
 _atom_site_occupancy
  Co  Co0  1  0.50000000  0.50000000  0.50000000  1.0
  Si  Si1  1  0.00000000  0.00000000  0.00000000  1.0
  H  H2  1  1.55462900  0.71368607  -0.10589326  1.0
  H  H3  1  0.28631393  1.10589326  -0.55462900  1.0
  H  H4  1  1.10589326  0.44537100  -0.71368607  1.0
  H  H5  1  0.44537100  0.28631393  0.10589326  1.0
  H  H6  1  1.71368607  -0.10589326  0.55462900  1.0
  H  H7  1  0.89410674  0.55462900  0.71368607  1.0
  H  H8  1  0.69810405  0.80984727  0.31127983  1.0
  H  H9  1  1.19015273  -0.31127983  0.30189595  1.0
  H  H10  1  0.68872017  0.30189595  0.19015273  1.0
  H  H11  1  1.30189595  0.19015273  -0.31127983  1.0
  H  H12  1  0.80984727  1.31127983  -0.30189595  1.0
  H  H13  1  1.31127983  0.69810405  -0.19015273  1.0
  O  O14  1  1.43880788  0.63074333  -0.20400578  1.0
  O  O15  1  1.36925667  0.20400578  -0.43880788  1.0
  O  O16  1  1.20400578  -0.43880788  0.36925667  1.0
  O  O17  1  0.56119212  0.36925667  0.20400578  1.0
  O  O18  1  0.63074333  0.79599422  0.43880788  1.0
  O  O19  1  0.79599422  1.43880788  -0.36925667  1.0
  F  F20  1  0.78068486  0.85289879  0.06153169  1.0
  F  F21  1  1.14710121  -0.06153169  0.21931514  1.0
  F  F22  1  0.93846831  0.21931514  0.14710121  1.0
  F  F23  1  1.21931514  0.14710121  -0.06153169  1.0
  F  F24  1  0.85289879  1.06153169  -0.21931514  1.0
  F  F25  1  1.06153169  0.78068486  -0.14710121  1.0
