# generated using pymatgen
data_S3N
_symmetry_space_group_name_H-M   'P 1'
_cell_length_a   8.63104074
_cell_length_b   14.16130533
_cell_length_c   15.40797343
_cell_angle_alpha   90.00000000
_cell_angle_beta   90.00000000
_cell_angle_gamma   90.00000000
_symmetry_Int_Tables_number   1
_chemical_formula_structural   S3N
_chemical_formula_sum   'S48 N16'
_cell_volume   1883.26733607
_cell_formula_units_Z   16
loop_
 _symmetry_equiv_pos_site_id
 _symmetry_equiv_pos_as_xyz
  1  'x, y, z'
loop_
 _atom_site_type_symbol
 _atom_site_label
 _atom_site_symmetry_multiplicity
 _atom_site_fract_x
 _atom_site_fract_y
 _atom_site_fract_z
 _atom_site_occupancy
  S  S0  1  0.40209641  0.85609041  0.53652898  1.0
  S  S1  1  0.40209641  0.64390959  0.03652898  1.0
  S  S2  1  0.90209641  0.85609041  0.96347102  1.0
  S  S3  1  0.90209641  0.64390959  0.46347102  1.0
  S  S4  1  0.59790359  0.35609041  0.96347102  1.0
  S  S5  1  0.59790359  0.14390959  0.46347102  1.0
  S  S6  1  0.09790359  0.35609041  0.53652898  1.0
  S  S7  1  0.09790359  0.14390959  0.03652898  1.0
  S  S8  1  0.41083648  0.85740980  1.00145272  1.0
  S  S9  1  0.41083648  0.64259020  0.50145272  1.0
  S  S10  1  0.91083648  0.85740980  0.49854728  1.0
  S  S11  1  0.91083648  0.64259020  -0.00145272  1.0
  S  S12  1  0.58916352  0.35740980  0.49854728  1.0
  S  S13  1  0.58916352  0.14259020  -0.00145272  1.0
  S  S14  1  0.08916352  0.35740980  1.00145272  1.0
  S  S15  1  0.08916352  0.14259020  0.50145272  1.0
  S  S16  1  0.42273383  0.57796853  0.62170044  1.0
  S  S17  1  0.42273383  0.92203147  0.12170044  1.0
  S  S18  1  0.92273383  0.57796853  0.87829956  1.0
  S  S19  1  0.92273383  0.92203147  0.37829956  1.0
  S  S20  1  0.57726617  0.07796853  0.87829956  1.0
  S  S21  1  0.57726617  0.42203147  0.37829956  1.0
  S  S22  1  0.07726617  0.07796853  0.62170044  1.0
  S  S23  1  0.07726617  0.42203147  0.12170044  1.0
  S  S24  1  0.09389612  0.85652805  0.79556106  1.0
  S  S25  1  0.09389612  0.64347195  0.29556106  1.0
  S  S26  1  0.59389612  0.85652805  0.70443894  1.0
  S  S27  1  0.59389612  0.64347195  0.20443894  1.0
  S  S28  1  0.90610388  0.35652805  0.70443894  1.0
  S  S29  1  0.90610388  0.14347195  0.20443894  1.0
  S  S30  1  0.40610388  0.35652805  0.79556106  1.0
  S  S31  1  0.40610388  0.14347195  0.29556106  1.0
  S  S32  1  0.12047978  0.61501933  0.81010896  1.0
  S  S33  1  0.12047978  0.88498067  0.31010896  1.0
  S  S34  1  0.62047978  0.61501933  0.68989104  1.0
  S  S35  1  0.62047978  0.88498067  0.18989104  1.0
  S  S36  1  0.87952022  0.11501933  0.68989104  1.0
  S  S37  1  0.87952022  0.38498067  0.18989104  1.0
  S  S38  1  0.37952022  0.11501933  0.81010896  1.0
  S  S39  1  0.37952022  0.38498067  0.31010896  1.0
  S  S40  1  0.04509467  0.72897436  0.73677620  1.0
  S  S41  1  0.04509467  0.77102564  0.23677620  1.0
  S  S42  1  0.54509467  0.72897436  0.76322380  1.0
  S  S43  1  0.54509467  0.77102564  0.26322380  1.0
  S  S44  1  0.95490533  0.22897436  0.76322380  1.0
  S  S45  1  0.95490533  0.27102564  0.26322380  1.0
  S  S46  1  0.45490533  0.22897436  0.73677620  1.0
  S  S47  1  0.45490533  0.27102564  0.23677620  1.0
  N  N48  1  0.47629839  0.88708424  0.62474834  1.0
  N  N49  1  0.47629839  0.61291576  0.12474834  1.0
  N  N50  1  0.97629839  0.88708424  0.87525166  1.0
  N  N51  1  0.97629839  0.61291576  0.37525166  1.0
  N  N52  1  0.52370161  0.38708424  0.87525166  1.0
  N  N53  1  0.52370161  0.11291576  0.37525166  1.0
  N  N54  1  0.02370161  0.38708424  0.62474834  1.0
  N  N55  1  0.02370161  0.11291576  0.12474834  1.0
  N  N56  1  0.36107778  0.75512738  0.50253906  1.0
  N  N57  1  0.36107778  0.74487262  0.00253906  1.0
  N  N58  1  0.86107778  0.75512738  0.99746094  1.0
  N  N59  1  0.86107778  0.74487262  0.49746094  1.0
  N  N60  1  0.63892222  0.25512738  0.99746094  1.0
  N  N61  1  0.63892222  0.24487262  0.49746094  1.0
  N  N62  1  0.13892222  0.25512738  0.50253906  1.0
  N  N63  1  0.13892222  0.24487262  0.00253906  1.0
