# generated using pymatgen
data_NiSO4
_symmetry_space_group_name_H-M   'P 1'
_cell_length_a   4.76508624
_cell_length_b   4.76508624
_cell_length_c   6.41818848
_cell_angle_alpha   90.00000000
_cell_angle_beta   90.00000000
_cell_angle_gamma   113.72735831
_symmetry_Int_Tables_number   1
_chemical_formula_structural   NiSO4
_chemical_formula_sum   'Ni2 S2 O8'
_cell_volume   133.41307076
_cell_formula_units_Z   2
loop_
 _symmetry_equiv_pos_site_id
 _symmetry_equiv_pos_as_xyz
  1  'x, y, z'
loop_
 _atom_site_type_symbol
 _atom_site_label
 _atom_site_symmetry_multiplicity
 _atom_site_fract_x
 _atom_site_fract_y
 _atom_site_fract_z
 _atom_site_occupancy
  Ni  Ni0  1  0.00000000  0.00000000  0.50000000  1.0
  Ni  Ni1  1  0.00000000  0.00000000  0.00000000  1.0
  S  S2  1  0.34825516  0.65174484  0.25000000  1.0
  S  S3  1  -0.34825516  1.34825516  0.75000000  1.0
  O  O4  1  0.24902034  0.75097966  0.44315421  1.0
  O  O5  1  0.24902034  0.75097966  0.05684579  1.0
  O  O6  1  -0.24902034  1.24902034  0.94315421  1.0
  O  O7  1  -0.24902034  1.24902034  0.55684579  1.0
  O  O8  1  0.22591359  0.30181632  0.25000000  1.0
  O  O9  1  -0.69818368  1.22591359  0.75000000  1.0
  O  O10  1  0.69818368  0.77408641  0.25000000  1.0
  O  O11  1  -0.22591359  1.69818368  0.75000000  1.0
