# generated using pymatgen
data_HgWO4
_symmetry_space_group_name_H-M   'P 1'
_cell_length_a   6.49955031
_cell_length_b   6.49955031
_cell_length_c   5.23438037
_cell_angle_alpha   70.88788138
_cell_angle_beta   109.11211862
_cell_angle_gamma   122.17407827
_symmetry_Int_Tables_number   1
_chemical_formula_structural   HgWO4
_chemical_formula_sum   'Hg2 W2 O8'
_cell_volume   173.57935939
_cell_formula_units_Z   2
loop_
 _symmetry_equiv_pos_site_id
 _symmetry_equiv_pos_as_xyz
  1  'x, y, z'
loop_
 _atom_site_type_symbol
 _atom_site_label
 _atom_site_symmetry_multiplicity
 _atom_site_fract_x
 _atom_site_fract_y
 _atom_site_fract_z
 _atom_site_occupancy
  Hg  Hg0  1  0.50000000  0.00000000  0.50000000  1.0
  Hg  Hg1  1  1.00000000  0.50000000  0.00000000  1.0
  W  W2  1  0.81656926  0.81656926  0.25000000  1.0
  W  W3  1  0.18343074  0.18343074  0.75000000  1.0
  O  O4  1  0.81238632  0.00577497  0.47198112  1.0
  O  O5  1  0.99422503  0.18761368  0.97198112  1.0
  O  O6  1  1.00577497  0.81238632  0.02801888  1.0
  O  O7  1  0.18761368  -0.00577497  0.52801888  1.0
  O  O8  1  0.52848006  -0.24236323  0.03030752  1.0
  O  O9  1  1.24236323  0.47151994  0.53030752  1.0
  O  O10  1  0.75763677  0.52848006  0.46969248  1.0
  O  O11  1  0.47151994  0.24236323  0.96969248  1.0
