# generated using pymatgen
data_TiGeRu
_symmetry_space_group_name_H-M   'P 1'
_cell_length_a   7.50441596
_cell_length_b   7.50441596
_cell_length_c   7.50441596
_cell_angle_alpha   122.45599700
_cell_angle_beta   81.35908507
_cell_angle_gamma   127.84951299
_symmetry_Int_Tables_number   1
_chemical_formula_structural   TiGeRu
_chemical_formula_sum   'Ti6 Ge6 Ru6'
_cell_volume   271.23038271
_cell_formula_units_Z   6
loop_
 _symmetry_equiv_pos_site_id
 _symmetry_equiv_pos_as_xyz
  1  'x, y, z'
loop_
 _atom_site_type_symbol
 _atom_site_label
 _atom_site_symmetry_multiplicity
 _atom_site_fract_x
 _atom_site_fract_y
 _atom_site_fract_z
 _atom_site_occupancy
  Ti  Ti0  1  0.75860475  1.23577512  1.02282963  1.0
  Ti  Ti1  1  1.21294549  1.73577512  0.97717037  1.0
  Ti  Ti2  1  0.33616975  1.08425506  0.75191469  1.0
  Ti  Ti3  1  1.33234038  1.58425506  1.24808531  1.0
  Ti  Ti4  1  1.14441874  1.20084735  0.44357139  1.0
  Ti  Ti5  1  0.75727596  0.70084735  0.55642861  1.0
  Ge  Ge6  1  0.42182563  0.26041701  0.17326212  1.0
  Ge  Ge7  1  1.08715489  0.76041701  0.33859138  1.0
  Ge  Ge8  1  0.42182563  0.74856351  0.66140862  1.0
  Ge  Ge9  1  1.08715489  1.24856351  0.82673788  1.0
  Ge  Ge10  1  0.70712646  0.99386421  1.21326225  1.0
  Ge  Ge11  1  0.78060196  1.49386421  0.78673775  1.0
  Ru  Ru12  1  0.50055563  0.16692800  0.41451144  1.0
  Ru  Ru13  1  0.75241656  0.66692800  0.16637237  1.0
  Ru  Ru14  1  0.50055563  0.58604419  0.83362763  1.0
  Ru  Ru15  1  0.75241656  1.08604419  0.58548856  1.0
  Ru  Ru16  1  0.00310554  0.00310554  0.00000000  1.0
  Ru  Ru17  1  0.00310554  0.50310554  0.50000000  1.0
