# generated using pymatgen
data_EuIn4Pt
_symmetry_space_group_name_H-M   'P 1'
_cell_length_a   8.86074787
_cell_length_b   8.86074787
_cell_length_c   7.48254266
_cell_angle_alpha   90.00000000
_cell_angle_beta   90.00000000
_cell_angle_gamma   149.99047479
_symmetry_Int_Tables_number   1
_chemical_formula_structural   EuIn4Pt
_chemical_formula_sum   'Eu2 In8 Pt2'
_cell_volume   293.82246205
_cell_formula_units_Z   2
loop_
 _symmetry_equiv_pos_site_id
 _symmetry_equiv_pos_as_xyz
  1  'x, y, z'
loop_
 _atom_site_type_symbol
 _atom_site_label
 _atom_site_symmetry_multiplicity
 _atom_site_fract_x
 _atom_site_fract_y
 _atom_site_fract_z
 _atom_site_occupancy
  Eu  Eu0  1  -0.62513196  0.62513196  0.25000000  1.0
  Eu  Eu1  1  -0.37486804  1.37486804  0.75000000  1.0
  In  In2  1  -0.81703369  0.81703369  0.45307230  1.0
  In  In3  1  -0.81703369  0.81703369  0.04692770  1.0
  In  In4  1  -0.18296631  1.18296631  0.95307230  1.0
  In  In5  1  -0.18296631  1.18296631  0.54692770  1.0
  In  In6  1  -0.43445017  1.43445017  0.25000000  1.0
  In  In7  1  -0.56554983  0.56554983  0.75000000  1.0
  In  In8  1  0.00000000  0.00000000  0.50000000  1.0
  In  In9  1  0.00000000  0.00000000  0.00000000  1.0
  Pt  Pt10  1  -0.27612037  1.27612037  0.25000000  1.0
  Pt  Pt11  1  -0.72387963  0.72387963  0.75000000  1.0
