# generated using pymatgen
data_W3C
_symmetry_space_group_name_H-M   'P 1'
_cell_length_a   5.57858563
_cell_length_b   8.02472656
_cell_length_c   4.85214801
_cell_angle_alpha   90.00000000
_cell_angle_beta   90.00000000
_cell_angle_gamma   90.00000000
_symmetry_Int_Tables_number   1
_chemical_formula_structural   W3C
_chemical_formula_sum   'W12 C4'
_cell_volume   217.21428661
_cell_formula_units_Z   4
loop_
 _symmetry_equiv_pos_site_id
 _symmetry_equiv_pos_as_xyz
  1  'x, y, z'
loop_
 _atom_site_type_symbol
 _atom_site_label
 _atom_site_symmetry_multiplicity
 _atom_site_fract_x
 _atom_site_fract_y
 _atom_site_fract_z
 _atom_site_occupancy
  W  W0  1  0.81583279  0.25000000  0.69510095  1.0
  W  W1  1  0.31583279  0.25000000  0.80489905  1.0
  W  W2  1  0.18416721  0.75000000  0.30489905  1.0
  W  W3  1  0.68416721  0.75000000  0.19510095  1.0
  W  W4  1  0.89706281  0.07098548  0.21324716  1.0
  W  W5  1  0.39706281  0.42901452  0.28675284  1.0
  W  W6  1  0.10293719  0.57098548  0.78675284  1.0
  W  W7  1  0.60293719  0.92901452  0.71324716  1.0
  W  W8  1  0.10293719  0.92901452  0.78675284  1.0
  W  W9  1  0.60293719  0.57098548  0.71324716  1.0
  W  W10  1  0.89706281  0.42901452  0.21324716  1.0
  W  W11  1  0.39706281  0.07098548  0.28675284  1.0
  C  C12  1  0.62518230  0.25000000  0.08358640  1.0
  C  C13  1  0.12518230  0.25000000  0.41641360  1.0
  C  C14  1  0.37481770  0.75000000  0.91641360  1.0
  C  C15  1  0.87481770  0.75000000  0.58358640  1.0
