# generated using pymatgen
data_Ti5Sb2Rh
_symmetry_space_group_name_H-M   'P 1'
_cell_length_a   7.86878808
_cell_length_b   7.86878808
_cell_length_c   7.86878808
_cell_angle_alpha   96.33256099
_cell_angle_beta   96.33256099
_cell_angle_gamma   141.20582676
_symmetry_Int_Tables_number   1
_chemical_formula_structural   Ti5Sb2Rh
_chemical_formula_sum   'Ti10 Sb4 Rh2'
_cell_volume   287.92782940
_cell_formula_units_Z   2
loop_
 _symmetry_equiv_pos_site_id
 _symmetry_equiv_pos_as_xyz
  1  'x, y, z'
loop_
 _atom_site_type_symbol
 _atom_site_label
 _atom_site_symmetry_multiplicity
 _atom_site_fract_x
 _atom_site_fract_y
 _atom_site_fract_z
 _atom_site_occupancy
  Ti  Ti0  1  0.28981910  0.42669715  0.71651625  1.0
  Ti  Ti1  1  1.21018090  0.92669715  1.13687805  1.0
  Ti  Ti2  1  0.92669715  0.78981910  1.71651625  1.0
  Ti  Ti3  1  0.57330285  1.28981910  0.86312195  1.0
  Ti  Ti4  1  0.78981910  1.07330285  0.86312195  1.0
  Ti  Ti5  1  0.71018090  0.57330285  1.28348375  1.0
  Ti  Ti6  1  1.42669715  0.71018090  1.13687805  1.0
  Ti  Ti7  1  0.07330285  0.21018090  0.28348375  1.0
  Ti  Ti8  1  0.75000000  1.25000000  0.50000000  1.0
  Ti  Ti9  1  0.25000000  0.75000000  0.50000000  1.0
  Sb  Sb10  1  0.83672135  0.33672135  1.17344270  1.0
  Sb  Sb11  1  0.66327865  0.83672135  0.50000000  1.0
  Sb  Sb12  1  1.33672135  1.16327865  1.50000000  1.0
  Sb  Sb13  1  0.16327865  0.66327865  0.82655730  1.0
  Rh  Rh14  1  0.25000000  0.25000000  -0.00000000  1.0
  Rh  Rh15  1  0.75000000  0.75000000  -0.00000000  1.0
