# generated using pymatgen
data_Li2CO3
_symmetry_space_group_name_H-M   'P 1'
_cell_length_a   4.87594630
_cell_length_b   4.87594630
_cell_length_c   6.33845086
_cell_angle_alpha   69.51714637
_cell_angle_beta   110.48285363
_cell_angle_gamma   118.14904555
_symmetry_Int_Tables_number   1
_chemical_formula_structural   Li2CO3
_chemical_formula_sum   'Li4 C2 O6'
_cell_volume   121.31454691
_cell_formula_units_Z   2
loop_
 _symmetry_equiv_pos_site_id
 _symmetry_equiv_pos_as_xyz
  1  'x, y, z'
loop_
 _atom_site_type_symbol
 _atom_site_label
 _atom_site_symmetry_multiplicity
 _atom_site_fract_x
 _atom_site_fract_y
 _atom_site_fract_z
 _atom_site_occupancy
  Li  Li0  1  1.64793994  0.25088483  0.83920036  1.0
  Li  Li1  1  0.74911517  -0.64793994  0.33920036  1.0
  Li  Li2  1  1.25088483  0.64793994  0.66079964  1.0
  Li  Li3  1  0.35206006  -0.25088483  0.16079964  1.0
  C  C4  1  0.93491539  -0.06508461  0.75000000  1.0
  C  C5  1  1.06508461  0.06508461  0.25000000  1.0
  O  O6  1  0.21272179  -0.08216672  0.81512916  1.0
  O  O7  1  1.08216672  0.78727821  0.31512916  1.0
  O  O8  1  0.91783328  -0.78727821  0.68487084  1.0
  O  O9  1  1.78727821  0.08216672  0.18487084  1.0
  O  O10  1  0.67886184  -0.32113816  0.75000000  1.0
  O  O11  1  1.32113816  0.32113816  0.25000000  1.0
