# generated using pymatgen
data_Zn(SbO3)2
_symmetry_space_group_name_H-M   'P 1'
_cell_length_a   4.75920466
_cell_length_b   4.75920466
_cell_length_c   9.43699411
_cell_angle_alpha   90.00000000
_cell_angle_beta   90.00000000
_cell_angle_gamma   90.00000000
_symmetry_Int_Tables_number   1
_chemical_formula_structural   Zn(SbO3)2
_chemical_formula_sum   'Zn2 Sb4 O12'
_cell_volume   213.74819019
_cell_formula_units_Z   2
loop_
 _symmetry_equiv_pos_site_id
 _symmetry_equiv_pos_as_xyz
  1  'x, y, z'
loop_
 _atom_site_type_symbol
 _atom_site_label
 _atom_site_symmetry_multiplicity
 _atom_site_fract_x
 _atom_site_fract_y
 _atom_site_fract_z
 _atom_site_occupancy
  Zn  Zn0  1  0.50000000  0.50000000  0.50000000  1.0
  Zn  Zn1  1  0.00000000  0.00000000  0.00000000  1.0
  Sb  Sb2  1  0.50000000  0.50000000  0.16792164  1.0
  Sb  Sb3  1  0.50000000  0.50000000  0.83207836  1.0
  Sb  Sb4  1  0.00000000  0.00000000  0.66792164  1.0
  Sb  Sb5  1  0.00000000  0.00000000  0.33207836  1.0
  O  O6  1  0.19823931  0.80176069  0.17249583  1.0
  O  O7  1  0.19823931  0.80176069  0.82750417  1.0
  O  O8  1  0.69823931  0.69823931  0.67249583  1.0
  O  O9  1  0.69823931  0.69823931  0.32750417  1.0
  O  O10  1  0.80176069  0.19823931  0.17249583  1.0
  O  O11  1  0.80176069  0.19823931  0.82750417  1.0
  O  O12  1  0.30176069  0.30176069  0.67249583  1.0
  O  O13  1  0.30176069  0.30176069  0.32750417  1.0
  O  O14  1  0.18874793  0.81125207  0.50000000  1.0
  O  O15  1  0.68874793  0.68874793  0.00000000  1.0
  O  O16  1  0.81125207  0.18874793  0.50000000  1.0
  O  O17  1  0.31125207  0.31125207  0.00000000  1.0
