# generated using pymatgen
data_CaMn7O12
_symmetry_space_group_name_H-M   'P 1'
_cell_length_a   6.41905926
_cell_length_b   6.41905926
_cell_length_c   6.41905926
_cell_angle_alpha   109.47067941
_cell_angle_beta   109.47067941
_cell_angle_gamma   109.47067941
_symmetry_Int_Tables_number   1
_chemical_formula_structural   CaMn7O12
_chemical_formula_sum   'Ca1 Mn7 O12'
_cell_volume   203.61087353
_cell_formula_units_Z   1
loop_
 _symmetry_equiv_pos_site_id
 _symmetry_equiv_pos_as_xyz
  1  'x, y, z'
loop_
 _atom_site_type_symbol
 _atom_site_label
 _atom_site_symmetry_multiplicity
 _atom_site_fract_x
 _atom_site_fract_y
 _atom_site_fract_z
 _atom_site_occupancy
  Ca  Ca0  1  0.00000000  0.00000000  0.00000000  1.0
  Mn  Mn1  1  1.00000000  0.50000000  0.50000000  1.0
  Mn  Mn2  1  0.50000000  1.00000000  -0.50000000  1.0
  Mn  Mn3  1  0.50000000  0.50000000  0.00000000  1.0
  Mn  Mn4  1  0.50000000  -0.00000000  -0.00000000  1.0
  Mn  Mn5  1  1.00000000  1.50000000  -0.00000000  1.0
  Mn  Mn6  1  1.00000000  1.00000000  0.50000000  1.0
  Mn  Mn7  1  0.50000000  0.50000000  0.50000000  1.0
  O  O8  1  0.82212102  0.30896690  0.13108792  1.0
  O  O9  1  0.86891208  1.17787898  -0.30896690  1.0
  O  O10  1  0.69103310  -0.13108792  0.17787898  1.0
  O  O11  1  1.17787898  0.69103310  0.86891208  1.0
  O  O12  1  1.13108792  0.82212102  0.30896690  1.0
  O  O13  1  0.30896690  0.13108792  -0.17787898  1.0
  O  O14  1  1.17783225  0.30892204  0.48673378  1.0
  O  O15  1  0.51326622  -0.17783225  -0.30892204  1.0
  O  O16  1  0.69107796  0.51326622  -0.17783225  1.0
  O  O17  1  0.82216775  0.69107796  0.51326622  1.0
  O  O18  1  0.48673378  0.17783225  0.30892204  1.0
  O  O19  1  1.30892204  1.48673378  0.17783225  1.0
