# generated using pymatgen
data_Gd(BIr)2
_symmetry_space_group_name_H-M   'P 1'
_cell_length_a   7.07644090
_cell_length_b   6.11357317
_cell_length_c   5.53617863
_cell_angle_alpha   74.62361638
_cell_angle_beta   56.40905101
_cell_angle_gamma   48.96733261
_symmetry_Int_Tables_number   1
_chemical_formula_structural   Gd(BIr)2
_chemical_formula_sum   'Gd2 B4 Ir4'
_cell_volume   148.65566396
_cell_formula_units_Z   2
loop_
 _symmetry_equiv_pos_site_id
 _symmetry_equiv_pos_as_xyz
  1  'x, y, z'
loop_
 _atom_site_type_symbol
 _atom_site_label
 _atom_site_symmetry_multiplicity
 _atom_site_fract_x
 _atom_site_fract_y
 _atom_site_fract_z
 _atom_site_occupancy
  Gd  Gd0  1  0.75000000  0.75000000  0.75000000  1.0
  Gd  Gd1  1  0.50000000  0.50000000  -0.50000000  1.0
  B  B2  1  0.06869260  1.43130740  0.06869260  1.0
  B  B3  1  0.43130740  1.06869260  0.43130740  1.0
  B  B4  1  1.18130740  -0.18130740  0.18130740  1.0
  B  B5  1  0.81869260  0.18130740  -0.18130740  1.0
  Ir  Ir6  1  0.12052493  1.12052493  0.37947507  1.0
  Ir  Ir7  1  0.37947507  0.37947507  0.12052493  1.0
  Ir  Ir8  1  1.12947507  0.12947507  -0.12947507  1.0
  Ir  Ir9  1  0.87052493  0.87052493  0.12947507  1.0
