# generated using pymatgen
data_TaNiB2
_symmetry_space_group_name_H-M   'P 1'
_cell_length_a   6.04070075
_cell_length_b   3.11313520
_cell_length_c   8.18105845
_cell_angle_alpha   90.00000000
_cell_angle_beta   90.00000000
_cell_angle_gamma   90.00000000
_symmetry_Int_Tables_number   1
_chemical_formula_structural   TaNiB2
_chemical_formula_sum   'Ta4 Ni4 B8'
_cell_volume   153.84904336
_cell_formula_units_Z   4
loop_
 _symmetry_equiv_pos_site_id
 _symmetry_equiv_pos_as_xyz
  1  'x, y, z'
loop_
 _atom_site_type_symbol
 _atom_site_label
 _atom_site_symmetry_multiplicity
 _atom_site_fract_x
 _atom_site_fract_y
 _atom_site_fract_z
 _atom_site_occupancy
  Ta  Ta0  1  0.63220982  0.75000000  0.86711188  1.0
  Ta  Ta1  1  0.13220982  0.75000000  0.63288812  1.0
  Ta  Ta2  1  0.36779018  0.25000000  0.13288812  1.0
  Ta  Ta3  1  0.86779018  0.25000000  0.36711188  1.0
  Ni  Ni4  1  0.00164603  0.75000000  0.11639504  1.0
  Ni  Ni5  1  0.50164603  0.75000000  0.38360496  1.0
  Ni  Ni6  1  0.99835397  0.25000000  0.88360496  1.0
  Ni  Ni7  1  0.49835397  0.25000000  0.61639504  1.0
  B  B8  1  0.74251279  0.75000000  0.57567985  1.0
  B  B9  1  0.24251279  0.75000000  0.92432015  1.0
  B  B10  1  0.25748721  0.25000000  0.42432015  1.0
  B  B11  1  0.75748721  0.25000000  0.07567985  1.0
  B  B12  1  0.67235088  0.75000000  0.16724929  1.0
  B  B13  1  0.17235088  0.75000000  0.33275071  1.0
  B  B14  1  0.32764912  0.25000000  0.83275071  1.0
  B  B15  1  0.82764912  0.25000000  0.66724929  1.0
