# generated using pymatgen
data_MnGe2Pd3
_symmetry_space_group_name_H-M   'P 1'
_cell_length_a   6.94194037
_cell_length_b   3.17710914
_cell_length_c   16.59176765
_cell_angle_alpha   90.00000000
_cell_angle_beta   90.00000000
_cell_angle_gamma   90.00000000
_symmetry_Int_Tables_number   1
_chemical_formula_structural   MnGe2Pd3
_chemical_formula_sum   'Mn4 Ge8 Pd12'
_cell_volume   365.93644933
_cell_formula_units_Z   4
loop_
 _symmetry_equiv_pos_site_id
 _symmetry_equiv_pos_as_xyz
  1  'x, y, z'
loop_
 _atom_site_type_symbol
 _atom_site_label
 _atom_site_symmetry_multiplicity
 _atom_site_fract_x
 _atom_site_fract_y
 _atom_site_fract_z
 _atom_site_occupancy
  Mn  Mn0  1  0.98782761  0.75000000  0.28961970  1.0
  Mn  Mn1  1  0.48782761  0.75000000  0.21038030  1.0
  Mn  Mn2  1  0.01217239  0.25000000  0.71038030  1.0
  Mn  Mn3  1  0.51217239  0.25000000  0.78961970  1.0
  Ge  Ge4  1  0.75416658  0.75000000  0.44972298  1.0
  Ge  Ge5  1  0.25416658  0.75000000  0.05027702  1.0
  Ge  Ge6  1  0.24583342  0.25000000  0.55027702  1.0
  Ge  Ge7  1  0.74583342  0.25000000  0.94972298  1.0
  Ge  Ge8  1  0.70130883  0.75000000  0.68517080  1.0
  Ge  Ge9  1  0.20130883  0.75000000  0.81482920  1.0
  Ge  Ge10  1  0.29869117  0.25000000  0.31482920  1.0
  Ge  Ge11  1  0.79869117  0.25000000  0.18517080  1.0
  Pd  Pd12  1  0.89653288  0.75000000  0.06540750  1.0
  Pd  Pd13  1  0.39653288  0.75000000  0.43459250  1.0
  Pd  Pd14  1  0.10346712  0.25000000  0.93459250  1.0
  Pd  Pd15  1  0.60346712  0.25000000  0.56540750  1.0
  Pd  Pd16  1  0.96390335  0.75000000  0.57514350  1.0
  Pd  Pd17  1  0.46390335  0.75000000  0.92485650  1.0
  Pd  Pd18  1  0.03609665  0.25000000  0.42485650  1.0
  Pd  Pd19  1  0.53609665  0.25000000  0.07514350  1.0
  Pd  Pd20  1  0.83040383  0.75000000  0.82995587  1.0
  Pd  Pd21  1  0.33040383  0.75000000  0.67004413  1.0
  Pd  Pd22  1  0.16959617  0.25000000  0.17004413  1.0
  Pd  Pd23  1  0.66959617  0.25000000  0.32995587  1.0
