# generated using pymatgen
data_Sr3Li3(NiN)4
_symmetry_space_group_name_H-M   'P 1'
_cell_length_a   9.31325744
_cell_length_b   9.31325744
_cell_length_c   9.31325744
_cell_angle_alpha   155.01191286
_cell_angle_beta   135.55830931
_cell_angle_gamma   51.65764286
_symmetry_Int_Tables_number   1
_chemical_formula_structural   Sr3Li3(NiN)4
_chemical_formula_sum   'Sr3 Li3 Ni4 N4'
_cell_volume   237.94923077
_cell_formula_units_Z   1
loop_
 _symmetry_equiv_pos_site_id
 _symmetry_equiv_pos_as_xyz
  1  'x, y, z'
loop_
 _atom_site_type_symbol
 _atom_site_label
 _atom_site_symmetry_multiplicity
 _atom_site_fract_x
 _atom_site_fract_y
 _atom_site_fract_z
 _atom_site_occupancy
  Sr  Sr0  1  0.71841157  0.71841157  1.00000000  1.0
  Sr  Sr1  1  0.28158843  0.28158843  -0.00000000  1.0
  Sr  Sr2  1  0.50000000  0.50000000  1.00000000  1.0
  Li  Li3  1  0.88415145  0.38415145  0.50000000  1.0
  Li  Li4  1  0.11584855  0.61584855  0.50000000  1.0
  Li  Li5  1  0.00000000  0.00000000  0.00000000  1.0
  Ni  Ni6  1  0.63023087  0.88029894  0.74993193  1.0
  Ni  Ni7  1  0.86963299  0.11970106  0.74993193  1.0
  Ni  Ni8  1  1.13036701  0.88029894  1.25006807  1.0
  Ni  Ni9  1  0.36976913  0.11970106  0.25006807  1.0
  N  N10  1  0.61666238  0.11666238  0.50000000  1.0
  N  N11  1  0.38333762  0.88333762  0.50000000  1.0
  N  N12  1  0.88005189  0.88005189  1.00000000  1.0
  N  N13  1  0.11994811  0.11994811  -0.00000000  1.0
