# generated using pymatgen
data_Ba7Ga4P9
_symmetry_space_group_name_H-M   'P 1'
_cell_length_a   9.94301031
_cell_length_b   16.78183973
_cell_length_c   6.72401020
_cell_angle_alpha   90.00000000
_cell_angle_beta   90.00000000
_cell_angle_gamma   90.00000000
_symmetry_Int_Tables_number   1
_chemical_formula_structural   Ba7Ga4P9
_chemical_formula_sum   'Ba14 Ga8 P18'
_cell_volume   1121.98182708
_cell_formula_units_Z   2
loop_
 _symmetry_equiv_pos_site_id
 _symmetry_equiv_pos_as_xyz
  1  'x, y, z'
loop_
 _atom_site_type_symbol
 _atom_site_label
 _atom_site_symmetry_multiplicity
 _atom_site_fract_x
 _atom_site_fract_y
 _atom_site_fract_z
 _atom_site_occupancy
  Ba  Ba0  1  0.50000000  0.78164944  0.44821187  1.0
  Ba  Ba1  1  0.50000000  0.21835056  0.44821187  1.0
  Ba  Ba2  1  0.00000000  0.71835056  0.55178813  1.0
  Ba  Ba3  1  0.00000000  0.28164944  0.55178813  1.0
  Ba  Ba4  1  0.27993076  0.87507178  0.94203735  1.0
  Ba  Ba5  1  0.72006924  0.87507178  0.94203735  1.0
  Ba  Ba6  1  0.27993076  0.12492822  0.94203735  1.0
  Ba  Ba7  1  0.72006924  0.12492822  0.94203735  1.0
  Ba  Ba8  1  0.22006924  0.62492822  0.05796265  1.0
  Ba  Ba9  1  0.77993076  0.62492822  0.05796265  1.0
  Ba  Ba10  1  0.22006924  0.37507178  0.05796265  1.0
  Ba  Ba11  1  0.77993076  0.37507178  0.05796265  1.0
  Ba  Ba12  1  0.50000000  0.50000000  0.40068789  1.0
  Ba  Ba13  1  0.00000000  0.00000000  0.59931211  1.0
  Ga  Ga14  1  0.50000000  0.37761139  0.76785137  1.0
  Ga  Ga15  1  0.50000000  0.62238861  0.76785137  1.0
  Ga  Ga16  1  0.00000000  0.12238861  0.23214863  1.0
  Ga  Ga17  1  0.00000000  0.87761139  0.23214863  1.0
  Ga  Ga18  1  0.82548806  0.50000000  0.57512536  1.0
  Ga  Ga19  1  0.17451194  0.50000000  0.57512536  1.0
  Ga  Ga20  1  0.67451194  0.00000000  0.42487464  1.0
  Ga  Ga21  1  0.32548806  0.00000000  0.42487464  1.0
  P  P22  1  0.29139049  0.37357290  0.56416170  1.0
  P  P23  1  0.70860951  0.37357290  0.56416170  1.0
  P  P24  1  0.29139049  0.62642710  0.56416170  1.0
  P  P25  1  0.70860951  0.62642710  0.56416170  1.0
  P  P26  1  0.20860951  0.12642710  0.43583830  1.0
  P  P27  1  0.79139049  0.12642710  0.43583830  1.0
  P  P28  1  0.20860951  0.87357290  0.43583830  1.0
  P  P29  1  0.79139049  0.87357290  0.43583830  1.0
  P  P30  1  0.50000000  0.26480854  0.97945263  1.0
  P  P31  1  0.50000000  0.73519146  0.97945263  1.0
  P  P32  1  0.00000000  0.23519146  0.02054737  1.0
  P  P33  1  0.00000000  0.76480854  0.02054737  1.0
  P  P34  1  0.50000000  0.00000000  0.68781524  1.0
  P  P35  1  0.00000000  0.50000000  0.31218476  1.0
  P  P36  1  0.50000000  0.00000000  0.16259670  1.0
  P  P37  1  0.00000000  0.50000000  0.83740330  1.0
  P  P38  1  0.50000000  0.50000000  0.95162640  1.0
  P  P39  1  0.00000000  0.00000000  0.04837360  1.0
