# generated using pymatgen
data_Tb2Mo2C3
_symmetry_space_group_name_H-M   'P 1'
_cell_length_a   6.09094468
_cell_length_b   6.09094468
_cell_length_c   5.70114618
_cell_angle_alpha   68.69767016
_cell_angle_beta   111.30232984
_cell_angle_gamma   148.23286144
_symmetry_Int_Tables_number   1
_chemical_formula_structural   Tb2Mo2C3
_chemical_formula_sum   'Tb2 Mo2 C3'
_cell_volume   103.10482015
_cell_formula_units_Z   1
loop_
 _symmetry_equiv_pos_site_id
 _symmetry_equiv_pos_as_xyz
  1  'x, y, z'
loop_
 _atom_site_type_symbol
 _atom_site_label
 _atom_site_symmetry_multiplicity
 _atom_site_fract_x
 _atom_site_fract_y
 _atom_site_fract_z
 _atom_site_occupancy
  Tb  Tb0  1  0.60890977  -0.60890977  0.82390999  1.0
  Tb  Tb1  1  1.39109023  -0.39109023  0.17609001  1.0
  Mo  Mo2  1  0.84253256  -0.84253256  0.67313777  1.0
  Mo  Mo3  1  1.15746744  -0.15746744  0.32686223  1.0
  C  C4  1  0.75131336  -0.75131336  0.26548523  1.0
  C  C5  1  1.24868664  -0.24868664  0.73451477  1.0
  C  C6  1  0.00000000  0.00000000  0.00000000  1.0
