# generated using pymatgen
data_RbYBeF6
_symmetry_space_group_name_H-M   'P 1'
_cell_length_a   6.58536146
_cell_length_b   5.87831945
_cell_length_c   7.37525504
_cell_angle_alpha   90.00000000
_cell_angle_beta   114.09381693
_cell_angle_gamma   90.00000000
_symmetry_Int_Tables_number   1
_chemical_formula_structural   RbYBeF6
_chemical_formula_sum   'Rb2 Y2 Be2 F12'
_cell_volume   260.62897636
_cell_formula_units_Z   2
loop_
 _symmetry_equiv_pos_site_id
 _symmetry_equiv_pos_as_xyz
  1  'x, y, z'
loop_
 _atom_site_type_symbol
 _atom_site_label
 _atom_site_symmetry_multiplicity
 _atom_site_fract_x
 _atom_site_fract_y
 _atom_site_fract_z
 _atom_site_occupancy
  Rb  Rb0  1  0.08621402  0.25000000  0.21399151  1.0
  Rb  Rb1  1  0.91378598  0.75000000  0.78600849  1.0
  Y  Y2  1  0.39579577  0.25000000  0.82069060  1.0
  Y  Y3  1  0.60420423  0.75000000  0.17930940  1.0
  Be  Be4  1  0.76903397  0.25000000  0.53626746  1.0
  Be  Be5  1  0.23096603  0.75000000  0.46373254  1.0
  F  F6  1  0.74848845  0.46614925  0.40509051  1.0
  F  F7  1  0.74848845  0.03385075  0.40509051  1.0
  F  F8  1  0.25151155  0.96614925  0.59490949  1.0
  F  F9  1  0.25151155  0.53385075  0.59490949  1.0
  F  F10  1  0.67861940  0.49903126  0.97720948  1.0
  F  F11  1  0.67861940  0.00096874  0.97720948  1.0
  F  F12  1  0.32138060  0.99903126  0.02279052  1.0
  F  F13  1  0.32138060  0.50096874  0.02279052  1.0
  F  F14  1  1.00281236  0.25000000  0.71802109  1.0
  F  F15  1  -0.00281236  0.75000000  0.28197891  1.0
  F  F16  1  0.58724760  0.25000000  0.61977446  1.0
  F  F17  1  0.41275240  0.75000000  0.38022554  1.0
