# generated using pymatgen
data_Y3CuSiS7
_symmetry_space_group_name_H-M   'P 1'
_cell_length_a   9.90113342
_cell_length_b   9.90113342
_cell_length_c   5.71126721
_cell_angle_alpha   90.00000000
_cell_angle_beta   90.00000000
_cell_angle_gamma   120.00000000
_symmetry_Int_Tables_number   1
_chemical_formula_structural   Y3CuSiS7
_chemical_formula_sum   'Y6 Cu2 Si2 S14'
_cell_volume   484.87851049
_cell_formula_units_Z   2
loop_
 _symmetry_equiv_pos_site_id
 _symmetry_equiv_pos_as_xyz
  1  'x, y, z'
loop_
 _atom_site_type_symbol
 _atom_site_label
 _atom_site_symmetry_multiplicity
 _atom_site_fract_x
 _atom_site_fract_y
 _atom_site_fract_z
 _atom_site_occupancy
  Y  Y0  1  0.22845198  0.87147626  0.03071708  1.0
  Y  Y1  1  0.87147626  0.64302428  0.53071708  1.0
  Y  Y2  1  0.64302428  0.77154802  0.03071708  1.0
  Y  Y3  1  0.12852374  0.35697572  0.03071708  1.0
  Y  Y4  1  0.77154802  0.12852374  0.53071708  1.0
  Y  Y5  1  0.35697572  0.22845198  0.53071708  1.0
  Cu  Cu6  1  0.00000000  0.00000000  -0.01229281  1.0
  Cu  Cu7  1  0.00000000  0.00000000  0.48770719  1.0
  Si  Si8  1  0.33333333  0.66666667  0.61907989  1.0
  Si  Si9  1  0.66666667  0.33333333  0.11907989  1.0
  S  S10  1  0.90573781  0.74202811  0.00365691  1.0
  S  S11  1  0.74202811  0.83629031  0.50365691  1.0
  S  S12  1  0.83629031  0.09426219  0.00365691  1.0
  S  S13  1  0.25797189  0.16370969  0.00365691  1.0
  S  S14  1  0.09426219  0.25797189  0.50365691  1.0
  S  S15  1  0.16370969  0.90573781  0.50365691  1.0
  S  S16  1  0.58378917  0.47733093  0.26977112  1.0
  S  S17  1  0.47733093  0.89354176  0.76977112  1.0
  S  S18  1  0.89354176  0.41621083  0.26977112  1.0
  S  S19  1  0.52266907  0.10645824  0.26977112  1.0
  S  S20  1  0.41621083  0.52266907  0.76977112  1.0
  S  S21  1  0.10645824  0.58378917  0.76977112  1.0
  S  S22  1  0.33333333  0.66666667  0.24877758  1.0
  S  S23  1  0.66666667  0.33333333  0.74877758  1.0
