# generated using pymatgen
data_KAl(PO3)4
_symmetry_space_group_name_H-M   'P 1'
_cell_length_a   10.45783087
_cell_length_b   10.45783087
_cell_length_c   5.15605506
_cell_angle_alpha   81.89294488
_cell_angle_beta   98.10705512
_cell_angle_gamma   107.37859074
_symmetry_Int_Tables_number   1
_chemical_formula_structural   KAl(PO3)4
_chemical_formula_sum   'K2 Al2 P8 O24'
_cell_volume   529.85224594
_cell_formula_units_Z   2
loop_
 _symmetry_equiv_pos_site_id
 _symmetry_equiv_pos_as_xyz
  1  'x, y, z'
loop_
 _atom_site_type_symbol
 _atom_site_label
 _atom_site_symmetry_multiplicity
 _atom_site_fract_x
 _atom_site_fract_y
 _atom_site_fract_z
 _atom_site_occupancy
  K  K0  1  0.59242785  -0.59242785  0.74219384  1.0
  K  K1  1  0.40757215  -0.40757215  0.25780616  1.0
  Al  Al2  1  1.50000000  0.00000000  0.00000000  1.0
  Al  Al3  1  1.00000000  -0.50000000  0.00000000  1.0
  P  P4  1  0.64594327  -0.19881828  0.83647610  1.0
  P  P5  1  1.19881828  0.35405673  0.83647610  1.0
  P  P6  1  0.80118172  -0.35405673  0.16352390  1.0
  P  P7  1  1.35405673  0.19881828  0.16352390  1.0
  P  P8  1  1.68900991  0.06825660  0.53316015  1.0
  P  P9  1  0.93174340  -0.68900991  0.53316015  1.0
  P  P10  1  1.06825660  0.68900991  0.46683985  1.0
  P  P11  1  0.31099009  -0.06825660  0.46683985  1.0
  O  O12  1  0.56836509  -0.32343691  0.71510716  1.0
  O  O13  1  1.32343691  0.43163491  0.71510716  1.0
  O  O14  1  0.67656309  -0.43163491  0.28489284  1.0
  O  O15  1  1.43163491  0.32343691  0.28489284  1.0
  O  O16  1  0.70962823  -0.07823189  0.61331685  1.0
  O  O17  1  1.07823189  0.29037177  0.61331685  1.0
  O  O18  1  0.92176811  -0.29037177  0.38668315  1.0
  O  O19  1  1.29037177  0.07823189  0.38668315  1.0
  O  O20  1  1.60057771  0.09713002  0.71360177  1.0
  O  O21  1  0.90286998  -0.60057771  0.71360177  1.0
  O  O22  1  1.09713002  0.60057771  0.28639823  1.0
  O  O23  1  0.39942229  -0.09713002  0.28639823  1.0
  O  O24  1  0.35204666  -0.08730577  0.75811923  1.0
  O  O25  1  1.08730577  0.64795334  0.75811923  1.0
  O  O26  1  0.91269423  -0.64795334  0.24188077  1.0
  O  O27  1  1.64795334  0.08730577  0.24188077  1.0
  O  O28  1  1.42466363  0.14310595  0.98601282  1.0
  O  O29  1  0.85689405  -0.42466363  0.98601282  1.0
  O  O30  1  1.14310595  0.42466363  0.01398718  1.0
  O  O31  1  0.57533637  -0.14310595  0.01398718  1.0
  O  O32  1  0.84161503  -0.84161503  0.59544249  1.0
  O  O33  1  0.15838497  -0.15838497  0.40455751  1.0
  O  O34  1  0.78649409  -0.21350591  0.00000000  1.0
  O  O35  1  1.21350591  0.21350591  0.00000000  1.0
