# generated using pymatgen
data_Ba2Hg3(PdO2)7
_symmetry_space_group_name_H-M   'P 1'
_cell_length_a   6.27456012
_cell_length_b   6.27456012
_cell_length_c   10.99481867
_cell_angle_alpha   89.40652760
_cell_angle_beta   90.59347240
_cell_angle_gamma   118.33790656
_symmetry_Int_Tables_number   1
_chemical_formula_structural   Ba2Hg3(PdO2)7
_chemical_formula_sum   'Ba2 Hg3 Pd7 O14'
_cell_volume   380.96616001
_cell_formula_units_Z   1
loop_
 _symmetry_equiv_pos_site_id
 _symmetry_equiv_pos_as_xyz
  1  'x, y, z'
loop_
 _atom_site_type_symbol
 _atom_site_label
 _atom_site_symmetry_multiplicity
 _atom_site_fract_x
 _atom_site_fract_y
 _atom_site_fract_z
 _atom_site_occupancy
  Ba  Ba0  1  0.51165017  -0.51165017  0.79446770  1.0
  Ba  Ba1  1  0.48834983  -0.48834983  0.20553230  1.0
  Hg  Hg2  1  0.82128020  -0.82128020  0.30241720  1.0
  Hg  Hg3  1  0.17871980  -0.17871980  0.69758280  1.0
  Hg  Hg4  1  0.00000000  0.00000000  0.00000000  1.0
  Pd  Pd5  1  0.82954500  -0.82954500  0.72149527  1.0
  Pd  Pd6  1  0.17045500  -0.17045500  0.27850473  1.0
  Pd  Pd7  1  1.50000000  0.00000000  0.50000000  1.0
  Pd  Pd8  1  1.00000000  -0.50000000  0.50000000  1.0
  Pd  Pd9  1  1.50000000  0.00000000  0.00000000  1.0
  Pd  Pd10  1  1.00000000  -0.50000000  0.00000000  1.0
  Pd  Pd11  1  -0.00000000  0.00000000  0.50000000  1.0
  O  O12  1  0.69526038  -0.11877626  0.60364799  1.0
  O  O13  1  1.11877626  0.30473962  0.60364799  1.0
  O  O14  1  0.88122374  -0.30473962  0.39635201  1.0
  O  O15  1  1.30473962  0.11877626  0.39635201  1.0
  O  O16  1  1.51820728  0.04008283  0.81587279  1.0
  O  O17  1  0.95991717  -0.51820728  0.81587279  1.0
  O  O18  1  1.04008283  0.51820728  0.18412721  1.0
  O  O19  1  0.48179272  -0.04008283  0.18412721  1.0
  O  O20  1  -0.00954360  0.00954360  0.81467004  1.0
  O  O21  1  0.00954360  -0.00954360  0.18532996  1.0
  O  O22  1  0.68753065  -0.68753065  0.59610470  1.0
  O  O23  1  0.31246935  -0.31246935  0.40389530  1.0
  O  O24  1  0.35904450  -0.35904450  0.98465749  1.0
  O  O25  1  0.64095550  -0.64095550  0.01534251  1.0
