# generated using pymatgen
data_Ga2Pd5
_symmetry_space_group_name_H-M   'P 1'
_cell_length_a   5.50838666
_cell_length_b   4.11382644
_cell_length_c   18.63270950
_cell_angle_alpha   90.00000000
_cell_angle_beta   90.00000000
_cell_angle_gamma   90.00000000
_symmetry_Int_Tables_number   1
_chemical_formula_structural   Ga2Pd5
_chemical_formula_sum   'Ga8 Pd20'
_cell_volume   422.22738416
_cell_formula_units_Z   4
loop_
 _symmetry_equiv_pos_site_id
 _symmetry_equiv_pos_as_xyz
  1  'x, y, z'
loop_
 _atom_site_type_symbol
 _atom_site_label
 _atom_site_symmetry_multiplicity
 _atom_site_fract_x
 _atom_site_fract_y
 _atom_site_fract_z
 _atom_site_occupancy
  Ga  Ga0  1  0.83224271  0.75000000  0.17630603  1.0
  Ga  Ga1  1  0.33224271  0.75000000  0.32369397  1.0
  Ga  Ga2  1  0.16775729  0.25000000  0.82369397  1.0
  Ga  Ga3  1  0.66775729  0.25000000  0.67630603  1.0
  Ga  Ga4  1  0.79745477  0.75000000  0.45617057  1.0
  Ga  Ga5  1  0.29745477  0.75000000  0.04382943  1.0
  Ga  Ga6  1  0.20254523  0.25000000  0.54382943  1.0
  Ga  Ga7  1  0.70254523  0.25000000  0.95617057  1.0
  Pd  Pd8  1  0.96614031  0.75000000  0.58813117  1.0
  Pd  Pd9  1  0.46614031  0.75000000  0.91186883  1.0
  Pd  Pd10  1  0.03385969  0.25000000  0.41186883  1.0
  Pd  Pd11  1  0.53385969  0.25000000  0.08813117  1.0
  Pd  Pd12  1  0.86259290  0.75000000  0.73383427  1.0
  Pd  Pd13  1  0.36259290  0.75000000  0.76616573  1.0
  Pd  Pd14  1  0.13740710  0.25000000  0.26616573  1.0
  Pd  Pd15  1  0.63740710  0.25000000  0.23383427  1.0
  Pd  Pd16  1  0.83481957  0.75000000  0.32003558  1.0
  Pd  Pd17  1  0.33481957  0.75000000  0.17996442  1.0
  Pd  Pd18  1  0.16518043  0.25000000  0.67996442  1.0
  Pd  Pd19  1  0.66518043  0.25000000  0.82003558  1.0
  Pd  Pd20  1  0.83045705  0.75000000  0.03062474  1.0
  Pd  Pd21  1  0.33045705  0.75000000  0.46937526  1.0
  Pd  Pd22  1  0.16954295  0.25000000  0.96937526  1.0
  Pd  Pd23  1  0.66954295  0.25000000  0.53062474  1.0
  Pd  Pd24  1  0.46449362  0.75000000  0.61801042  1.0
  Pd  Pd25  1  0.96449362  0.75000000  0.88198958  1.0
  Pd  Pd26  1  0.53550638  0.25000000  0.38198958  1.0
  Pd  Pd27  1  0.03550638  0.25000000  0.11801042  1.0
