# generated using pymatgen
data_Tl(Mo3Se4)2
_symmetry_space_group_name_H-M   'P 1'
_cell_length_a   6.95611698
_cell_length_b   6.95611698
_cell_length_c   6.95611698
_cell_angle_alpha   88.82591260
_cell_angle_beta   88.82591260
_cell_angle_gamma   88.82591259
_symmetry_Int_Tables_number   1
_chemical_formula_structural   Tl(Mo3Se4)2
_chemical_formula_sum   'Tl1 Mo6 Se8'
_cell_volume   336.38040591
_cell_formula_units_Z   1
loop_
 _symmetry_equiv_pos_site_id
 _symmetry_equiv_pos_as_xyz
  1  'x, y, z'
loop_
 _atom_site_type_symbol
 _atom_site_label
 _atom_site_symmetry_multiplicity
 _atom_site_fract_x
 _atom_site_fract_y
 _atom_site_fract_z
 _atom_site_occupancy
  Tl  Tl0  1  0.00000000  0.00000000  0.00000000  1.0
  Mo  Mo1  1  0.43722743  0.58008130  -0.24499301  1.0
  Mo  Mo2  1  0.41991870  0.24499301  -0.43722743  1.0
  Mo  Mo3  1  0.24499301  0.56277257  -0.58008130  1.0
  Mo  Mo4  1  0.56277257  0.41991870  -0.75500699  1.0
  Mo  Mo5  1  0.58008130  0.75500699  -0.56277257  1.0
  Mo  Mo6  1  0.75500699  0.43722743  -0.41991870  1.0
  Se  Se7  1  0.88022009  0.60689613  -0.73830095  1.0
  Se  Se8  1  0.39310387  0.73830095  -0.88022009  1.0
  Se  Se9  1  0.73830095  0.11977991  -0.60689613  1.0
  Se  Se10  1  0.11977991  0.39310387  -0.26169905  1.0
  Se  Se11  1  0.60689613  0.26169905  -0.11977991  1.0
  Se  Se12  1  0.26169905  0.88022009  -0.39310387  1.0
  Se  Se13  1  0.75235029  0.75235029  -0.24764971  1.0
  Se  Se14  1  1.24764971  1.24764971  0.24764971  1.0
