# generated using pymatgen
data_Ba2CoO4
_symmetry_space_group_name_H-M   'P 1'
_cell_length_a   6.11224175
_cell_length_b   7.68189186
_cell_length_c   11.81398722
_cell_angle_alpha   90.00000000
_cell_angle_beta   117.60214169
_cell_angle_gamma   90.00000000
_symmetry_Int_Tables_number   1
_chemical_formula_structural   Ba2CoO4
_chemical_formula_sum   'Ba8 Co4 O16'
_cell_volume   491.57549107
_cell_formula_units_Z   4
loop_
 _symmetry_equiv_pos_site_id
 _symmetry_equiv_pos_as_xyz
  1  'x, y, z'
loop_
 _atom_site_type_symbol
 _atom_site_label
 _atom_site_symmetry_multiplicity
 _atom_site_fract_x
 _atom_site_fract_y
 _atom_site_fract_z
 _atom_site_occupancy
  Ba  Ba0  1  0.68514395  0.15242283  0.92253279  1.0
  Ba  Ba1  1  0.31485605  0.65242283  0.57746721  1.0
  Ba  Ba2  1  0.31485605  0.84757717  0.07746721  1.0
  Ba  Ba3  1  0.68514395  0.34757717  0.42253279  1.0
  Ba  Ba4  1  0.03280230  0.49961239  0.80792737  1.0
  Ba  Ba5  1  0.96719770  -0.00038761  0.69207263  1.0
  Ba  Ba6  1  0.96719770  0.50038761  0.19207263  1.0
  Ba  Ba7  1  0.03280230  1.00038761  0.30792737  1.0
  Co  Co8  1  0.66002182  0.72266234  0.91747955  1.0
  Co  Co9  1  0.33997818  0.22266234  0.58252045  1.0
  Co  Co10  1  0.33997818  0.27733766  0.08252045  1.0
  Co  Co11  1  0.66002182  0.77733766  0.41747955  1.0
  O  O12  1  0.71546715  0.49266938  0.92901080  1.0
  O  O13  1  0.28453285  0.99266938  0.57098920  1.0
  O  O14  1  0.28453285  0.50733062  0.07098920  1.0
  O  O15  1  0.71546715  0.00733062  0.42901080  1.0
  O  O16  1  0.33664811  0.76728892  0.81474093  1.0
  O  O17  1  0.66335189  0.26728892  0.68525907  1.0
  O  O18  1  0.66335189  0.23271108  0.18525907  1.0
  O  O19  1  0.33664811  0.73271108  0.31474093  1.0
  O  O20  1  0.86060466  0.82918392  0.86295806  1.0
  O  O21  1  0.13939534  0.32918392  0.63704194  1.0
  O  O22  1  0.13939534  0.17081608  0.13704194  1.0
  O  O23  1  0.86060466  0.67081608  0.36295806  1.0
  O  O24  1  0.74967742  0.81987790  0.07451981  1.0
  O  O25  1  0.25032258  0.31987790  0.42548019  1.0
  O  O26  1  0.25032258  0.18012210  0.92548019  1.0
  O  O27  1  0.74967742  0.68012210  0.57451981  1.0
