# generated using pymatgen
data_La9B3C6Br5
_symmetry_space_group_name_H-M   'P 1'
_cell_length_a   3.88648037
_cell_length_b   33.35039507
_cell_length_c   7.99626646
_cell_angle_alpha   90.00000000
_cell_angle_beta   90.00000000
_cell_angle_gamma   90.00000000
_symmetry_Int_Tables_number   1
_chemical_formula_structural   La9B3C6Br5
_chemical_formula_sum   'La18 B6 C12 Br10'
_cell_volume   1036.44132089
_cell_formula_units_Z   2
loop_
 _symmetry_equiv_pos_site_id
 _symmetry_equiv_pos_as_xyz
  1  'x, y, z'
loop_
 _atom_site_type_symbol
 _atom_site_label
 _atom_site_symmetry_multiplicity
 _atom_site_fract_x
 _atom_site_fract_y
 _atom_site_fract_z
 _atom_site_occupancy
  La  La0  1  0.50000000  0.55527735  0.04235864  1.0
  La  La1  1  0.50000000  0.44472265  0.04235864  1.0
  La  La2  1  0.00000000  0.05527735  0.95764136  1.0
  La  La3  1  0.00000000  0.94472265  0.95764136  1.0
  La  La4  1  0.50000000  0.24066724  0.80540269  1.0
  La  La5  1  0.50000000  0.75933276  0.80540269  1.0
  La  La6  1  0.00000000  0.74066724  0.19459731  1.0
  La  La7  1  0.00000000  0.25933276  0.19459731  1.0
  La  La8  1  0.50000000  0.15460290  0.08830687  1.0
  La  La9  1  0.50000000  0.84539710  0.08830687  1.0
  La  La10  1  0.00000000  0.65460290  0.91169313  1.0
  La  La11  1  0.00000000  0.34539710  0.91169313  1.0
  La  La12  1  0.50000000  0.11590171  0.65579363  1.0
  La  La13  1  0.50000000  0.88409829  0.65579363  1.0
  La  La14  1  0.00000000  0.61590171  0.34420637  1.0
  La  La15  1  0.00000000  0.38409829  0.34420637  1.0
  La  La16  1  0.50000000  0.50000000  0.44186242  1.0
  La  La17  1  0.00000000  0.00000000  0.55813758  1.0
  B  B18  1  0.50000000  0.66984626  0.13231831  1.0
  B  B19  1  0.50000000  0.33015374  0.13231831  1.0
  B  B20  1  0.00000000  0.16984626  0.86768169  1.0
  B  B21  1  0.00000000  0.83015374  0.86768169  1.0
  B  B22  1  0.50000000  0.00000000  0.78308710  1.0
  B  B23  1  0.00000000  0.50000000  0.21691290  1.0
  C  C24  1  0.50000000  0.70659210  0.02709542  1.0
  C  C25  1  0.50000000  0.29340790  0.02709542  1.0
  C  C26  1  0.00000000  0.20659210  0.97290458  1.0
  C  C27  1  0.00000000  0.79340790  0.97290458  1.0
  C  C28  1  0.50000000  0.62537143  0.13043227  1.0
  C  C29  1  0.50000000  0.37462857  0.13043227  1.0
  C  C30  1  0.00000000  0.12537143  0.86956773  1.0
  C  C31  1  0.00000000  0.87462857  0.86956773  1.0
  C  C32  1  0.50000000  0.04317132  0.73623661  1.0
  C  C33  1  0.50000000  0.95682868  0.73623661  1.0
  C  C34  1  0.00000000  0.54317132  0.26376339  1.0
  C  C35  1  0.00000000  0.45682868  0.26376339  1.0
  Br  Br36  1  0.50000000  0.59890346  0.67090248  1.0
  Br  Br37  1  0.50000000  0.40109654  0.67090248  1.0
  Br  Br38  1  0.00000000  0.09890346  0.32909752  1.0
  Br  Br39  1  0.00000000  0.90109654  0.32909752  1.0
  Br  Br40  1  0.50000000  0.20210164  0.42637773  1.0
  Br  Br41  1  0.50000000  0.79789836  0.42637773  1.0
  Br  Br42  1  0.00000000  0.70210164  0.57362227  1.0
  Br  Br43  1  0.00000000  0.29789836  0.57362227  1.0
  Br  Br44  1  0.50000000  0.00000000  0.22380873  1.0
  Br  Br45  1  0.00000000  0.50000000  0.77619127  1.0
