# generated using pymatgen
data_ZnS
_symmetry_space_group_name_H-M   'P 1'
_cell_length_a   3.84945451
_cell_length_b   3.84945451
_cell_length_c   56.63308635
_cell_angle_alpha   90.00000000
_cell_angle_beta   90.00000000
_cell_angle_gamma   120.00000000
_symmetry_Int_Tables_number   1
_chemical_formula_structural   ZnS
_chemical_formula_sum   'Zn18 S18'
_cell_volume   726.77376981
_cell_formula_units_Z   18
loop_
 _symmetry_equiv_pos_site_id
 _symmetry_equiv_pos_as_xyz
  1  'x, y, z'
loop_
 _atom_site_type_symbol
 _atom_site_label
 _atom_site_symmetry_multiplicity
 _atom_site_fract_x
 _atom_site_fract_y
 _atom_site_fract_z
 _atom_site_occupancy
  Zn  Zn0  1  0.00000000  0.00000000  0.05554928  1.0
  Zn  Zn1  1  0.00000000  0.00000000  0.22222492  1.0
  Zn  Zn2  1  0.00000000  0.00000000  0.38887619  1.0
  Zn  Zn3  1  0.00000000  0.00000000  0.55554774  1.0
  Zn  Zn4  1  0.00000000  0.00000000  0.72222419  1.0
  Zn  Zn5  1  0.00000000  0.00000000  0.88887716  1.0
  Zn  Zn6  1  0.66666667  0.33333333  0.16667208  1.0
  Zn  Zn7  1  0.66666667  0.33333333  0.33332579  1.0
  Zn  Zn8  1  0.66666667  0.33333333  0.49994901  1.0
  Zn  Zn9  1  0.66666667  0.33333333  0.61114093  1.0
  Zn  Zn10  1  0.66666667  0.33333333  0.83329283  1.0
  Zn  Zn11  1  0.66666667  0.33333333  0.94446160  1.0
  Zn  Zn12  1  0.33333333  0.66666667  -0.00004357  1.0
  Zn  Zn13  1  0.33333333  0.66666667  0.11114536  1.0
  Zn  Zn14  1  0.33333333  0.66666667  0.27777558  1.0
  Zn  Zn15  1  0.33333333  0.66666667  0.44442640  1.0
  Zn  Zn16  1  0.33333333  0.66666667  0.66663235  1.0
  Zn  Zn17  1  0.33333333  0.66666667  0.77780572  1.0
  S  S18  1  0.00000000  0.00000000  0.01384186  1.0
  S  S19  1  0.00000000  0.00000000  0.18057196  1.0
  S  S20  1  0.00000000  0.00000000  0.34722370  1.0
  S  S21  1  0.00000000  0.00000000  0.51383854  1.0
  S  S22  1  0.00000000  0.00000000  0.68051853  1.0
  S  S23  1  0.00000000  0.00000000  0.84717357  1.0
  S  S24  1  0.66666667  0.33333333  0.12502612  1.0
  S  S25  1  0.66666667  0.33333333  0.29167336  1.0
  S  S26  1  0.66666667  0.33333333  0.45831639  1.0
  S  S27  1  0.66666667  0.33333333  0.56950610  1.0
  S  S28  1  0.66666667  0.33333333  0.79167313  1.0
  S  S29  1  0.66666667  0.33333333  0.90282957  1.0
  S  S30  1  0.33333333  0.66666667  0.06950735  1.0
  S  S31  1  0.33333333  0.66666667  0.23612283  1.0
  S  S32  1  0.33333333  0.66666667  0.40277533  1.0
  S  S33  1  0.33333333  0.66666667  0.62500971  1.0
  S  S34  1  0.33333333  0.66666667  0.73617549  1.0
  S  S35  1  0.33333333  0.66666667  0.95833291  1.0
