# generated using pymatgen
data_RbHf2(AsO4)3
_symmetry_space_group_name_H-M   'P 1'
_cell_length_a   9.95906803
_cell_length_b   9.95906803
_cell_length_c   9.95906803
_cell_angle_alpha   54.52917091
_cell_angle_beta   54.52917091
_cell_angle_gamma   54.52917091
_symmetry_Int_Tables_number   1
_chemical_formula_structural   RbHf2(AsO4)3
_chemical_formula_sum   'Rb2 Hf4 As6 O24'
_cell_volume   609.38524053
_cell_formula_units_Z   2
loop_
 _symmetry_equiv_pos_site_id
 _symmetry_equiv_pos_as_xyz
  1  'x, y, z'
loop_
 _atom_site_type_symbol
 _atom_site_label
 _atom_site_symmetry_multiplicity
 _atom_site_fract_x
 _atom_site_fract_y
 _atom_site_fract_z
 _atom_site_occupancy
  Rb  Rb0  1  1.00000000  0.00000000  -0.00000000  1.0
  Rb  Rb1  1  0.50000000  0.50000000  0.50000000  1.0
  Hf  Hf2  1  0.85086972  -0.14913028  -0.14913028  1.0
  Hf  Hf3  1  0.35086972  0.35086972  0.35086972  1.0
  Hf  Hf4  1  0.64913028  0.64913028  -0.35086972  1.0
  Hf  Hf5  1  1.14913028  0.14913028  0.14913028  1.0
  As  As6  1  0.47021308  0.75000000  0.02978692  1.0
  As  As7  1  0.97021308  -0.47021308  0.25000000  1.0
  As  As8  1  0.25000000  0.97021308  -0.47021308  1.0
  As  As9  1  0.75000000  1.02978692  -0.52978692  1.0
  As  As10  1  0.52978692  0.25000000  -0.02978692  1.0
  As  As11  1  1.02978692  0.47021308  -0.25000000  1.0
  O  O12  1  0.74310807  1.01326557  -0.34392890  1.0
  O  O13  1  1.24310807  0.15607110  -0.48673443  1.0
  O  O14  1  0.84392890  0.48673443  -0.24310807  1.0
  O  O15  1  0.34392890  0.25689193  -0.01326557  1.0
  O  O16  1  0.98673443  0.34392890  -0.74310807  1.0
  O  O17  1  0.48673443  0.75689193  -0.15607110  1.0
  O  O18  1  0.25689193  0.98673443  -0.65607110  1.0
  O  O19  1  0.75689193  0.84392890  -0.51326557  1.0
  O  O20  1  0.65607110  0.74310807  0.01326557  1.0
  O  O21  1  1.15607110  -0.48673443  0.24310807  1.0
  O  O22  1  0.51326557  0.24310807  0.15607110  1.0
  O  O23  1  1.01326557  0.65607110  -0.25689193  1.0
  O  O24  1  0.70851070  0.06303504  -0.06767681  1.0
  O  O25  1  1.20851070  0.43232319  -0.43696496  1.0
  O  O26  1  0.56767681  0.43696496  -0.20851070  1.0
  O  O27  1  1.06767681  0.29148930  -0.06303504  1.0
  O  O28  1  0.93696496  0.06767681  0.29148930  1.0
  O  O29  1  0.43696496  0.79148930  -0.43232319  1.0
  O  O30  1  1.29148930  -0.06303504  0.06767681  1.0
  O  O31  1  0.79148930  0.56767681  -0.56303504  1.0
  O  O32  1  0.93232319  -0.29148930  0.06303504  1.0
  O  O33  1  0.43232319  0.56303504  0.20851070  1.0
  O  O34  1  0.56303504  1.20851070  -0.56767681  1.0
  O  O35  1  1.06303504  -0.06767681  -0.29148930  1.0
