# generated using pymatgen
data_CdSnP2
_symmetry_space_group_name_H-M   'P 1'
_cell_length_a   7.22428543
_cell_length_b   7.22428543
_cell_length_c   7.22428543
_cell_angle_alpha   131.09388151
_cell_angle_beta   131.09388151
_cell_angle_gamma   71.66396343
_symmetry_Int_Tables_number   1
_chemical_formula_structural   CdSnP2
_chemical_formula_sum   'Cd2 Sn2 P4'
_cell_volume   209.51518506
_cell_formula_units_Z   2
loop_
 _symmetry_equiv_pos_site_id
 _symmetry_equiv_pos_as_xyz
  1  'x, y, z'
loop_
 _atom_site_type_symbol
 _atom_site_label
 _atom_site_symmetry_multiplicity
 _atom_site_fract_x
 _atom_site_fract_y
 _atom_site_fract_z
 _atom_site_occupancy
  Cd  Cd0  1  0.25000000  0.75000000  0.50000000  1.0
  Cd  Cd1  1  0.50000000  0.50000000  0.00000000  1.0
  Sn  Sn2  1  0.75000000  0.25000000  0.50000000  1.0
  Sn  Sn3  1  1.00000000  1.00000000  1.00000000  1.0
  P  P4  1  1.11901599  1.12500000  1.49401599  1.0
  P  P5  1  1.37500000  0.88098401  1.00598401  1.0
  P  P6  1  0.87500000  1.36901599  0.99401599  1.0
  P  P7  1  0.63098401  0.62500000  0.50598401  1.0
