# generated using pymatgen
data_Cs2NaFe(CN)6
_symmetry_space_group_name_H-M   'P 1'
_cell_length_a   7.66987838
_cell_length_b   7.66987838
_cell_length_c   11.15256485
_cell_angle_alpha   90.00000000
_cell_angle_beta   90.00000000
_cell_angle_gamma   90.00000000
_symmetry_Int_Tables_number   1
_chemical_formula_structural   Cs2NaFe(CN)6
_chemical_formula_sum   'Cs4 Na2 Fe2 C12 N12'
_cell_volume   656.07231520
_cell_formula_units_Z   2
loop_
 _symmetry_equiv_pos_site_id
 _symmetry_equiv_pos_as_xyz
  1  'x, y, z'
loop_
 _atom_site_type_symbol
 _atom_site_label
 _atom_site_symmetry_multiplicity
 _atom_site_fract_x
 _atom_site_fract_y
 _atom_site_fract_z
 _atom_site_occupancy
  Cs  Cs0  1  0.50000000  0.00000000  0.25000000  1.0
  Cs  Cs1  1  0.50000000  0.00000000  0.75000000  1.0
  Cs  Cs2  1  0.00000000  0.50000000  0.75000000  1.0
  Cs  Cs3  1  0.00000000  0.50000000  0.25000000  1.0
  Na  Na4  1  0.50000000  0.50000000  0.00000000  1.0
  Na  Na5  1  0.00000000  0.00000000  0.50000000  1.0
  Fe  Fe6  1  0.50000000  0.50000000  0.50000000  1.0
  Fe  Fe7  1  0.00000000  0.00000000  0.00000000  1.0
  C  C8  1  0.37041001  0.71309003  0.50000000  1.0
  C  C9  1  0.87041001  0.78690997  0.00000000  1.0
  C  C10  1  0.28690997  0.37041001  0.50000000  1.0
  C  C11  1  0.78690997  0.12958999  0.00000000  1.0
  C  C12  1  0.62958999  0.28690997  0.50000000  1.0
  C  C13  1  0.12958999  0.21309003  0.00000000  1.0
  C  C14  1  0.71309003  0.62958999  0.50000000  1.0
  C  C15  1  0.21309003  0.87041001  0.00000000  1.0
  C  C16  1  0.50000000  0.50000000  0.32879623  1.0
  C  C17  1  0.50000000  0.50000000  0.67120377  1.0
  C  C18  1  0.00000000  0.00000000  0.82879623  1.0
  C  C19  1  0.00000000  0.00000000  0.17120377  1.0
  N  N20  1  0.29193911  0.84462173  0.50000000  1.0
  N  N21  1  0.79193911  0.65537827  0.00000000  1.0
  N  N22  1  0.15537827  0.29193911  0.50000000  1.0
  N  N23  1  0.65537827  0.20806089  0.00000000  1.0
  N  N24  1  0.70806089  0.15537827  0.50000000  1.0
  N  N25  1  0.20806089  0.34462173  0.00000000  1.0
  N  N26  1  0.84462173  0.70806089  0.50000000  1.0
  N  N27  1  0.34462173  0.79193911  0.00000000  1.0
  N  N28  1  0.50000000  0.50000000  0.22339701  1.0
  N  N29  1  0.50000000  0.50000000  0.77660299  1.0
  N  N30  1  0.00000000  0.00000000  0.72339701  1.0
  N  N31  1  0.00000000  0.00000000  0.27660299  1.0
