# generated using pymatgen
data_AgBi3S5
_symmetry_space_group_name_H-M   'P 1'
_cell_length_a   7.13344958
_cell_length_b   7.13344958
_cell_length_c   16.67176704
_cell_angle_alpha   84.73562189
_cell_angle_beta   95.26437811
_cell_angle_gamma   146.92926305
_symmetry_Int_Tables_number   1
_chemical_formula_structural   AgBi3S5
_chemical_formula_sum   'Ag2 Bi6 S10'
_cell_volume   460.80353999
_cell_formula_units_Z   2
loop_
 _symmetry_equiv_pos_site_id
 _symmetry_equiv_pos_as_xyz
  1  'x, y, z'
loop_
 _atom_site_type_symbol
 _atom_site_label
 _atom_site_symmetry_multiplicity
 _atom_site_fract_x
 _atom_site_fract_y
 _atom_site_fract_z
 _atom_site_occupancy
  Ag  Ag0  1  0.50000000  0.50000000  0.50000000  1.0
  Ag  Ag1  1  0.00000000  0.00000000  0.00000000  1.0
  Bi  Bi2  1  0.78142673  0.21857327  0.60571151  1.0
  Bi  Bi3  1  0.21857327  -0.21857327  0.39428849  1.0
  Bi  Bi4  1  0.52874794  0.47125206  0.78175462  1.0
  Bi  Bi5  1  0.47125206  -0.47125206  0.21824538  1.0
  Bi  Bi6  1  0.26626860  -0.26626860  0.89101248  1.0
  Bi  Bi7  1  0.73373140  0.26626860  0.10898752  1.0
  S  S8  1  0.91480404  0.08519596  0.85956140  1.0
  S  S9  1  0.08519596  -0.08519596  0.14043860  1.0
  S  S10  1  0.84788873  0.15211127  0.46438521  1.0
  S  S11  1  0.15211127  -0.15211127  0.53561479  1.0
  S  S12  1  0.84256139  0.15743861  0.25624098  1.0
  S  S13  1  0.15743861  -0.15743861  0.74375902  1.0
  S  S14  1  0.64890744  0.35109256  0.94092900  1.0
  S  S15  1  0.35109256  -0.35109256  0.05907100  1.0
  S  S16  1  0.42573658  -0.42573658  0.63505583  1.0
  S  S17  1  0.57426342  0.42573658  0.36494417  1.0
