# generated using pymatgen
data_V2CuH3O7
_symmetry_space_group_name_H-M   'P 1'
_cell_length_a   10.63423024
_cell_length_b   5.41670048
_cell_length_c   5.27148112
_cell_angle_alpha   103.17238646
_cell_angle_beta   100.99734221
_cell_angle_gamma   102.19489692
_symmetry_Int_Tables_number   1
_chemical_formula_structural   V2CuH3O7
_chemical_formula_sum   'V4 Cu2 H6 O14'
_cell_volume   279.73618802
_cell_formula_units_Z   2
loop_
 _symmetry_equiv_pos_site_id
 _symmetry_equiv_pos_as_xyz
  1  'x, y, z'
loop_
 _atom_site_type_symbol
 _atom_site_label
 _atom_site_symmetry_multiplicity
 _atom_site_fract_x
 _atom_site_fract_y
 _atom_site_fract_z
 _atom_site_occupancy
  V  V0  1  -0.28655508  -0.82724671  -0.85682639  1.0
  V  V1  1  -0.71344492  -0.17275329  -0.14317361  1.0
  V  V2  1  -0.67390636  -0.58303812  -0.70205938  1.0
  V  V3  1  -0.32609364  -0.41696188  -0.29794062  1.0
  Cu  Cu4  1  0.00000000  0.00000000  0.00000000  1.0
  Cu  Cu5  1  -0.50000000  0.00000000  -0.50000000  1.0
  O  O6  1  -0.68017103  -0.38650731  0.04480151  1.0
  O  O7  1  -0.31982897  -0.61349269  -0.04480151  1.0
  O  O8  1  -0.63493457  -0.84437696  -0.95396558  1.0
  O  O9  1  -0.36506543  -0.15562304  -0.04603442  1.0
  O  O10  1  -0.99400448  -0.25306507  -0.75883450  1.0
  O  O11  1  -0.00599552  -0.74693493  -0.24116550  1.0
  O  O12  1  -0.12340170  -0.79280437  -0.77372013  1.0
  O  O13  1  -0.87659830  -0.20719563  -0.22627987  1.0
  O  O14  1  -0.82652898  -0.72198302  -0.71921941  1.0
  O  O15  1  -0.17347102  -0.27801698  -0.28078059  1.0
  O  O16  1  -0.34752973  -0.76001234  -0.56616964  1.0
  O  O17  1  -0.65247027  -0.23998766  -0.43383036  1.0
  O  O18  1  -0.57252321  -0.67893945  -0.41381890  1.0
  O  O19  1  -0.42747679  -0.32106055  -0.58618110  1.0
  H  H20  1  -0.39301160  -0.32127993  -0.74670996  1.0
  H  H21  1  -0.60698840  -0.67872007  -0.25329004  1.0
  H  H22  1  -0.94923021  -0.20770322  -0.56565335  1.0
  H  H23  1  -0.05076979  -0.79229678  -0.43434665  1.0
  H  H24  1  -0.95445895  -0.56277294  -0.19408339  1.0
  H  H25  1  -0.04554105  -0.43722706  -0.80591661  1.0
