# generated using pymatgen
data_Ba2CdTe3
_symmetry_space_group_name_H-M   'P 1'
_cell_length_a   9.98812141
_cell_length_b   4.80749263
_cell_length_c   19.33184991
_cell_angle_alpha   90.00000000
_cell_angle_beta   90.00000000
_cell_angle_gamma   90.00000000
_symmetry_Int_Tables_number   1
_chemical_formula_structural   Ba2CdTe3
_chemical_formula_sum   'Ba8 Cd4 Te12'
_cell_volume   928.27329008
_cell_formula_units_Z   4
loop_
 _symmetry_equiv_pos_site_id
 _symmetry_equiv_pos_as_xyz
  1  'x, y, z'
loop_
 _atom_site_type_symbol
 _atom_site_label
 _atom_site_symmetry_multiplicity
 _atom_site_fract_x
 _atom_site_fract_y
 _atom_site_fract_z
 _atom_site_occupancy
  Ba  Ba0  1  0.92641545  0.75000000  0.78546606  1.0
  Ba  Ba1  1  0.42641545  0.75000000  0.71453394  1.0
  Ba  Ba2  1  0.07358455  0.25000000  0.21453394  1.0
  Ba  Ba3  1  0.57358455  0.25000000  0.28546606  1.0
  Ba  Ba4  1  0.75355469  0.75000000  0.03674468  1.0
  Ba  Ba5  1  0.25355469  0.75000000  0.46325532  1.0
  Ba  Ba6  1  0.24644531  0.25000000  0.96325532  1.0
  Ba  Ba7  1  0.74644531  0.25000000  0.53674468  1.0
  Cd  Cd8  1  0.86952613  0.75000000  0.36407942  1.0
  Cd  Cd9  1  0.36952613  0.75000000  0.13592058  1.0
  Cd  Cd10  1  0.13047387  0.25000000  0.63592058  1.0
  Cd  Cd11  1  0.63047387  0.25000000  0.86407942  1.0
  Te  Te12  1  0.98805293  0.75000000  0.59658533  1.0
  Te  Te13  1  0.48805293  0.75000000  0.90341467  1.0
  Te  Te14  1  0.01194707  0.25000000  0.40341467  1.0
  Te  Te15  1  0.51194707  0.25000000  0.09658533  1.0
  Te  Te16  1  0.80742872  0.75000000  0.22017730  1.0
  Te  Te17  1  0.30742872  0.75000000  0.27982270  1.0
  Te  Te18  1  0.19257128  0.25000000  0.77982270  1.0
  Te  Te19  1  0.69257128  0.25000000  0.72017730  1.0
  Te  Te20  1  0.61287188  0.75000000  0.42825634  1.0
  Te  Te21  1  0.11287188  0.75000000  0.07174366  1.0
  Te  Te22  1  0.38712812  0.25000000  0.57174366  1.0
  Te  Te23  1  0.88712812  0.25000000  0.92825634  1.0
