# generated using pymatgen
data_CaZrS3
_symmetry_space_group_name_H-M   'P 1'
_cell_length_a   7.06407425
_cell_length_b   9.63611882
_cell_length_c   6.57425712
_cell_angle_alpha   90.00000000
_cell_angle_beta   90.00000000
_cell_angle_gamma   90.00000000
_symmetry_Int_Tables_number   1
_chemical_formula_structural   CaZrS3
_chemical_formula_sum   'Ca4 Zr4 S12'
_cell_volume   447.51138367
_cell_formula_units_Z   4
loop_
 _symmetry_equiv_pos_site_id
 _symmetry_equiv_pos_as_xyz
  1  'x, y, z'
loop_
 _atom_site_type_symbol
 _atom_site_label
 _atom_site_symmetry_multiplicity
 _atom_site_fract_x
 _atom_site_fract_y
 _atom_site_fract_z
 _atom_site_occupancy
  Ca  Ca0  1  0.09232364  0.75000000  0.53301784  1.0
  Ca  Ca1  1  0.59232364  0.75000000  0.96698216  1.0
  Ca  Ca2  1  0.90767636  0.25000000  0.46698216  1.0
  Ca  Ca3  1  0.40767636  0.25000000  0.03301784  1.0
  Zr  Zr4  1  0.50000000  0.00000000  0.50000000  1.0
  Zr  Zr5  1  0.50000000  0.50000000  0.50000000  1.0
  Zr  Zr6  1  0.00000000  0.00000000  0.00000000  1.0
  Zr  Zr7  1  0.00000000  0.50000000  0.00000000  1.0
  S  S8  1  0.30935556  -0.06360469  0.81638294  1.0
  S  S9  1  0.30935556  0.56360469  0.81638294  1.0
  S  S10  1  0.80935556  -0.06360469  0.68361706  1.0
  S  S11  1  0.80935556  0.56360469  0.68361706  1.0
  S  S12  1  0.69064444  0.43639531  0.18361706  1.0
  S  S13  1  0.69064444  1.06360469  0.18361706  1.0
  S  S14  1  0.19064444  0.43639531  0.31638294  1.0
  S  S15  1  0.19064444  1.06360469  0.31638294  1.0
  S  S16  1  0.96570057  0.75000000  0.12470194  1.0
  S  S17  1  0.46570057  0.75000000  0.37529806  1.0
  S  S18  1  0.03429943  0.25000000  0.87529806  1.0
  S  S19  1  0.53429943  0.25000000  0.62470194  1.0
