# generated using pymatgen
data_Al5O8
_symmetry_space_group_name_H-M   'P 1'
_cell_length_a   5.61946829
_cell_length_b   5.61946829
_cell_length_c   8.97019064
_cell_angle_alpha   90.00000000
_cell_angle_beta   90.00000000
_cell_angle_gamma   120.00000000
_symmetry_Int_Tables_number   1
_chemical_formula_structural   Al5O8
_chemical_formula_sum   'Al10 O16'
_cell_volume   245.31423727
_cell_formula_units_Z   2
loop_
 _symmetry_equiv_pos_site_id
 _symmetry_equiv_pos_as_xyz
  1  'x, y, z'
loop_
 _atom_site_type_symbol
 _atom_site_label
 _atom_site_symmetry_multiplicity
 _atom_site_fract_x
 _atom_site_fract_y
 _atom_site_fract_z
 _atom_site_occupancy
  O  O0  1  -0.02575691  0.48712154  -0.00028804  1.0
  O  O1  1  0.48712154  -0.02575691  0.49971196  1.0
  O  O2  1  0.48712154  0.51287846  0.49971196  1.0
  O  O3  1  0.51287846  0.48712154  -0.00028804  1.0
  O  O4  1  0.51287846  0.02575691  -0.00028804  1.0
  O  O5  1  0.02575691  0.51287846  0.49971196  1.0
  O  O6  1  0.33333333  0.66666667  0.25884474  1.0
  O  O7  1  0.66666667  0.33333333  0.75884474  1.0
  O  O8  1  0.34083325  0.17041663  0.25923415  1.0
  O  O9  1  0.17041663  0.34083325  0.75923415  1.0
  O  O10  1  0.17041663  0.82958337  0.75923415  1.0
  O  O11  1  0.82958337  0.17041663  0.25923415  1.0
  O  O12  1  0.82958337  0.65916675  0.25923415  1.0
  O  O13  1  0.65916675  0.82958337  0.75923415  1.0
  O  O14  1  0.00000000  0.00000000  -0.02808995  1.0
  O  O15  1  0.00000000  0.00000000  0.47191005  1.0
  Al  Al16  1  0.67562930  0.83781465  0.36874959  1.0
  Al  Al17  1  0.83781465  0.67562930  0.86874959  1.0
  Al  Al18  1  0.83781465  0.16218535  0.86874959  1.0
  Al  Al19  1  0.16218535  0.83781465  0.36874959  1.0
  Al  Al20  1  0.16218535  0.32437070  0.36874959  1.0
  Al  Al21  1  0.32437070  0.16218535  0.86874959  1.0
  Al  Al22  1  0.33333333  0.66666667  0.05521511  1.0
  Al  Al23  1  0.66666667  0.33333333  0.55521511  1.0
  Al  Al24  1  0.33333333  0.66666667  0.64894296  1.0
  Al  Al25  1  0.66666667  0.33333333  0.14894296  1.0
