# generated using pymatgen
data_Gd3CuSnS7
_symmetry_space_group_name_H-M   'P 1'
_cell_length_a   9.86722603
_cell_length_b   9.86722603
_cell_length_c   6.28081537
_cell_angle_alpha   90.00000000
_cell_angle_beta   90.00000000
_cell_angle_gamma   120.00000000
_symmetry_Int_Tables_number   1
_chemical_formula_structural   Gd3CuSnS7
_chemical_formula_sum   'Gd6 Cu2 Sn2 S14'
_cell_volume   529.58638602
_cell_formula_units_Z   2
loop_
 _symmetry_equiv_pos_site_id
 _symmetry_equiv_pos_as_xyz
  1  'x, y, z'
loop_
 _atom_site_type_symbol
 _atom_site_label
 _atom_site_symmetry_multiplicity
 _atom_site_fract_x
 _atom_site_fract_y
 _atom_site_fract_z
 _atom_site_occupancy
  Gd  Gd0  1  0.21130629  0.85188697  0.09563939  1.0
  Gd  Gd1  1  0.85188697  0.64058068  0.59563939  1.0
  Gd  Gd2  1  0.64058068  0.78869371  0.09563939  1.0
  Gd  Gd3  1  0.14811303  0.35941932  0.09563939  1.0
  Gd  Gd4  1  0.78869371  0.14811303  0.59563939  1.0
  Gd  Gd5  1  0.35941932  0.21130629  0.59563939  1.0
  Cu  Cu6  1  0.00000000  0.00000000  -0.01180361  1.0
  Cu  Cu7  1  0.00000000  0.00000000  0.48819639  1.0
  Sn  Sn8  1  0.33333333  0.66666667  0.66225394  1.0
  Sn  Sn9  1  0.66666667  0.33333333  0.16225394  1.0
  S  S10  1  0.88805565  0.74057629  0.01903580  1.0
  S  S11  1  0.74057629  0.85252064  0.51903580  1.0
  S  S12  1  0.85252064  0.11194435  0.01903580  1.0
  S  S13  1  0.25942371  0.14747936  0.01903580  1.0
  S  S14  1  0.11194435  0.25942371  0.51903580  1.0
  S  S15  1  0.14747936  0.88805565  0.51903580  1.0
  S  S16  1  0.56417088  0.48110089  0.34082906  1.0
  S  S17  1  0.48110089  0.91693001  0.84082906  1.0
  S  S18  1  0.91693001  0.43582912  0.34082906  1.0
  S  S19  1  0.51889911  0.08306999  0.34082906  1.0
  S  S20  1  0.43582912  0.51889911  0.84082906  1.0
  S  S21  1  0.08306999  0.56417088  0.84082906  1.0
  S  S22  1  0.33333333  0.66666667  0.27933693  1.0
  S  S23  1  0.66666667  0.33333333  0.77933693  1.0
