# generated using pymatgen
data_Mn3GeIr
_symmetry_space_group_name_H-M   'P 1'
_cell_length_a   6.59220173
_cell_length_b   6.59220173
_cell_length_c   6.59220173
_cell_angle_alpha   90.00000000
_cell_angle_beta   90.00000000
_cell_angle_gamma   90.00000000
_symmetry_Int_Tables_number   1
_chemical_formula_structural   Mn3GeIr
_chemical_formula_sum   'Mn12 Ge4 Ir4'
_cell_volume   286.47812548
_cell_formula_units_Z   4
loop_
 _symmetry_equiv_pos_site_id
 _symmetry_equiv_pos_as_xyz
  1  'x, y, z'
loop_
 _atom_site_type_symbol
 _atom_site_label
 _atom_site_symmetry_multiplicity
 _atom_site_fract_x
 _atom_site_fract_y
 _atom_site_fract_z
 _atom_site_occupancy
  Mn  Mn0  1  0.37919353  0.79420792  0.95337616  1.0
  Mn  Mn1  1  0.87919353  0.70579208  0.04662384  1.0
  Mn  Mn2  1  0.29420792  0.54662384  0.62080647  1.0
  Mn  Mn3  1  0.79420792  0.95337616  0.37919353  1.0
  Mn  Mn4  1  0.04662384  0.87919353  0.70579208  1.0
  Mn  Mn5  1  0.54662384  0.62080647  0.29420792  1.0
  Mn  Mn6  1  0.62080647  0.29420792  0.54662384  1.0
  Mn  Mn7  1  0.12080647  0.20579208  0.45337616  1.0
  Mn  Mn8  1  0.70579208  0.04662384  0.87919353  1.0
  Mn  Mn9  1  0.20579208  0.45337616  0.12080647  1.0
  Mn  Mn10  1  0.95337616  0.37919353  0.79420792  1.0
  Mn  Mn11  1  0.45337616  0.12080647  0.20579208  1.0
  Ge  Ge12  1  0.43829964  0.93829964  0.56170036  1.0
  Ge  Ge13  1  0.93829964  0.56170036  0.43829964  1.0
  Ge  Ge14  1  0.56170036  0.43829964  0.93829964  1.0
  Ge  Ge15  1  0.06170036  0.06170036  0.06170036  1.0
  Ir  Ir16  1  0.81027027  0.31027027  0.18972973  1.0
  Ir  Ir17  1  0.31027027  0.18972973  0.81027027  1.0
  Ir  Ir18  1  0.18972973  0.81027027  0.31027027  1.0
  Ir  Ir19  1  0.68972973  0.68972973  0.68972973  1.0
