# generated using pymatgen
data_InBi2Se4Br
_symmetry_space_group_name_H-M   'P 1'
_cell_length_a   10.88974133
_cell_length_b   10.88974133
_cell_length_c   12.33419952
_cell_angle_alpha   60.91330073
_cell_angle_beta   119.08669927
_cell_angle_gamma   157.91047550
_symmetry_Int_Tables_number   1
_chemical_formula_structural   InBi2Se4Br
_chemical_formula_sum   'In2 Bi4 Se8 Br2'
_cell_volume   477.83308003
_cell_formula_units_Z   2
loop_
 _symmetry_equiv_pos_site_id
 _symmetry_equiv_pos_as_xyz
  1  'x, y, z'
loop_
 _atom_site_type_symbol
 _atom_site_label
 _atom_site_symmetry_multiplicity
 _atom_site_fract_x
 _atom_site_fract_y
 _atom_site_fract_z
 _atom_site_occupancy
  In  In0  1  0.66291800  0.33708200  0.93444271  1.0
  In  In1  1  1.33708200  -0.33708200  0.06555729  1.0
  Bi  Bi2  1  0.95169441  -0.95169441  0.73030294  1.0
  Bi  Bi3  1  0.04830559  -0.04830559  0.26969706  1.0
  Bi  Bi4  1  0.70402641  0.29597359  0.59760763  1.0
  Bi  Bi5  1  1.29597359  -0.29597359  0.40239237  1.0
  Se  Se6  1  0.90197933  -0.90197933  0.47666438  1.0
  Se  Se7  1  0.09802067  -0.09802067  0.52333562  1.0
  Se  Se8  1  0.67712825  -0.67712825  0.35507235  1.0
  Se  Se9  1  0.32287175  -0.32287175  0.64492765  1.0
  Se  Se10  1  0.53800287  0.46199713  0.71792869  1.0
  Se  Se11  1  1.46199713  -0.46199713  0.28207131  1.0
  Se  Se12  1  0.21487227  -0.21487227  0.84761209  1.0
  Se  Se13  1  0.78512773  -0.78512773  0.15238791  1.0
  Br  Br14  1  0.89756297  0.10243703  0.97273818  1.0
  Br  Br15  1  1.10243703  -0.10243703  0.02726182  1.0
