# generated using pymatgen
data_V3Se4
_symmetry_space_group_name_H-M   'P 1'
_cell_length_a   6.87232378
_cell_length_b   6.87232378
_cell_length_c   6.17139279
_cell_angle_alpha   64.98550685
_cell_angle_beta   115.01449315
_cell_angle_gamma   151.35738785
_symmetry_Int_Tables_number   1
_chemical_formula_structural   V3Se4
_chemical_formula_sum   'V3 Se4'
_cell_volume   125.70696008
_cell_formula_units_Z   1
loop_
 _symmetry_equiv_pos_site_id
 _symmetry_equiv_pos_as_xyz
  1  'x, y, z'
loop_
 _atom_site_type_symbol
 _atom_site_label
 _atom_site_symmetry_multiplicity
 _atom_site_fract_x
 _atom_site_fract_y
 _atom_site_fract_z
 _atom_site_occupancy
  V  V0  1  0.74463365  -0.74463365  0.67655642  1.0
  V  V1  1  1.25536635  -0.25536635  0.32344358  1.0
  V  V2  1  0.00000000  0.00000000  0.00000000  1.0
  Se  Se3  1  0.89319597  -0.89319597  0.54777694  1.0
  Se  Se4  1  1.10680403  -0.10680403  0.45222306  1.0
  Se  Se5  1  0.64145509  -0.64145509  0.98005399  1.0
  Se  Se6  1  1.35854491  -0.35854491  0.01994601  1.0
