# generated using pymatgen
data_Mn2Au
_symmetry_space_group_name_H-M   'P 1'
_cell_length_a   5.89532904
_cell_length_b   5.89532904
_cell_length_c   5.89532904
_cell_angle_alpha   151.64475989
_cell_angle_beta   151.64475989
_cell_angle_gamma   40.53229938
_symmetry_Int_Tables_number   1
_chemical_formula_structural   Mn2Au
_chemical_formula_sum   'Mn2 Au1'
_cell_volume   46.12216944
_cell_formula_units_Z   1
loop_
 _symmetry_equiv_pos_site_id
 _symmetry_equiv_pos_as_xyz
  1  'x, y, z'
loop_
 _atom_site_type_symbol
 _atom_site_label
 _atom_site_symmetry_multiplicity
 _atom_site_fract_x
 _atom_site_fract_y
 _atom_site_fract_z
 _atom_site_occupancy
  Mn  Mn0  1  0.67182824  0.67182824  1.00000000  1.0
  Mn  Mn1  1  0.32817176  0.32817176  -0.00000000  1.0
  Au  Au2  1  0.00000000  0.00000000  0.00000000  1.0
