# generated using pymatgen
data_YZn5
_symmetry_space_group_name_H-M   'P 1'
_cell_length_a   8.90249672
_cell_length_b   8.90249672
_cell_length_c   9.05278704
_cell_angle_alpha   90.00000000
_cell_angle_beta   90.00000000
_cell_angle_gamma   120.00000000
_symmetry_Int_Tables_number   1
_chemical_formula_structural   YZn5
_chemical_formula_sum   'Y6 Zn30'
_cell_volume   621.35039778
_cell_formula_units_Z   6
loop_
 _symmetry_equiv_pos_site_id
 _symmetry_equiv_pos_as_xyz
  1  'x, y, z'
loop_
 _atom_site_type_symbol
 _atom_site_label
 _atom_site_symmetry_multiplicity
 _atom_site_fract_x
 _atom_site_fract_y
 _atom_site_fract_z
 _atom_site_occupancy
  Y  Y0  1  0.18814875  0.81185125  0.25000000  1.0
  Y  Y1  1  0.18814875  0.37629750  0.25000000  1.0
  Y  Y2  1  0.81185125  0.18814875  0.75000000  1.0
  Y  Y3  1  0.81185125  0.62370250  0.75000000  1.0
  Y  Y4  1  0.62370250  0.81185125  0.25000000  1.0
  Y  Y5  1  0.37629750  0.18814875  0.75000000  1.0
  Zn  Zn6  1  0.16116231  0.83883769  0.90729668  1.0
  Zn  Zn7  1  0.16116231  0.83883769  0.59270332  1.0
  Zn  Zn8  1  0.16116231  0.32232463  0.90729668  1.0
  Zn  Zn9  1  0.16116231  0.32232463  0.59270332  1.0
  Zn  Zn10  1  0.83883769  0.16116231  0.40729668  1.0
  Zn  Zn11  1  0.83883769  0.16116231  0.09270332  1.0
  Zn  Zn12  1  0.83883769  0.67767537  0.40729668  1.0
  Zn  Zn13  1  0.83883769  0.67767537  0.09270332  1.0
  Zn  Zn14  1  0.67767537  0.83883769  0.90729668  1.0
  Zn  Zn15  1  0.67767537  0.83883769  0.59270332  1.0
  Zn  Zn16  1  0.32232463  0.16116231  0.40729668  1.0
  Zn  Zn17  1  0.32232463  0.16116231  0.09270332  1.0
  Zn  Zn18  1  0.56810758  0.43189242  0.25000000  1.0
  Zn  Zn19  1  0.56810758  0.13621515  0.25000000  1.0
  Zn  Zn20  1  0.43189242  0.56810758  0.75000000  1.0
  Zn  Zn21  1  0.43189242  0.86378485  0.75000000  1.0
  Zn  Zn22  1  0.86378485  0.43189242  0.25000000  1.0
  Zn  Zn23  1  0.13621515  0.56810758  0.75000000  1.0
  Zn  Zn24  1  0.50000000  0.50000000  0.50000000  1.0
  Zn  Zn25  1  0.50000000  0.50000000  0.00000000  1.0
  Zn  Zn26  1  0.50000000  0.00000000  0.50000000  1.0
  Zn  Zn27  1  0.50000000  0.00000000  0.00000000  1.0
  Zn  Zn28  1  0.00000000  0.50000000  0.50000000  1.0
  Zn  Zn29  1  0.00000000  0.50000000  0.00000000  1.0
  Zn  Zn30  1  0.33333333  0.66666667  0.48223188  1.0
  Zn  Zn31  1  0.33333333  0.66666667  0.01776812  1.0
  Zn  Zn32  1  0.66666667  0.33333333  0.98223188  1.0
  Zn  Zn33  1  0.66666667  0.33333333  0.51776812  1.0
  Zn  Zn34  1  0.00000000  0.00000000  0.50000000  1.0
  Zn  Zn35  1  0.00000000  0.00000000  0.00000000  1.0
