# generated using pymatgen
data_KHg(PO3)3
_symmetry_space_group_name_H-M   'P 1'
_cell_length_a   5.71315976
_cell_length_b   11.42697404
_cell_length_c   12.69898467
_cell_angle_alpha   90.00000000
_cell_angle_beta   90.00000000
_cell_angle_gamma   90.00000000
_symmetry_Int_Tables_number   1
_chemical_formula_structural   KHg(PO3)3
_chemical_formula_sum   'K4 Hg4 P12 O36'
_cell_volume   829.04214462
_cell_formula_units_Z   4
loop_
 _symmetry_equiv_pos_site_id
 _symmetry_equiv_pos_as_xyz
  1  'x, y, z'
loop_
 _atom_site_type_symbol
 _atom_site_label
 _atom_site_symmetry_multiplicity
 _atom_site_fract_x
 _atom_site_fract_y
 _atom_site_fract_z
 _atom_site_occupancy
  K  K0  1  0.09429355  0.61851999  0.92203956  1.0
  K  K1  1  0.59429355  0.88148001  0.07796044  1.0
  K  K2  1  0.90570645  0.11851999  0.57796044  1.0
  K  K3  1  0.40570645  0.38148001  0.42203956  1.0
  Hg  Hg4  1  0.09500212  0.98123675  0.86206685  1.0
  Hg  Hg5  1  0.59500212  0.51876325  0.13793315  1.0
  Hg  Hg6  1  0.90499788  0.48123675  0.63793315  1.0
  Hg  Hg7  1  0.40499788  0.01876325  0.36206685  1.0
  P  P8  1  0.42739187  0.31194993  0.68596429  1.0
  P  P9  1  0.92739187  0.18805007  0.31403571  1.0
  P  P10  1  0.57260813  0.81194993  0.81403571  1.0
  P  P11  1  0.07260813  0.68805007  0.18596429  1.0
  P  P12  1  0.37978669  0.91615708  0.62721822  1.0
  P  P13  1  0.87978669  0.58384292  0.37278178  1.0
  P  P14  1  0.62021331  0.41615708  0.87278178  1.0
  P  P15  1  0.12021331  0.08384292  0.12721822  1.0
  P  P16  1  0.38979302  0.65899154  0.64616963  1.0
  P  P17  1  0.88979302  0.84100846  0.35383037  1.0
  P  P18  1  0.61020698  0.15899154  0.85383037  1.0
  P  P19  1  0.11020698  0.34100846  0.14616963  1.0
  O  O20  1  0.14797166  0.94799888  0.67674191  1.0
  O  O21  1  0.64797166  0.55200112  0.32325809  1.0
  O  O22  1  0.85202834  0.44799888  0.82325809  1.0
  O  O23  1  0.35202834  0.05200112  0.17674191  1.0
  O  O24  1  0.14666411  0.62972926  0.68740568  1.0
  O  O25  1  0.64666411  0.87027074  0.31259432  1.0
  O  O26  1  0.85333589  0.12972926  0.81259432  1.0
  O  O27  1  0.35333589  0.37027074  0.18740568  1.0
  O  O28  1  0.44355028  0.19029837  0.75244651  1.0
  O  O29  1  0.94355028  0.30970163  0.24755349  1.0
  O  O30  1  0.55644972  0.69029837  0.74755349  1.0
  O  O31  1  0.05644972  0.80970163  0.25244651  1.0
  O  O32  1  0.37979977  0.78281362  0.58280263  1.0
  O  O33  1  0.87979977  0.71718638  0.41719737  1.0
  O  O34  1  0.62020023  0.28281362  0.91719737  1.0
  O  O35  1  0.12020023  0.21718638  0.08280263  1.0
  O  O36  1  0.48194219  -0.00454480  0.54404349  1.0
  O  O37  1  0.98194219  0.50454480  0.45595651  1.0
  O  O38  1  0.51805781  0.49545520  0.95595651  1.0
  O  O39  1  0.01805781  1.00454480  0.04404349  1.0
  O  O40  1  0.30191385  0.68471835  0.12830901  1.0
  O  O41  1  0.80191385  0.81528165  0.87169099  1.0
  O  O42  1  0.69808615  0.18471835  0.37169099  1.0
  O  O43  1  0.19808615  0.31528165  0.62830901  1.0
  O  O44  1  0.97995632  0.42886132  0.08086803  1.0
  O  O45  1  0.47995632  0.07113868  0.91913197  1.0
  O  O46  1  0.02004368  0.92886132  0.41913197  1.0
  O  O47  1  0.52004368  0.57113868  0.58086803  1.0
  O  O48  1  0.42157983  0.40830661  0.78004235  1.0
  O  O49  1  0.92157983  0.09169339  0.21995765  1.0
  O  O50  1  0.57842017  0.90830661  0.71995765  1.0
  O  O51  1  0.07842017  0.59169339  0.28004235  1.0
  O  O52  1  0.35006241  0.82290594  0.87936556  1.0
  O  O53  1  0.85006241  0.67709406  0.12063444  1.0
  O  O54  1  0.64993759  0.32290594  0.62063444  1.0
  O  O55  1  0.14993759  0.17709406  0.37936556  1.0
