# generated using pymatgen
data_Ba3Fe3Ge2SbO14
_symmetry_space_group_name_H-M   'P 1'
_cell_length_a   8.77282212
_cell_length_b   8.77282212
_cell_length_c   5.34734208
_cell_angle_alpha   90.00000000
_cell_angle_beta   90.00000000
_cell_angle_gamma   120.00000000
_symmetry_Int_Tables_number   1
_chemical_formula_structural   Ba3Fe3Ge2SbO14
_chemical_formula_sum   'Ba3 Fe3 Ge2 Sb1 O14'
_cell_volume   356.40783866
_cell_formula_units_Z   1
loop_
 _symmetry_equiv_pos_site_id
 _symmetry_equiv_pos_as_xyz
  1  'x, y, z'
loop_
 _atom_site_type_symbol
 _atom_site_label
 _atom_site_symmetry_multiplicity
 _atom_site_fract_x
 _atom_site_fract_y
 _atom_site_fract_z
 _atom_site_occupancy
  Sb  Sb0  1  0.00000000  0.00000000  0.00000000  1.0
  Ge  Ge1  1  0.33333333  0.66666667  0.51785502  1.0
  Ge  Ge2  1  0.66666667  0.33333333  0.48214498  1.0
  Fe  Fe3  1  0.75400568  0.75400568  0.50000000  1.0
  Fe  Fe4  1  -0.00000000  0.24599432  0.50000000  1.0
  Fe  Fe5  1  0.24599432  0.00000000  0.50000000  1.0
  O  O6  1  0.33333333  0.66666667  0.19341282  1.0
  O  O7  1  0.66666667  0.33333333  0.80658718  1.0
  O  O8  1  0.09950579  0.88457871  0.22391151  1.0
  O  O9  1  0.88457871  0.09950579  0.77608849  1.0
  O  O10  1  0.78507293  0.90049421  0.22391151  1.0
  O  O11  1  0.11542129  0.21492707  0.22391151  1.0
  O  O12  1  0.90049421  0.78507293  0.77608849  1.0
  O  O13  1  0.21492707  0.11542129  0.77608849  1.0
  O  O14  1  0.70418804  0.53559991  0.34340338  1.0
  O  O15  1  0.53559991  0.70418804  0.65659662  1.0
  O  O16  1  0.83141187  0.29581196  0.34340338  1.0
  O  O17  1  0.46440009  0.16858813  0.34340338  1.0
  O  O18  1  0.29581196  0.83141187  0.65659662  1.0
  O  O19  1  0.16858813  0.46440009  0.65659662  1.0
  Ba  Ba20  1  0.42944132  0.42944132  0.00000000  1.0
  Ba  Ba21  1  -0.00000000  0.57055868  0.00000000  1.0
  Ba  Ba22  1  0.57055868  0.00000000  0.00000000  1.0
