# generated using pymatgen
data_Ti5GeSb2
_symmetry_space_group_name_H-M   'P 1'
_cell_length_a   7.83923651
_cell_length_b   7.83923651
_cell_length_c   7.83923651
_cell_angle_alpha   96.29633781
_cell_angle_beta   96.29633781
_cell_angle_gamma   141.32090121
_symmetry_Int_Tables_number   1
_chemical_formula_structural   Ti5GeSb2
_chemical_formula_sum   'Ti10 Ge2 Sb4'
_cell_volume   284.08440311
_cell_formula_units_Z   2
loop_
 _symmetry_equiv_pos_site_id
 _symmetry_equiv_pos_as_xyz
  1  'x, y, z'
loop_
 _atom_site_type_symbol
 _atom_site_label
 _atom_site_symmetry_multiplicity
 _atom_site_fract_x
 _atom_site_fract_y
 _atom_site_fract_z
 _atom_site_occupancy
  Ti  Ti0  1  0.75000000  1.25000000  0.50000000  1.0
  Ti  Ti1  1  0.25000000  0.75000000  0.50000000  1.0
  Ti  Ti2  1  0.07329645  0.21388661  0.28718306  1.0
  Ti  Ti3  1  0.92670355  0.78611339  1.71281694  1.0
  Ti  Ti4  1  0.57329645  1.28611339  0.85940984  1.0
  Ti  Ti5  1  1.42670355  0.71388661  1.14059016  1.0
  Ti  Ti6  1  0.78611339  1.07329645  0.85940984  1.0
  Ti  Ti7  1  1.21388661  0.92670355  1.14059016  1.0
  Ti  Ti8  1  0.71388661  0.57329645  1.28718306  1.0
  Ti  Ti9  1  0.28611339  0.42670355  0.71281694  1.0
  Ge  Ge10  1  0.75000000  0.75000000  -0.00000000  1.0
  Ge  Ge11  1  0.25000000  0.25000000  -0.00000000  1.0
  Sb  Sb12  1  0.16438096  0.66438096  0.82876192  1.0
  Sb  Sb13  1  0.83561904  0.33561904  1.17123808  1.0
  Sb  Sb14  1  0.66438096  0.83561904  0.50000000  1.0
  Sb  Sb15  1  1.33561904  1.16438096  1.50000000  1.0
