# generated using pymatgen
data_InAs2PbO8
_symmetry_space_group_name_H-M   'P 1'
_cell_length_a   5.13213364
_cell_length_b   8.69411320
_cell_length_c   16.46422928
_cell_angle_alpha   90.00000000
_cell_angle_beta   104.10052054
_cell_angle_gamma   90.00000000
_symmetry_Int_Tables_number   1
_chemical_formula_structural   InAs2PbO8
_chemical_formula_sum   'In4 As8 Pb4 O32'
_cell_volume   712.48887926
_cell_formula_units_Z   4
loop_
 _symmetry_equiv_pos_site_id
 _symmetry_equiv_pos_as_xyz
  1  'x, y, z'
loop_
 _atom_site_type_symbol
 _atom_site_label
 _atom_site_symmetry_multiplicity
 _atom_site_fract_x
 _atom_site_fract_y
 _atom_site_fract_z
 _atom_site_occupancy
  In  In0  1  0.80229767  0.94878243  0.14108558  1.0
  In  In1  1  0.80229767  0.55121757  0.64108558  1.0
  In  In2  1  0.19770233  0.44878243  0.35891442  1.0
  In  In3  1  0.19770233  0.05121757  0.85891442  1.0
  O  O4  1  0.93465009  0.76368395  0.06914211  1.0
  O  O5  1  0.93465009  0.73631605  0.56914211  1.0
  O  O6  1  0.06534991  0.26368395  0.43085789  1.0
  O  O7  1  0.06534991  0.23631605  0.93085789  1.0
  O  O8  1  0.81809532  0.41240420  0.26418084  1.0
  O  O9  1  0.81809532  0.08759580  0.76418084  1.0
  O  O10  1  0.18190468  0.91240420  0.23581916  1.0
  O  O11  1  0.18190468  0.58759580  0.73581916  1.0
  O  O12  1  0.74048344  0.08386560  0.24524908  1.0
  O  O13  1  0.74048344  0.41613440  0.74524908  1.0
  O  O14  1  0.25951656  0.58386560  0.25475092  1.0
  O  O15  1  0.25951656  0.91613440  0.75475092  1.0
  O  O16  1  0.66504014  0.11115351  0.48466784  1.0
  O  O17  1  0.66504014  0.38884649  0.98466784  1.0
  O  O18  1  0.33495986  0.61115351  0.01533216  1.0
  O  O19  1  0.33495986  0.88884649  0.51533216  1.0
  O  O20  1  0.60794161  0.44138562  0.43272651  1.0
  O  O21  1  0.60794161  0.05861438  0.93272651  1.0
  O  O22  1  0.39205839  0.94138562  0.06727349  1.0
  O  O23  1  0.39205839  0.55861438  0.56727349  1.0
  O  O24  1  0.36018693  0.24506818  0.30114558  1.0
  O  O25  1  0.36018693  0.25493182  0.80114558  1.0
  O  O26  1  0.63981307  0.74506818  0.19885442  1.0
  O  O27  1  0.63981307  0.75493182  0.69885442  1.0
  O  O28  1  0.42560108  0.32606644  0.13652769  1.0
  O  O29  1  0.42560108  0.17393356  0.63652769  1.0
  O  O30  1  0.57439892  0.82606644  0.36347231  1.0
  O  O31  1  0.57439892  0.67393356  0.86347231  1.0
  O  O32  1  0.92751602  0.15340971  0.08790451  1.0
  O  O33  1  0.92751602  0.34659029  0.58790451  1.0
  O  O34  1  0.07248398  0.65340971  0.41209549  1.0
  O  O35  1  0.07248398  0.84659029  0.91209549  1.0
  As  As36  1  0.80999995  0.29708032  0.48403770  1.0
  As  As37  1  0.80999995  0.20291968  0.98403770  1.0
  As  As38  1  0.19000005  0.79708032  0.01596230  1.0
  As  As39  1  0.19000005  0.70291968  0.51596230  1.0
  As  As40  1  0.58445199  0.26086881  0.23613978  1.0
  As  As41  1  0.58445199  0.23913119  0.73613978  1.0
  As  As42  1  0.41554801  0.76086881  0.26386022  1.0
  As  As43  1  0.41554801  0.73913119  0.76386022  1.0
  Pb  Pb44  1  0.29171265  0.02376493  0.38115073  1.0
  Pb  Pb45  1  0.29171265  0.47623507  0.88115073  1.0
  Pb  Pb46  1  0.70828735  0.52376493  0.11884927  1.0
  Pb  Pb47  1  0.70828735  0.97623507  0.61884927  1.0
