# generated using pymatgen
data_Ca13Al14
_symmetry_space_group_name_H-M   'P 1'
_cell_length_a   9.15790096
_cell_length_b   9.15790096
_cell_length_c   9.68673308
_cell_angle_alpha   74.75474983
_cell_angle_beta   105.24525017
_cell_angle_gamma   115.15873975
_symmetry_Int_Tables_number   1
_chemical_formula_structural   Ca13Al14
_chemical_formula_sum   'Ca13 Al14'
_cell_volume   698.74284878
_cell_formula_units_Z   1
loop_
 _symmetry_equiv_pos_site_id
 _symmetry_equiv_pos_as_xyz
  1  'x, y, z'
loop_
 _atom_site_type_symbol
 _atom_site_label
 _atom_site_symmetry_multiplicity
 _atom_site_fract_x
 _atom_site_fract_y
 _atom_site_fract_z
 _atom_site_occupancy
  Ca  Ca0  1  0.65063149  -0.05617623  0.63360004  1.0
  Ca  Ca1  1  1.05617623  0.34936851  0.63360004  1.0
  Ca  Ca2  1  0.94382377  -0.34936851  0.36639996  1.0
  Ca  Ca3  1  1.34936851  0.05617623  0.36639996  1.0
  Ca  Ca4  1  1.35649909  0.08049034  0.77288390  1.0
  Ca  Ca5  1  0.91950966  -0.35649909  0.77288390  1.0
  Ca  Ca6  1  1.08049034  0.35649909  0.22711610  1.0
  Ca  Ca7  1  0.64350091  -0.08049034  0.22711610  1.0
  Ca  Ca8  1  0.80370412  -0.80370412  0.91543651  1.0
  Ca  Ca9  1  0.19629588  -0.19629588  0.08456349  1.0
  Ca  Ca10  1  0.49635550  -0.49635550  0.79814886  1.0
  Ca  Ca11  1  0.50364450  -0.50364450  0.20185114  1.0
  Ca  Ca12  1  -0.00000000  0.00000000  0.50000000  1.0
  Al  Al13  1  0.47666936  -0.20585300  0.91724115  1.0
  Al  Al14  1  1.20585300  0.52333064  0.91724115  1.0
  Al  Al15  1  0.79414700  -0.52333064  0.08275885  1.0
  Al  Al16  1  1.52333064  0.20585300  0.08275885  1.0
  Al  Al17  1  0.99817356  -0.99817356  0.84182438  1.0
  Al  Al18  1  0.00182644  -0.00182644  0.15817562  1.0
  Al  Al19  1  0.74094761  -0.74094761  0.34405658  1.0
  Al  Al20  1  0.25905239  -0.25905239  0.65594342  1.0
  Al  Al21  1  0.66008191  -0.66008191  0.56837180  1.0
  Al  Al22  1  0.33991809  -0.33991809  0.43162820  1.0
  Al  Al23  1  0.64568460  -0.35431540  0.50000000  1.0
  Al  Al24  1  1.35431540  0.35431540  0.50000000  1.0
  Al  Al25  1  0.77446565  -0.22553435  0.00000000  1.0
  Al  Al26  1  1.22553435  0.22553435  0.00000000  1.0
