# generated using pymatgen
data_Cd2SO6
_symmetry_space_group_name_H-M   'P 1'
_cell_length_a   7.10867443
_cell_length_b   7.10867443
_cell_length_c   6.75137199
_cell_angle_alpha   62.86973857
_cell_angle_beta   117.13026143
_cell_angle_gamma   113.52721067
_symmetry_Int_Tables_number   1
_chemical_formula_structural   Cd2SO6
_chemical_formula_sum   'Cd4 S2 O12'
_cell_volume   262.22830870
_cell_formula_units_Z   2
loop_
 _symmetry_equiv_pos_site_id
 _symmetry_equiv_pos_as_xyz
  1  'x, y, z'
loop_
 _atom_site_type_symbol
 _atom_site_label
 _atom_site_symmetry_multiplicity
 _atom_site_fract_x
 _atom_site_fract_y
 _atom_site_fract_z
 _atom_site_occupancy
  S  S0  1  0.80408934  -0.19591066  0.75000000  1.0
  S  S1  1  1.19591066  0.19591066  0.25000000  1.0
  O  O2  1  0.67434334  -0.28410155  0.91061818  1.0
  O  O3  1  1.28410155  0.32565666  0.41061818  1.0
  O  O4  1  0.71589845  -0.32565666  0.58938182  1.0
  O  O5  1  1.32565666  0.28410155  0.08938182  1.0
  O  O6  1  1.79141505  0.03488642  0.60021324  1.0
  O  O7  1  0.96511358  -0.79141505  0.10021324  1.0
  O  O8  1  1.03488642  0.79141505  0.89978676  1.0
  O  O9  1  0.20858495  -0.03488642  0.39978676  1.0
  O  O10  1  1.54636046  0.16341897  0.80362034  1.0
  O  O11  1  0.83658103  -0.54636046  0.30362034  1.0
  O  O12  1  1.16341897  0.54636046  0.69637966  1.0
  O  O13  1  0.45363954  -0.16341897  0.19637966  1.0
  Cd  Cd14  1  0.36387302  -0.18247223  0.83522288  1.0
  Cd  Cd15  1  1.18247223  0.63612698  0.33522288  1.0
  Cd  Cd16  1  0.81752777  -0.63612698  0.66477712  1.0
  Cd  Cd17  1  1.63612698  0.18247223  0.16477712  1.0
