# generated using pymatgen
data_PbS
_symmetry_space_group_name_H-M   'P 1'
_cell_length_a   6.40733095
_cell_length_b   6.40733095
_cell_length_c   4.30091844
_cell_angle_alpha   90.00000000
_cell_angle_beta   90.00000000
_cell_angle_gamma   141.93175071
_symmetry_Int_Tables_number   1
_chemical_formula_structural   PbS
_chemical_formula_sum   'Pb2 S2'
_cell_volume   108.87265840
_cell_formula_units_Z   2
loop_
 _symmetry_equiv_pos_site_id
 _symmetry_equiv_pos_as_xyz
  1  'x, y, z'
loop_
 _atom_site_type_symbol
 _atom_site_label
 _atom_site_symmetry_multiplicity
 _atom_site_fract_x
 _atom_site_fract_y
 _atom_site_fract_z
 _atom_site_occupancy
  Pb  Pb0  1  -0.86792634  0.86792634  0.25000000  1.0
  Pb  Pb1  1  -0.13207366  1.13207366  0.75000000  1.0
  S  S2  1  -0.64394396  0.64394396  0.25000000  1.0
  S  S3  1  -0.35605604  1.35605604  0.75000000  1.0
