# generated using pymatgen
data_BaCdAs2O7
_symmetry_space_group_name_H-M   'P 1'
_cell_length_a   5.91628007
_cell_length_b   7.91084105
_cell_length_c   7.47144316
_cell_angle_alpha   100.56756490
_cell_angle_beta   97.52747519
_cell_angle_gamma   90.52340847
_symmetry_Int_Tables_number   1
_chemical_formula_structural   BaCdAs2O7
_chemical_formula_sum   'Ba2 Cd2 As4 O14'
_cell_volume   340.59347685
_cell_formula_units_Z   2
loop_
 _symmetry_equiv_pos_site_id
 _symmetry_equiv_pos_as_xyz
  1  'x, y, z'
loop_
 _atom_site_type_symbol
 _atom_site_label
 _atom_site_symmetry_multiplicity
 _atom_site_fract_x
 _atom_site_fract_y
 _atom_site_fract_z
 _atom_site_occupancy
  Ba  Ba0  1  -0.70168326  -0.93175099  -0.27344283  1.0
  Ba  Ba1  1  -0.29831674  -0.06824901  -0.72655717  1.0
  Cd  Cd2  1  -0.31302553  -0.60148722  -0.83193610  1.0
  Cd  Cd3  1  -0.68697447  -0.39851278  -0.16806390  1.0
  As  As4  1  -0.81229960  -0.81219541  -0.77360418  1.0
  As  As5  1  -0.18770040  -0.18780459  -0.22639582  1.0
  As  As6  1  -0.78915458  -0.39722308  -0.66938508  1.0
  As  As7  1  -0.21084542  -0.60277692  -0.33061492  1.0
  O  O8  1  -0.93836752  -0.62573298  -0.22572637  1.0
  O  O9  1  -0.06163248  -0.37426702  -0.77427363  1.0
  O  O10  1  -0.78163596  -0.96813519  -0.64168326  1.0
  O  O11  1  -0.21836404  -0.03186481  -0.35831674  1.0
  O  O12  1  -0.77923967  -0.61059060  -0.61025339  1.0
  O  O13  1  -0.22076033  -0.38940940  -0.38974661  1.0
  O  O14  1  -0.58753222  -0.38878611  -0.81911143  1.0
  O  O15  1  -0.41246778  -0.61121389  -0.18088857  1.0
  O  O16  1  -0.59251885  -0.81730811  -0.90594907  1.0
  O  O17  1  -0.40748115  -0.18269189  -0.09405093  1.0
  O  O18  1  -0.28311659  -0.72539360  -0.54425224  1.0
  O  O19  1  -0.71688341  -0.27460640  -0.45574776  1.0
  O  O20  1  -0.07974853  -0.82434100  -0.89835562  1.0
  O  O21  1  -0.92025147  -0.17565900  -0.10164438  1.0
