# generated using pymatgen
data_Na2CoSiO4
_symmetry_space_group_name_H-M   'P 1'
_cell_length_a   6.30118821
_cell_length_b   6.12802823
_cell_length_c   5.36501466
_cell_angle_alpha   90.00000000
_cell_angle_beta   90.00000000
_cell_angle_gamma   90.00000000
_symmetry_Int_Tables_number   1
_chemical_formula_structural   Na2CoSiO4
_chemical_formula_sum   'Na4 Co2 Si2 O8'
_cell_volume   207.16392076
_cell_formula_units_Z   2
loop_
 _symmetry_equiv_pos_site_id
 _symmetry_equiv_pos_as_xyz
  1  'x, y, z'
loop_
 _atom_site_type_symbol
 _atom_site_label
 _atom_site_symmetry_multiplicity
 _atom_site_fract_x
 _atom_site_fract_y
 _atom_site_fract_z
 _atom_site_occupancy
  Na  Na0  1  0.24801265  0.16937943  -0.00269510  1.0
  Na  Na1  1  0.74801265  0.83062057  0.49730490  1.0
  Na  Na2  1  0.75198735  0.16937943  -0.00269510  1.0
  Na  Na3  1  0.25198735  0.83062057  0.49730490  1.0
  Co  Co4  1  0.50000000  0.64601335  0.00437245  1.0
  Co  Co5  1  -0.00000000  0.35398665  0.50437245  1.0
  Si  Si6  1  0.50000000  0.34491640  0.50769762  1.0
  Si  Si7  1  0.00000000  0.65508360  0.00769762  1.0
  O  O8  1  0.28252115  0.20283057  0.43302410  1.0
  O  O9  1  0.78252115  0.79716943  0.93302410  1.0
  O  O10  1  0.71747885  0.20283057  0.43302410  1.0
  O  O11  1  0.21747885  0.79716943  0.93302410  1.0
  O  O12  1  0.50000000  0.37789200  0.81284937  1.0
  O  O13  1  -0.00000000  0.62210800  0.31284937  1.0
  O  O14  1  0.50000000  0.58423117  0.36692256  1.0
  O  O15  1  0.00000000  0.41576883  0.86692256  1.0
