# generated using pymatgen
data_K2Cd3S3O16
_symmetry_space_group_name_H-M   'P 1'
_cell_length_a   10.18360832
_cell_length_b   10.18360832
_cell_length_c   9.41753701
_cell_angle_alpha   90.00000000
_cell_angle_beta   90.00000000
_cell_angle_gamma   49.44601218
_symmetry_Int_Tables_number   1
_chemical_formula_structural   K2Cd3S3O16
_chemical_formula_sum   'K4 Cd6 S6 O32'
_cell_volume   742.05549350
_cell_formula_units_Z   2
loop_
 _symmetry_equiv_pos_site_id
 _symmetry_equiv_pos_as_xyz
  1  'x, y, z'
loop_
 _atom_site_type_symbol
 _atom_site_label
 _atom_site_symmetry_multiplicity
 _atom_site_fract_x
 _atom_site_fract_y
 _atom_site_fract_z
 _atom_site_occupancy
  K  K0  1  -0.62012987  1.26287217  0.42155956  1.0
  K  K1  1  0.26287217  0.37987013  0.92155956  1.0
  K  K2  1  -0.26287217  0.62012987  0.42155956  1.0
  K  K3  1  -0.37987013  0.73712783  0.92155956  1.0
  S  S4  1  -0.59249985  0.97027502  0.20873572  1.0
  S  S5  1  -0.02972498  0.40750015  0.70873572  1.0
  S  S6  1  0.02972498  0.59249985  0.20873572  1.0
  S  S7  1  -0.40750015  1.02972498  0.70873572  1.0
  S  S8  1  -0.30445530  0.30445530  0.35351677  1.0
  S  S9  1  -0.69554470  0.69554470  0.85351677  1.0
  O  O10  1  -0.52467170  0.78832654  0.21216767  1.0
  O  O11  1  -0.21167346  0.47532830  0.71216767  1.0
  O  O12  1  0.21167346  0.52467170  0.21216767  1.0
  O  O13  1  -0.47532830  1.21167346  0.71216767  1.0
  O  O14  1  -0.71038532  1.07142165  0.33355067  1.0
  O  O15  1  0.07142165  0.28961468  0.83355067  1.0
  O  O16  1  -0.07142165  0.71038532  0.33355067  1.0
  O  O17  1  -0.28961468  0.92857835  0.83355067  1.0
  O  O18  1  -0.68930013  1.05732951  0.07361436  1.0
  O  O19  1  0.05732951  0.31069987  0.57361436  1.0
  O  O20  1  -0.05732951  0.68930013  0.07361436  1.0
  O  O21  1  -0.31069987  0.94267049  0.57361436  1.0
  O  O22  1  -0.27448086  1.14052310  0.34944784  1.0
  O  O23  1  0.14052310  0.72551914  0.84944784  1.0
  O  O24  1  -0.14052310  0.27448086  0.34944784  1.0
  O  O25  1  -0.72551914  0.85947690  0.84944784  1.0
  O  O26  1  -0.40108353  1.10307853  0.04640301  1.0
  O  O27  1  0.10307853  0.59891647  0.54640301  1.0
  O  O28  1  -0.10307853  0.40108353  0.04640301  1.0
  O  O29  1  -0.59891647  0.89692147  0.54640301  1.0
  O  O30  1  -0.85648760  0.85648760  0.37796652  1.0
  O  O31  1  -0.14351240  0.14351240  0.87796652  1.0
  O  O32  1  -0.92739567  0.92739567  0.13481471  1.0
  O  O33  1  -0.07260433  0.07260433  0.63481471  1.0
  O  O34  1  -0.41564397  0.41564397  0.23013595  1.0
  O  O35  1  -0.58435603  0.58435603  0.73013595  1.0
  O  O36  1  -0.40807926  0.40807926  0.48458608  1.0
  O  O37  1  -0.59192074  0.59192074  -0.01541392  1.0
  O  O38  1  -0.44449722  0.96759549  0.21724116  1.0
  O  O39  1  -0.03240451  0.55550278  0.71724116  1.0
  O  O40  1  0.03240451  0.44449722  0.21724116  1.0
  O  O41  1  -0.55550278  1.03240451  0.71724116  1.0
  Cd  Cd42  1  -0.88850883  1.06884621  0.49362643  1.0
  Cd  Cd43  1  0.06884621  0.11149117  0.99362643  1.0
  Cd  Cd44  1  -0.06884621  0.88850883  0.49362643  1.0
  Cd  Cd45  1  -0.11149117  0.93115379  0.99362643  1.0
  Cd  Cd46  1  -0.67799103  0.67799103  0.20888712  1.0
  Cd  Cd47  1  -0.32200897  0.32200897  0.70888712  1.0
