# generated using pymatgen
data_LiGdSn2
_symmetry_space_group_name_H-M   'P 1'
_cell_length_a   9.79803106
_cell_length_b   9.79803106
_cell_length_c   4.51340383
_cell_angle_alpha   90.00000000
_cell_angle_beta   90.00000000
_cell_angle_gamma   153.65021466
_symmetry_Int_Tables_number   1
_chemical_formula_structural   LiGdSn2
_chemical_formula_sum   'Li2 Gd2 Sn4'
_cell_volume   192.31716006
_cell_formula_units_Z   2
loop_
 _symmetry_equiv_pos_site_id
 _symmetry_equiv_pos_as_xyz
  1  'x, y, z'
loop_
 _atom_site_type_symbol
 _atom_site_label
 _atom_site_symmetry_multiplicity
 _atom_site_fract_x
 _atom_site_fract_y
 _atom_site_fract_z
 _atom_site_occupancy
  Li  Li0  1  -0.82520472  0.82520472  0.25000000  1.0
  Li  Li1  1  -0.17479528  1.17479528  0.75000000  1.0
  Gd  Gd2  1  -0.60769867  0.60769867  0.25000000  1.0
  Gd  Gd3  1  -0.39230133  1.39230133  0.75000000  1.0
  Sn  Sn4  1  -0.95547931  0.95547931  0.25000000  1.0
  Sn  Sn5  1  -0.04452069  1.04452069  0.75000000  1.0
  Sn  Sn6  1  -0.24917170  1.24917170  0.25000000  1.0
  Sn  Sn7  1  -0.75082830  0.75082830  0.75000000  1.0
