# generated using pymatgen
data_AgSO4
_symmetry_space_group_name_H-M   'P 1'
_cell_length_a   9.81082347
_cell_length_b   9.81082347
_cell_length_c   9.72733986
_cell_angle_alpha   64.00654693
_cell_angle_beta   115.99345307
_cell_angle_gamma   84.50604527
_symmetry_Int_Tables_number   1
_chemical_formula_structural   AgSO4
_chemical_formula_sum   'Ag8 S8 O32'
_cell_volume   706.80999492
_cell_formula_units_Z   8
loop_
 _symmetry_equiv_pos_site_id
 _symmetry_equiv_pos_as_xyz
  1  'x, y, z'
loop_
 _atom_site_type_symbol
 _atom_site_label
 _atom_site_symmetry_multiplicity
 _atom_site_fract_x
 _atom_site_fract_y
 _atom_site_fract_z
 _atom_site_occupancy
  Ag  Ag0  1  0.00000000  0.00000000  0.00000000  1.0
  Ag  Ag1  1  0.00000000  -0.00000000  0.50000000  1.0
  Ag  Ag2  1  0.50000000  -0.50000000  -0.00000000  1.0
  Ag  Ag3  1  0.50000000  -0.50000000  0.50000000  1.0
  Ag  Ag4  1  1.50000000  -0.00000000  -0.00000000  1.0
  Ag  Ag5  1  1.00000000  -0.50000000  0.50000000  1.0
  Ag  Ag6  1  1.50000000  -0.00000000  0.50000000  1.0
  Ag  Ag7  1  1.00000000  -0.50000000  -0.00000000  1.0
  S  S8  1  1.69108134  0.25320460  0.94169883  1.0
  S  S9  1  0.74679540  -0.69108134  0.44169883  1.0
  S  S10  1  1.25320460  0.69108134  0.55830117  1.0
  S  S11  1  0.30891866  -0.25320460  0.05830117  1.0
  S  S12  1  0.74072249  -0.19503536  0.93571217  1.0
  S  S13  1  1.19503536  0.25927751  0.43571217  1.0
  S  S14  1  0.80496464  -0.25927751  0.56428783  1.0
  S  S15  1  1.25927751  0.19503536  0.06428783  1.0
  O  O16  1  1.31119443  0.18778990  0.94313652  1.0
  O  O17  1  0.81221010  -0.31119443  0.44313652  1.0
  O  O18  1  1.18778990  0.31119443  0.55686348  1.0
  O  O19  1  0.68880557  -0.18778990  0.05686348  1.0
  O  O20  1  1.55527479  0.30092609  0.75796399  1.0
  O  O21  1  0.69907391  -0.55527479  0.25796399  1.0
  O  O22  1  1.30092609  0.55527479  0.74203601  1.0
  O  O23  1  0.44472521  -0.30092609  0.24203601  1.0
  O  O24  1  1.61012683  0.31814838  0.47300509  1.0
  O  O25  1  0.68185162  -0.61012683  0.97300509  1.0
  O  O26  1  1.31814838  0.61012683  0.02699491  1.0
  O  O27  1  0.38987317  -0.31814838  0.52699491  1.0
  O  O28  1  0.32027219  -0.11152538  0.92154212  1.0
  O  O29  1  1.11152538  0.67972781  0.42154212  1.0
  O  O30  1  0.88847462  -0.67972781  0.57845788  1.0
  O  O31  1  1.67972781  0.11152538  0.07845788  1.0
  O  O32  1  1.78863129  0.14599741  0.46617869  1.0
  O  O33  1  0.85400259  -0.78863129  0.96617869  1.0
  O  O34  1  1.14599741  0.78863129  0.03382131  1.0
  O  O35  1  0.21136871  -0.14599741  0.53382131  1.0
  O  O36  1  0.64457782  -0.12254874  0.44122986  1.0
  O  O37  1  1.12254874  0.35542218  0.94122986  1.0
  O  O38  1  0.87745126  -0.35542218  0.05877014  1.0
  O  O39  1  1.35542218  0.12254874  0.55877014  1.0
  O  O40  1  0.60592211  -0.19333388  0.78051473  1.0
  O  O41  1  1.19333388  0.39407789  0.28051473  1.0
  O  O42  1  0.80666612  -0.39407789  0.71948527  1.0
  O  O43  1  1.39407789  0.19333388  0.21948527  1.0
  O  O44  1  0.78969049  -0.05481208  0.85672819  1.0
  O  O45  1  1.05481208  0.21030951  0.35672819  1.0
  O  O46  1  0.94518792  -0.21030951  0.64327181  1.0
  O  O47  1  1.21030951  0.05481208  0.14327181  1.0
