# generated using pymatgen
data_Cs2ZnO2
_symmetry_space_group_name_H-M   'P 1'
_cell_length_a   9.99208786
_cell_length_b   6.70165488
_cell_length_c   16.62410821
_cell_angle_alpha   90.00000000
_cell_angle_beta   117.50475692
_cell_angle_gamma   90.00000000
_symmetry_Int_Tables_number   1
_chemical_formula_structural   Cs2ZnO2
_chemical_formula_sum   'Cs16 Zn8 O16'
_cell_volume   987.38565209
_cell_formula_units_Z   8
loop_
 _symmetry_equiv_pos_site_id
 _symmetry_equiv_pos_as_xyz
  1  'x, y, z'
loop_
 _atom_site_type_symbol
 _atom_site_label
 _atom_site_symmetry_multiplicity
 _atom_site_fract_x
 _atom_site_fract_y
 _atom_site_fract_z
 _atom_site_occupancy
  Cs  Cs0  1  0.92485094  0.13155824  0.16181854  1.0
  Cs  Cs1  1  0.92485094  0.36844176  0.66181854  1.0
  Cs  Cs2  1  0.07514906  0.63155824  0.33818146  1.0
  Cs  Cs3  1  0.07514906  0.86844176  0.83818146  1.0
  Cs  Cs4  1  0.67445046  0.91091502  0.25777352  1.0
  Cs  Cs5  1  0.67445046  0.58908498  0.75777352  1.0
  Cs  Cs6  1  0.32554954  0.41091502  0.24222648  1.0
  Cs  Cs7  1  0.32554954  0.08908498  0.74222648  1.0
  Cs  Cs8  1  0.57240356  0.42219749  0.12131669  1.0
  Cs  Cs9  1  0.57240356  0.07780251  0.62131669  1.0
  Cs  Cs10  1  0.42759644  0.92219749  0.37868331  1.0
  Cs  Cs11  1  0.42759644  0.57780251  0.87868331  1.0
  Cs  Cs12  1  0.14712165  0.17130738  0.47549836  1.0
  Cs  Cs13  1  0.14712165  0.32869262  0.97549836  1.0
  Cs  Cs14  1  0.85287835  0.67130738  0.02450164  1.0
  Cs  Cs15  1  0.85287835  0.82869262  0.52450164  1.0
  Zn  Zn16  1  0.75559573  0.36672632  0.37311013  1.0
  Zn  Zn17  1  0.75559573  0.13327368  0.87311013  1.0
  Zn  Zn18  1  0.24440427  0.86672632  0.12688987  1.0
  Zn  Zn19  1  0.24440427  0.63327368  0.62688987  1.0
  Zn  Zn20  1  0.58613712  0.44578917  0.46091707  1.0
  Zn  Zn21  1  0.58613712  0.05421083  0.96091707  1.0
  Zn  Zn22  1  0.41386288  0.94578917  0.03908293  1.0
  Zn  Zn23  1  0.41386288  0.55421083  0.53908293  1.0
  O  O24  1  0.85550326  0.30556058  0.30547046  1.0
  O  O25  1  0.85550326  0.19443942  0.80547046  1.0
  O  O26  1  0.14449674  0.80556058  0.19452954  1.0
  O  O27  1  0.14449674  0.69443942  0.69452954  1.0
  O  O28  1  0.73117539  0.22481793  0.46942614  1.0
  O  O29  1  0.73117539  0.27518207  0.96942614  1.0
  O  O30  1  0.26882461  0.72481793  0.03057386  1.0
  O  O31  1  0.26882461  0.77518207  0.53057386  1.0
  O  O32  1  0.37860403  0.08946643  0.13751728  1.0
  O  O33  1  0.37860403  0.41053357  0.63751728  1.0
  O  O34  1  0.62139597  0.58946643  0.36248272  1.0
  O  O35  1  0.62139597  0.91053357  0.86248272  1.0
  O  O36  1  0.36831486  0.38163436  0.42910311  1.0
  O  O37  1  0.36831486  0.11836564  0.92910311  1.0
  O  O38  1  0.63168514  0.88163436  0.07089689  1.0
  O  O39  1  0.63168514  0.61836564  0.57089689  1.0
