# generated using pymatgen
data_CuN3
_symmetry_space_group_name_H-M   'P 1'
_cell_length_a   6.66537774
_cell_length_b   6.66537774
_cell_length_c   6.66537774
_cell_angle_alpha   105.09877138
_cell_angle_beta   105.09877138
_cell_angle_gamma   118.62222486
_symmetry_Int_Tables_number   1
_chemical_formula_structural   CuN3
_chemical_formula_sum   'Cu2 N6'
_cell_volume   223.53336191
_cell_formula_units_Z   2
loop_
 _symmetry_equiv_pos_site_id
 _symmetry_equiv_pos_as_xyz
  1  'x, y, z'
loop_
 _atom_site_type_symbol
 _atom_site_label
 _atom_site_symmetry_multiplicity
 _atom_site_fract_x
 _atom_site_fract_y
 _atom_site_fract_z
 _atom_site_occupancy
  Cu  Cu0  1  1.25000000  1.25000000  1.00000000  1.0
  Cu  Cu1  1  0.75000000  0.75000000  0.00000000  1.0
  N  N2  1  0.00000000  0.00000000  0.00000000  1.0
  N  N3  1  0.50000000  0.50000000  1.00000000  1.0
  N  N4  1  0.54821751  0.95178249  1.50000000  1.0
  N  N5  1  1.45178249  1.04821751  1.50000000  1.0
  N  N6  1  0.04821751  0.54821751  0.59643502  1.0
  N  N7  1  0.95178249  1.45178249  1.40356498  1.0
