# generated using pymatgen
data_Hf3Rh5
_symmetry_space_group_name_H-M   'P 1'
_cell_length_a   5.61177508
_cell_length_b   10.89567757
_cell_length_c   4.29610874
_cell_angle_alpha   90.00000000
_cell_angle_beta   90.00000000
_cell_angle_gamma   90.00000000
_symmetry_Int_Tables_number   1
_chemical_formula_structural   Hf3Rh5
_chemical_formula_sum   'Hf6 Rh10'
_cell_volume   262.68166735
_cell_formula_units_Z   2
loop_
 _symmetry_equiv_pos_site_id
 _symmetry_equiv_pos_as_xyz
  1  'x, y, z'
loop_
 _atom_site_type_symbol
 _atom_site_label
 _atom_site_symmetry_multiplicity
 _atom_site_fract_x
 _atom_site_fract_y
 _atom_site_fract_z
 _atom_site_occupancy
  Hf  Hf0  1  0.34335452  0.64556849  0.50000000  1.0
  Hf  Hf1  1  0.84335452  0.85443151  0.50000000  1.0
  Hf  Hf2  1  0.65664548  0.35443151  0.50000000  1.0
  Hf  Hf3  1  0.15664548  0.14556849  0.50000000  1.0
  Hf  Hf4  1  0.50000000  0.00000000  0.00000000  1.0
  Hf  Hf5  1  0.00000000  0.50000000  0.00000000  1.0
  Rh  Rh6  1  0.31681834  0.89283270  0.50000000  1.0
  Rh  Rh7  1  0.81681834  0.60716730  0.50000000  1.0
  Rh  Rh8  1  0.68318166  0.10716730  0.50000000  1.0
  Rh  Rh9  1  0.18318166  0.39283270  0.50000000  1.0
  Rh  Rh10  1  0.10163288  0.74232243  0.00000000  1.0
  Rh  Rh11  1  0.60163288  0.75767757  0.00000000  1.0
  Rh  Rh12  1  0.89836712  0.25767757  0.00000000  1.0
  Rh  Rh13  1  0.39836712  0.24232243  0.00000000  1.0
  Rh  Rh14  1  0.50000000  0.50000000  0.00000000  1.0
  Rh  Rh15  1  0.00000000  0.00000000  0.00000000  1.0
