# generated using pymatgen
data_AlH3
_symmetry_space_group_name_H-M   'P 1'
_cell_length_a   6.41699404
_cell_length_b   6.41699404
_cell_length_c   6.41699404
_cell_angle_alpha   60.00000000
_cell_angle_beta   60.00000000
_cell_angle_gamma   60.00000000
_symmetry_Int_Tables_number   1
_chemical_formula_structural   AlH3
_chemical_formula_sum   'Al4 H12'
_cell_volume   186.84432422
_cell_formula_units_Z   4
loop_
 _symmetry_equiv_pos_site_id
 _symmetry_equiv_pos_as_xyz
  1  'x, y, z'
loop_
 _atom_site_type_symbol
 _atom_site_label
 _atom_site_symmetry_multiplicity
 _atom_site_fract_x
 _atom_site_fract_y
 _atom_site_fract_z
 _atom_site_occupancy
  Al  Al0  1  0.62500000  1.12500000  0.12500000  1.0
  Al  Al1  1  0.12500000  1.62500000  0.12500000  1.0
  Al  Al2  1  0.12500000  0.12500000  1.62500000  1.0
  Al  Al3  1  0.12500000  0.12500000  0.12500000  1.0
  H  H4  1  0.80530000  0.80530000  -0.80530000  1.0
  H  H5  1  0.19470000  1.19470000  -0.19470000  1.0
  H  H6  1  0.80530000  -0.80530000  0.80530000  1.0
  H  H7  1  0.19470000  -0.19470000  0.19470000  1.0
  H  H8  1  -0.80530000  0.80530000  0.80530000  1.0
  H  H9  1  -0.19470000  0.19470000  0.19470000  1.0
  H  H10  1  0.44470000  1.44470000  0.05530000  1.0
  H  H11  1  0.05530000  0.05530000  0.44470000  1.0
  H  H12  1  0.44470000  1.05530000  0.44470000  1.0
  H  H13  1  0.05530000  1.44470000  0.05530000  1.0
  H  H14  1  0.05530000  1.44470000  0.44470000  1.0
  H  H15  1  0.44470000  1.05530000  0.05530000  1.0
