# generated using pymatgen
data_NaSn
_symmetry_space_group_name_H-M   'P 1'
_cell_length_a   11.51721217
_cell_length_b   11.51721217
_cell_length_c   11.51721217
_cell_angle_alpha   125.81390344
_cell_angle_beta   125.81390344
_cell_angle_gamma   80.19421791
_symmetry_Int_Tables_number   1
_chemical_formula_structural   NaSn
_chemical_formula_sum   'Na16 Sn16'
_cell_volume   969.60260954
_cell_formula_units_Z   16
loop_
 _symmetry_equiv_pos_site_id
 _symmetry_equiv_pos_as_xyz
  1  'x, y, z'
loop_
 _atom_site_type_symbol
 _atom_site_label
 _atom_site_symmetry_multiplicity
 _atom_site_fract_x
 _atom_site_fract_y
 _atom_site_fract_z
 _atom_site_occupancy
  Na  Na0  1  1.50308992  1.37500000  1.62808992  1.0
  Na  Na1  1  1.00308992  1.37500000  1.12808992  1.0
  Na  Na2  1  1.62500000  1.25308992  1.12808992  1.0
  Na  Na3  1  1.12500000  0.99691008  0.37191008  1.0
  Na  Na4  1  1.24691008  0.87500000  0.87191008  1.0
  Na  Na5  1  0.74691008  0.87500000  0.37191008  1.0
  Na  Na6  1  1.62500000  1.75308992  1.62808992  1.0
  Na  Na7  1  1.12500000  1.49691008  0.87191008  1.0
  Na  Na8  1  1.12231759  1.12231759  0.74463517  1.0
  Na  Na9  1  1.62231759  0.87768241  1.00000000  1.0
  Na  Na10  1  0.37231759  0.87231759  1.24463517  1.0
  Na  Na11  1  0.87231759  0.62768241  1.50000000  1.0
  Na  Na12  1  0.62768241  0.12768241  0.75536483  1.0
  Na  Na13  1  0.12768241  0.37231759  0.50000000  1.0
  Na  Na14  1  1.37768241  1.37768241  1.25536483  1.0
  Na  Na15  1  0.87768241  1.62231759  1.00000000  1.0
  Sn  Sn16  1  1.00683153  1.81126390  0.94109284  1.0
  Sn  Sn17  1  1.50683153  1.56573869  1.19556762  1.0
  Sn  Sn18  1  1.06126390  0.75683153  0.44109284  1.0
  Sn  Sn19  1  1.56126390  1.12017107  1.30443238  1.0
  Sn  Sn20  1  1.74316847  1.43873610  1.55890716  1.0
  Sn  Sn21  1  1.24316847  1.68426131  1.30443238  1.0
  Sn  Sn22  1  0.68873610  0.49316847  1.05890716  1.0
  Sn  Sn23  1  0.18873610  0.12982893  0.19556762  1.0
  Sn  Sn24  1  1.37017107  1.31126390  0.80443238  1.0
  Sn  Sn25  1  1.87017107  1.06573869  1.05890716  1.0
  Sn  Sn26  1  0.81573869  1.25683153  0.69556762  1.0
  Sn  Sn27  1  1.31573869  1.62017107  1.55890716  1.0
  Sn  Sn28  1  1.37982893  0.93873610  0.69556762  1.0
  Sn  Sn29  1  0.87982893  1.18426131  0.44109284  1.0
  Sn  Sn30  1  0.93426131  0.99316847  1.80443238  1.0
  Sn  Sn31  1  0.43426131  0.62982893  0.94109284  1.0
