# generated using pymatgen
data_K2Ca4Si8O21
_symmetry_space_group_name_H-M   'P 1'
_cell_length_a   11.56643761
_cell_length_b   7.20641472
_cell_length_c   6.87872550
_cell_angle_alpha   70.73238159
_cell_angle_beta   70.51280816
_cell_angle_gamma   72.04094740
_symmetry_Int_Tables_number   1
_chemical_formula_structural   K2Ca4Si8O21
_chemical_formula_sum   'K2 Ca4 Si8 O21'
_cell_volume   497.41623065
_cell_formula_units_Z   1
loop_
 _symmetry_equiv_pos_site_id
 _symmetry_equiv_pos_as_xyz
  1  'x, y, z'
loop_
 _atom_site_type_symbol
 _atom_site_label
 _atom_site_symmetry_multiplicity
 _atom_site_fract_x
 _atom_site_fract_y
 _atom_site_fract_z
 _atom_site_occupancy
  K  K0  1  0.57092162  -0.79304916  0.19109487  1.0
  K  K1  1  0.42907838  -0.20695084  -0.19109487  1.0
  Ca  Ca2  1  0.18224236  -0.71486574  0.65369391  1.0
  Ca  Ca3  1  0.81775764  -0.28513426  -0.65369391  1.0
  Ca  Ca4  1  0.95887871  -0.76220320  -0.82655917  1.0
  Ca  Ca5  1  0.04112129  -0.23779680  0.82655917  1.0
  Si  Si6  1  0.52860785  -0.29903824  0.30846256  1.0
  Si  Si7  1  0.47139215  -0.70096176  -0.30846256  1.0
  Si  Si8  1  0.74433972  -0.40154880  -0.06853334  1.0
  Si  Si9  1  0.25566028  -0.59845120  0.06853334  1.0
  Si  Si10  1  0.88595879  -0.73773118  -0.28510162  1.0
  Si  Si11  1  0.11404121  -0.26226882  0.28510162  1.0
  Si  Si12  1  0.74517789  -0.97133384  -0.37149824  1.0
  Si  Si13  1  0.25482211  -0.02866616  0.37149824  1.0
  O  O14  1  0.60918680  -0.18648710  0.35929993  1.0
  O  O15  1  0.39081320  -0.81351290  -0.35929993  1.0
  O  O16  1  0.85048445  -0.41316550  0.04059085  1.0
  O  O17  1  0.14951555  -0.58683450  -0.04059085  1.0
  O  O18  1  0.99608133  -0.80044440  -0.16671208  1.0
  O  O19  1  0.00391867  -0.19955560  0.16671208  1.0
  O  O20  1  0.59869537  -0.37648154  0.08593853  1.0
  O  O21  1  0.40130463  -0.62351846  -0.08593853  1.0
  O  O22  1  0.75939661  -0.60450991  -0.14337330  1.0
  O  O23  1  0.24060339  -0.39549009  0.14337330  1.0
  O  O24  1  0.84630946  -0.95527341  -0.25525107  1.0
  O  O25  1  0.15369054  -0.04472659  0.25525107  1.0
  O  O26  1  0.25745490  -0.78400941  0.28953015  1.0
  O  O27  1  0.74254510  -0.21599059  -0.28953015  1.0
  O  O28  1  0.91195462  -0.62308747  -0.53486782  1.0
  O  O29  1  0.08804538  -0.37691253  0.53486782  1.0
  O  O30  1  0.60640588  -0.84599197  -0.26162843  1.0
  O  O31  1  0.39359412  -0.15400803  0.26162843  1.0
  O  O32  1  0.78690407  -0.91662998  -0.62578140  1.0
  O  O33  1  0.21309593  -0.08337002  0.62578140  1.0
  O  O34  1  0.50000000  -0.50000000  -0.50000000  1.0
