# generated using pymatgen
data_YReB4
_symmetry_space_group_name_H-M   'P 1'
_cell_length_a   5.96767772
_cell_length_b   11.54490657
_cell_length_c   3.60847051
_cell_angle_alpha   90.00000000
_cell_angle_beta   90.00000000
_cell_angle_gamma   90.00000000
_symmetry_Int_Tables_number   1
_chemical_formula_structural   YReB4
_chemical_formula_sum   'Y4 Re4 B16'
_cell_volume   248.61020104
_cell_formula_units_Z   4
loop_
 _symmetry_equiv_pos_site_id
 _symmetry_equiv_pos_as_xyz
  1  'x, y, z'
loop_
 _atom_site_type_symbol
 _atom_site_label
 _atom_site_symmetry_multiplicity
 _atom_site_fract_x
 _atom_site_fract_y
 _atom_site_fract_z
 _atom_site_occupancy
  Y  Y0  1  0.12624127  0.65014645  0.50000000  1.0
  Y  Y1  1  0.62624127  0.84985355  0.50000000  1.0
  Y  Y2  1  0.87375873  0.34985355  0.50000000  1.0
  Y  Y3  1  0.37375873  0.15014645  0.50000000  1.0
  Re  Re4  1  0.13265923  0.91279548  0.50000000  1.0
  Re  Re5  1  0.63265923  0.58720452  0.50000000  1.0
  Re  Re6  1  0.86734077  0.08720452  0.50000000  1.0
  Re  Re7  1  0.36734077  0.41279548  0.50000000  1.0
  B  B8  1  0.47701598  0.69216412  0.00000000  1.0
  B  B9  1  0.97701598  0.80783588  0.00000000  1.0
  B  B10  1  0.52298402  0.30783588  0.00000000  1.0
  B  B11  1  0.02298402  0.19216412  0.00000000  1.0
  B  B12  1  0.38621818  0.54727201  0.00000000  1.0
  B  B13  1  0.88621818  0.95272799  0.00000000  1.0
  B  B14  1  0.61378182  0.45272799  0.00000000  1.0
  B  B15  1  0.11378182  0.04727201  0.00000000  1.0
  B  B16  1  0.36334408  0.96847381  0.00000000  1.0
  B  B17  1  0.86334408  0.53152619  0.00000000  1.0
  B  B18  1  0.63665592  0.03152619  0.00000000  1.0
  B  B19  1  0.13665592  0.46847381  0.00000000  1.0
  B  B20  1  0.28703824  0.81529295  0.00000000  1.0
  B  B21  1  0.78703824  0.68470705  0.00000000  1.0
  B  B22  1  0.71296176  0.18470705  0.00000000  1.0
  B  B23  1  0.21296176  0.31529295  0.00000000  1.0
