# generated using pymatgen
data_AgH3CN2
_symmetry_space_group_name_H-M   'P 1'
_cell_length_a   4.09017930
_cell_length_b   15.52746419
_cell_length_c   5.52772362
_cell_angle_alpha   90.00000000
_cell_angle_beta   90.00000000
_cell_angle_gamma   90.00000000
_symmetry_Int_Tables_number   1
_chemical_formula_structural   AgH3CN2
_chemical_formula_sum   'Ag4 H12 C4 N8'
_cell_volume   351.06634947
_cell_formula_units_Z   4
loop_
 _symmetry_equiv_pos_site_id
 _symmetry_equiv_pos_as_xyz
  1  'x, y, z'
loop_
 _atom_site_type_symbol
 _atom_site_label
 _atom_site_symmetry_multiplicity
 _atom_site_fract_x
 _atom_site_fract_y
 _atom_site_fract_z
 _atom_site_occupancy
  Ag  Ag0  1  0.73708956  0.47846476  0.25000000  1.0
  Ag  Ag1  1  0.73708956  0.02153524  0.75000000  1.0
  Ag  Ag2  1  0.26291044  0.97846476  0.25000000  1.0
  Ag  Ag3  1  0.26291044  0.52153524  0.75000000  1.0
  H  H4  1  0.98478322  0.32839850  0.39875269  1.0
  H  H5  1  0.98478322  0.32839850  0.10124731  1.0
  H  H6  1  0.98478322  0.17160150  0.89875269  1.0
  H  H7  1  0.98478322  0.17160150  0.60124731  1.0
  H  H8  1  0.01521678  0.82839850  0.39875269  1.0
  H  H9  1  0.01521678  0.82839850  0.10124731  1.0
  H  H10  1  0.01521678  0.67160150  0.89875269  1.0
  H  H11  1  0.01521678  0.67160150  0.60124731  1.0
  H  H12  1  0.64853503  0.30334173  0.25000000  1.0
  H  H13  1  0.64853503  0.19665827  0.75000000  1.0
  H  H14  1  0.35146497  0.80334173  0.25000000  1.0
  H  H15  1  0.35146497  0.69665827  0.75000000  1.0
  C  C16  1  0.33473464  0.10737460  0.25000000  1.0
  C  C17  1  0.33473464  0.39262540  0.75000000  1.0
  C  C18  1  0.66526536  0.60737460  0.25000000  1.0
  C  C19  1  0.66526536  0.89262540  0.75000000  1.0
  N  N20  1  0.84749768  0.34387618  0.25000000  1.0
  N  N21  1  0.84749768  0.15612382  0.75000000  1.0
  N  N22  1  0.15250232  0.84387618  0.25000000  1.0
  N  N23  1  0.15250232  0.65612382  0.75000000  1.0
  N  N24  1  0.36355096  0.18252029  0.25000000  1.0
  N  N25  1  0.36355096  0.31747971  0.75000000  1.0
  N  N26  1  0.63644904  0.68252029  0.25000000  1.0
  N  N27  1  0.63644904  0.81747971  0.75000000  1.0
