# generated using pymatgen
data_KNa2FeO3
_symmetry_space_group_name_H-M   'P 1'
_cell_length_a   6.59723990
_cell_length_b   6.36699110
_cell_length_c   10.34198920
_cell_angle_alpha   90.00000000
_cell_angle_beta   90.00000000
_cell_angle_gamma   90.00000000
_symmetry_Int_Tables_number   1
_chemical_formula_structural   KNa2FeO3
_chemical_formula_sum   'K4 Na8 Fe4 O12'
_cell_volume   434.41078577
_cell_formula_units_Z   4
loop_
 _symmetry_equiv_pos_site_id
 _symmetry_equiv_pos_as_xyz
  1  'x, y, z'
loop_
 _atom_site_type_symbol
 _atom_site_label
 _atom_site_symmetry_multiplicity
 _atom_site_fract_x
 _atom_site_fract_y
 _atom_site_fract_z
 _atom_site_occupancy
  K  K0  1  0.66271027  0.75000000  0.01911842  1.0
  K  K1  1  0.16271027  0.75000000  0.48088158  1.0
  K  K2  1  0.33728973  0.25000000  0.98088158  1.0
  K  K3  1  0.83728973  0.25000000  0.51911842  1.0
  Na  Na4  1  0.99707721  0.49614797  0.22891159  1.0
  Na  Na5  1  0.99707721  0.00385203  0.22891159  1.0
  Na  Na6  1  0.49707721  0.49614797  0.27108841  1.0
  Na  Na7  1  0.49707721  0.00385203  0.27108841  1.0
  Na  Na8  1  0.00292279  0.99614797  0.77108841  1.0
  Na  Na9  1  0.00292279  0.50385203  0.77108841  1.0
  Na  Na10  1  0.50292279  0.99614797  0.72891159  1.0
  Na  Na11  1  0.50292279  0.50385203  0.72891159  1.0
  Fe  Fe12  1  0.67138187  0.75000000  0.49429430  1.0
  Fe  Fe13  1  0.17138187  0.75000000  0.00570570  1.0
  Fe  Fe14  1  0.32861813  0.25000000  0.50570570  1.0
  Fe  Fe15  1  0.82861813  0.25000000  0.99429430  1.0
  O  O16  1  0.82994275  0.75000000  0.64343524  1.0
  O  O17  1  0.32994275  0.75000000  0.85656476  1.0
  O  O18  1  0.17005725  0.25000000  0.35656476  1.0
  O  O19  1  0.67005725  0.25000000  0.14343524  1.0
  O  O20  1  0.79827784  0.75000000  0.33302313  1.0
  O  O21  1  0.29827784  0.75000000  0.16697687  1.0
  O  O22  1  0.20172216  0.25000000  0.66697687  1.0
  O  O23  1  0.70172216  0.25000000  0.83302313  1.0
  O  O24  1  0.00000000  0.00000000  0.00000000  1.0
  O  O25  1  0.00000000  0.50000000  0.00000000  1.0
  O  O26  1  0.50000000  0.00000000  0.50000000  1.0
  O  O27  1  0.50000000  0.50000000  0.50000000  1.0
