# generated using pymatgen
data_Ca5V3CO12
_symmetry_space_group_name_H-M   'P 1'
_cell_length_a   10.24818236
_cell_length_b   10.24818236
_cell_length_c   6.80458256
_cell_angle_alpha   90.00000000
_cell_angle_beta   90.00000000
_cell_angle_gamma   120.00000000
_symmetry_Int_Tables_number   1
_chemical_formula_structural   Ca5V3CO12
_chemical_formula_sum   'Ca10 V6 C2 O24'
_cell_volume   618.90759002
_cell_formula_units_Z   2
loop_
 _symmetry_equiv_pos_site_id
 _symmetry_equiv_pos_as_xyz
  1  'x, y, z'
loop_
 _atom_site_type_symbol
 _atom_site_label
 _atom_site_symmetry_multiplicity
 _atom_site_fract_x
 _atom_site_fract_y
 _atom_site_fract_z
 _atom_site_occupancy
  Ca  Ca0  1  -0.03268924  0.72777335  0.25000000  1.0
  Ca  Ca1  1  0.72777335  0.76046259  0.75000000  1.0
  Ca  Ca2  1  0.76046259  1.03268924  0.25000000  1.0
  Ca  Ca3  1  0.27222665  0.23953741  0.25000000  1.0
  Ca  Ca4  1  1.03268924  0.27222665  0.75000000  1.0
  Ca  Ca5  1  0.23953741  -0.03268924  0.75000000  1.0
  Ca  Ca6  1  0.33333333  0.66666667  0.49585342  1.0
  Ca  Ca7  1  0.33333333  0.66666667  0.00414658  1.0
  Ca  Ca8  1  0.66666667  0.33333333  0.99585342  1.0
  Ca  Ca9  1  0.66666667  0.33333333  0.50414658  1.0
  V  V10  1  0.61982662  0.58969984  0.25000000  1.0
  V  V11  1  0.58969984  0.96987321  0.75000000  1.0
  V  V12  1  0.96987321  0.38017338  0.25000000  1.0
  V  V13  1  0.41030016  0.03012679  0.25000000  1.0
  V  V14  1  0.38017338  0.41030016  0.75000000  1.0
  V  V15  1  0.03012679  0.61982662  0.75000000  1.0
  C  C16  1  -0.00000000  -0.00000000  0.25000000  1.0
  C  C17  1  0.00000000  0.00000000  0.75000000  1.0
  O  O18  1  0.73857364  0.65504420  0.44914165  1.0
  O  O19  1  0.73857364  0.65504420  0.05085835  1.0
  O  O20  1  0.65504420  0.91647056  0.94914165  1.0
  O  O21  1  0.65504420  0.91647056  0.55085835  1.0
  O  O22  1  0.91647056  0.26142636  0.44914165  1.0
  O  O23  1  0.91647056  0.26142636  0.05085835  1.0
  O  O24  1  0.34495580  0.08352944  0.44914165  1.0
  O  O25  1  0.34495580  0.08352944  0.05085835  1.0
  O  O26  1  0.26142636  0.34495580  0.94914165  1.0
  O  O27  1  0.26142636  0.34495580  0.55085835  1.0
  O  O28  1  0.08352944  0.73857364  0.94914165  1.0
  O  O29  1  0.08352944  0.73857364  0.55085835  1.0
  O  O30  1  0.35778953  0.84373048  0.25000000  1.0
  O  O31  1  0.84373048  0.48594095  0.75000000  1.0
  O  O32  1  0.48594095  0.64221047  0.25000000  1.0
  O  O33  1  0.15626952  0.51405905  0.25000000  1.0
  O  O34  1  0.64221047  0.15626952  0.75000000  1.0
  O  O35  1  0.51405905  0.35778953  0.75000000  1.0
  O  O36  1  0.53631004  0.39344975  0.25000000  1.0
  O  O37  1  0.39344975  0.85713971  0.75000000  1.0
  O  O38  1  0.85713971  0.46368996  0.25000000  1.0
  O  O39  1  0.60655025  0.14286029  0.25000000  1.0
  O  O40  1  0.46368996  0.60655025  0.75000000  1.0
  O  O41  1  0.14286029  0.53631004  0.75000000  1.0
