# generated using pymatgen
data_TiNiGe
_symmetry_space_group_name_H-M   'P 1'
_cell_length_a   6.25948674
_cell_length_b   3.74944973
_cell_length_c   7.16542400
_cell_angle_alpha   90.00000000
_cell_angle_beta   90.00000000
_cell_angle_gamma   90.00000000
_symmetry_Int_Tables_number   1
_chemical_formula_structural   TiNiGe
_chemical_formula_sum   'Ti4 Ni4 Ge4'
_cell_volume   168.16985617
_cell_formula_units_Z   4
loop_
 _symmetry_equiv_pos_site_id
 _symmetry_equiv_pos_as_xyz
  1  'x, y, z'
loop_
 _atom_site_type_symbol
 _atom_site_label
 _atom_site_symmetry_multiplicity
 _atom_site_fract_x
 _atom_site_fract_y
 _atom_site_fract_z
 _atom_site_occupancy
  Ti  Ti0  1  0.97416996  0.75000000  0.68675696  1.0
  Ti  Ti1  1  0.47416996  0.75000000  0.81324304  1.0
  Ti  Ti2  1  0.02583004  0.25000000  0.31324304  1.0
  Ti  Ti3  1  0.52583004  0.25000000  0.18675696  1.0
  Ni  Ni4  1  0.86141387  0.75000000  0.05958974  1.0
  Ni  Ni5  1  0.36141387  0.75000000  0.44041026  1.0
  Ni  Ni6  1  0.13858613  0.25000000  0.94041026  1.0
  Ni  Ni7  1  0.63858613  0.25000000  0.55958974  1.0
  Ge  Ge8  1  0.74325407  0.75000000  0.37868203  1.0
  Ge  Ge9  1  0.24325407  0.75000000  0.12131797  1.0
  Ge  Ge10  1  0.25674593  0.25000000  0.62131797  1.0
  Ge  Ge11  1  0.75674593  0.25000000  0.87868203  1.0
