# generated using pymatgen
data_Tl4PbSe3
_symmetry_space_group_name_H-M   'P 1'
_cell_length_a   8.62589099
_cell_length_b   8.62589099
_cell_length_c   13.28852031
_cell_angle_alpha   90.00000000
_cell_angle_beta   90.00000000
_cell_angle_gamma   90.00000000
_symmetry_Int_Tables_number   1
_chemical_formula_structural   Tl4PbSe3
_chemical_formula_sum   'Tl16 Pb4 Se12'
_cell_volume   988.74558020
_cell_formula_units_Z   4
loop_
 _symmetry_equiv_pos_site_id
 _symmetry_equiv_pos_as_xyz
  1  'x, y, z'
loop_
 _atom_site_type_symbol
 _atom_site_label
 _atom_site_symmetry_multiplicity
 _atom_site_fract_x
 _atom_site_fract_y
 _atom_site_fract_z
 _atom_site_occupancy
  Tl  Tl0  1  0.32679157  0.38628686  0.40236196  1.0
  Tl  Tl1  1  0.67320843  0.38628686  0.90236196  1.0
  Tl  Tl2  1  0.32679157  0.61371314  0.90236196  1.0
  Tl  Tl3  1  0.67320843  0.61371314  0.40236196  1.0
  Tl  Tl4  1  0.88628686  0.82679157  0.90236196  1.0
  Tl  Tl5  1  0.11371314  0.82679157  0.40236196  1.0
  Tl  Tl6  1  0.88628686  0.17320843  0.40236196  1.0
  Tl  Tl7  1  0.11371314  0.17320843  0.90236196  1.0
  Tl  Tl8  1  0.17320843  0.11371314  0.59763804  1.0
  Tl  Tl9  1  0.82679157  0.11371314  0.09763804  1.0
  Tl  Tl10  1  0.17320843  0.88628686  0.09763804  1.0
  Tl  Tl11  1  0.82679157  0.88628686  0.59763804  1.0
  Tl  Tl12  1  0.61371314  0.67320843  0.09763804  1.0
  Tl  Tl13  1  0.38628686  0.67320843  0.59763804  1.0
  Tl  Tl14  1  0.61371314  0.32679157  0.59763804  1.0
  Tl  Tl15  1  0.38628686  0.32679157  0.09763804  1.0
  Pb  Pb16  1  0.00000000  0.50000000  0.20959727  1.0
  Pb  Pb17  1  0.00000000  0.50000000  0.70959727  1.0
  Pb  Pb18  1  0.50000000  0.00000000  0.79040273  1.0
  Pb  Pb19  1  0.50000000  0.00000000  0.29040273  1.0
  Se  Se20  1  0.00000000  0.50000000  0.49479648  1.0
  Se  Se21  1  0.00000000  0.50000000  0.99479648  1.0
  Se  Se22  1  0.50000000  0.00000000  0.50520352  1.0
  Se  Se23  1  0.50000000  0.00000000  0.00520352  1.0
  Se  Se24  1  0.32746439  0.67253561  0.25000000  1.0
  Se  Se25  1  0.67253561  0.67253561  0.75000000  1.0
  Se  Se26  1  0.32746439  0.32746439  0.75000000  1.0
  Se  Se27  1  0.67253561  0.32746439  0.25000000  1.0
  Se  Se28  1  0.17253561  0.82746439  0.75000000  1.0
  Se  Se29  1  0.82746439  0.82746439  0.25000000  1.0
  Se  Se30  1  0.17253561  0.17253561  0.25000000  1.0
  Se  Se31  1  0.82746439  0.17253561  0.75000000  1.0
