# generated using pymatgen
data_Sr3(LiSb)4
_symmetry_space_group_name_H-M   'P 1'
_cell_length_a   9.11480188
_cell_length_b   9.11480188
_cell_length_c   9.11480188
_cell_angle_alpha   149.28608777
_cell_angle_beta   131.19870077
_cell_angle_gamma   58.77496688
_symmetry_Int_Tables_number   1
_chemical_formula_structural   Sr3(LiSb)4
_chemical_formula_sum   'Sr3 Li4 Sb4'
_cell_volume   288.74911272
_cell_formula_units_Z   1
loop_
 _symmetry_equiv_pos_site_id
 _symmetry_equiv_pos_as_xyz
  1  'x, y, z'
loop_
 _atom_site_type_symbol
 _atom_site_label
 _atom_site_symmetry_multiplicity
 _atom_site_fract_x
 _atom_site_fract_y
 _atom_site_fract_z
 _atom_site_occupancy
  Sr  Sr0  1  0.63017760  0.13017760  0.50000000  1.0
  Sr  Sr1  1  0.36982240  0.86982240  0.50000000  1.0
  Sr  Sr2  1  0.00000000  0.00000000  0.00000000  1.0
  Li  Li3  1  0.36779751  0.67530543  0.69249208  1.0
  Li  Li4  1  1.01718665  0.32469457  0.69249208  1.0
  Li  Li5  1  0.98281335  0.67530543  1.30750792  1.0
  Li  Li6  1  0.63220249  0.32469457  0.30750792  1.0
  Sb  Sb7  1  0.78592163  0.78592163  1.00000000  1.0
  Sb  Sb8  1  0.21407837  0.21407837  0.00000000  1.0
  Sb  Sb9  1  0.30748500  0.50000000  0.80748500  1.0
  Sb  Sb10  1  0.69251500  0.50000000  1.19251500  1.0
