# generated using pymatgen
data_ZnS
_symmetry_space_group_name_H-M   'P 1'
_cell_length_a   3.85034450
_cell_length_b   3.85034450
_cell_length_c   62.90286559
_cell_angle_alpha   90.00000000
_cell_angle_beta   90.00000000
_cell_angle_gamma   120.00000000
_symmetry_Int_Tables_number   1
_chemical_formula_structural   ZnS
_chemical_formula_sum   'Zn20 S20'
_cell_volume   807.60730476
_cell_formula_units_Z   20
loop_
 _symmetry_equiv_pos_site_id
 _symmetry_equiv_pos_as_xyz
  1  'x, y, z'
loop_
 _atom_site_type_symbol
 _atom_site_label
 _atom_site_symmetry_multiplicity
 _atom_site_fract_x
 _atom_site_fract_y
 _atom_site_fract_z
 _atom_site_occupancy
  Zn  Zn0  1  0.33333333  0.66666667  0.08749837  1.0
  Zn  Zn1  1  0.66666667  0.33333333  0.58749837  1.0
  Zn  Zn2  1  0.33333333  0.66666667  0.23749795  1.0
  Zn  Zn3  1  0.66666667  0.33333333  0.73749795  1.0
  Zn  Zn4  1  0.33333333  0.66666667  0.38746079  1.0
  Zn  Zn5  1  0.66666667  0.33333333  0.88746079  1.0
  Zn  Zn6  1  0.33333333  0.66666667  0.48753174  1.0
  Zn  Zn7  1  0.66666667  0.33333333  0.98753174  1.0
  Zn  Zn8  1  0.33333333  0.66666667  0.63749798  1.0
  Zn  Zn9  1  0.66666667  0.33333333  0.13749798  1.0
  Zn  Zn10  1  0.33333333  0.66666667  0.78749734  1.0
  Zn  Zn11  1  0.66666667  0.33333333  0.28749734  1.0
  Zn  Zn12  1  0.33333333  0.66666667  0.93749849  1.0
  Zn  Zn13  1  0.66666667  0.33333333  0.43749849  1.0
  Zn  Zn14  1  0.00000000  0.00000000  0.03750393  1.0
  Zn  Zn15  1  0.00000000  0.00000000  0.53750393  1.0
  Zn  Zn16  1  0.00000000  -0.00000000  0.18749819  1.0
  Zn  Zn17  1  -0.00000000  -0.00000000  0.68749819  1.0
  Zn  Zn18  1  0.00000000  0.00000000  0.33749373  1.0
  Zn  Zn19  1  -0.00000000  -0.00000000  0.83749373  1.0
  S  S20  1  0.33333333  0.66666667  0.05000368  1.0
  S  S21  1  0.66666667  0.33333333  0.55000368  1.0
  S  S22  1  0.33333333  0.66666667  0.20000221  1.0
  S  S23  1  0.66666667  0.33333333  0.70000221  1.0
  S  S24  1  0.33333333  0.66666667  0.34998659  1.0
  S  S25  1  0.66666667  0.33333333  0.84998659  1.0
  S  S26  1  0.33333333  0.66666667  0.45005315  1.0
  S  S27  1  0.66666667  0.33333333  0.95005315  1.0
  S  S28  1  0.33333333  0.66666667  0.60000178  1.0
  S  S29  1  0.66666667  0.33333333  0.10000178  1.0
  S  S30  1  0.33333333  0.66666667  0.75000204  1.0
  S  S31  1  0.66666667  0.33333333  0.25000204  1.0
  S  S32  1  0.33333333  0.66666667  0.89995328  1.0
  S  S33  1  0.66666667  0.33333333  0.39995328  1.0
  S  S34  1  -0.00000000  -0.00000000  0.00001606  1.0
  S  S35  1  0.00000000  0.00000000  0.50001606  1.0
  S  S36  1  0.00000000  0.00000000  0.15000204  1.0
  S  S37  1  -0.00000000  -0.00000000  0.65000204  1.0
  S  S38  1  -0.00000000  0.00000000  0.30000068  1.0
  S  S39  1  -0.00000000  -0.00000000  0.80000068  1.0
