# generated using pymatgen
data_CaC2
_symmetry_space_group_name_H-M   'P 1'
_cell_length_a   5.10849565
_cell_length_b   5.10849565
_cell_length_c   5.32687490
_cell_angle_alpha   83.10831839
_cell_angle_beta   96.89168161
_cell_angle_gamma   149.76012680
_symmetry_Int_Tables_number   1
_chemical_formula_structural   CaC2
_chemical_formula_sum   'Ca2 C4'
_cell_volume   69.46749798
_cell_formula_units_Z   2
loop_
 _symmetry_equiv_pos_site_id
 _symmetry_equiv_pos_as_xyz
  1  'x, y, z'
loop_
 _atom_site_type_symbol
 _atom_site_label
 _atom_site_symmetry_multiplicity
 _atom_site_fract_x
 _atom_site_fract_y
 _atom_site_fract_z
 _atom_site_occupancy
  Ca  Ca0  1  0.37387873  -0.37387873  0.76764540  1.0
  Ca  Ca1  1  0.62612127  0.37387873  0.23235460  1.0
  C  C2  1  0.65032103  0.34967897  0.72938458  1.0
  C  C3  1  0.34967897  -0.34967897  0.27061542  1.0
  C  C4  1  0.10274246  -0.10274246  0.78597353  1.0
  C  C5  1  0.89725754  0.10274246  0.21402647  1.0
