# generated using pymatgen
data_MnZn2Si(HO3)2
_symmetry_space_group_name_H-M   'P 1'
_cell_length_a   11.92039162
_cell_length_b   5.34157693
_cell_length_c   8.29789826
_cell_angle_alpha   90.00000000
_cell_angle_beta   96.01128458
_cell_angle_gamma   90.00000000
_symmetry_Int_Tables_number   1
_chemical_formula_structural   MnZn2Si(HO3)2
_chemical_formula_sum   'Mn4 Zn8 Si4 H8 O24'
_cell_volume   525.45250456
_cell_formula_units_Z   4
loop_
 _symmetry_equiv_pos_site_id
 _symmetry_equiv_pos_as_xyz
  1  'x, y, z'
loop_
 _atom_site_type_symbol
 _atom_site_label
 _atom_site_symmetry_multiplicity
 _atom_site_fract_x
 _atom_site_fract_y
 _atom_site_fract_z
 _atom_site_occupancy
  Zn  Zn0  1  0.41841483  0.93635901  0.73553612  1.0
  Zn  Zn1  1  0.41841483  0.56364099  0.23553612  1.0
  Zn  Zn2  1  0.58158517  0.43635901  0.76446388  1.0
  Zn  Zn3  1  0.58158517  0.06364099  0.26446388  1.0
  Zn  Zn4  1  0.24812681  0.55937873  0.89695822  1.0
  Zn  Zn5  1  0.24812681  0.94062127  0.39695822  1.0
  Zn  Zn6  1  0.75187319  0.05937873  0.60304178  1.0
  Zn  Zn7  1  0.75187319  0.44062127  0.10304178  1.0
  Mn  Mn8  1  0.95319257  0.75660907  0.89155688  1.0
  Mn  Mn9  1  0.95319257  0.74339093  0.39155688  1.0
  Mn  Mn10  1  0.04680743  0.25660907  0.60844312  1.0
  Mn  Mn11  1  0.04680743  0.24339093  0.10844312  1.0
  H  H12  1  0.86705893  0.52054609  0.64289705  1.0
  H  H13  1  0.86705893  0.97945391  0.14289705  1.0
  H  H14  1  0.13294107  0.02054609  0.85710295  1.0
  H  H15  1  0.13294107  0.47945391  0.35710295  1.0
  H  H16  1  0.86433781  0.28173736  0.90648475  1.0
  H  H17  1  0.86433781  0.21826264  0.40648475  1.0
  H  H18  1  0.13566219  0.78173736  0.59351525  1.0
  H  H19  1  0.13566219  0.71826264  0.09351525  1.0
  O  O20  1  0.88638758  0.41233135  0.98705163  1.0
  O  O21  1  0.88638758  0.08766865  0.48705163  1.0
  O  O22  1  0.11361242  0.91233135  0.51294837  1.0
  O  O23  1  0.11361242  0.58766865  0.01294837  1.0
  O  O24  1  0.78632049  0.96681271  0.83017345  1.0
  O  O25  1  0.78632049  0.53318729  0.33017345  1.0
  O  O26  1  0.21367951  0.46681271  0.66982655  1.0
  O  O27  1  0.21367951  0.03318729  0.16982655  1.0
  O  O28  1  0.64189379  0.63955261  0.95398642  1.0
  O  O29  1  0.64189379  0.86044739  0.45398642  1.0
  O  O30  1  0.35810621  0.13955261  0.54601358  1.0
  O  O31  1  0.35810621  0.36044739  0.04601358  1.0
  O  O32  1  0.43410339  0.57473929  0.68370021  1.0
  O  O33  1  0.43410339  0.92526071  0.18370021  1.0
  O  O34  1  0.56589661  0.07473929  0.81629979  1.0
  O  O35  1  0.56589661  0.42526071  0.31629979  1.0
  O  O36  1  0.30500579  0.92084578  0.89667900  1.0
  O  O37  1  0.30500579  0.57915422  0.39667900  1.0
  O  O38  1  0.69499421  0.42084578  0.60332100  1.0
  O  O39  1  0.69499421  0.07915422  0.10332100  1.0
  O  O40  1  0.94446799  0.58462856  0.65144735  1.0
  O  O41  1  0.94446799  0.91537144  0.15144735  1.0
  O  O42  1  0.05553201  0.08462856  0.84855265  1.0
  O  O43  1  0.05553201  0.41537144  0.34855265  1.0
  Si  Si44  1  0.67239114  0.93647505  0.92598801  1.0
  Si  Si45  1  0.67239114  0.56352495  0.42598801  1.0
  Si  Si46  1  0.32760886  0.43647505  0.57401199  1.0
  Si  Si47  1  0.32760886  0.06352495  0.07401199  1.0
