# generated using pymatgen
data_K2Al2O3F2
_symmetry_space_group_name_H-M   'P 1'
_cell_length_a   7.04775926
_cell_length_b   7.04775926
_cell_length_c   6.21585060
_cell_angle_alpha   88.66411095
_cell_angle_beta   91.33588905
_cell_angle_gamma   108.09992644
_symmetry_Int_Tables_number   1
_chemical_formula_structural   K2Al2O3F2
_chemical_formula_sum   'K4 Al4 O6 F4'
_cell_volume   293.34724192
_cell_formula_units_Z   2
loop_
 _symmetry_equiv_pos_site_id
 _symmetry_equiv_pos_as_xyz
  1  'x, y, z'
loop_
 _atom_site_type_symbol
 _atom_site_label
 _atom_site_symmetry_multiplicity
 _atom_site_fract_x
 _atom_site_fract_y
 _atom_site_fract_z
 _atom_site_occupancy
  K  K0  1  0.83617857  -0.83617857  0.33783763  1.0
  K  K1  1  0.16382143  -0.16382143  0.66216237  1.0
  K  K2  1  0.59862820  -0.59862820  0.74196202  1.0
  K  K3  1  0.40137180  -0.40137180  0.25803798  1.0
  Al  Al4  1  0.67375104  -0.07472976  0.85655589  1.0
  Al  Al5  1  1.07472976  0.32624896  0.85655589  1.0
  Al  Al6  1  0.92527024  -0.32624896  0.14344411  1.0
  Al  Al7  1  1.32624896  0.07472976  0.14344411  1.0
  O  O8  1  0.87514905  -0.87514905  0.76720447  1.0
  O  O9  1  0.12485095  -0.12485095  0.23279553  1.0
  O  O10  1  0.73715307  -0.26284693  0.00000000  1.0
  O  O11  1  1.26284693  0.26284693  0.00000000  1.0
  O  O12  1  1.50000000  -0.00000000  -0.00000000  1.0
  O  O13  1  1.00000000  -0.50000000  -0.00000000  1.0
  F  F14  1  0.55361081  -0.18411777  0.61648997  1.0
  F  F15  1  1.18411777  0.44638919  0.61648997  1.0
  F  F16  1  0.81588223  -0.44638919  0.38351003  1.0
  F  F17  1  1.44638919  0.18411777  0.38351003  1.0
