# generated using pymatgen
data_In4Br7
_symmetry_space_group_name_H-M   'P 1'
_cell_length_a   7.98217206
_cell_length_b   7.98217206
_cell_length_c   32.77831007
_cell_angle_alpha   83.11831102
_cell_angle_beta   96.88168898
_cell_angle_gamma   122.03696260
_symmetry_Int_Tables_number   1
_chemical_formula_structural   In4Br7
_chemical_formula_sum   'In16 Br28'
_cell_volume   1753.72447075
_cell_formula_units_Z   4
loop_
 _symmetry_equiv_pos_site_id
 _symmetry_equiv_pos_as_xyz
  1  'x, y, z'
loop_
 _atom_site_type_symbol
 _atom_site_label
 _atom_site_symmetry_multiplicity
 _atom_site_fract_x
 _atom_site_fract_y
 _atom_site_fract_z
 _atom_site_occupancy
  In  In0  1  1.67404626  -0.17030618  0.01500434  1.0
  In  In1  1  1.17030618  -0.67404626  0.51500434  1.0
  In  In2  1  0.82969382  0.67404626  0.48499566  1.0
  In  In3  1  0.32595374  0.17030618  0.98499566  1.0
  In  In4  1  0.45483064  0.03276214  0.37566022  1.0
  In  In5  1  0.96723786  -0.45483064  0.87566022  1.0
  In  In6  1  1.03276214  0.45483064  0.12433978  1.0
  In  In7  1  1.54516936  -0.03276214  0.62433978  1.0
  In  In8  1  0.37359109  0.08668295  0.18537534  1.0
  In  In9  1  0.91331705  -0.37359109  0.68537534  1.0
  In  In10  1  1.08668295  0.37359109  0.31462466  1.0
  In  In11  1  1.62640891  -0.08668295  0.81462466  1.0
  In  In12  1  0.84633549  0.84633549  0.25000000  1.0
  In  In13  1  0.15366451  0.15366451  0.75000000  1.0
  In  In14  1  0.50000000  -0.00000000  0.50000000  1.0
  In  In15  1  1.00000000  -0.50000000  0.00000000  1.0
  Br  Br16  1  1.99456260  0.02833026  0.34670892  1.0
  Br  Br17  1  0.97166974  -0.99456260  0.84670892  1.0
  Br  Br18  1  1.02833026  0.99456260  0.15329108  1.0
  Br  Br19  1  0.00543740  -0.02833026  0.65329108  1.0
  Br  Br20  1  1.44530078  -0.37434668  0.33416680  1.0
  Br  Br21  1  1.37434668  -0.44530078  0.83416680  1.0
  Br  Br22  1  0.62565332  0.44530078  0.16583320  1.0
  Br  Br23  1  0.55469922  0.37434668  0.66583320  1.0
  Br  Br24  1  0.78469499  0.08020913  0.44957191  1.0
  Br  Br25  1  0.91979087  -0.78469499  0.94957191  1.0
  Br  Br26  1  1.08020913  0.78469499  0.05042809  1.0
  Br  Br27  1  1.21530501  -0.08020913  0.55042809  1.0
  Br  Br28  1  0.47434223  -0.14370481  0.16461669  1.0
  Br  Br29  1  1.14370481  -0.47434223  0.66461669  1.0
  Br  Br30  1  0.85629519  0.47434223  0.33538331  1.0
  Br  Br31  1  1.52565777  0.14370481  0.83538331  1.0
  Br  Br32  1  0.69974716  0.22994797  0.04835923  1.0
  Br  Br33  1  0.77005203  -0.69974716  0.54835923  1.0
  Br  Br34  1  1.22994797  0.69974716  0.45164077  1.0
  Br  Br35  1  1.30025284  -0.22994797  0.95164077  1.0
  Br  Br36  1  0.31906235  0.01558626  0.26275926  1.0
  Br  Br37  1  0.98441374  -0.31906235  0.76275926  1.0
  Br  Br38  1  1.01558626  0.31906235  0.23724074  1.0
  Br  Br39  1  1.68093765  -0.01558626  0.73724074  1.0
  Br  Br40  1  0.42132170  0.25350796  0.45035550  1.0
  Br  Br41  1  0.74649204  0.57867830  0.95035550  1.0
  Br  Br42  1  1.25350796  -0.57867830  0.04964450  1.0
  Br  Br43  1  1.57867830  -0.25350796  0.54964450  1.0
