# generated using pymatgen
data_LiCd2HSe2O7
_symmetry_space_group_name_H-M   'P 1'
_cell_length_a   5.84449154
_cell_length_b   10.42076361
_cell_length_c   11.91365087
_cell_angle_alpha   90.00000000
_cell_angle_beta   90.26386793
_cell_angle_gamma   90.00000000
_symmetry_Int_Tables_number   1
_chemical_formula_structural   LiCd2HSe2O7
_chemical_formula_sum   'Li4 Cd8 H4 Se8 O28'
_cell_volume   725.58206927
_cell_formula_units_Z   4
loop_
 _symmetry_equiv_pos_site_id
 _symmetry_equiv_pos_as_xyz
  1  'x, y, z'
loop_
 _atom_site_type_symbol
 _atom_site_label
 _atom_site_symmetry_multiplicity
 _atom_site_fract_x
 _atom_site_fract_y
 _atom_site_fract_z
 _atom_site_occupancy
  Li  Li0  1  0.86898691  0.81497550  0.86044795  1.0
  Li  Li1  1  0.86898691  0.68502450  0.36044795  1.0
  Li  Li2  1  0.13101309  0.31497550  0.63955205  1.0
  Li  Li3  1  0.13101309  0.18502450  0.13955205  1.0
  Cd  Cd4  1  0.87401648  0.40039496  0.89860111  1.0
  Cd  Cd5  1  0.87401648  0.09960504  0.39860111  1.0
  Cd  Cd6  1  0.12598352  0.90039496  0.60139889  1.0
  Cd  Cd7  1  0.12598352  0.59960504  0.10139889  1.0
  Cd  Cd8  1  0.35282355  0.62133999  0.79265954  1.0
  Cd  Cd9  1  0.35282355  0.87866001  0.29265954  1.0
  Cd  Cd10  1  0.64717645  0.12133999  0.70734046  1.0
  Cd  Cd11  1  0.64717645  0.37866001  0.20734046  1.0
  H  H12  1  0.67267447  0.91514222  0.55813589  1.0
  H  H13  1  0.67267447  0.58485778  0.05813589  1.0
  H  H14  1  0.32732553  0.41514222  0.94186411  1.0
  H  H15  1  0.32732553  0.08485778  0.44186411  1.0
  Se  Se16  1  0.88147503  0.59431757  0.66065950  1.0
  Se  Se17  1  0.88147503  0.90568243  0.16065950  1.0
  Se  Se18  1  0.11852497  0.09431757  0.83934050  1.0
  Se  Se19  1  0.11852497  0.40568243  0.33934050  1.0
  Se  Se20  1  0.38915084  0.83556463  0.99746103  1.0
  Se  Se21  1  0.38915084  0.66443537  0.49746103  1.0
  Se  Se22  1  0.61084916  0.33556463  0.50253897  1.0
  Se  Se23  1  0.61084916  0.16443537  0.00253897  1.0
  O  O24  1  0.98974093  0.72799656  0.72833592  1.0
  O  O25  1  0.98974093  0.77200344  0.22833592  1.0
  O  O26  1  0.01025907  0.22799656  0.77166408  1.0
  O  O27  1  0.01025907  0.27200344  0.27166408  1.0
  O  O28  1  0.87641125  1.00076538  0.83082194  1.0
  O  O29  1  0.87641125  0.49923462  0.33082194  1.0
  O  O30  1  0.12358875  0.50076538  0.66917806  1.0
  O  O31  1  0.12358875  -0.00076538  0.16917806  1.0
  O  O32  1  0.87753801  0.27313386  0.53231078  1.0
  O  O33  1  0.87753801  0.22686614  0.03231078  1.0
  O  O34  1  0.12246199  0.77313386  0.96768922  1.0
  O  O35  1  0.12246199  0.72686614  0.46768922  1.0
  O  O36  1  0.77705941  0.98829485  0.56529834  1.0
  O  O37  1  0.77705941  0.51170515  0.06529834  1.0
  O  O38  1  0.22294059  0.48829485  0.93470166  1.0
  O  O39  1  0.22294059  0.01170515  0.43470166  1.0
  O  O40  1  0.70866219  0.52264795  0.76179069  1.0
  O  O41  1  0.70866219  0.97735205  0.26179069  1.0
  O  O42  1  0.29133781  0.02264795  0.73820931  1.0
  O  O43  1  0.29133781  0.47735205  0.23820931  1.0
  O  O44  1  0.55740389  0.75931493  0.89935543  1.0
  O  O45  1  0.55740389  0.74068507  0.39935543  1.0
  O  O46  1  0.44259611  0.25931493  0.60064457  1.0
  O  O47  1  0.44259611  0.24068507  0.10064457  1.0
  O  O48  1  0.44777934  0.75176059  0.61797044  1.0
  O  O49  1  0.44777934  0.74823941  0.11797044  1.0
  O  O50  1  0.55222066  0.25176059  0.88202956  1.0
  O  O51  1  0.55222066  0.24823941  0.38202956  1.0
