# generated using pymatgen
data_FePS
_symmetry_space_group_name_H-M   'P 1'
_cell_length_a   5.52650399
_cell_length_b   5.50458175
_cell_length_c   5.57432733
_cell_angle_alpha   90.00000000
_cell_angle_beta   111.33303057
_cell_angle_gamma   90.00000000
_symmetry_Int_Tables_number   1
_chemical_formula_structural   FePS
_chemical_formula_sum   'Fe4 P4 S4'
_cell_volume   157.95798678
_cell_formula_units_Z   4
loop_
 _symmetry_equiv_pos_site_id
 _symmetry_equiv_pos_as_xyz
  1  'x, y, z'
loop_
 _atom_site_type_symbol
 _atom_site_label
 _atom_site_symmetry_multiplicity
 _atom_site_fract_x
 _atom_site_fract_y
 _atom_site_fract_z
 _atom_site_occupancy
  Fe  Fe0  1  0.77645851  0.49955902  0.29316603  1.0
  Fe  Fe1  1  0.77645851  0.00044098  0.79316603  1.0
  Fe  Fe2  1  0.22354149  0.99955902  0.20683397  1.0
  Fe  Fe3  1  0.22354149  0.50044098  0.70683397  1.0
  P  P4  1  0.64691433  0.87192904  0.37439990  1.0
  P  P5  1  0.64691433  0.62807096  0.87439990  1.0
  P  P6  1  0.35308567  0.37192904  0.12560010  1.0
  P  P7  1  0.35308567  0.12807096  0.62560010  1.0
  S  S8  1  0.84016647  0.12688782  0.18396562  1.0
  S  S9  1  0.84016647  0.37311218  0.68396562  1.0
  S  S10  1  0.15983353  0.62688782  0.31603438  1.0
  S  S11  1  0.15983353  0.87311218  0.81603438  1.0
