# generated using pymatgen
data_Ba7(ClF6)2
_symmetry_space_group_name_H-M   'P 1'
_cell_length_a   10.76928327
_cell_length_b   10.76928327
_cell_length_c   4.22028212
_cell_angle_alpha   90.00000000
_cell_angle_beta   90.00000000
_cell_angle_gamma   120.00000000
_symmetry_Int_Tables_number   1
_chemical_formula_structural   Ba7(ClF6)2
_chemical_formula_sum   'Ba7 Cl2 F12'
_cell_volume   423.88272409
_cell_formula_units_Z   1
loop_
 _symmetry_equiv_pos_site_id
 _symmetry_equiv_pos_as_xyz
  1  'x, y, z'
loop_
 _atom_site_type_symbol
 _atom_site_label
 _atom_site_symmetry_multiplicity
 _atom_site_fract_x
 _atom_site_fract_y
 _atom_site_fract_z
 _atom_site_occupancy
  Ba  Ba0  1  0.44611351  0.37929710  0.50000000  1.0
  Ba  Ba1  1  0.93318359  0.55388649  0.50000000  1.0
  Ba  Ba2  1  0.62070290  0.06681641  0.50000000  1.0
  Ba  Ba3  1  0.03120752  0.25548928  0.00000000  1.0
  Ba  Ba4  1  0.22428177  0.96879248  0.00000000  1.0
  Ba  Ba5  1  0.74451072  0.77571823  0.00000000  1.0
  Ba  Ba6  1  0.33333333  0.66666667  0.00000000  1.0
  Cl  Cl7  1  0.00000000  0.00000000  0.50000000  1.0
  Cl  Cl8  1  0.66666667  0.33333333  0.00000000  1.0
  F  F9  1  0.72202858  0.61865766  0.50000000  1.0
  F  F10  1  0.89662909  0.27797142  0.50000000  1.0
  F  F11  1  0.38134234  0.10337091  0.50000000  1.0
  F  F12  1  0.23825585  0.45176606  0.50000000  1.0
  F  F13  1  0.21351020  0.76174415  0.50000000  1.0
  F  F14  1  0.54823394  0.78648980  0.50000000  1.0
  F  F15  1  0.49030756  0.54703869  0.00000000  1.0
  F  F16  1  0.05673113  0.50969244  0.00000000  1.0
  F  F17  1  0.45296131  0.94326887  0.00000000  1.0
  F  F18  1  0.26976608  0.23629211  0.00000000  1.0
  F  F19  1  0.96652603  0.73023392  0.00000000  1.0
  F  F20  1  0.76370789  0.03347397  0.00000000  1.0
