# generated using pymatgen
data_TlHgAsS3
_symmetry_space_group_name_H-M   'P 1'
_cell_length_a   6.27254660
_cell_length_b   16.88542457
_cell_length_c   8.50017180
_cell_angle_alpha   90.00000000
_cell_angle_beta   132.64990271
_cell_angle_gamma   90.00000000
_symmetry_Int_Tables_number   1
_chemical_formula_structural   TlHgAsS3
_chemical_formula_sum   'Tl4 Hg4 As4 S12'
_cell_volume   662.17160890
_cell_formula_units_Z   4
loop_
 _symmetry_equiv_pos_site_id
 _symmetry_equiv_pos_as_xyz
  1  'x, y, z'
loop_
 _atom_site_type_symbol
 _atom_site_label
 _atom_site_symmetry_multiplicity
 _atom_site_fract_x
 _atom_site_fract_y
 _atom_site_fract_z
 _atom_site_occupancy
  Tl  Tl0  1  0.82848120  0.94122062  0.16425946  1.0
  Tl  Tl1  1  0.82848120  0.55877938  0.66425946  1.0
  Tl  Tl2  1  0.17151880  0.44122062  0.33574054  1.0
  Tl  Tl3  1  0.17151880  0.05877938  0.83574054  1.0
  Hg  Hg4  1  0.81037199  0.25000640  0.40517745  1.0
  Hg  Hg5  1  0.81037199  0.24999360  0.90517745  1.0
  Hg  Hg6  1  0.18962801  0.75000640  0.09482255  1.0
  Hg  Hg7  1  0.18962801  0.74999360  0.59482255  1.0
  As  As8  1  0.33101293  0.11057171  0.41550146  1.0
  As  As9  1  0.33101293  0.38942829  0.91550146  1.0
  As  As10  1  0.66898707  0.61057171  0.08449854  1.0
  As  As11  1  0.66898707  0.88942829  0.58449854  1.0
  S  S12  1  0.63954533  0.38968261  0.28195200  1.0
  S  S13  1  0.63954533  0.11031739  0.78195200  1.0
  S  S14  1  0.36045467  0.88968261  0.21804800  1.0
  S  S15  1  0.36045467  0.61031739  0.71804800  1.0
  S  S16  1  0.63951046  0.11032226  0.35753507  1.0
  S  S17  1  0.63951046  0.38967774  0.85753507  1.0
  S  S18  1  0.36048954  0.61032226  0.14246493  1.0
  S  S19  1  0.36048954  0.88967774  0.64246493  1.0
  S  S20  1  0.17820301  0.23742377  0.33908692  1.0
  S  S21  1  0.17820301  0.26257623  0.83908692  1.0
  S  S22  1  0.82179699  0.73742377  0.16091308  1.0
  S  S23  1  0.82179699  0.76257623  0.66091308  1.0
