# generated using pymatgen
data_Ca5(AlSb3)2
_symmetry_space_group_name_H-M   'P 1'
_cell_length_a   12.11143031
_cell_length_b   14.11992663
_cell_length_c   4.49373581
_cell_angle_alpha   90.00000000
_cell_angle_beta   90.00000000
_cell_angle_gamma   90.00000000
_symmetry_Int_Tables_number   1
_chemical_formula_structural   Ca5(AlSb3)2
_chemical_formula_sum   'Ca10 Al4 Sb12'
_cell_volume   768.48502815
_cell_formula_units_Z   2
loop_
 _symmetry_equiv_pos_site_id
 _symmetry_equiv_pos_as_xyz
  1  'x, y, z'
loop_
 _atom_site_type_symbol
 _atom_site_label
 _atom_site_symmetry_multiplicity
 _atom_site_fract_x
 _atom_site_fract_y
 _atom_site_fract_z
 _atom_site_occupancy
  Ca  Ca0  1  0.40726329  0.74730642  -0.00000000  1.0
  Ca  Ca1  1  0.90726329  0.75269358  0.00000000  1.0
  Ca  Ca2  1  0.59273671  0.25269358  -0.00000000  1.0
  Ca  Ca3  1  0.09273671  0.24730642  0.00000000  1.0
  Ca  Ca4  1  0.17310252  0.51419810  0.00000000  1.0
  Ca  Ca5  1  0.67310252  0.98580190  0.00000000  1.0
  Ca  Ca6  1  0.82689748  0.48580190  0.00000000  1.0
  Ca  Ca7  1  0.32689748  0.01419810  0.00000000  1.0
  Ca  Ca8  1  0.50000000  0.50000000  0.00000000  1.0
  Ca  Ca9  1  0.00000000  0.00000000  0.00000000  1.0
  Al  Al10  1  0.16861294  0.71146286  0.50000000  1.0
  Al  Al11  1  0.66861294  0.78853714  0.50000000  1.0
  Al  Al12  1  0.83138706  0.28853714  0.50000000  1.0
  Al  Al13  1  0.33138706  0.21146286  0.50000000  1.0
  Sb  Sb14  1  0.47475173  0.89971102  0.50000000  1.0
  Sb  Sb15  1  0.97475173  0.60028898  0.50000000  1.0
  Sb  Sb16  1  0.52524827  0.10028898  0.50000000  1.0
  Sb  Sb17  1  0.02524827  0.39971102  0.50000000  1.0
  Sb  Sb18  1  0.34385046  0.59330987  0.50000000  1.0
  Sb  Sb19  1  0.84385046  0.90669013  0.50000000  1.0
  Sb  Sb20  1  0.65614954  0.40669013  0.50000000  1.0
  Sb  Sb21  1  0.15614954  0.09330987  0.50000000  1.0
  Sb  Sb22  1  0.16120569  0.82155710  0.00000000  1.0
  Sb  Sb23  1  0.66120569  0.67844290  -0.00000000  1.0
  Sb  Sb24  1  0.83879431  0.17844290  0.00000000  1.0
  Sb  Sb25  1  0.33879431  0.32155710  -0.00000000  1.0
