# generated using pymatgen
data_Cu2GeS3
_symmetry_space_group_name_H-M   'P 1'
_cell_length_a   6.48924937
_cell_length_b   6.48924937
_cell_length_c   6.48924937
_cell_angle_alpha   145.86657991
_cell_angle_beta   60.43665830
_cell_angle_gamma   131.73238581
_symmetry_Int_Tables_number   1
_chemical_formula_structural   Cu2GeS3
_chemical_formula_sum   'Cu2 Ge1 S3'
_cell_volume   113.34029877
_cell_formula_units_Z   1
loop_
 _symmetry_equiv_pos_site_id
 _symmetry_equiv_pos_as_xyz
  1  'x, y, z'
loop_
 _atom_site_type_symbol
 _atom_site_label
 _atom_site_symmetry_multiplicity
 _atom_site_fract_x
 _atom_site_fract_y
 _atom_site_fract_z
 _atom_site_occupancy
  Cu  Cu0  1  1.67364883  1.00647077  0.66717805  1.0
  Cu  Cu1  1  1.33929272  1.00647077  1.33282195  1.0
  Ge  Ge2  1  -0.02415868  -0.02415868  -0.00000000  1.0
  S  S3  1  1.57763120  0.74619606  0.83143514  1.0
  S  S4  1  0.91476093  0.74619606  1.16856486  1.0
  S  S5  1  0.24782501  0.74782501  0.50000000  1.0
