# generated using pymatgen
data_Na2TiF6
_symmetry_space_group_name_H-M   'P 1'
_cell_length_a   9.71763211
_cell_length_b   9.71763211
_cell_length_c   4.72249213
_cell_angle_alpha   90.00000000
_cell_angle_beta   90.00000000
_cell_angle_gamma   120.00000000
_symmetry_Int_Tables_number   1
_chemical_formula_structural   Na2TiF6
_chemical_formula_sum   'Na6 Ti3 F18'
_cell_volume   386.20934799
_cell_formula_units_Z   3
loop_
 _symmetry_equiv_pos_site_id
 _symmetry_equiv_pos_as_xyz
  1  'x, y, z'
loop_
 _atom_site_type_symbol
 _atom_site_label
 _atom_site_symmetry_multiplicity
 _atom_site_fract_x
 _atom_site_fract_y
 _atom_site_fract_z
 _atom_site_occupancy
  Na  Na0  1  0.65733637  0.65733637  0.00000000  1.0
  Na  Na1  1  0.65733637  0.00000000  -0.00000000  1.0
  Na  Na2  1  0.00000000  0.65733637  -0.00000000  1.0
  Na  Na3  1  -0.00000000  0.34266363  0.00000000  1.0
  Na  Na4  1  0.34266363  0.34266363  -0.00000000  1.0
  Na  Na5  1  0.34266363  -0.00000000  -0.00000000  1.0
  Ti  Ti6  1  0.33333333  0.66666667  0.50068596  1.0
  Ti  Ti7  1  0.66666667  0.33333333  0.49931404  1.0
  Ti  Ti8  1  -0.00000000  0.00000000  -0.00000000  1.0
  F  F9  1  0.81009481  0.90504741  0.21431293  1.0
  F  F10  1  0.90504741  0.81009481  0.78568707  1.0
  F  F11  1  0.90504741  0.09495259  0.78568707  1.0
  F  F12  1  0.09495259  0.90504741  0.21431293  1.0
  F  F13  1  0.09495259  0.18990519  0.21431293  1.0
  F  F14  1  0.18990519  0.09495259  0.78568707  1.0
  F  F15  1  0.14762212  0.57381106  0.27073023  1.0
  F  F16  1  0.57381106  0.14762212  0.72926977  1.0
  F  F17  1  0.57381106  0.42618894  0.72926977  1.0
  F  F18  1  0.42618894  0.57381106  0.27073023  1.0
  F  F19  1  0.42618894  0.85237788  0.27073023  1.0
  F  F20  1  0.85237788  0.42618894  0.72926977  1.0
  F  F21  1  0.48195633  0.24097816  0.27091830  1.0
  F  F22  1  0.24097816  0.48195633  0.72908170  1.0
  F  F23  1  0.24097816  0.75902184  0.72908170  1.0
  F  F24  1  0.75902184  0.24097816  0.27091830  1.0
  F  F25  1  0.75902184  0.51804367  0.27091830  1.0
  F  F26  1  0.51804367  0.75902184  0.72908170  1.0
