# generated using pymatgen
data_Cs4Zn3F10
_symmetry_space_group_name_H-M   'P 1'
_cell_length_a   7.99058736
_cell_length_b   7.99058736
_cell_length_c   14.15502229
_cell_angle_alpha   90.00000000
_cell_angle_beta   90.00000000
_cell_angle_gamma   133.40090666
_symmetry_Int_Tables_number   1
_chemical_formula_structural   Cs4Zn3F10
_chemical_formula_sum   'Cs8 Zn6 F20'
_cell_volume   656.66175051
_cell_formula_units_Z   2
loop_
 _symmetry_equiv_pos_site_id
 _symmetry_equiv_pos_as_xyz
  1  'x, y, z'
loop_
 _atom_site_type_symbol
 _atom_site_label
 _atom_site_symmetry_multiplicity
 _atom_site_fract_x
 _atom_site_fract_y
 _atom_site_fract_z
 _atom_site_occupancy
  Cs  Cs0  1  0.25468116  0.74531884  0.61015568  1.0
  Cs  Cs1  1  -0.24531884  0.24531884  0.88984432  1.0
  Cs  Cs2  1  -0.25468116  0.25468116  0.38984432  1.0
  Cs  Cs3  1  0.24531884  0.75468116  0.11015568  1.0
  Cs  Cs4  1  0.45534014  0.54465986  0.86118804  1.0
  Cs  Cs5  1  -0.04465986  0.04465986  0.63881196  1.0
  Cs  Cs6  1  -0.45534014  0.45534014  0.13881196  1.0
  Cs  Cs7  1  0.04465986  0.95534014  0.36118804  1.0
  Zn  Zn8  1  0.12041699  0.87958301  0.84400890  1.0
  Zn  Zn9  1  -0.37958301  0.37958301  0.65599110  1.0
  Zn  Zn10  1  -0.12041699  0.12041699  0.15599110  1.0
  Zn  Zn11  1  0.37958301  0.62041699  0.34400890  1.0
  Zn  Zn12  1  0.00000000  0.00000000  0.00000000  1.0
  Zn  Zn13  1  0.50000000  0.50000000  0.50000000  1.0
  F  F14  1  -0.11435359  0.68616154  0.96208838  1.0
  F  F15  1  0.38564641  1.18616154  0.53791162  1.0
  F  F16  1  0.68616154  0.88564641  0.03791162  1.0
  F  F17  1  0.18616154  0.38564641  0.46208838  1.0
  F  F18  1  0.31383846  1.11435359  0.96208838  1.0
  F  F19  1  -0.18616154  0.61435359  0.53791162  1.0
  F  F20  1  0.11435359  0.31383846  0.03791162  1.0
  F  F21  1  0.61435359  0.81383846  0.46208838  1.0
  F  F22  1  0.25354575  0.74645425  0.84858711  1.0
  F  F23  1  -0.24645425  0.24645425  0.65141289  1.0
  F  F24  1  -0.25354575  0.25354575  0.15141289  1.0
  F  F25  1  0.24645425  0.75354575  0.34858711  1.0
  F  F26  1  0.47419391  0.52580609  0.64457844  1.0
  F  F27  1  -0.02580609  0.02580609  0.85542156  1.0
  F  F28  1  -0.47419391  0.47419391  0.35542156  1.0
  F  F29  1  0.02580609  0.97419391  0.14457844  1.0
  F  F30  1  -0.13901730  0.63901730  0.75000000  1.0
  F  F31  1  0.36098270  1.13901730  0.75000000  1.0
  F  F32  1  0.63901730  0.86098270  0.25000000  1.0
  F  F33  1  0.13901730  0.36098270  0.25000000  1.0
