# generated using pymatgen
data_Cs3AsO4
_symmetry_space_group_name_H-M   'P 1'
_cell_length_a   12.70518168
_cell_length_b   9.21894890
_cell_length_c   6.74849584
_cell_angle_alpha   90.00000000
_cell_angle_beta   90.00000000
_cell_angle_gamma   90.00000000
_symmetry_Int_Tables_number   1
_chemical_formula_structural   Cs3AsO4
_chemical_formula_sum   'Cs12 As4 O16'
_cell_volume   790.44065947
_cell_formula_units_Z   4
loop_
 _symmetry_equiv_pos_site_id
 _symmetry_equiv_pos_as_xyz
  1  'x, y, z'
loop_
 _atom_site_type_symbol
 _atom_site_label
 _atom_site_symmetry_multiplicity
 _atom_site_fract_x
 _atom_site_fract_y
 _atom_site_fract_z
 _atom_site_occupancy
  Cs  Cs0  1  0.64582646  0.49137159  0.31065799  1.0
  Cs  Cs1  1  0.64582646  0.00862841  0.31065799  1.0
  Cs  Cs2  1  0.14582646  0.49137159  0.18934201  1.0
  Cs  Cs3  1  0.14582646  0.00862841  0.18934201  1.0
  Cs  Cs4  1  0.35417354  0.99137159  0.68934201  1.0
  Cs  Cs5  1  0.35417354  0.50862841  0.68934201  1.0
  Cs  Cs6  1  0.85417354  0.99137159  0.81065799  1.0
  Cs  Cs7  1  0.85417354  0.50862841  0.81065799  1.0
  Cs  Cs8  1  0.57329531  0.25000000  0.85852657  1.0
  Cs  Cs9  1  0.07329531  0.25000000  0.64147343  1.0
  Cs  Cs10  1  0.42670469  0.75000000  0.14147343  1.0
  Cs  Cs11  1  0.92670469  0.75000000  0.35852657  1.0
  As  As12  1  0.88641096  0.25000000  0.22335701  1.0
  As  As13  1  0.38641096  0.25000000  0.27664299  1.0
  As  As14  1  0.11358904  0.75000000  0.77664299  1.0
  As  As15  1  0.61358904  0.75000000  0.72335701  1.0
  O  O16  1  0.89165868  0.40613524  0.37010156  1.0
  O  O17  1  0.89165868  0.09386476  0.37010156  1.0
  O  O18  1  0.39165868  0.40613524  0.12989844  1.0
  O  O19  1  0.39165868  0.09386476  0.12989844  1.0
  O  O20  1  0.10834132  0.90613524  0.62989844  1.0
  O  O21  1  0.10834132  0.59386476  0.62989844  1.0
  O  O22  1  0.60834132  0.90613524  0.87010156  1.0
  O  O23  1  0.60834132  0.59386476  0.87010156  1.0
  O  O24  1  0.99255630  0.25000000  0.05659898  1.0
  O  O25  1  0.49255630  0.25000000  0.44340102  1.0
  O  O26  1  0.00744370  0.75000000  0.94340102  1.0
  O  O27  1  0.50744370  0.75000000  0.55659898  1.0
  O  O28  1  0.76948063  0.25000000  0.08463169  1.0
  O  O29  1  0.26948063  0.25000000  0.41536831  1.0
  O  O30  1  0.23051937  0.75000000  0.91536831  1.0
  O  O31  1  0.73051937  0.75000000  0.58463169  1.0
