# generated using pymatgen
data_Tl2ZnN12
_symmetry_space_group_name_H-M   'P 1'
_cell_length_a   20.90986048
_cell_length_b   6.74312233
_cell_length_c   7.37046651
_cell_angle_alpha   90.00000000
_cell_angle_beta   90.00000000
_cell_angle_gamma   90.00000000
_symmetry_Int_Tables_number   1
_chemical_formula_structural   Tl2ZnN12
_chemical_formula_sum   'Tl8 Zn4 N48'
_cell_volume   1039.21917332
_cell_formula_units_Z   4
loop_
 _symmetry_equiv_pos_site_id
 _symmetry_equiv_pos_as_xyz
  1  'x, y, z'
loop_
 _atom_site_type_symbol
 _atom_site_label
 _atom_site_symmetry_multiplicity
 _atom_site_fract_x
 _atom_site_fract_y
 _atom_site_fract_z
 _atom_site_occupancy
  Tl  Tl0  1  0.19896920  0.66593976  0.61337237  1.0
  Tl  Tl1  1  0.69896920  0.33406024  0.61337237  1.0
  Tl  Tl2  1  0.80103080  0.33406024  0.11337237  1.0
  Tl  Tl3  1  0.30103080  0.66593976  0.11337237  1.0
  Tl  Tl4  1  0.00042115  0.69497271  0.80014367  1.0
  Tl  Tl5  1  0.50042115  0.30502729  0.80014367  1.0
  Tl  Tl6  1  0.99957885  0.30502729  0.30014367  1.0
  Tl  Tl7  1  0.49957885  0.69497271  0.30014367  1.0
  Zn  Zn8  1  0.36874227  0.04175484  0.54000164  1.0
  Zn  Zn9  1  0.86874227  0.95824516  0.54000164  1.0
  Zn  Zn10  1  0.63125773  0.95824516  0.04000164  1.0
  Zn  Zn11  1  0.13125773  0.04175484  0.04000164  1.0
  N  N12  1  0.39492050  0.33830947  0.56755372  1.0
  N  N13  1  0.89492050  0.66169053  0.56755372  1.0
  N  N14  1  0.60507950  0.66169053  0.06755372  1.0
  N  N15  1  0.10507950  0.33830947  0.06755372  1.0
  N  N16  1  0.36566792  0.48529927  0.53390912  1.0
  N  N17  1  0.86566792  0.51470073  0.53390912  1.0
  N  N18  1  0.63433208  0.51470073  0.03390912  1.0
  N  N19  1  0.13433208  0.48529927  0.03390912  1.0
  N  N20  1  0.33877709  0.63320627  0.50062386  1.0
  N  N21  1  0.83877709  0.36679373  0.50062386  1.0
  N  N22  1  0.66122291  0.36679373  0.00062386  1.0
  N  N23  1  0.16122291  0.63320627  0.00062386  1.0
  N  N24  1  0.28835280  0.01613882  0.68308328  1.0
  N  N25  1  0.78835280  0.98386118  0.68308328  1.0
  N  N26  1  0.71164720  0.98386118  0.18308328  1.0
  N  N27  1  0.21164720  0.01613882  0.18308328  1.0
  N  N28  1  0.26802814  0.16653797  0.74965057  1.0
  N  N29  1  0.76802814  0.83346203  0.74965057  1.0
  N  N30  1  0.73197186  0.83346203  0.24965057  1.0
  N  N31  1  0.23197186  0.16653797  0.24965057  1.0
  N  N32  1  0.24695661  0.30817873  0.81660713  1.0
  N  N33  1  0.74695661  0.69182127  0.81660713  1.0
  N  N34  1  0.75304339  0.69182127  0.31660713  1.0
  N  N35  1  0.25304339  0.30817873  0.31660713  1.0
  N  N36  1  0.12149163  -0.00211957  0.77389699  1.0
  N  N37  1  0.62149163  1.00211957  0.77389699  1.0
  N  N38  1  0.87850837  1.00211957  0.27389699  1.0
  N  N39  1  0.37850837  -0.00211957  0.27389699  1.0
  N  N40  1  0.10942443  0.13548041  0.67589625  1.0
  N  N41  1  0.60942443  0.86451959  0.67589625  1.0
  N  N42  1  0.89057557  0.86451959  0.17589625  1.0
  N  N43  1  0.39057557  0.13548041  0.17589625  1.0
  N  N44  1  0.09813339  0.26529771  0.57712176  1.0
  N  N45  1  0.59813339  0.73470229  0.57712176  1.0
  N  N46  1  0.90186661  0.73470229  0.07712176  1.0
  N  N47  1  0.40186661  0.26529771  0.07712176  1.0
  N  N48  1  0.94165264  0.30197823  0.90862710  1.0
  N  N49  1  0.44165264  0.69802177  0.90862710  1.0
  N  N50  1  0.05834736  0.69802177  0.40862710  1.0
  N  N51  1  0.55834736  0.30197823  0.40862710  1.0
  N  N52  1  0.94295549  0.18230692  0.79463147  1.0
  N  N53  1  0.44295549  0.81769308  0.79463147  1.0
  N  N54  1  0.05704451  0.81769308  0.29463147  1.0
  N  N55  1  0.55704451  0.18230692  0.29463147  1.0
  N  N56  1  0.94629130  0.05974346  0.67708106  1.0
  N  N57  1  0.44629130  0.94025654  0.67708106  1.0
  N  N58  1  0.05370870  0.94025654  0.17708106  1.0
  N  N59  1  0.55370870  0.05974346  0.17708106  1.0
