# generated using pymatgen
data_Ba3CaIr2O9
_symmetry_space_group_name_H-M   'P 1'
_cell_length_a   5.94399373
_cell_length_b   5.94399373
_cell_length_c   14.71326170
_cell_angle_alpha   89.11656795
_cell_angle_beta   90.88343205
_cell_angle_gamma   60.14422018
_symmetry_Int_Tables_number   1
_chemical_formula_structural   Ba3CaIr2O9
_chemical_formula_sum   'Ba6 Ca2 Ir4 O18'
_cell_volume   450.62979586
_cell_formula_units_Z   2
loop_
 _symmetry_equiv_pos_site_id
 _symmetry_equiv_pos_as_xyz
  1  'x, y, z'
loop_
 _atom_site_type_symbol
 _atom_site_label
 _atom_site_symmetry_multiplicity
 _atom_site_fract_x
 _atom_site_fract_y
 _atom_site_fract_z
 _atom_site_occupancy
  O  O0  1  0.51046216  -0.02553620  0.24132017  1.0
  O  O1  1  1.02553620  0.48953784  0.74132017  1.0
  O  O2  1  0.97446380  -0.48953784  0.25867983  1.0
  O  O3  1  1.48953784  0.02553620  0.75867983  1.0
  O  O4  1  0.79784235  -0.15553027  0.41121685  1.0
  O  O5  1  1.15553027  0.20215765  0.91121685  1.0
  O  O6  1  0.84446973  -0.20215765  0.08878315  1.0
  O  O7  1  1.20215765  0.15553027  0.58878315  1.0
  O  O8  1  0.38295917  -0.20322694  0.07920617  1.0
  O  O9  1  1.20322694  0.61704083  0.57920617  1.0
  O  O10  1  0.79677306  -0.61704083  0.42079383  1.0
  O  O11  1  1.61704083  0.20322694  0.92079383  1.0
  O  O12  1  0.51071000  -0.48929000  0.25000000  1.0
  O  O13  1  1.48929000  0.48929000  0.75000000  1.0
  O  O14  1  0.33394873  -0.15565925  0.40361889  1.0
  O  O15  1  1.15565925  0.66605127  0.90361889  1.0
  O  O16  1  0.84434075  -0.66605127  0.09638111  1.0
  O  O17  1  1.66605127  0.15565925  0.59638111  1.0
  Ir  Ir18  1  0.65350890  -0.32178629  0.33660586  1.0
  Ir  Ir19  1  1.32178629  0.34649110  0.83660586  1.0
  Ir  Ir20  1  0.67821371  -0.34649110  0.16339414  1.0
  Ir  Ir21  1  1.34649110  0.32178629  0.66339414  1.0
  Ba  Ba22  1  1.32771058  0.33810764  0.41383495  1.0
  Ba  Ba23  1  0.66189236  -0.32771058  0.91383495  1.0
  Ba  Ba24  1  1.33810764  0.32771058  0.08616505  1.0
  Ba  Ba25  1  0.67228942  -0.33810764  0.58616505  1.0
  Ba  Ba26  1  0.99683944  -0.00316056  0.25000000  1.0
  Ba  Ba27  1  1.00316056  0.00316056  0.75000000  1.0
  Ca  Ca28  1  0.00000000  -0.00000000  0.50000000  1.0
  Ca  Ca29  1  0.00000000  0.00000000  0.00000000  1.0
