# generated using pymatgen
data_CaP2(HO2)4
_symmetry_space_group_name_H-M   'P 1'
_cell_length_a   8.25811664
_cell_length_b   5.59633372
_cell_length_c   8.75858129
_cell_angle_alpha   115.53881923
_cell_angle_beta   107.72279413
_cell_angle_gamma   79.73289361
_symmetry_Int_Tables_number   1
_chemical_formula_structural   CaP2(HO2)4
_chemical_formula_sum   'Ca2 P4 H8 O16'
_cell_volume   347.37558849
_cell_formula_units_Z   2
loop_
 _symmetry_equiv_pos_site_id
 _symmetry_equiv_pos_as_xyz
  1  'x, y, z'
loop_
 _atom_site_type_symbol
 _atom_site_label
 _atom_site_symmetry_multiplicity
 _atom_site_fract_x
 _atom_site_fract_y
 _atom_site_fract_z
 _atom_site_occupancy
  Ca  Ca0  1  0.64145735  0.72315086  -0.48949148  1.0
  Ca  Ca1  1  0.35854265  0.27684914  -0.51050852  1.0
  P  P2  1  0.76712898  0.25867640  -0.16838185  1.0
  P  P3  1  0.23287102  0.74132360  -0.83161815  1.0
  P  P4  1  0.30481179  0.94996925  -0.27487374  1.0
  P  P5  1  0.69518821  0.05003075  -0.72512626  1.0
  H  H6  1  0.66749512  0.56837998  -0.95948890  1.0
  H  H7  1  0.33250488  0.43162002  -0.04051110  1.0
  H  H8  1  -0.03260317  -0.06497545  -0.20933008  1.0
  H  H9  1  1.03260317  1.06497545  -0.79066992  1.0
  H  H10  1  0.19532628  0.72187577  -0.18470894  1.0
  H  H11  1  0.80467372  0.27812423  -0.81529106  1.0
  H  H12  1  0.00000000  0.50000000  -0.00000000  1.0
  H  H13  1  0.50000000  -0.00000000  0.00000000  1.0
  O  O14  1  0.61167846  0.21100484  -0.32259405  1.0
  O  O15  1  0.38832154  0.78899516  -0.67740595  1.0
  O  O16  1  0.90343833  0.43191998  -0.14696509  1.0
  O  O17  1  0.09656167  0.56808002  -0.85303491  1.0
  O  O18  1  0.71275119  0.37587539  -0.98815541  1.0
  O  O19  1  0.28724881  0.62412461  -0.01184459  1.0
  O  O20  1  0.84917166  -0.03453632  -0.19118869  1.0
  O  O21  1  0.15082834  1.03453632  -0.80881131  1.0
  O  O22  1  0.42511898  0.71638941  -0.35869097  1.0
  O  O23  1  0.57488102  0.28361059  -0.64130903  1.0
  O  O24  1  0.14895184  0.80732568  -0.26983076  1.0
  O  O25  1  0.85104816  0.19267432  -0.73016924  1.0
  O  O26  1  0.22863066  0.12732515  -0.37211964  1.0
  O  O27  1  0.77136934  0.87267485  -0.62788036  1.0
  O  O28  1  0.39340961  0.11651943  -0.07865043  1.0
  O  O29  1  0.60659039  0.88348057  -0.92134957  1.0
