# generated using pymatgen
data_Y2WO6
_symmetry_space_group_name_H-M   'P 1'
_cell_length_a   5.25315589
_cell_length_b   9.11914933
_cell_length_c   9.97101754
_cell_angle_alpha   90.00000000
_cell_angle_beta   90.00000000
_cell_angle_gamma   90.00000000
_symmetry_Int_Tables_number   1
_chemical_formula_structural   Y2WO6
_chemical_formula_sum   'Y8 W4 O24'
_cell_volume   477.65474554
_cell_formula_units_Z   4
loop_
 _symmetry_equiv_pos_site_id
 _symmetry_equiv_pos_as_xyz
  1  'x, y, z'
loop_
 _atom_site_type_symbol
 _atom_site_label
 _atom_site_symmetry_multiplicity
 _atom_site_fract_x
 _atom_site_fract_y
 _atom_site_fract_z
 _atom_site_occupancy
  Y  Y0  1  0.48288705  0.89704252  0.03484793  1.0
  Y  Y1  1  0.98288705  0.60295748  0.96515207  1.0
  Y  Y2  1  0.51711295  0.39704252  0.46515207  1.0
  Y  Y3  1  0.01711295  0.10295748  0.53484793  1.0
  Y  Y4  1  0.46147665  0.78041865  0.62782341  1.0
  Y  Y5  1  0.96147665  0.71958135  0.37217659  1.0
  Y  Y6  1  0.53852335  0.28041865  0.87217659  1.0
  Y  Y7  1  0.03852335  0.21958135  0.12782341  1.0
  W  W8  1  0.96190127  0.99508440  0.84740200  1.0
  W  W9  1  0.46190127  0.50491560  0.15259800  1.0
  W  W10  1  0.03809873  0.49508440  0.65259800  1.0
  W  W11  1  0.53809873  0.00491560  0.34740200  1.0
  O  O12  1  0.31723916  0.36322114  0.68046570  1.0
  O  O13  1  0.81723916  0.13677886  0.31953430  1.0
  O  O14  1  0.68276084  0.86322114  0.81953430  1.0
  O  O15  1  0.18276084  0.63677886  0.18046570  1.0
  O  O16  1  0.24622412  0.58922186  0.50532334  1.0
  O  O17  1  0.74622412  0.91077814  0.49467666  1.0
  O  O18  1  0.75377588  0.08922186  0.99467666  1.0
  O  O19  1  0.25377588  0.41077814  0.00532334  1.0
  O  O20  1  0.19269726  0.64000368  0.76303213  1.0
  O  O21  1  0.69269726  0.85999632  0.23696787  1.0
  O  O22  1  0.80730274  0.14000368  0.73696787  1.0
  O  O23  1  0.30730274  0.35999632  0.26303213  1.0
  O  O24  1  0.17556928  0.95345199  0.70253728  1.0
  O  O25  1  0.67556928  0.54654801  0.29746272  1.0
  O  O26  1  0.82443072  0.45345199  0.79746272  1.0
  O  O27  1  0.32443072  0.04654801  0.20253728  1.0
  O  O28  1  0.08819523  0.84312849  0.96800436  1.0
  O  O29  1  0.58819523  0.65687151  0.03199564  1.0
  O  O30  1  0.91180477  0.34312849  0.53199564  1.0
  O  O31  1  0.41180477  0.15687151  0.46800436  1.0
  O  O32  1  0.76806612  0.61455013  0.56775732  1.0
  O  O33  1  0.26806612  0.88544987  0.43224268  1.0
  O  O34  1  0.23193388  0.11455013  0.93224268  1.0
  O  O35  1  0.73193388  0.38544987  0.06775732  1.0
