# generated using pymatgen
data_Ba2GaBiSe5
_symmetry_space_group_name_H-M   'P 1'
_cell_length_a   12.86562241
_cell_length_b   9.24298539
_cell_length_c   9.49944673
_cell_angle_alpha   90.00000000
_cell_angle_beta   90.00000000
_cell_angle_gamma   90.00000000
_symmetry_Int_Tables_number   1
_chemical_formula_structural   Ba2GaBiSe5
_chemical_formula_sum   'Ba8 Ga4 Bi4 Se20'
_cell_volume   1129.64342580
_cell_formula_units_Z   4
loop_
 _symmetry_equiv_pos_site_id
 _symmetry_equiv_pos_as_xyz
  1  'x, y, z'
loop_
 _atom_site_type_symbol
 _atom_site_label
 _atom_site_symmetry_multiplicity
 _atom_site_fract_x
 _atom_site_fract_y
 _atom_site_fract_z
 _atom_site_occupancy
  Ba  Ba0  1  0.17653261  0.99325666  0.88120312  1.0
  Ba  Ba1  1  0.17653261  0.50674334  0.88120312  1.0
  Ba  Ba2  1  0.67653261  0.99325666  0.61879688  1.0
  Ba  Ba3  1  0.67653261  0.50674334  0.61879688  1.0
  Ba  Ba4  1  0.82346739  0.49325666  0.11879688  1.0
  Ba  Ba5  1  0.82346739  0.00674334  0.11879688  1.0
  Ba  Ba6  1  0.32346739  0.49325666  0.38120312  1.0
  Ba  Ba7  1  0.32346739  0.00674334  0.38120312  1.0
  Ga  Ga8  1  0.40246616  0.75000000  0.66941726  1.0
  Ga  Ga9  1  0.90246616  0.75000000  0.83058274  1.0
  Ga  Ga10  1  0.59753384  0.25000000  0.33058274  1.0
  Ga  Ga11  1  0.09753384  0.25000000  0.16941726  1.0
  Bi  Bi12  1  0.47588117  0.75000000  0.02998308  1.0
  Bi  Bi13  1  0.97588117  0.75000000  0.47001692  1.0
  Bi  Bi14  1  0.52411883  0.25000000  0.97001692  1.0
  Bi  Bi15  1  0.02411883  0.25000000  0.52998308  1.0
  Se  Se16  1  0.44139393  0.95942951  0.82229104  1.0
  Se  Se17  1  0.44139393  0.54057049  0.82229104  1.0
  Se  Se18  1  0.94139393  0.95942951  0.67770896  1.0
  Se  Se19  1  0.94139393  0.54057049  0.67770896  1.0
  Se  Se20  1  0.55860607  0.45942951  0.17770896  1.0
  Se  Se21  1  0.55860607  0.04057049  0.17770896  1.0
  Se  Se22  1  0.05860607  0.45942951  0.32229104  1.0
  Se  Se23  1  0.05860607  0.04057049  0.32229104  1.0
  Se  Se24  1  0.27917159  0.75000000  0.12747523  1.0
  Se  Se25  1  0.77917159  0.75000000  0.37252477  1.0
  Se  Se26  1  0.72082841  0.25000000  0.87252477  1.0
  Se  Se27  1  0.22082841  0.25000000  0.62747523  1.0
  Se  Se28  1  0.21954055  0.75000000  0.61776968  1.0
  Se  Se29  1  0.71954055  0.75000000  0.88223032  1.0
  Se  Se30  1  0.78045945  0.25000000  0.38223032  1.0
  Se  Se31  1  0.28045945  0.25000000  0.11776968  1.0
  Se  Se32  1  0.00738491  0.75000000  0.03584184  1.0
  Se  Se33  1  0.50738491  0.75000000  0.46415816  1.0
  Se  Se34  1  0.99261509  0.25000000  0.96415816  1.0
  Se  Se35  1  0.49261509  0.25000000  0.53584184  1.0
