# generated using pymatgen
data_KNa2(PO3)3
_symmetry_space_group_name_H-M   'P 1'
_cell_length_a   9.60824501
_cell_length_b   7.07246108
_cell_length_c   6.85636559
_cell_angle_alpha   104.56519726
_cell_angle_beta   109.36101263
_cell_angle_gamma   87.14804042
_symmetry_Int_Tables_number   1
_chemical_formula_structural   KNa2(PO3)3
_chemical_formula_sum   'K2 Na4 P6 O18'
_cell_volume   425.15352399
_cell_formula_units_Z   2
loop_
 _symmetry_equiv_pos_site_id
 _symmetry_equiv_pos_as_xyz
  1  'x, y, z'
loop_
 _atom_site_type_symbol
 _atom_site_label
 _atom_site_symmetry_multiplicity
 _atom_site_fract_x
 _atom_site_fract_y
 _atom_site_fract_z
 _atom_site_occupancy
  K  K0  1  0.33294380  0.04038596  -0.85085456  1.0
  K  K1  1  0.66705620  0.95961404  -0.14914544  1.0
  Na  Na2  1  0.99041497  0.71125321  -0.28273364  1.0
  Na  Na3  1  0.00958503  0.28874679  -0.71726636  1.0
  Na  Na4  1  0.66882983  0.57896944  -0.76806270  1.0
  Na  Na5  1  0.33117017  0.42103056  -0.23193730  1.0
  P  P6  1  0.30422298  0.54404528  -0.70977348  1.0
  P  P7  1  0.69577702  0.45595472  -0.29022652  1.0
  P  P8  1  0.97294024  0.24472592  -0.24106890  1.0
  P  P9  1  0.02705976  0.75527408  -0.75893110  1.0
  P  P10  1  0.71651265  0.11820086  -0.62298335  1.0
  P  P11  1  0.28348735  0.88179914  -0.37701665  1.0
  O  O12  1  0.84960519  0.37306617  -0.15018010  1.0
  O  O13  1  0.15039481  0.62693383  -0.84981990  1.0
  O  O14  1  0.06045442  0.14900016  -0.06952702  1.0
  O  O15  1  0.93954558  0.85099984  -0.93047298  1.0
  O  O16  1  0.62592999  0.25469704  -0.47599166  1.0
  O  O17  1  0.37407001  0.74530296  -0.52400834  1.0
  O  O18  1  0.73176708  0.60725827  -0.38850204  1.0
  O  O19  1  0.26823292  0.39274173  -0.61149796  1.0
  O  O20  1  0.40096036  0.49511045  -0.84671780  1.0
  O  O21  1  0.59903964  0.50488955  -0.15328220  1.0
  O  O22  1  0.86244197  0.07276191  -0.43423212  1.0
  O  O23  1  0.13755803  0.92723809  -0.56576788  1.0
  O  O24  1  0.75891531  0.23520139  -0.75179136  1.0
  O  O25  1  0.24108469  0.76479861  -0.24820864  1.0
  O  O26  1  0.95298128  0.63583696  -0.66545232  1.0
  O  O27  1  0.04701872  0.36416304  -0.33454768  1.0
  O  O28  1  0.37314112  0.06920003  -0.26397674  1.0
  O  O29  1  0.62685888  0.93079997  -0.73602326  1.0
