# generated using pymatgen
data_Sc(P2Ru3)2
_symmetry_space_group_name_H-M   'P 1'
_cell_length_a   6.91604948
_cell_length_b   6.91604948
_cell_length_c   3.67579809
_cell_angle_alpha   90.00000000
_cell_angle_beta   90.00000000
_cell_angle_gamma   120.00000000
_symmetry_Int_Tables_number   1
_chemical_formula_structural   Sc(P2Ru3)2
_chemical_formula_sum   'Sc1 P4 Ru6'
_cell_volume   152.26443072
_cell_formula_units_Z   1
loop_
 _symmetry_equiv_pos_site_id
 _symmetry_equiv_pos_as_xyz
  1  'x, y, z'
loop_
 _atom_site_type_symbol
 _atom_site_label
 _atom_site_symmetry_multiplicity
 _atom_site_fract_x
 _atom_site_fract_y
 _atom_site_fract_z
 _atom_site_occupancy
  Sc  Sc0  1  0.00000000  0.00000000  0.00000000  1.0
  P  P1  1  0.37424643  0.18712321  0.50000000  1.0
  P  P2  1  0.81287679  0.18712321  0.50000000  1.0
  P  P3  1  0.81287679  0.62575357  0.50000000  1.0
  P  P4  1  0.33333333  0.66666667  0.00000000  1.0
  Ru  Ru5  1  0.60673358  0.80336679  0.50000000  1.0
  Ru  Ru6  1  0.19663321  0.80336679  0.50000000  1.0
  Ru  Ru7  1  0.19663321  0.39326642  0.50000000  1.0
  Ru  Ru8  1  0.92906970  0.46453485  -0.00000000  1.0
  Ru  Ru9  1  0.53546515  0.46453485  0.00000000  1.0
  Ru  Ru10  1  0.53546515  0.07093030  0.00000000  1.0
