# generated using pymatgen
data_LiVCuO4
_symmetry_space_group_name_H-M   'P 1'
_cell_length_a   6.07863154
_cell_length_b   6.07863154
_cell_length_c   6.07863154
_cell_angle_alpha   124.32451403
_cell_angle_beta   123.20167357
_cell_angle_gamma   83.60010515
_symmetry_Int_Tables_number   1
_chemical_formula_structural   LiVCuO4
_chemical_formula_sum   'Li2 V2 Cu2 O8'
_cell_volume   148.74804300
_cell_formula_units_Z   2
loop_
 _symmetry_equiv_pos_site_id
 _symmetry_equiv_pos_as_xyz
  1  'x, y, z'
loop_
 _atom_site_type_symbol
 _atom_site_label
 _atom_site_symmetry_multiplicity
 _atom_site_fract_x
 _atom_site_fract_y
 _atom_site_fract_z
 _atom_site_occupancy
  Li  Li0  1  1.00000000  0.50000000  1.00000000  1.0
  Li  Li1  1  1.00000000  1.00000000  1.50000000  1.0
  Cu  Cu2  1  0.50000000  0.00000000  0.50000000  1.0
  Cu  Cu3  1  0.00000000  0.00000000  0.00000000  1.0
  V  V4  1  0.63398430  0.38398430  0.25000000  1.0
  V  V5  1  0.36601570  0.61601570  0.75000000  1.0
  O  O6  1  0.70949758  0.72295126  0.98654632  1.0
  O  O7  1  0.76359506  0.27704874  0.48654632  1.0
  O  O8  1  0.29050242  0.27704874  0.01345368  1.0
  O  O9  1  0.23640494  0.72295126  0.51345368  1.0
  O  O10  1  0.74762307  0.76085670  1.51323363  1.0
  O  O11  1  1.25237693  1.23914330  1.48676637  1.0
  O  O12  1  1.25237693  0.76561055  1.01323363  1.0
  O  O13  1  0.74762307  0.23438945  0.98676637  1.0
