# generated using pymatgen
data_LiAlH4
_symmetry_space_group_name_H-M   'P 1'
_cell_length_a   6.05267017
_cell_length_b   6.05267017
_cell_length_c   4.57417192
_cell_angle_alpha   67.79293791
_cell_angle_beta   112.20706209
_cell_angle_gamma   64.64115275
_symmetry_Int_Tables_number   1
_chemical_formula_structural   LiAlH4
_chemical_formula_sum   'Li2 Al2 H8'
_cell_volume   107.10450799
_cell_formula_units_Z   2
loop_
 _symmetry_equiv_pos_site_id
 _symmetry_equiv_pos_as_xyz
  1  'x, y, z'
loop_
 _atom_site_type_symbol
 _atom_site_label
 _atom_site_symmetry_multiplicity
 _atom_site_fract_x
 _atom_site_fract_y
 _atom_site_fract_z
 _atom_site_occupancy
  Li  Li0  1  0.62511532  0.62511532  0.75000000  1.0
  Li  Li1  1  1.37488468  0.37488468  0.25000000  1.0
  Al  Al2  1  1.12490278  0.12490278  0.75000000  1.0
  Al  Al3  1  0.87509722  0.87509722  0.25000000  1.0
  H  H4  1  1.38327173  0.03463496  0.17775087  1.0
  H  H5  1  0.96536504  0.61672827  0.67775087  1.0
  H  H6  1  1.03463496  0.38327173  0.32224913  1.0
  H  H7  1  1.61672827  -0.03463496  0.82224913  1.0
  H  H8  1  1.70567063  0.21230627  0.17126215  1.0
  H  H9  1  0.78769373  0.29432937  0.67126215  1.0
  H  H10  1  1.21230627  0.70567063  0.32873785  1.0
  H  H11  1  1.29432937  -0.21230627  0.82873785  1.0
