# generated using pymatgen
data_In2Se3
_symmetry_space_group_name_H-M   'P 1'
_cell_length_a   7.32815771
_cell_length_b   7.32815771
_cell_length_c   19.91736010
_cell_angle_alpha   90.00000000
_cell_angle_beta   90.00000000
_cell_angle_gamma   120.00000000
_symmetry_Int_Tables_number   1
_chemical_formula_structural   In2Se3
_chemical_formula_sum   'In12 Se18'
_cell_volume   926.30076356
_cell_formula_units_Z   6
loop_
 _symmetry_equiv_pos_site_id
 _symmetry_equiv_pos_as_xyz
  1  'x, y, z'
loop_
 _atom_site_type_symbol
 _atom_site_label
 _atom_site_symmetry_multiplicity
 _atom_site_fract_x
 _atom_site_fract_y
 _atom_site_fract_z
 _atom_site_occupancy
  In  In0  1  0.30208421  0.99824534  0.66651727  1.0
  In  In1  1  0.99824534  0.69616113  0.49985061  1.0
  In  In2  1  0.69616113  0.69791579  0.33318394  1.0
  In  In3  1  0.00175466  0.30383887  -0.00014939  1.0
  In  In4  1  0.69791579  0.00175466  0.16651727  1.0
  In  In5  1  0.30383887  0.30208421  0.83318394  1.0
  In  In6  1  0.66409692  0.65240986  0.97042507  1.0
  In  In7  1  0.65240986  0.98831293  0.80375840  1.0
  In  In8  1  0.98831293  0.33590308  0.63709173  1.0
  In  In9  1  0.34759014  0.01168707  0.30375840  1.0
  In  In10  1  0.33590308  0.34759014  0.47042507  1.0
  In  In11  1  0.01168707  0.66409692  0.13709173  1.0
  Se  Se12  1  0.27055869  0.93159790  0.80949430  1.0
  Se  Se13  1  0.93159790  0.66103922  0.64282763  1.0
  Se  Se14  1  0.66103922  0.72944131  0.47616096  1.0
  Se  Se15  1  0.06840210  0.33896078  0.14282763  1.0
  Se  Se16  1  0.72944131  0.06840210  0.30949430  1.0
  Se  Se17  1  0.33896078  0.27055869  0.97616096  1.0
  Se  Se18  1  0.68479714  0.65565932  0.83642692  1.0
  Se  Se19  1  0.65565932  0.97086218  0.66976025  1.0
  Se  Se20  1  0.97086218  0.31520286  0.50309358  1.0
  Se  Se21  1  0.34434068  0.02913782  0.16976025  1.0
  Se  Se22  1  0.31520286  0.34434068  0.33642692  1.0
  Se  Se23  1  0.02913782  0.68479714  0.00309358  1.0
  Se  Se24  1  0.66804676  0.63096471  0.18626978  1.0
  Se  Se25  1  0.63096471  0.96291795  0.01960311  1.0
  Se  Se26  1  0.96291795  0.33195324  0.85293644  1.0
  Se  Se27  1  0.36903529  0.03708205  0.51960311  1.0
  Se  Se28  1  0.33195324  0.36903529  0.68626978  1.0
  Se  Se29  1  0.03708205  0.66804676  0.35293644  1.0
