# generated using pymatgen
data_CS14
_symmetry_space_group_name_H-M   'P 1'
_cell_length_a   8.00970465
_cell_length_b   8.00970465
_cell_length_c   8.00970465
_cell_angle_alpha   94.22415038
_cell_angle_beta   94.22415038
_cell_angle_gamma   94.22415038
_symmetry_Int_Tables_number   1
_chemical_formula_structural   CS14
_chemical_formula_sum   'C1 S14'
_cell_volume   509.45926947
_cell_formula_units_Z   1
loop_
 _symmetry_equiv_pos_site_id
 _symmetry_equiv_pos_as_xyz
  1  'x, y, z'
loop_
 _atom_site_type_symbol
 _atom_site_label
 _atom_site_symmetry_multiplicity
 _atom_site_fract_x
 _atom_site_fract_y
 _atom_site_fract_z
 _atom_site_occupancy
  C  C0  1  0.00000000  0.00000000  0.00000000  1.0
  S  S1  1  1.28948188  0.28948188  -0.34248330  1.0
  S  S2  1  1.28948188  -0.34248330  0.28948188  1.0
  S  S3  1  1.34248330  0.71051812  -0.28948188  1.0
  S  S4  1  0.71051812  1.34248330  -0.28948188  1.0
  S  S5  1  0.71051812  0.71051812  0.34248330  1.0
  S  S6  1  0.65751670  0.28948188  0.28948188  1.0
  S  S7  1  1.21248082  0.50000000  -0.21248082  1.0
  S  S8  1  1.21248082  -0.21248082  0.50000000  1.0
  S  S9  1  0.50000000  1.21248082  -0.21248082  1.0
  S  S10  1  0.50000000  0.78751918  0.21248082  1.0
  S  S11  1  0.78751918  0.50000000  0.21248082  1.0
  S  S12  1  0.78751918  0.21248082  0.50000000  1.0
  S  S13  1  0.87815732  0.87815732  0.87815732  1.0
  S  S14  1  0.12184268  0.12184268  0.12184268  1.0
