# generated using pymatgen
data_TaPt3
_symmetry_space_group_name_H-M   'P 1'
_cell_length_a   4.92003698
_cell_length_b   5.59651836
_cell_length_c   9.37042690
_cell_angle_alpha   90.00000000
_cell_angle_beta   100.58075331
_cell_angle_gamma   90.00000000
_symmetry_Int_Tables_number   1
_chemical_formula_structural   TaPt3
_chemical_formula_sum   'Ta4 Pt12'
_cell_volume   253.62841505
_cell_formula_units_Z   4
loop_
 _symmetry_equiv_pos_site_id
 _symmetry_equiv_pos_as_xyz
  1  'x, y, z'
loop_
 _atom_site_type_symbol
 _atom_site_label
 _atom_site_symmetry_multiplicity
 _atom_site_fract_x
 _atom_site_fract_y
 _atom_site_fract_z
 _atom_site_occupancy
  Ta  Ta0  1  0.37849053  0.75000000  0.62244727  1.0
  Ta  Ta1  1  0.62150947  0.25000000  0.37755273  1.0
  Ta  Ta2  1  0.21244038  0.75000000  0.12709397  1.0
  Ta  Ta3  1  0.78755962  0.25000000  0.87290603  1.0
  Pt  Pt4  1  0.87968626  0.99870449  0.62568303  1.0
  Pt  Pt5  1  0.87968626  0.50129551  0.62568303  1.0
  Pt  Pt6  1  0.12031374  0.49870449  0.37431697  1.0
  Pt  Pt7  1  0.12031374  0.00129551  0.37431697  1.0
  Pt  Pt8  1  0.29137821  0.99862465  0.87709615  1.0
  Pt  Pt9  1  0.29137821  0.50137535  0.87709615  1.0
  Pt  Pt10  1  0.70862179  0.49862465  0.12290385  1.0
  Pt  Pt11  1  0.70862179  0.00137535  0.12290385  1.0
  Pt  Pt12  1  0.79232038  0.75000000  0.87177170  1.0
  Pt  Pt13  1  0.20767962  0.25000000  0.12822830  1.0
  Pt  Pt14  1  0.60808164  0.75000000  0.37572201  1.0
  Pt  Pt15  1  0.39191836  0.25000000  0.62427799  1.0
