# generated using pymatgen
data_LaAsRh
_symmetry_space_group_name_H-M   'P 1'
_cell_length_a   8.11339564
_cell_length_b   8.11339564
_cell_length_c   8.11339564
_cell_angle_alpha   149.92096775
_cell_angle_beta   149.92096775
_cell_angle_gamma   43.05742589
_symmetry_Int_Tables_number   1
_chemical_formula_structural   LaAsRh
_chemical_formula_sum   'La2 As2 Rh2'
_cell_volume   133.80894478
_cell_formula_units_Z   2
loop_
 _symmetry_equiv_pos_site_id
 _symmetry_equiv_pos_as_xyz
  1  'x, y, z'
loop_
 _atom_site_type_symbol
 _atom_site_label
 _atom_site_symmetry_multiplicity
 _atom_site_fract_x
 _atom_site_fract_y
 _atom_site_fract_z
 _atom_site_occupancy
  La  La0  1  0.58188725  0.58188725  1.00000000  1.0
  La  La1  1  0.33188725  0.83188725  0.50000000  1.0
  As  As2  1  0.16263342  0.16263342  0.00000000  1.0
  As  As3  1  0.91263342  0.41263342  0.50000000  1.0
  Rh  Rh4  1  -0.00182067  -0.00182067  -0.00000000  1.0
  Rh  Rh5  1  0.74817933  0.24817933  0.50000000  1.0
