# generated using pymatgen
data_Si2P2Pt
_symmetry_space_group_name_H-M   'P 1'
_cell_length_a   6.06677450
_cell_length_b   9.61471732
_cell_length_c   12.12321849
_cell_angle_alpha   90.00000000
_cell_angle_beta   103.02704025
_cell_angle_gamma   90.00000000
_symmetry_Int_Tables_number   1
_chemical_formula_structural   Si2P2Pt
_chemical_formula_sum   'Si16 P16 Pt8'
_cell_volume   688.95184553
_cell_formula_units_Z   8
loop_
 _symmetry_equiv_pos_site_id
 _symmetry_equiv_pos_as_xyz
  1  'x, y, z'
loop_
 _atom_site_type_symbol
 _atom_site_label
 _atom_site_symmetry_multiplicity
 _atom_site_fract_x
 _atom_site_fract_y
 _atom_site_fract_z
 _atom_site_occupancy
  Si  Si0  1  0.94860132  0.83659463  0.33006833  1.0
  Si  Si1  1  0.05139868  0.33659463  0.66993167  1.0
  Si  Si2  1  0.95429633  0.97155449  0.66365759  1.0
  Si  Si3  1  0.04570367  0.47155449  0.33634241  1.0
  Si  Si4  1  0.94049313  0.81079755  0.13912552  1.0
  Si  Si5  1  0.05950687  0.31079755  0.86087448  1.0
  Si  Si6  1  0.75235683  0.36033848  0.93697931  1.0
  Si  Si7  1  0.24764317  0.86033848  0.06302069  1.0
  Si  Si8  1  0.54072486  0.48796973  0.67862589  1.0
  Si  Si9  1  0.45927514  -0.01203027  0.32137411  1.0
  Si  Si10  1  0.53509565  0.18280318  0.83171449  1.0
  Si  Si11  1  0.46490435  0.68280318  0.16828551  1.0
  Si  Si12  1  0.26003502  0.11301388  0.92527194  1.0
  Si  Si13  1  0.73996498  0.61301388  0.07472806  1.0
  Si  Si14  1  0.24587421  0.63155879  0.58417352  1.0
  Si  Si15  1  0.75412579  0.13155879  0.41582648  1.0
  P  P16  1  0.95194998  0.64535371  0.82448879  1.0
  P  P17  1  0.04805002  0.14535371  0.17551121  1.0
  P  P18  1  0.76484664  0.52428931  0.42709385  1.0
  P  P19  1  0.23515336  0.02428931  0.57290615  1.0
  P  P20  1  0.77207673  0.17521357  0.60328860  1.0
  P  P21  1  0.22792327  0.67521357  0.39671140  1.0
  P  P22  1  0.73544175  0.79602039  0.56884756  1.0
  P  P23  1  0.26455825  0.29602039  0.43115244  1.0
  P  P24  1  0.74025165  0.98212598  0.89026636  1.0
  P  P25  1  0.25974835  0.48212598  0.10973364  1.0
  P  P26  1  0.45532741  0.81796388  0.82944249  1.0
  P  P27  1  0.54467259  0.31796388  0.17055751  1.0
  P  P28  1  0.42917803  0.83581609  0.63929820  1.0
  P  P29  1  0.57082197  0.33581609  0.36070180  1.0
  P  P30  1  0.24977251  0.50943140  0.91910799  1.0
  P  P31  1  0.75022749  0.00943140  0.08089201  1.0
  Pt  Pt32  1  0.89148735  0.56583751  0.62807304  1.0
  Pt  Pt33  1  0.10851265  0.06583751  0.37192696  1.0
  Pt  Pt34  1  0.59431406  0.58572393  0.87317750  1.0
  Pt  Pt35  1  0.40568594  0.08572393  0.12682250  1.0
  Pt  Pt36  1  0.58919300  0.74833798  0.36373149  1.0
  Pt  Pt37  1  0.41080700  0.24833798  0.63626851  1.0
  Pt  Pt38  1  0.08806684  0.89055552  0.85681000  1.0
  Pt  Pt39  1  0.91193316  0.39055552  0.14319000  1.0
