# generated using pymatgen
data_La3VH3O8
_symmetry_space_group_name_H-M   'P 1'
_cell_length_a   5.73762589
_cell_length_b   10.77164027
_cell_length_c   6.42334753
_cell_angle_alpha   90.00000000
_cell_angle_beta   104.51185232
_cell_angle_gamma   90.00000000
_symmetry_Int_Tables_number   1
_chemical_formula_structural   La3VH3O8
_chemical_formula_sum   'La6 V2 H6 O16'
_cell_volume   384.32075264
_cell_formula_units_Z   2
loop_
 _symmetry_equiv_pos_site_id
 _symmetry_equiv_pos_as_xyz
  1  'x, y, z'
loop_
 _atom_site_type_symbol
 _atom_site_label
 _atom_site_symmetry_multiplicity
 _atom_site_fract_x
 _atom_site_fract_y
 _atom_site_fract_z
 _atom_site_occupancy
  La  La0  1  0.31105055  0.45789208  0.69682333  1.0
  La  La1  1  0.31105055  0.04210792  0.69682333  1.0
  La  La2  1  0.68894945  0.95789208  0.30317667  1.0
  La  La3  1  0.68894945  0.54210792  0.30317667  1.0
  La  La4  1  0.22310898  0.25000000  0.20056256  1.0
  La  La5  1  0.77689102  0.75000000  0.79943744  1.0
  V  V6  1  0.80691750  0.25000000  0.53059530  1.0
  V  V7  1  0.19308250  0.75000000  0.46940470  1.0
  H  H8  1  0.62155618  0.25000000  0.90804279  1.0
  H  H9  1  0.37844382  0.75000000  0.09195721  1.0
  H  H10  1  0.84416954  0.45891388  0.90334840  1.0
  H  H11  1  0.84416954  0.04108612  0.90334840  1.0
  H  H12  1  0.15583046  0.95891388  0.09665160  1.0
  H  H13  1  0.15583046  0.54108612  0.09665160  1.0
  O  O14  1  0.98867963  0.37146860  0.40676582  1.0
  O  O15  1  0.98867963  0.12853140  0.40676582  1.0
  O  O16  1  0.01132037  0.87146860  0.59323418  1.0
  O  O17  1  0.01132037  0.62853140  0.59323418  1.0
  O  O18  1  0.73429688  0.97827270  0.93232489  1.0
  O  O19  1  0.73429688  0.52172730  0.93232489  1.0
  O  O20  1  0.26570312  0.47827270  0.06767511  1.0
  O  O21  1  0.26570312  0.02172730  0.06767511  1.0
  O  O22  1  0.54147453  0.36710681  0.45914097  1.0
  O  O23  1  0.54147453  0.13289319  0.45914097  1.0
  O  O24  1  0.45852547  0.86710681  0.54085903  1.0
  O  O25  1  0.45852547  0.63289319  0.54085903  1.0
  O  O26  1  0.93206603  0.25000000  0.80102961  1.0
  O  O27  1  0.06793397  0.75000000  0.19897039  1.0
  O  O28  1  0.45030876  0.25000000  0.90555216  1.0
  O  O29  1  0.54969124  0.75000000  0.09444784  1.0
