# generated using pymatgen
data_Y5(Si5Ir2)2
_symmetry_space_group_name_H-M   'P 1'
_cell_length_a   12.65281463
_cell_length_b   12.65281463
_cell_length_c   4.26387541
_cell_angle_alpha   90.00000000
_cell_angle_beta   90.00000000
_cell_angle_gamma   90.00000000
_symmetry_Int_Tables_number   1
_chemical_formula_structural   Y5(Si5Ir2)2
_chemical_formula_sum   'Y10 Si20 Ir8'
_cell_volume   682.61966758
_cell_formula_units_Z   2
loop_
 _symmetry_equiv_pos_site_id
 _symmetry_equiv_pos_as_xyz
  1  'x, y, z'
loop_
 _atom_site_type_symbol
 _atom_site_label
 _atom_site_symmetry_multiplicity
 _atom_site_fract_x
 _atom_site_fract_y
 _atom_site_fract_z
 _atom_site_occupancy
  Y  Y0  1  0.32457983  0.17542017  0.50000000  1.0
  Y  Y1  1  0.82457983  0.32457983  0.50000000  1.0
  Y  Y2  1  0.67542017  0.82457983  0.50000000  1.0
  Y  Y3  1  0.17542017  0.67542017  0.50000000  1.0
  Y  Y4  1  0.88530131  0.61469869  0.50000000  1.0
  Y  Y5  1  0.38530131  0.88530131  0.50000000  1.0
  Y  Y6  1  0.11469869  0.38530131  0.50000000  1.0
  Y  Y7  1  0.61469869  0.11469869  0.50000000  1.0
  Y  Y8  1  0.50000000  0.50000000  0.00000000  1.0
  Y  Y9  1  0.00000000  0.00000000  0.00000000  1.0
  Si  Si10  1  0.34276035  0.50111910  0.50000000  1.0
  Si  Si11  1  0.84276035  0.99888090  0.50000000  1.0
  Si  Si12  1  0.49888090  0.34276035  0.50000000  1.0
  Si  Si13  1  0.99888090  0.15723965  0.50000000  1.0
  Si  Si14  1  0.65723965  0.49888090  0.50000000  1.0
  Si  Si15  1  0.15723965  0.00111910  0.50000000  1.0
  Si  Si16  1  0.50111910  0.65723965  0.50000000  1.0
  Si  Si17  1  0.00111910  0.84276035  0.50000000  1.0
  Si  Si18  1  0.33624526  0.70081642  0.00000000  1.0
  Si  Si19  1  0.83624526  0.79918358  0.00000000  1.0
  Si  Si20  1  0.29918358  0.33624526  0.00000000  1.0
  Si  Si21  1  0.79918358  0.16375474  0.00000000  1.0
  Si  Si22  1  0.66375474  0.29918358  0.00000000  1.0
  Si  Si23  1  0.16375474  0.20081642  0.00000000  1.0
  Si  Si24  1  0.70081642  0.66375474  0.00000000  1.0
  Si  Si25  1  0.20081642  0.83624526  0.00000000  1.0
  Si  Si26  1  0.43354928  0.06645072  0.00000000  1.0
  Si  Si27  1  0.93354928  0.43354928  0.00000000  1.0
  Si  Si28  1  0.56645072  0.93354928  0.00000000  1.0
  Si  Si29  1  0.06645072  0.56645072  0.00000000  1.0
  Ir  Ir30  1  0.25516645  0.51993106  0.00000000  1.0
  Ir  Ir31  1  0.75516645  0.98006894  0.00000000  1.0
  Ir  Ir32  1  0.48006894  0.25516645  0.00000000  1.0
  Ir  Ir33  1  0.98006894  0.24483355  0.00000000  1.0
  Ir  Ir34  1  0.74483355  0.48006894  0.00000000  1.0
  Ir  Ir35  1  0.24483355  0.01993106  0.00000000  1.0
  Ir  Ir36  1  0.51993106  0.74483355  0.00000000  1.0
  Ir  Ir37  1  0.01993106  0.75516645  0.00000000  1.0
