# generated using pymatgen
data_MgMnBO4
_symmetry_space_group_name_H-M   'P 1'
_cell_length_a   3.21547141
_cell_length_b   9.33237408
_cell_length_c   9.41385064
_cell_angle_alpha   90.00000000
_cell_angle_beta   95.31541966
_cell_angle_gamma   90.00000000
_symmetry_Int_Tables_number   1
_chemical_formula_structural   MgMnBO4
_chemical_formula_sum   'Mg4 Mn4 B4 O16'
_cell_volume   281.27589504
_cell_formula_units_Z   4
loop_
 _symmetry_equiv_pos_site_id
 _symmetry_equiv_pos_as_xyz
  1  'x, y, z'
loop_
 _atom_site_type_symbol
 _atom_site_label
 _atom_site_symmetry_multiplicity
 _atom_site_fract_x
 _atom_site_fract_y
 _atom_site_fract_z
 _atom_site_occupancy
  Mn  Mn0  1  0.75331370  0.56313301  0.88185394  1.0
  Mn  Mn1  1  0.75331370  0.93686699  0.38185394  1.0
  Mn  Mn2  1  0.24668630  0.06313301  0.61814606  1.0
  Mn  Mn3  1  0.24668630  0.43686699  0.11814606  1.0
  O  O4  1  0.75608932  0.73982708  0.76220803  1.0
  O  O5  1  0.75608932  0.76017292  0.26220803  1.0
  O  O6  1  0.24391068  0.23982708  0.73779197  1.0
  O  O7  1  0.24391068  0.26017292  0.23779197  1.0
  O  O8  1  0.73342551  0.86505427  0.98255027  1.0
  O  O9  1  0.73342551  0.63494573  0.48255027  1.0
  O  O10  1  0.26657449  0.36505427  0.51744973  1.0
  O  O11  1  0.26657449  0.13494573  0.01744973  1.0
  O  O12  1  0.68229258  0.99806891  0.76520611  1.0
  O  O13  1  0.68229258  0.50193109  0.26520611  1.0
  O  O14  1  0.31770742  0.49806891  0.73479389  1.0
  O  O15  1  0.31770742  0.00193109  0.23479389  1.0
  O  O16  1  0.77941018  0.38820579  0.98588716  1.0
  O  O17  1  0.77941018  0.11179421  0.48588716  1.0
  O  O18  1  0.22058982  0.88820579  0.51411284  1.0
  O  O19  1  0.22058982  0.61179421  0.01411284  1.0
  Mg  Mg20  1  0.73782360  0.18323519  0.89631858  1.0
  Mg  Mg21  1  0.73782360  0.31676481  0.39631858  1.0
  Mg  Mg22  1  0.26217640  0.68323519  0.60368142  1.0
  Mg  Mg23  1  0.26217640  0.81676481  0.10368142  1.0
  B  B24  1  0.72217070  0.86767177  0.83912979  1.0
  B  B25  1  0.72217070  0.63232823  0.33912979  1.0
  B  B26  1  0.27782930  0.36767177  0.66087021  1.0
  B  B27  1  0.27782930  0.13232823  0.16087021  1.0
