# generated using pymatgen
data_LaGa2Ni
_symmetry_space_group_name_H-M   'P 1'
_cell_length_a   9.11043555
_cell_length_b   9.11043555
_cell_length_c   4.25225551
_cell_angle_alpha   90.00000000
_cell_angle_beta   90.00000000
_cell_angle_gamma   152.88218648
_symmetry_Int_Tables_number   1
_chemical_formula_structural   LaGa2Ni
_chemical_formula_sum   'La2 Ga4 Ni2'
_cell_volume   160.87649216
_cell_formula_units_Z   2
loop_
 _symmetry_equiv_pos_site_id
 _symmetry_equiv_pos_as_xyz
  1  'x, y, z'
loop_
 _atom_site_type_symbol
 _atom_site_label
 _atom_site_symmetry_multiplicity
 _atom_site_fract_x
 _atom_site_fract_y
 _atom_site_fract_z
 _atom_site_occupancy
  La  La0  1  0.35905314  0.64094686  0.50000000  1.0
  La  La1  1  -0.35905314  0.35905314  0.50000000  1.0
  Ga  Ga2  1  0.20913168  0.79086832  0.00000000  1.0
  Ga  Ga3  1  -0.20913168  0.20913168  0.00000000  1.0
  Ga  Ga4  1  0.00000000  0.00000000  0.50000000  1.0
  Ga  Ga5  1  0.50000000  0.50000000  0.00000000  1.0
  Ni  Ni6  1  0.07190495  0.92809505  0.00000000  1.0
  Ni  Ni7  1  -0.07190495  0.07190495  0.00000000  1.0
