# generated using pymatgen
data_Ba4As2O
_symmetry_space_group_name_H-M   'P 1'
_cell_length_a   10.13585839
_cell_length_b   10.13585839
_cell_length_c   10.13585839
_cell_angle_alpha   150.77151938
_cell_angle_beta   150.77151938
_cell_angle_gamma   41.81006263
_symmetry_Int_Tables_number   1
_chemical_formula_structural   Ba4As2O
_chemical_formula_sum   'Ba4 As2 O1'
_cell_volume   247.70651881
_cell_formula_units_Z   1
loop_
 _symmetry_equiv_pos_site_id
 _symmetry_equiv_pos_as_xyz
  1  'x, y, z'
loop_
 _atom_site_type_symbol
 _atom_site_label
 _atom_site_symmetry_multiplicity
 _atom_site_fract_x
 _atom_site_fract_y
 _atom_site_fract_z
 _atom_site_occupancy
  Ba  Ba0  1  0.68247406  0.68247406  1.00000000  1.0
  Ba  Ba1  1  0.31752594  0.31752594  0.00000000  1.0
  Ba  Ba2  1  0.50000000  0.00000000  0.50000000  1.0
  Ba  Ba3  1  0.00000000  0.50000000  0.50000000  1.0
  As  As4  1  0.85385500  0.85385500  1.00000000  1.0
  As  As5  1  0.14614500  0.14614500  0.00000000  1.0
  O  O6  1  0.00000000  0.00000000  0.00000000  1.0
