# generated using pymatgen
data_YCuO2
_symmetry_space_group_name_H-M   'P 1'
_cell_length_a   5.22836072
_cell_length_b   5.22836072
_cell_length_c   5.22836072
_cell_angle_alpha   38.60721420
_cell_angle_beta   38.60721420
_cell_angle_gamma   38.60721420
_symmetry_Int_Tables_number   1
_chemical_formula_structural   YCuO2
_chemical_formula_sum   'Y1 Cu1 O2'
_cell_volume   50.00667412
_cell_formula_units_Z   1
loop_
 _symmetry_equiv_pos_site_id
 _symmetry_equiv_pos_as_xyz
  1  'x, y, z'
loop_
 _atom_site_type_symbol
 _atom_site_label
 _atom_site_symmetry_multiplicity
 _atom_site_fract_x
 _atom_site_fract_y
 _atom_site_fract_z
 _atom_site_occupancy
  Y  Y0  1  1.50000000  0.50000000  0.50000000  1.0
  Cu  Cu1  1  0.00000000  0.00000000  0.00000000  1.0
  O  O2  1  0.75473200  0.75473200  0.75473200  1.0
  O  O3  1  1.24526800  1.24526800  0.24526800  1.0
