# generated using pymatgen
data_Ni2BiB(PO5)2
_symmetry_space_group_name_H-M   'P 1'
_cell_length_a   5.10437917
_cell_length_b   11.37120289
_cell_length_c   6.40336323
_cell_angle_alpha   90.00000000
_cell_angle_beta   106.92894407
_cell_angle_gamma   90.00000000
_symmetry_Int_Tables_number   1
_chemical_formula_structural   Ni2BiB(PO5)2
_chemical_formula_sum   'Ni4 Bi2 B2 P4 O20'
_cell_volume   355.56425054
_cell_formula_units_Z   2
loop_
 _symmetry_equiv_pos_site_id
 _symmetry_equiv_pos_as_xyz
  1  'x, y, z'
loop_
 _atom_site_type_symbol
 _atom_site_label
 _atom_site_symmetry_multiplicity
 _atom_site_fract_x
 _atom_site_fract_y
 _atom_site_fract_z
 _atom_site_occupancy
  O  O0  1  0.91773901  0.95038019  0.65368501  1.0
  O  O1  1  0.91773901  0.54961981  0.65368501  1.0
  O  O2  1  0.08226099  0.45038019  0.34631499  1.0
  O  O3  1  0.08226099  0.04961981  0.34631499  1.0
  O  O4  1  0.56782523  0.44835009  0.81777637  1.0
  O  O5  1  0.56782523  0.05164991  0.81777637  1.0
  O  O6  1  0.43217477  0.94835009  0.18222363  1.0
  O  O7  1  0.43217477  0.55164991  0.18222363  1.0
  O  O8  1  0.53327946  0.35471654  0.34438835  1.0
  O  O9  1  0.53327946  0.14528346  0.34438835  1.0
  O  O10  1  0.46672054  0.85471654  0.65561165  1.0
  O  O11  1  0.46672054  0.64528346  0.65561165  1.0
  O  O12  1  0.14443308  0.37531083  0.99150041  1.0
  O  O13  1  0.14443308  0.12468917  0.99150041  1.0
  O  O14  1  0.85556692  0.87531083  0.00849959  1.0
  O  O15  1  0.85556692  0.62468917  0.00849959  1.0
  O  O16  1  0.37470595  0.25000000  0.62495572  1.0
  O  O17  1  0.62529405  0.75000000  0.37504428  1.0
  O  O18  1  0.84815944  0.25000000  0.63244655  1.0
  O  O19  1  0.15184056  0.75000000  0.36755345  1.0
  Bi  Bi20  1  0.75294291  0.25000000  0.94108604  1.0
  Bi  Bi21  1  0.24705709  0.75000000  0.05891396  1.0
  Ni  Ni22  1  0.84586998  0.89410369  0.33563202  1.0
  Ni  Ni23  1  0.84586998  0.60589631  0.33563202  1.0
  Ni  Ni24  1  0.15413002  0.39410369  0.66436798  1.0
  Ni  Ni25  1  0.15413002  0.10589631  0.66436798  1.0
  P  P26  1  0.70707452  0.93547233  0.78531456  1.0
  P  P27  1  0.70707452  0.56452767  0.78531456  1.0
  P  P28  1  0.29292548  0.43547233  0.21468544  1.0
  P  P29  1  0.29292548  0.06452767  0.21468544  1.0
  B  B30  1  0.56145918  0.25000000  0.48529728  1.0
  B  B31  1  0.43854082  0.75000000  0.51470272  1.0
