# generated using pymatgen
data_NaMo2(PO4)3
_symmetry_space_group_name_H-M   'P 1'
_cell_length_a   9.00275513
_cell_length_b   9.00275513
_cell_length_c   9.00275513
_cell_angle_alpha   58.27160108
_cell_angle_beta   58.27160108
_cell_angle_gamma   58.27160108
_symmetry_Int_Tables_number   1
_chemical_formula_structural   NaMo2(PO4)3
_chemical_formula_sum   'Na2 Mo4 P6 O24'
_cell_volume   495.52834675
_cell_formula_units_Z   2
loop_
 _symmetry_equiv_pos_site_id
 _symmetry_equiv_pos_as_xyz
  1  'x, y, z'
loop_
 _atom_site_type_symbol
 _atom_site_label
 _atom_site_symmetry_multiplicity
 _atom_site_fract_x
 _atom_site_fract_y
 _atom_site_fract_z
 _atom_site_occupancy
  Na  Na0  1  1.00000000  0.00000000  -0.00000000  1.0
  Na  Na1  1  0.50000000  0.50000000  0.50000000  1.0
  Mo  Mo2  1  0.85596187  -0.14403813  -0.14403813  1.0
  Mo  Mo3  1  0.35596187  0.35596187  0.35596187  1.0
  Mo  Mo4  1  0.64403813  0.64403813  -0.35596187  1.0
  Mo  Mo5  1  1.14403813  0.14403813  0.14403813  1.0
  P  P6  1  0.46204686  0.75000000  0.03795314  1.0
  P  P7  1  0.96204686  -0.46204686  0.25000000  1.0
  P  P8  1  0.25000000  0.96204686  -0.46204686  1.0
  P  P9  1  0.75000000  1.03795314  -0.53795314  1.0
  P  P10  1  0.53795314  0.25000000  -0.03795314  1.0
  P  P11  1  1.03795314  0.46204686  -0.25000000  1.0
  O  O12  1  0.78615992  1.00790357  -0.37263220  1.0
  O  O13  1  1.28615992  0.12736780  -0.49209643  1.0
  O  O14  1  0.87263220  0.49209643  -0.28615992  1.0
  O  O15  1  0.37263220  0.21384008  -0.00790357  1.0
  O  O16  1  0.99209643  0.37263220  -0.78615992  1.0
  O  O17  1  0.49209643  0.71384008  -0.12736780  1.0
  O  O18  1  0.21384008  0.99209643  -0.62736780  1.0
  O  O19  1  0.71384008  0.87263220  -0.50790357  1.0
  O  O20  1  0.62736780  0.78615992  0.00790357  1.0
  O  O21  1  1.12736780  -0.49209643  0.28615992  1.0
  O  O22  1  0.50790357  0.28615992  0.12736780  1.0
  O  O23  1  1.00790357  0.62736780  -0.21384008  1.0
  O  O24  1  0.72034984  0.08026761  -0.06144342  1.0
  O  O25  1  1.22034984  0.43855658  -0.41973239  1.0
  O  O26  1  0.56144342  0.41973239  -0.22034984  1.0
  O  O27  1  1.06144342  0.27965016  -0.08026761  1.0
  O  O28  1  0.91973239  0.06144342  0.27965016  1.0
  O  O29  1  0.41973239  0.77965016  -0.43855658  1.0
  O  O30  1  1.27965016  -0.08026761  0.06144342  1.0
  O  O31  1  0.77965016  0.56144342  -0.58026761  1.0
  O  O32  1  0.93855658  -0.27965016  0.08026761  1.0
  O  O33  1  0.43855658  0.58026761  0.22034984  1.0
  O  O34  1  0.58026761  1.22034984  -0.56144342  1.0
  O  O35  1  1.08026761  -0.06144342  -0.27965016  1.0
