# generated using pymatgen
data_Ba(As2O7)2
_symmetry_space_group_name_H-M   'P 1'
_cell_length_a   10.03946112
_cell_length_b   5.14981219
_cell_length_c   12.37578018
_cell_angle_alpha   90.00000000
_cell_angle_beta   90.00000000
_cell_angle_gamma   90.00000000
_symmetry_Int_Tables_number   1
_chemical_formula_structural   Ba(As2O7)2
_chemical_formula_sum   'Ba2 As8 O28'
_cell_volume   639.84440971
_cell_formula_units_Z   2
loop_
 _symmetry_equiv_pos_site_id
 _symmetry_equiv_pos_as_xyz
  1  'x, y, z'
loop_
 _atom_site_type_symbol
 _atom_site_label
 _atom_site_symmetry_multiplicity
 _atom_site_fract_x
 _atom_site_fract_y
 _atom_site_fract_z
 _atom_site_occupancy
  As  As0  1  0.00000000  0.74031908  0.29273416  1.0
  As  As1  1  0.00000000  0.25968092  0.70726584  1.0
  As  As2  1  0.50000000  0.74031908  0.20726584  1.0
  As  As3  1  0.50000000  0.25968092  0.79273416  1.0
  As  As4  1  0.63754414  0.00000000  0.00000000  1.0
  As  As5  1  0.13754414  0.00000000  0.50000000  1.0
  As  As6  1  0.36245586  0.00000000  0.00000000  1.0
  As  As7  1  0.86245586  0.00000000  0.50000000  1.0
  Ba  Ba8  1  0.00000000  0.50000000  0.00000000  1.0
  Ba  Ba9  1  0.50000000  0.50000000  0.50000000  1.0
  O  O10  1  0.64669693  0.80351916  0.13339320  1.0
  O  O11  1  0.64669693  0.19648084  0.86660680  1.0
  O  O12  1  0.14669693  0.80351916  0.36660680  1.0
  O  O13  1  0.14669693  0.19648084  0.63339320  1.0
  O  O14  1  0.35330307  0.80351916  0.13339320  1.0
  O  O15  1  0.35330307  0.19648084  0.86660680  1.0
  O  O16  1  0.85330307  0.80351916  0.36660680  1.0
  O  O17  1  0.85330307  0.19648084  0.63339320  1.0
  O  O18  1  0.72068518  0.81188782  0.54518174  1.0
  O  O19  1  0.72068518  0.18811218  0.45481826  1.0
  O  O20  1  0.22068518  0.81188782  0.95481826  1.0
  O  O21  1  0.22068518  0.18811218  0.04518174  1.0
  O  O22  1  0.27931482  0.81188782  0.54518174  1.0
  O  O23  1  0.27931482  0.18811218  0.45481826  1.0
  O  O24  1  0.77931482  0.81188782  0.95481826  1.0
  O  O25  1  0.77931482  0.18811218  0.04518174  1.0
  O  O26  1  0.00000000  0.43617869  0.23371841  1.0
  O  O27  1  0.00000000  0.56382131  0.76628159  1.0
  O  O28  1  0.50000000  0.43617869  0.26628159  1.0
  O  O29  1  0.50000000  0.56382131  0.73371841  1.0
  O  O30  1  0.00000000  0.88213844  0.16619968  1.0
  O  O31  1  0.00000000  0.11786156  0.83380032  1.0
  O  O32  1  0.50000000  0.88213844  0.33380032  1.0
  O  O33  1  0.50000000  0.11786156  0.66619968  1.0
  O  O34  1  0.00000000  0.79361637  0.55417868  1.0
  O  O35  1  0.00000000  0.20638363  0.44582132  1.0
  O  O36  1  0.50000000  0.79361637  0.94582132  1.0
  O  O37  1  0.50000000  0.20638363  0.05417868  1.0
