# generated using pymatgen
data_RbSn2Br5
_symmetry_space_group_name_H-M   'P 1'
_cell_length_a   9.79677711
_cell_length_b   9.79677711
_cell_length_c   9.79677711
_cell_angle_alpha   128.26059764
_cell_angle_beta   128.26059764
_cell_angle_gamma   76.20324904
_symmetry_Int_Tables_number   1
_chemical_formula_structural   RbSn2Br5
_chemical_formula_sum   'Rb2 Sn4 Br10'
_cell_volume   563.45746093
_cell_formula_units_Z   2
loop_
 _symmetry_equiv_pos_site_id
 _symmetry_equiv_pos_as_xyz
  1  'x, y, z'
loop_
 _atom_site_type_symbol
 _atom_site_label
 _atom_site_symmetry_multiplicity
 _atom_site_fract_x
 _atom_site_fract_y
 _atom_site_fract_z
 _atom_site_occupancy
  Rb  Rb0  1  0.75000000  0.75000000  1.00000000  1.0
  Rb  Rb1  1  0.25000000  0.25000000  0.00000000  1.0
  Sn  Sn2  1  0.31860141  0.81860141  1.13720283  1.0
  Sn  Sn3  1  0.18139859  0.31860141  0.50000000  1.0
  Sn  Sn4  1  0.81860141  0.68139859  1.50000000  1.0
  Sn  Sn5  1  0.68139859  0.18139859  0.86279717  1.0
  Br  Br6  1  0.71018935  1.21018935  1.18029209  1.0
  Br  Br7  1  0.97010274  0.47010274  1.18029209  1.0
  Br  Br8  1  0.52989726  0.71018935  0.50000000  1.0
  Br  Br9  1  0.78981065  0.97010274  1.50000000  1.0
  Br  Br10  1  1.21018935  1.02989726  1.50000000  1.0
  Br  Br11  1  0.47010274  0.28981065  0.50000000  1.0
  Br  Br12  1  1.02989726  0.52989726  0.81970791  1.0
  Br  Br13  1  0.28981065  0.78981065  0.81970791  1.0
  Br  Br14  1  0.00000000  0.00000000  0.00000000  1.0
  Br  Br15  1  0.50000000  0.50000000  1.00000000  1.0
