# generated using pymatgen
data_Os(SeCl6)2
_symmetry_space_group_name_H-M   'P 1'
_cell_length_a   12.78570657
_cell_length_b   12.64237544
_cell_length_c   9.19935573
_cell_angle_alpha   69.62510635
_cell_angle_beta   67.96055691
_cell_angle_gamma   42.41433674
_symmetry_Int_Tables_number   1
_chemical_formula_structural   Os(SeCl6)2
_chemical_formula_sum   'Os2 Se4 Cl24'
_cell_volume   923.63610803
_cell_formula_units_Z   2
loop_
 _symmetry_equiv_pos_site_id
 _symmetry_equiv_pos_as_xyz
  1  'x, y, z'
loop_
 _atom_site_type_symbol
 _atom_site_label
 _atom_site_symmetry_multiplicity
 _atom_site_fract_x
 _atom_site_fract_y
 _atom_site_fract_z
 _atom_site_occupancy
  Os  Os0  1  0.99705074  -0.00294926  0.00294926  1.0
  Os  Os1  1  0.24705074  0.24705074  0.25294926  1.0
  Se  Se2  1  0.06684098  0.59718901  0.90640050  1.0
  Se  Se3  1  -0.65640050  0.82043050  1.18315902  1.0
  Se  Se4  1  0.59718901  0.06684098  0.42956950  1.0
  Se  Se5  1  0.82043050  -0.65640050  0.65281099  1.0
  Cl  Cl6  1  0.74170597  0.10403360  0.10226852  1.0
  Cl  Cl7  1  0.14773148  0.19800809  0.50829403  1.0
  Cl  Cl8  1  0.10403360  0.74170597  0.05199191  1.0
  Cl  Cl9  1  0.19800809  0.14773148  0.14596640  1.0
  Cl  Cl10  1  0.34661430  -0.19684348  0.42990141  1.0
  Cl  Cl11  1  0.82009859  -0.17032777  0.90338570  1.0
  Cl  Cl12  1  -0.19684348  0.34661430  1.42032777  1.0
  Cl  Cl13  1  0.82967223  -0.17990141  0.44684348  1.0
  Cl  Cl14  1  0.35041040  0.29757244  0.99850174  1.0
  Cl  Cl15  1  0.25149826  -0.10351541  0.89958960  1.0
  Cl  Cl16  1  0.29757244  0.35041040  0.35351541  1.0
  Cl  Cl17  1  0.89648459  -0.74850174  0.95242756  1.0
  Cl  Cl18  1  0.19299649  0.62405932  0.67482171  1.0
  Cl  Cl19  1  -0.42482171  0.74187753  1.05700351  1.0
  Cl  Cl20  1  0.62405932  0.19299649  0.50812247  1.0
  Cl  Cl21  1  0.74187753  -0.42482171  0.62594068  1.0
  Cl  Cl22  1  0.50172179  -0.00287300  0.28342811  1.0
  Cl  Cl23  1  0.96657189  0.03227691  0.74827821  1.0
  Cl  Cl24  1  -0.00287300  0.50172179  1.21772309  1.0
  Cl  Cl25  1  0.03227691  0.96657189  0.25287300  1.0
  Cl  Cl26  1  0.04213214  0.47418928  0.82285326  1.0
  Cl  Cl27  1  -0.57285326  0.58917467  1.20786786  1.0
  Cl  Cl28  1  0.47418928  0.04213214  0.66082533  1.0
  Cl  Cl29  1  0.58917467  -0.57285326  0.77581072  1.0
