# generated using pymatgen
data_Li(BIr)4
_symmetry_space_group_name_H-M   'P 1'
_cell_length_a   7.40661744
_cell_length_b   6.07565301
_cell_length_c   6.54253474
_cell_angle_alpha   71.77753816
_cell_angle_beta   51.18392905
_cell_angle_gamma   57.03853280
_symmetry_Int_Tables_number   1
_chemical_formula_structural   Li(BIr)4
_chemical_formula_sum   'Li2 B8 Ir8'
_cell_volume   192.29124762
_cell_formula_units_Z   2
loop_
 _symmetry_equiv_pos_site_id
 _symmetry_equiv_pos_as_xyz
  1  'x, y, z'
loop_
 _atom_site_type_symbol
 _atom_site_label
 _atom_site_symmetry_multiplicity
 _atom_site_fract_x
 _atom_site_fract_y
 _atom_site_fract_z
 _atom_site_occupancy
  Li  Li0  1  0.00000000  0.00000000  0.00000000  1.0
  Li  Li1  1  0.25000000  0.25000000  1.25000000  1.0
  B  B2  1  -0.08086905  0.40541979  0.10807895  1.0
  B  B3  1  0.56737031  0.10807895  1.40541979  1.0
  B  B4  1  -0.15541979  0.33086905  0.68262969  1.0
  B  B5  1  0.14192105  0.68262969  0.33086905  1.0
  B  B6  1  0.10807895  0.56737031  -0.08086905  1.0
  B  B7  1  0.40541979  -0.08086905  1.56737031  1.0
  B  B8  1  -0.31737031  1.14192105  0.84458021  1.0
  B  B9  1  -0.66913095  0.84458021  1.14192105  1.0
  Ir  Ir10  1  0.60729199  0.40376694  1.13502790  1.0
  Ir  Ir11  1  -0.14608682  0.13502790  0.40376694  1.0
  Ir  Ir12  1  -0.15376694  0.64270801  0.39608682  1.0
  Ir  Ir13  1  0.11497210  0.39608682  0.64270801  1.0
  Ir  Ir14  1  0.13502790  -0.14608682  1.60729199  1.0
  Ir  Ir15  1  0.40376694  0.60729199  -0.14608682  1.0
  Ir  Ir16  1  -0.60391318  1.11497210  0.84623307  1.0
  Ir  Ir17  1  -0.35729199  0.84623307  1.11497210  1.0
