# generated using pymatgen
data_Bi2Rh3S2
_symmetry_space_group_name_H-M   'P 1'
_cell_length_a   7.11819579
_cell_length_b   7.11819579
_cell_length_c   8.10707339
_cell_angle_alpha   56.29481696
_cell_angle_beta   123.70518304
_cell_angle_gamma   107.57314889
_symmetry_Int_Tables_number   1
_chemical_formula_structural   Bi2Rh3S2
_chemical_formula_sum   'Bi4 Rh6 S4'
_cell_volume   284.27189207
_cell_formula_units_Z   2
loop_
 _symmetry_equiv_pos_site_id
 _symmetry_equiv_pos_as_xyz
  1  'x, y, z'
loop_
 _atom_site_type_symbol
 _atom_site_label
 _atom_site_symmetry_multiplicity
 _atom_site_fract_x
 _atom_site_fract_y
 _atom_site_fract_z
 _atom_site_occupancy
  Bi  Bi0  1  0.99288656  -0.99288656  0.24467456  1.0
  Bi  Bi1  1  1.00711344  -0.00711344  0.75532544  1.0
  Bi  Bi2  1  0.49810897  -0.49810897  0.24732944  1.0
  Bi  Bi3  1  0.50189103  0.49810897  0.75267056  1.0
  Rh  Rh4  1  0.24353624  -0.24353624  0.24073726  1.0
  Rh  Rh5  1  0.75646376  0.24353624  0.75926274  1.0
  Rh  Rh6  1  0.24698308  0.24698308  -0.00000000  1.0
  Rh  Rh7  1  0.75301692  0.75301692  0.00000000  1.0
  Rh  Rh8  1  1.00000000  -0.50000000  -0.00000000  1.0
  Rh  Rh9  1  0.50000000  0.00000000  -0.00000000  1.0
  S  S10  1  0.54397376  -0.00335916  0.30610957  1.0
  S  S11  1  1.00335916  -0.54397376  0.30610957  1.0
  S  S12  1  0.99664084  -0.45602624  0.69389043  1.0
  S  S13  1  0.45602624  0.00335916  0.69389043  1.0
