# generated using pymatgen
data_NaCuTe
_symmetry_space_group_name_H-M   'P 1'
_cell_length_a   4.40651817
_cell_length_b   4.40651817
_cell_length_c   7.15629359
_cell_angle_alpha   90.00000000
_cell_angle_beta   90.00000000
_cell_angle_gamma   90.00000000
_symmetry_Int_Tables_number   1
_chemical_formula_structural   NaCuTe
_chemical_formula_sum   'Na2 Cu2 Te2'
_cell_volume   138.95663241
_cell_formula_units_Z   2
loop_
 _symmetry_equiv_pos_site_id
 _symmetry_equiv_pos_as_xyz
  1  'x, y, z'
loop_
 _atom_site_type_symbol
 _atom_site_label
 _atom_site_symmetry_multiplicity
 _atom_site_fract_x
 _atom_site_fract_y
 _atom_site_fract_z
 _atom_site_occupancy
  Na  Na0  1  0.50000000  0.00000000  0.67523493  1.0
  Na  Na1  1  0.00000000  0.50000000  0.32476507  1.0
  Cu  Cu2  1  0.00000000  0.00000000  0.00000000  1.0
  Cu  Cu3  1  0.50000000  0.50000000  0.00000000  1.0
  Te  Te4  1  0.50000000  0.00000000  0.22294135  1.0
  Te  Te5  1  0.00000000  0.50000000  0.77705865  1.0
