# generated using pymatgen
data_TiSO6
_symmetry_space_group_name_H-M   'P 1'
_cell_length_a   10.12722386
_cell_length_b   5.23417557
_cell_length_c   9.19298880
_cell_angle_alpha   90.00000000
_cell_angle_beta   90.00000000
_cell_angle_gamma   90.00000000
_symmetry_Int_Tables_number   1
_chemical_formula_structural   TiSO6
_chemical_formula_sum   'Ti4 S4 O24'
_cell_volume   487.29889580
_cell_formula_units_Z   4
loop_
 _symmetry_equiv_pos_site_id
 _symmetry_equiv_pos_as_xyz
  1  'x, y, z'
loop_
 _atom_site_type_symbol
 _atom_site_label
 _atom_site_symmetry_multiplicity
 _atom_site_fract_x
 _atom_site_fract_y
 _atom_site_fract_z
 _atom_site_occupancy
  Ti  Ti0  1  0.37621958  0.75000000  0.05646729  1.0
  Ti  Ti1  1  0.87621958  0.75000000  0.44353271  1.0
  Ti  Ti2  1  0.62378042  0.25000000  0.94353271  1.0
  Ti  Ti3  1  0.12378042  0.25000000  0.55646729  1.0
  O  O4  1  0.24567470  0.98160801  0.63393650  1.0
  O  O5  1  0.24567470  0.51839199  0.63393650  1.0
  O  O6  1  0.74567470  0.98160801  0.86606350  1.0
  O  O7  1  0.74567470  0.51839199  0.86606350  1.0
  O  O8  1  0.75432530  0.48160801  0.36606350  1.0
  O  O9  1  0.75432530  0.01839199  0.36606350  1.0
  O  O10  1  0.25432530  0.48160801  0.13393650  1.0
  O  O11  1  0.25432530  0.01839199  0.13393650  1.0
  O  O12  1  0.28765584  0.75000000  0.85602750  1.0
  O  O13  1  0.78765584  0.75000000  0.64397250  1.0
  O  O14  1  0.71234416  0.25000000  0.14397250  1.0
  O  O15  1  0.21234416  0.25000000  0.35602750  1.0
  O  O16  1  0.48029692  0.75000000  0.22527399  1.0
  O  O17  1  0.98029692  0.75000000  0.27472601  1.0
  O  O18  1  0.51970308  0.25000000  0.77472601  1.0
  O  O19  1  0.01970308  0.25000000  0.72527399  1.0
  O  O20  1  0.50000000  0.00000000  0.00000000  1.0
  O  O21  1  0.50000000  0.50000000  0.00000000  1.0
  O  O22  1  0.00000000  0.00000000  0.50000000  1.0
  O  O23  1  0.00000000  0.50000000  0.50000000  1.0
  O  O24  1  0.45273439  0.75000000  0.65862457  1.0
  O  O25  1  0.95273439  0.75000000  0.84137543  1.0
  O  O26  1  0.54726561  0.25000000  0.34137543  1.0
  O  O27  1  0.04726561  0.25000000  0.15862457  1.0
  S  S28  1  0.31344559  0.75000000  0.69565127  1.0
  S  S29  1  0.81344559  0.75000000  0.80434873  1.0
  S  S30  1  0.68655441  0.25000000  0.30434873  1.0
  S  S31  1  0.18655441  0.25000000  0.19565127  1.0
