# generated using pymatgen
data_La3Co2Sn7
_symmetry_space_group_name_H-M   'P 1'
_cell_length_a   14.10937626
_cell_length_b   14.10937626
_cell_length_c   4.64327787
_cell_angle_alpha   90.00000000
_cell_angle_beta   90.00000000
_cell_angle_gamma   161.05901389
_symmetry_Int_Tables_number   1
_chemical_formula_structural   La3Co2Sn7
_chemical_formula_sum   'La3 Co2 Sn7'
_cell_volume   300.04123202
_cell_formula_units_Z   1
loop_
 _symmetry_equiv_pos_site_id
 _symmetry_equiv_pos_as_xyz
  1  'x, y, z'
loop_
 _atom_site_type_symbol
 _atom_site_label
 _atom_site_symmetry_multiplicity
 _atom_site_fract_x
 _atom_site_fract_y
 _atom_site_fract_z
 _atom_site_occupancy
  La  La0  1  -0.68465266  0.68465266  0.50000000  1.0
  La  La1  1  -0.31534734  1.31534734  0.50000000  1.0
  La  La2  1  0.00000000  0.00000000  0.00000000  1.0
  Co  Co3  1  -0.87254857  0.87254857  0.00000000  1.0
  Co  Co4  1  -0.12745143  1.12745143  0.00000000  1.0
  Sn  Sn5  1  -0.90944273  0.90944273  0.50000000  1.0
  Sn  Sn6  1  -0.09055727  1.09055727  0.50000000  1.0
  Sn  Sn7  1  0.50000000  0.50000000  0.50000000  1.0
  Sn  Sn8  1  -0.59075600  0.59075600  0.00000000  1.0
  Sn  Sn9  1  -0.40924400  1.40924400  0.00000000  1.0
  Sn  Sn10  1  -0.78263034  0.78263034  0.00000000  1.0
  Sn  Sn11  1  -0.21736966  1.21736966  0.00000000  1.0
