# generated using pymatgen
data_NaPt2Se3
_symmetry_space_group_name_H-M   'P 1'
_cell_length_a   7.50542647
_cell_length_b   7.50542647
_cell_length_c   11.60145730
_cell_angle_alpha   90.00000000
_cell_angle_beta   90.00000000
_cell_angle_gamma   120.00000000
_symmetry_Int_Tables_number   1
_chemical_formula_structural   NaPt2Se3
_chemical_formula_sum   'Na4 Pt8 Se12'
_cell_volume   565.97067160
_cell_formula_units_Z   4
loop_
 _symmetry_equiv_pos_site_id
 _symmetry_equiv_pos_as_xyz
  1  'x, y, z'
loop_
 _atom_site_type_symbol
 _atom_site_label
 _atom_site_symmetry_multiplicity
 _atom_site_fract_x
 _atom_site_fract_y
 _atom_site_fract_z
 _atom_site_occupancy
  Na  Na0  1  0.33333333  0.66666667  0.62323569  1.0
  Na  Na1  1  0.66666667  0.33333333  0.12323569  1.0
  Na  Na2  1  0.00000000  0.00000000  -0.00066724  1.0
  Na  Na3  1  0.00000000  0.00000000  0.49933276  1.0
  Pt  Pt4  1  0.33221961  0.16610980  0.31420238  1.0
  Pt  Pt5  1  0.16610980  0.33221961  0.81420238  1.0
  Pt  Pt6  1  0.16610980  0.83389020  0.81420238  1.0
  Pt  Pt7  1  0.83389020  0.16610980  0.31420238  1.0
  Pt  Pt8  1  0.83389020  0.66778039  0.31420238  1.0
  Pt  Pt9  1  0.66778039  0.83389020  0.81420238  1.0
  Pt  Pt10  1  0.33333333  0.66666667  0.30690577  1.0
  Pt  Pt11  1  0.66666667  0.33333333  0.80690577  1.0
  Se  Se12  1  0.68012940  0.84006470  0.20522027  1.0
  Se  Se13  1  0.84006470  0.68012940  0.70522027  1.0
  Se  Se14  1  0.84006470  0.15993530  0.70522027  1.0
  Se  Se15  1  0.15993530  0.84006470  0.20522027  1.0
  Se  Se16  1  0.15993530  0.31987060  0.20522027  1.0
  Se  Se17  1  0.31987060  0.15993530  0.70522027  1.0
  Se  Se18  1  0.99694940  0.49847470  0.41801928  1.0
  Se  Se19  1  0.49847470  0.99694940  0.91801928  1.0
  Se  Se20  1  0.49847470  0.50152530  0.91801928  1.0
  Se  Se21  1  0.50152530  0.49847470  0.41801928  1.0
  Se  Se22  1  0.50152530  0.00305060  0.41801928  1.0
  Se  Se23  1  0.00305060  0.50152530  0.91801928  1.0
