# generated using pymatgen
data_Ta2PO4
_symmetry_space_group_name_H-M   'P 1'
_cell_length_a   7.56397317
_cell_length_b   7.56397317
_cell_length_c   6.68213095
_cell_angle_alpha   90.00000000
_cell_angle_beta   90.00000000
_cell_angle_gamma   90.00000000
_symmetry_Int_Tables_number   1
_chemical_formula_structural   Ta2PO4
_chemical_formula_sum   'Ta8 P4 O16'
_cell_volume   382.30936888
_cell_formula_units_Z   4
loop_
 _symmetry_equiv_pos_site_id
 _symmetry_equiv_pos_as_xyz
  1  'x, y, z'
loop_
 _atom_site_type_symbol
 _atom_site_label
 _atom_site_symmetry_multiplicity
 _atom_site_fract_x
 _atom_site_fract_y
 _atom_site_fract_z
 _atom_site_occupancy
  Ta  Ta0  1  0.11060880  0.15963769  0.68363465  1.0
  Ta  Ta1  1  0.61060880  0.65963769  0.31636535  1.0
  Ta  Ta2  1  0.15963769  0.88939120  0.31636535  1.0
  Ta  Ta3  1  0.65963769  0.38939120  0.68363465  1.0
  Ta  Ta4  1  0.88939120  0.84036231  0.68363465  1.0
  Ta  Ta5  1  0.38939120  0.34036231  0.31636535  1.0
  Ta  Ta6  1  0.84036231  0.11060880  0.31636535  1.0
  Ta  Ta7  1  0.34036231  0.61060880  0.68363465  1.0
  P  P8  1  0.25000000  0.75000000  -0.00000000  1.0
  P  P9  1  0.75000000  0.25000000  0.00000000  1.0
  P  P10  1  0.75000000  0.75000000  0.00000000  1.0
  P  P11  1  0.25000000  0.25000000  -0.00000000  1.0
  O  O12  1  0.08242751  1.13383752  1.18980882  1.0
  O  O13  1  0.58242751  0.63383752  -0.18980882  1.0
  O  O14  1  1.13383752  0.91757249  -0.18980882  1.0
  O  O15  1  0.63383752  0.41757249  1.18980882  1.0
  O  O16  1  0.91757249  -0.13383752  1.18980882  1.0
  O  O17  1  0.41757249  0.36616248  -0.18980882  1.0
  O  O18  1  -0.13383752  0.08242751  -0.18980882  1.0
  O  O19  1  0.36616248  0.58242751  1.18980882  1.0
  O  O20  1  0.27575307  0.08674482  0.47454852  1.0
  O  O21  1  0.77575307  0.58674482  0.52545148  1.0
  O  O22  1  0.08674482  0.72424693  0.52545148  1.0
  O  O23  1  0.58674482  0.22424693  0.47454852  1.0
  O  O24  1  0.72424693  0.91325518  0.47454852  1.0
  O  O25  1  0.22424693  0.41325518  0.52545148  1.0
  O  O26  1  0.91325518  0.27575307  0.52545148  1.0
  O  O27  1  0.41325518  0.77575307  0.47454852  1.0
