# generated using pymatgen
data_PbI2
_symmetry_space_group_name_H-M   'P 1'
_cell_length_a   22.69431328
_cell_length_b   22.69431328
_cell_length_c   22.69431328
_cell_angle_alpha   11.77831757
_cell_angle_beta   11.77831757
_cell_angle_gamma   11.77831757
_symmetry_Int_Tables_number   1
_chemical_formula_structural   PbI2
_chemical_formula_sum   'Pb3 I6'
_cell_volume   423.25628109
_cell_formula_units_Z   3
loop_
 _symmetry_equiv_pos_site_id
 _symmetry_equiv_pos_as_xyz
  1  'x, y, z'
loop_
 _atom_site_type_symbol
 _atom_site_label
 _atom_site_symmetry_multiplicity
 _atom_site_fract_x
 _atom_site_fract_y
 _atom_site_fract_z
 _atom_site_occupancy
  Pb  Pb0  1  1.55551040  0.55551040  0.55551040  1.0
  Pb  Pb1  1  1.44448960  0.44448960  0.44448960  1.0
  Pb  Pb2  1  -0.00000000  0.00000000  0.00000000  1.0
  I  I3  1  0.91640976  0.91640976  0.91640976  1.0
  I  I4  1  1.08359024  1.08359024  0.08359024  1.0
  I  I5  1  0.80539679  0.80539679  0.80539679  1.0
  I  I6  1  1.19460321  1.19460321  0.19460321  1.0
  I  I7  1  0.69424382  0.69424382  0.69424382  1.0
  I  I8  1  1.30575618  1.30575618  0.30575618  1.0
