# generated using pymatgen
data_Tb3(Al3Ru)4
_symmetry_space_group_name_H-M   'P 1'
_cell_length_a   8.80571012
_cell_length_b   8.80571012
_cell_length_c   9.57402063
_cell_angle_alpha   90.00000000
_cell_angle_beta   90.00000000
_cell_angle_gamma   120.00000000
_symmetry_Int_Tables_number   1
_chemical_formula_structural   Tb3(Al3Ru)4
_chemical_formula_sum   'Tb6 Al24 Ru8'
_cell_volume   642.91529759
_cell_formula_units_Z   2
loop_
 _symmetry_equiv_pos_site_id
 _symmetry_equiv_pos_as_xyz
  1  'x, y, z'
loop_
 _atom_site_type_symbol
 _atom_site_label
 _atom_site_symmetry_multiplicity
 _atom_site_fract_x
 _atom_site_fract_y
 _atom_site_fract_z
 _atom_site_occupancy
  Tb  Tb0  1  0.19376525  0.80623475  0.25000000  1.0
  Tb  Tb1  1  0.19376525  0.38753051  0.25000000  1.0
  Tb  Tb2  1  0.80623475  0.19376525  0.75000000  1.0
  Tb  Tb3  1  0.80623475  0.61246949  0.75000000  1.0
  Tb  Tb4  1  0.61246949  0.80623475  0.25000000  1.0
  Tb  Tb5  1  0.38753051  0.19376525  0.75000000  1.0
  Al  Al6  1  0.16236000  0.83764000  0.92314927  1.0
  Al  Al7  1  0.16236000  0.83764000  0.57685073  1.0
  Al  Al8  1  0.16236000  0.32472000  0.92314927  1.0
  Al  Al9  1  0.16236000  0.32472000  0.57685073  1.0
  Al  Al10  1  0.83764000  0.16236000  0.42314927  1.0
  Al  Al11  1  0.83764000  0.16236000  0.07685073  1.0
  Al  Al12  1  0.83764000  0.67528000  0.42314927  1.0
  Al  Al13  1  0.83764000  0.67528000  0.07685073  1.0
  Al  Al14  1  0.67528000  0.83764000  0.92314927  1.0
  Al  Al15  1  0.67528000  0.83764000  0.57685073  1.0
  Al  Al16  1  0.32472000  0.16236000  0.42314927  1.0
  Al  Al17  1  0.32472000  0.16236000  0.07685073  1.0
  Al  Al18  1  0.56120992  0.43879008  0.25000000  1.0
  Al  Al19  1  0.56120992  0.12241983  0.25000000  1.0
  Al  Al20  1  0.43879008  0.56120992  0.75000000  1.0
  Al  Al21  1  0.43879008  0.87758017  0.75000000  1.0
  Al  Al22  1  0.87758017  0.43879008  0.25000000  1.0
  Al  Al23  1  0.12241983  0.56120992  0.75000000  1.0
  Al  Al24  1  0.33333333  0.66666667  0.48574231  1.0
  Al  Al25  1  0.33333333  0.66666667  1.01425770  1.0
  Al  Al26  1  0.66666667  0.33333333  -0.01425770  1.0
  Al  Al27  1  0.66666667  0.33333333  0.51425770  1.0
  Al  Al28  1  0.00000000  0.00000000  0.25000000  1.0
  Al  Al29  1  0.00000000  0.00000000  0.75000000  1.0
  Ru  Ru30  1  0.50000000  0.50000000  0.50000000  1.0
  Ru  Ru31  1  0.50000000  0.50000000  0.00000000  1.0
  Ru  Ru32  1  0.50000000  0.00000000  0.50000000  1.0
  Ru  Ru33  1  0.50000000  0.00000000  0.00000000  1.0
  Ru  Ru34  1  -0.00000000  0.50000000  0.50000000  1.0
  Ru  Ru35  1  -0.00000000  0.50000000  0.00000000  1.0
  Ru  Ru36  1  0.00000000  0.00000000  0.50000000  1.0
  Ru  Ru37  1  0.00000000  0.00000000  0.00000000  1.0
