# generated using pymatgen
data_ZnNi(PO3)4
_symmetry_space_group_name_H-M   'P 1'
_cell_length_a   7.27201653
_cell_length_b   7.27201653
_cell_length_c   9.99884707
_cell_angle_alpha   67.28300770
_cell_angle_beta   112.71699230
_cell_angle_gamma   109.64673000
_symmetry_Int_Tables_number   1
_chemical_formula_structural   ZnNi(PO3)4
_chemical_formula_sum   'Zn2 Ni2 P8 O24'
_cell_volume   438.89444963
_cell_formula_units_Z   2
loop_
 _symmetry_equiv_pos_site_id
 _symmetry_equiv_pos_as_xyz
  1  'x, y, z'
loop_
 _atom_site_type_symbol
 _atom_site_label
 _atom_site_symmetry_multiplicity
 _atom_site_fract_x
 _atom_site_fract_y
 _atom_site_fract_z
 _atom_site_occupancy
  Zn  Zn0  1  0.95035610  0.95035610  0.75000000  1.0
  Zn  Zn1  1  1.04964390  0.04964390  0.25000000  1.0
  Ni  Ni2  1  1.00000000  0.50000000  0.00000000  1.0
  Ni  Ni3  1  0.50000000  -0.00000000  0.50000000  1.0
  P  P4  1  0.70379701  0.31242186  0.69637438  1.0
  P  P5  1  0.31242186  -0.29620299  0.80362562  1.0
  P  P6  1  1.29620299  0.68757814  0.30362562  1.0
  P  P7  1  0.68757814  0.29620299  0.19637438  1.0
  P  P8  1  0.74483046  0.72962967  0.47656248  1.0
  P  P9  1  1.72962967  -0.25516954  0.02343752  1.0
  P  P10  1  1.25516954  0.27037033  0.52343752  1.0
  P  P11  1  1.27037033  0.25516954  0.97656248  1.0
  O  O12  1  1.46622309  0.31304828  0.65526246  1.0
  O  O13  1  1.31304828  0.46622309  0.84473754  1.0
  O  O14  1  1.53377691  -0.31304828  0.34473754  1.0
  O  O15  1  0.68695172  0.53377691  0.15526246  1.0
  O  O16  1  0.78473355  0.50185521  0.56528511  1.0
  O  O17  1  0.50185521  -0.21526645  0.93471489  1.0
  O  O18  1  1.21526645  0.49814479  0.43471489  1.0
  O  O19  1  0.49814479  0.21526645  0.06528511  1.0
  O  O20  1  0.81057437  -0.65822830  0.84930355  1.0
  O  O21  1  0.34177170  -0.18942563  0.65069645  1.0
  O  O22  1  1.18942563  -0.34177170  0.15069645  1.0
  O  O23  1  0.65822830  0.18942563  0.34930355  1.0
  O  O24  1  0.71388761  0.12063049  0.67292416  1.0
  O  O25  1  1.12063049  0.71388761  0.82707584  1.0
  O  O26  1  0.28611239  -0.12063049  0.32707584  1.0
  O  O27  1  0.87936951  0.28611239  0.17292416  1.0
  O  O28  1  1.70537073  -0.19097470  0.58225152  1.0
  O  O29  1  0.80902530  -0.29462927  0.91774848  1.0
  O  O30  1  1.29462927  0.19097470  0.41774848  1.0
  O  O31  1  1.19097470  -0.70537073  0.08225152  1.0
  O  O32  1  0.91304470  0.84716231  0.40714410  1.0
  O  O33  1  1.84716231  -0.08695530  0.09285590  1.0
  O  O34  1  1.08695530  0.15283769  0.59285590  1.0
  O  O35  1  1.15283769  0.08695530  0.90714410  1.0
