# generated using pymatgen
data_Gd5BiPt2
_symmetry_space_group_name_H-M   'P 1'
_cell_length_a   8.88670891
_cell_length_b   8.88670891
_cell_length_c   8.88670891
_cell_angle_alpha   126.61319255
_cell_angle_beta   126.61319255
_cell_angle_gamma   78.88263168
_symmetry_Int_Tables_number   1
_chemical_formula_structural   Gd5BiPt2
_chemical_formula_sum   'Gd10 Bi2 Pt4'
_cell_volume   437.48777494
_cell_formula_units_Z   2
loop_
 _symmetry_equiv_pos_site_id
 _symmetry_equiv_pos_as_xyz
  1  'x, y, z'
loop_
 _atom_site_type_symbol
 _atom_site_label
 _atom_site_symmetry_multiplicity
 _atom_site_fract_x
 _atom_site_fract_y
 _atom_site_fract_z
 _atom_site_occupancy
  Gd  Gd0  1  1.20725104  0.70725104  1.18507083  1.0
  Gd  Gd1  1  0.47781979  0.97781979  1.18507083  1.0
  Gd  Gd2  1  1.02218021  1.20725104  1.50000000  1.0
  Gd  Gd3  1  0.29274896  0.47781979  0.50000000  1.0
  Gd  Gd4  1  0.70725104  0.52218021  0.50000000  1.0
  Gd  Gd5  1  0.97781979  0.79274896  1.50000000  1.0
  Gd  Gd6  1  0.52218021  1.02218021  0.81492917  1.0
  Gd  Gd7  1  0.79274896  0.29274896  0.81492917  1.0
  Gd  Gd8  1  -0.00000000  -0.00000000  -0.00000000  1.0
  Gd  Gd9  1  0.50000000  0.50000000  1.00000000  1.0
  Bi  Bi10  1  0.75000000  0.75000000  1.00000000  1.0
  Bi  Bi11  1  0.25000000  0.25000000  0.00000000  1.0
  Pt  Pt12  1  0.86225864  0.36225864  1.22451728  1.0
  Pt  Pt13  1  0.63774136  0.86225864  1.50000000  1.0
  Pt  Pt14  1  0.36225864  0.13774136  0.50000000  1.0
  Pt  Pt15  1  0.13774136  0.63774136  0.77548272  1.0
