# generated using pymatgen
data_Na2SnF6
_symmetry_space_group_name_H-M   'P 1'
_cell_length_a   9.62306205
_cell_length_b   9.62306205
_cell_length_c   5.27878947
_cell_angle_alpha   90.00000000
_cell_angle_beta   90.00000000
_cell_angle_gamma   120.00000000
_symmetry_Int_Tables_number   1
_chemical_formula_structural   Na2SnF6
_chemical_formula_sum   'Na6 Sn3 F18'
_cell_volume   423.34218336
_cell_formula_units_Z   3
loop_
 _symmetry_equiv_pos_site_id
 _symmetry_equiv_pos_as_xyz
  1  'x, y, z'
loop_
 _atom_site_type_symbol
 _atom_site_label
 _atom_site_symmetry_multiplicity
 _atom_site_fract_x
 _atom_site_fract_y
 _atom_site_fract_z
 _atom_site_occupancy
  Na  Na0  1  0.70690482  0.70690482  0.50000000  1.0
  Na  Na1  1  0.00000000  0.29309518  0.50000000  1.0
  Na  Na2  1  0.29309518  0.00000000  0.50000000  1.0
  Na  Na3  1  0.37172072  0.37172072  0.00000000  1.0
  Na  Na4  1  0.00000000  0.62827928  0.00000000  1.0
  Na  Na5  1  0.62827928  -0.00000000  0.00000000  1.0
  Sn  Sn6  1  0.33333333  0.66666667  0.49687466  1.0
  Sn  Sn7  1  0.66666667  0.33333333  0.50312534  1.0
  Sn  Sn8  1  0.00000000  0.00000000  0.00000000  1.0
  F  F9  1  0.08855796  0.88996638  0.21316371  1.0
  F  F10  1  0.88996638  0.08855796  0.78683629  1.0
  F  F11  1  0.80140842  0.91144204  0.21316371  1.0
  F  F12  1  0.11003362  0.19859158  0.21316371  1.0
  F  F13  1  0.91144204  0.80140842  0.78683629  1.0
  F  F14  1  0.19859158  0.11003362  0.78683629  1.0
  F  F15  1  0.41168064  0.86434489  0.28261780  1.0
  F  F16  1  0.86434489  0.41168064  0.71738220  1.0
  F  F17  1  0.45266425  0.58831936  0.28261780  1.0
  F  F18  1  0.13565511  0.54733575  0.28261780  1.0
  F  F19  1  0.58831936  0.45266425  0.71738220  1.0
  F  F20  1  0.54733575  0.13565511  0.71738220  1.0
  F  F21  1  0.77742604  0.53234755  0.28951832  1.0
  F  F22  1  0.53234755  0.77742604  0.71048168  1.0
  F  F23  1  0.75492151  0.22257396  0.28951832  1.0
  F  F24  1  0.46765245  0.24507849  0.28951832  1.0
  F  F25  1  0.22257396  0.75492151  0.71048168  1.0
  F  F26  1  0.24507849  0.46765245  0.71048168  1.0
