# generated using pymatgen
data_Cs2TeSe2
_symmetry_space_group_name_H-M   'P 1'
_cell_length_a   7.21185160
_cell_length_b   7.21185160
_cell_length_c   8.42163931
_cell_angle_alpha   90.00000000
_cell_angle_beta   90.00000000
_cell_angle_gamma   110.86350943
_symmetry_Int_Tables_number   1
_chemical_formula_structural   Cs2TeSe2
_chemical_formula_sum   'Cs4 Te2 Se4'
_cell_volume   409.29615319
_cell_formula_units_Z   2
loop_
 _symmetry_equiv_pos_site_id
 _symmetry_equiv_pos_as_xyz
  1  'x, y, z'
loop_
 _atom_site_type_symbol
 _atom_site_label
 _atom_site_symmetry_multiplicity
 _atom_site_fract_x
 _atom_site_fract_y
 _atom_site_fract_z
 _atom_site_occupancy
  Cs  Cs0  1  0.09657684  0.90342316  0.00213206  1.0
  Cs  Cs1  1  -0.09657684  1.09657684  0.50213206  1.0
  Cs  Cs2  1  0.42337855  0.57662145  0.20228322  1.0
  Cs  Cs3  1  -0.42337855  1.42337855  0.70228322  1.0
  Te  Te4  1  0.22013407  0.77986593  0.54931205  1.0
  Te  Te5  1  -0.22013407  1.22013407  0.04931205  1.0
  Se  Se6  1  -0.07617030  1.58656387  0.36498634  1.0
  Se  Se7  1  0.58656387  0.92382970  0.86498634  1.0
  Se  Se8  1  -0.58656387  1.07617030  0.36498634  1.0
  Se  Se9  1  0.07617030  0.41343613  0.86498634  1.0
