# generated using pymatgen
data_BC5
_symmetry_space_group_name_H-M   'P 1'
_cell_length_a   2.55133422
_cell_length_b   2.55133422
_cell_length_c   6.39184703
_cell_angle_alpha   90.00000000
_cell_angle_beta   90.00000000
_cell_angle_gamma   120.00000000
_symmetry_Int_Tables_number   1
_chemical_formula_structural   BC5
_chemical_formula_sum   'B1 C5'
_cell_volume   36.03227730
_cell_formula_units_Z   1
loop_
 _symmetry_equiv_pos_site_id
 _symmetry_equiv_pos_as_xyz
  1  'x, y, z'
loop_
 _atom_site_type_symbol
 _atom_site_label
 _atom_site_symmetry_multiplicity
 _atom_site_fract_x
 _atom_site_fract_y
 _atom_site_fract_z
 _atom_site_occupancy
  B  B0  1  0.00000000  0.00000000  0.00691465  1.0
  C  C1  1  0.00000000  0.00000000  0.25972860  1.0
  C  C2  1  0.33333333  0.66666667  0.33859888  1.0
  C  C3  1  0.33333333  0.66666667  0.58175734  1.0
  C  C4  1  0.66666667  0.33333333  0.66440203  1.0
  C  C5  1  0.66666667  0.33333333  0.89959851  1.0
