# generated using pymatgen
data_Na2LiAu3
_symmetry_space_group_name_H-M   'P 1'
_cell_length_a   5.61106098
_cell_length_b   5.61106098
_cell_length_c   8.67735886
_cell_angle_alpha   90.00000000
_cell_angle_beta   90.00000000
_cell_angle_gamma   120.00000000
_symmetry_Int_Tables_number   1
_chemical_formula_structural   Na2LiAu3
_chemical_formula_sum   'Na4 Li2 Au6'
_cell_volume   236.59641873
_cell_formula_units_Z   2
loop_
 _symmetry_equiv_pos_site_id
 _symmetry_equiv_pos_as_xyz
  1  'x, y, z'
loop_
 _atom_site_type_symbol
 _atom_site_label
 _atom_site_symmetry_multiplicity
 _atom_site_fract_x
 _atom_site_fract_y
 _atom_site_fract_z
 _atom_site_occupancy
  Na  Na0  1  0.33333333  0.66666667  0.93130862  1.0
  Na  Na1  1  0.33333333  0.66666667  0.56869138  1.0
  Na  Na2  1  0.66666667  0.33333333  0.43130862  1.0
  Na  Na3  1  0.66666667  0.33333333  0.06869138  1.0
  Li  Li4  1  0.00000000  0.00000000  0.50000000  1.0
  Li  Li5  1  -0.00000000  -0.00000000  -0.00000000  1.0
  Au  Au6  1  0.16793079  0.83206921  0.25000000  1.0
  Au  Au7  1  0.16793079  0.33586159  0.25000000  1.0
  Au  Au8  1  0.83206921  0.16793079  0.75000000  1.0
  Au  Au9  1  0.83206921  0.66413841  0.75000000  1.0
  Au  Au10  1  0.66413841  0.83206921  0.25000000  1.0
  Au  Au11  1  0.33586159  0.16793079  0.75000000  1.0
