# generated using pymatgen
data_Hf3Sb7Pd
_symmetry_space_group_name_H-M   'P 1'
_cell_length_a   17.62515717
_cell_length_b   3.99029728
_cell_length_c   14.68755290
_cell_angle_alpha   90.00000000
_cell_angle_beta   90.00000000
_cell_angle_gamma   90.00000000
_symmetry_Int_Tables_number   1
_chemical_formula_structural   Hf3Sb7Pd
_chemical_formula_sum   'Hf12 Sb28 Pd4'
_cell_volume   1032.96996549
_cell_formula_units_Z   4
loop_
 _symmetry_equiv_pos_site_id
 _symmetry_equiv_pos_as_xyz
  1  'x, y, z'
loop_
 _atom_site_type_symbol
 _atom_site_label
 _atom_site_symmetry_multiplicity
 _atom_site_fract_x
 _atom_site_fract_y
 _atom_site_fract_z
 _atom_site_occupancy
  Hf  Hf0  1  0.84836656  0.25000000  0.31156243  1.0
  Hf  Hf1  1  0.34836656  0.25000000  0.18843757  1.0
  Hf  Hf2  1  0.15163344  0.75000000  0.68843757  1.0
  Hf  Hf3  1  0.65163344  0.75000000  0.81156243  1.0
  Hf  Hf4  1  0.86954579  0.25000000  0.03157072  1.0
  Hf  Hf5  1  0.36954579  0.25000000  0.46842928  1.0
  Hf  Hf6  1  0.13045421  0.75000000  0.96842928  1.0
  Hf  Hf7  1  0.63045421  0.75000000  0.53157072  1.0
  Hf  Hf8  1  0.89290202  0.25000000  0.58810654  1.0
  Hf  Hf9  1  0.39290202  0.25000000  0.91189346  1.0
  Hf  Hf10  1  0.10709798  0.75000000  0.41189346  1.0
  Hf  Hf11  1  0.60709798  0.75000000  0.08810654  1.0
  Sb  Sb12  1  0.51993068  0.25000000  0.19521964  1.0
  Sb  Sb13  1  0.01993068  0.25000000  0.30478036  1.0
  Sb  Sb14  1  0.48006932  0.75000000  0.80478036  1.0
  Sb  Sb15  1  0.98006932  0.75000000  0.69521964  1.0
  Sb  Sb16  1  0.53668900  0.25000000  0.42891806  1.0
  Sb  Sb17  1  0.03668900  0.25000000  0.07108194  1.0
  Sb  Sb18  1  0.46331100  0.75000000  0.57108194  1.0
  Sb  Sb19  1  0.96331100  0.75000000  0.92891806  1.0
  Sb  Sb20  1  0.57163115  0.25000000  0.94096706  1.0
  Sb  Sb21  1  0.07163115  0.25000000  0.55903294  1.0
  Sb  Sb22  1  0.42836885  0.75000000  0.05903294  1.0
  Sb  Sb23  1  0.92836885  0.75000000  0.44096706  1.0
  Sb  Sb24  1  0.59493847  0.25000000  0.67623518  1.0
  Sb  Sb25  1  0.09493847  0.25000000  0.82376482  1.0
  Sb  Sb26  1  0.40506153  0.75000000  0.32376482  1.0
  Sb  Sb27  1  0.90506153  0.75000000  0.17623518  1.0
  Sb  Sb28  1  0.72751173  0.25000000  0.14886499  1.0
  Sb  Sb29  1  0.22751173  0.25000000  0.35113501  1.0
  Sb  Sb30  1  0.27248827  0.75000000  0.85113501  1.0
  Sb  Sb31  1  0.77248827  0.75000000  0.64886499  1.0
  Sb  Sb32  1  0.74864275  0.25000000  0.48114808  1.0
  Sb  Sb33  1  0.24864275  0.25000000  0.01885192  1.0
  Sb  Sb34  1  0.25135725  0.75000000  0.51885192  1.0
  Sb  Sb35  1  0.75135725  0.75000000  0.98114808  1.0
  Sb  Sb36  1  0.78219679  0.25000000  0.82100634  1.0
  Sb  Sb37  1  0.28219679  0.25000000  0.67899366  1.0
  Sb  Sb38  1  0.21780321  0.75000000  0.17899366  1.0
  Sb  Sb39  1  0.71780321  0.75000000  0.32100634  1.0
  Pd  Pd40  1  0.93456551  0.25000000  0.80953876  1.0
  Pd  Pd41  1  0.43456551  0.25000000  0.69046124  1.0
  Pd  Pd42  1  0.06543449  0.75000000  0.19046124  1.0
  Pd  Pd43  1  0.56543449  0.75000000  0.30953876  1.0
