# generated using pymatgen
data_Ta3(Bi2O7)2
_symmetry_space_group_name_H-M   'P 1'
_cell_length_a   7.66296691
_cell_length_b   7.66296691
_cell_length_c   12.14219525
_cell_angle_alpha   80.01701194
_cell_angle_beta   99.98298806
_cell_angle_gamma   119.94783805
_symmetry_Int_Tables_number   1
_chemical_formula_structural   Ta3(Bi2O7)2
_chemical_formula_sum   'Ta6 Bi8 O28'
_cell_volume   605.29191937
_cell_formula_units_Z   2
loop_
 _symmetry_equiv_pos_site_id
 _symmetry_equiv_pos_as_xyz
  1  'x, y, z'
loop_
 _atom_site_type_symbol
 _atom_site_label
 _atom_site_symmetry_multiplicity
 _atom_site_fract_x
 _atom_site_fract_y
 _atom_site_fract_z
 _atom_site_occupancy
  O  O0  1  0.62406198  -0.36630434  0.08475873  1.0
  O  O1  1  1.36630434  0.37593802  0.58475873  1.0
  O  O2  1  0.63369566  -0.37593802  0.41524127  1.0
  O  O3  1  1.37593802  0.36630434  0.91524127  1.0
  O  O4  1  0.70641533  -0.07127664  0.22190574  1.0
  O  O5  1  1.07127664  0.29358467  0.72190574  1.0
  O  O6  1  0.92872336  -0.29358467  0.27809426  1.0
  O  O7  1  1.29358467  0.07127664  0.77809426  1.0
  O  O8  1  1.63988836  0.05364071  0.41316019  1.0
  O  O9  1  0.94635929  -0.63988836  0.91316019  1.0
  O  O10  1  1.05364071  0.63988836  0.08683981  1.0
  O  O11  1  0.36011164  -0.05364071  0.58683981  1.0
  O  O12  1  1.64402416  0.22329100  0.08318287  1.0
  O  O13  1  0.77670900  -0.64402416  0.58318287  1.0
  O  O14  1  1.22329100  0.64402416  0.41681713  1.0
  O  O15  1  0.35597584  -0.22329100  0.91681713  1.0
  O  O16  1  0.34215162  -0.07023661  0.21701996  1.0
  O  O17  1  1.07023661  0.65784838  0.71701996  1.0
  O  O18  1  0.92976339  -0.65784838  0.28298004  1.0
  O  O19  1  1.65784838  0.07023661  0.78298004  1.0
  O  O20  1  1.56302616  0.34282111  0.27266502  1.0
  O  O21  1  0.65717889  -0.56302616  0.77266502  1.0
  O  O22  1  1.34282111  0.56302616  0.22733498  1.0
  O  O23  1  0.43697384  -0.34282111  0.72733498  1.0
  O  O24  1  1.13503784  0.08717653  0.42303525  1.0
  O  O25  1  0.91282347  -0.13503784  0.92303525  1.0
  O  O26  1  1.08717653  0.13503784  0.07696475  1.0
  O  O27  1  0.86496216  -0.08717653  0.57696475  1.0
  Bi  Bi28  1  1.77591981  0.01397078  0.99037766  1.0
  Bi  Bi29  1  0.98602922  -0.77591981  0.49037766  1.0
  Bi  Bi30  1  1.01397078  0.77591981  0.50962234  1.0
  Bi  Bi31  1  0.22408019  -0.01397078  0.00962234  1.0
  Bi  Bi32  1  1.47710588  0.24861060  0.47071702  1.0
  Bi  Bi33  1  0.75138940  -0.47710588  0.97071702  1.0
  Bi  Bi34  1  1.24861060  0.47710588  0.02928298  1.0
  Bi  Bi35  1  0.52289412  -0.24861060  0.52928298  1.0
  Ta  Ta36  1  1.62979024  0.13555102  0.24147708  1.0
  Ta  Ta37  1  0.86444898  -0.62979024  0.74147708  1.0
  Ta  Ta38  1  1.13555102  0.62979024  0.25852292  1.0
  Ta  Ta39  1  0.37020976  -0.13555102  0.75852292  1.0
  Ta  Ta40  1  0.64785171  -0.35214829  0.25000000  1.0
  Ta  Ta41  1  1.35214829  0.35214829  0.75000000  1.0
