# generated using pymatgen
data_La3Sn7
_symmetry_space_group_name_H-M   'P 1'
_cell_length_a   13.36372414
_cell_length_b   13.36372414
_cell_length_c   4.73594798
_cell_angle_alpha   90.00000000
_cell_angle_beta   90.00000000
_cell_angle_gamma   160.02323829
_symmetry_Int_Tables_number   1
_chemical_formula_structural   La3Sn7
_chemical_formula_sum   'La3 Sn7'
_cell_volume   288.95443049
_cell_formula_units_Z   1
loop_
 _symmetry_equiv_pos_site_id
 _symmetry_equiv_pos_as_xyz
  1  'x, y, z'
loop_
 _atom_site_type_symbol
 _atom_site_label
 _atom_site_symmetry_multiplicity
 _atom_site_fract_x
 _atom_site_fract_y
 _atom_site_fract_z
 _atom_site_occupancy
  La  La0  1  -0.81511713  0.81511713  0.00000000  1.0
  La  La1  1  -0.18488287  1.18488287  0.00000000  1.0
  La  La2  1  0.00000000  0.00000000  0.00000000  1.0
  Sn  Sn3  1  -0.90477204  0.90477204  0.50000000  1.0
  Sn  Sn4  1  -0.09522796  1.09522796  0.50000000  1.0
  Sn  Sn5  1  -0.71106264  0.71106264  0.50000000  1.0
  Sn  Sn6  1  -0.28893736  1.28893736  0.50000000  1.0
  Sn  Sn7  1  -0.59428837  0.59428837  0.00000000  1.0
  Sn  Sn8  1  -0.40571163  1.40571163  0.00000000  1.0
  Sn  Sn9  1  0.50000000  0.50000000  0.50000000  1.0
