# generated using pymatgen
data_Sr(BS2)2
_symmetry_space_group_name_H-M   'P 1'
_cell_length_a   8.95354403
_cell_length_b   8.95354403
_cell_length_c   8.95354403
_cell_angle_alpha   58.12095848
_cell_angle_beta   58.12095848
_cell_angle_gamma   58.12095848
_symmetry_Int_Tables_number   1
_chemical_formula_structural   Sr(BS2)2
_chemical_formula_sum   'Sr3 B6 S12'
_cell_volume   485.67740173
_cell_formula_units_Z   3
loop_
 _symmetry_equiv_pos_site_id
 _symmetry_equiv_pos_as_xyz
  1  'x, y, z'
loop_
 _atom_site_type_symbol
 _atom_site_label
 _atom_site_symmetry_multiplicity
 _atom_site_fract_x
 _atom_site_fract_y
 _atom_site_fract_z
 _atom_site_occupancy
  Sr  Sr0  1  0.19091660  0.19091660  0.19091660  1.0
  Sr  Sr1  1  0.80908340  -0.19091660  -0.19091660  1.0
  Sr  Sr2  1  0.00000000  0.00000000  0.00000000  1.0
  B  B3  1  0.63452140  0.38621142  -0.76406686  1.0
  B  B4  1  0.76406686  0.36547860  -0.38621142  1.0
  B  B5  1  0.61378858  0.76406686  -0.63452140  1.0
  B  B6  1  0.36547860  0.61378858  -0.23593314  1.0
  B  B7  1  0.23593314  0.63452140  -0.61378858  1.0
  B  B8  1  0.38621142  0.23593314  -0.36547860  1.0
  S  S9  1  0.61119161  0.18452172  -0.55003926  1.0
  S  S10  1  0.55003926  0.38880839  -0.18452172  1.0
  S  S11  1  0.81547828  0.55003926  -0.61119161  1.0
  S  S12  1  0.38880839  0.81547828  -0.44996074  1.0
  S  S13  1  0.44996074  0.61119161  -0.81547828  1.0
  S  S14  1  0.18452172  0.44996074  -0.38880839  1.0
  S  S15  1  0.37350171  0.04768471  -0.14334816  1.0
  S  S16  1  1.14334816  -0.37350171  -0.04768471  1.0
  S  S17  1  0.95231529  0.14334816  -0.37350171  1.0
  S  S18  1  0.62649829  -0.04768471  0.14334816  1.0
  S  S19  1  0.85665184  -0.62649829  0.04768471  1.0
  S  S20  1  1.04768471  -0.14334816  -0.62649829  1.0
