# generated using pymatgen
data_Ba2Cd3Bi4
_symmetry_space_group_name_H-M   'P 1'
_cell_length_a   9.54495667
_cell_length_b   9.54495667
_cell_length_c   9.39459063
_cell_angle_alpha   90.00000000
_cell_angle_beta   90.00000000
_cell_angle_gamma   136.46914529
_symmetry_Int_Tables_number   1
_chemical_formula_structural   Ba2Cd3Bi4
_chemical_formula_sum   'Ba4 Cd6 Bi8'
_cell_volume   589.50067433
_cell_formula_units_Z   2
loop_
 _symmetry_equiv_pos_site_id
 _symmetry_equiv_pos_as_xyz
  1  'x, y, z'
loop_
 _atom_site_type_symbol
 _atom_site_label
 _atom_site_symmetry_multiplicity
 _atom_site_fract_x
 _atom_site_fract_y
 _atom_site_fract_z
 _atom_site_occupancy
  Ba  Ba0  1  -0.38370137  0.38370137  0.07738713  1.0
  Ba  Ba1  1  0.11629863  0.88370137  0.42261287  1.0
  Ba  Ba2  1  0.38370137  0.61629863  0.92261287  1.0
  Ba  Ba3  1  -0.11629863  0.11629863  0.57738713  1.0
  Cd  Cd4  1  0.52892941  0.97107059  0.25000000  1.0
  Cd  Cd5  1  0.02892941  0.47107059  0.25000000  1.0
  Cd  Cd6  1  -0.02892941  0.52892941  0.75000000  1.0
  Cd  Cd7  1  0.47107059  1.02892941  0.75000000  1.0
  Cd  Cd8  1  -0.50000000  0.50000000  0.50000000  1.0
  Cd  Cd9  1  0.00000000  1.00000000  0.00000000  1.0
  Bi  Bi10  1  -0.31450929  0.31450929  0.44838486  1.0
  Bi  Bi11  1  0.18549071  0.81450929  0.05161514  1.0
  Bi  Bi12  1  0.31450929  0.68549071  0.55161514  1.0
  Bi  Bi13  1  -0.18549071  0.18549071  0.94838486  1.0
  Bi  Bi14  1  0.69792285  0.80207715  0.25000000  1.0
  Bi  Bi15  1  0.19792285  0.30207715  0.25000000  1.0
  Bi  Bi16  1  -0.19792285  0.69792285  0.75000000  1.0
  Bi  Bi17  1  0.30207715  1.19792285  0.75000000  1.0
