# generated using pymatgen
data_SbSeBr
_symmetry_space_group_name_H-M   'P 1'
_cell_length_a   8.41427724
_cell_length_b   4.05065201
_cell_length_c   11.65693463
_cell_angle_alpha   90.00000000
_cell_angle_beta   90.00000000
_cell_angle_gamma   90.00000000
_symmetry_Int_Tables_number   1
_chemical_formula_structural   SbSeBr
_chemical_formula_sum   'Sb4 Se4 Br4'
_cell_volume   397.30690518
_cell_formula_units_Z   4
loop_
 _symmetry_equiv_pos_site_id
 _symmetry_equiv_pos_as_xyz
  1  'x, y, z'
loop_
 _atom_site_type_symbol
 _atom_site_label
 _atom_site_symmetry_multiplicity
 _atom_site_fract_x
 _atom_site_fract_y
 _atom_site_fract_z
 _atom_site_occupancy
  Sb  Sb0  1  0.90369377  0.75000000  0.12898807  1.0
  Sb  Sb1  1  0.40369377  0.75000000  0.37101193  1.0
  Sb  Sb2  1  0.09630623  0.25000000  0.87101193  1.0
  Sb  Sb3  1  0.59630623  0.25000000  0.62898807  1.0
  Se  Se4  1  0.68499094  0.75000000  0.47404064  1.0
  Se  Se5  1  0.18499094  0.75000000  0.02595936  1.0
  Se  Se6  1  0.31500906  0.25000000  0.52595936  1.0
  Se  Se7  1  0.81500906  0.25000000  0.97404064  1.0
  Br  Br8  1  0.94393295  0.75000000  0.71895910  1.0
  Br  Br9  1  0.44393295  0.75000000  0.78104090  1.0
  Br  Br10  1  0.05606705  0.25000000  0.28104090  1.0
  Br  Br11  1  0.55606705  0.25000000  0.21895910  1.0
