# generated using pymatgen
data_YGaIr
_symmetry_space_group_name_H-M   'P 1'
_cell_length_a   6.84399409
_cell_length_b   4.33578719
_cell_length_c   7.78620632
_cell_angle_alpha   90.00000000
_cell_angle_beta   90.00000000
_cell_angle_gamma   90.00000000
_symmetry_Int_Tables_number   1
_chemical_formula_structural   YGaIr
_chemical_formula_sum   'Y4 Ga4 Ir4'
_cell_volume   231.04867952
_cell_formula_units_Z   4
loop_
 _symmetry_equiv_pos_site_id
 _symmetry_equiv_pos_as_xyz
  1  'x, y, z'
loop_
 _atom_site_type_symbol
 _atom_site_label
 _atom_site_symmetry_multiplicity
 _atom_site_fract_x
 _atom_site_fract_y
 _atom_site_fract_z
 _atom_site_occupancy
  Y  Y0  1  1.02284310  0.75000000  0.68866783  1.0
  Y  Y1  1  0.52284310  0.75000000  0.81133217  1.0
  Y  Y2  1  -0.02284310  0.25000000  0.31133217  1.0
  Y  Y3  1  0.47715690  0.25000000  0.18866783  1.0
  Ga  Ga4  1  0.65782091  0.75000000  0.43066392  1.0
  Ga  Ga5  1  0.15782091  0.75000000  0.06933608  1.0
  Ga  Ga6  1  0.34217909  0.25000000  0.56933608  1.0
  Ga  Ga7  1  0.84217909  0.25000000  0.93066392  1.0
  Ir  Ir8  1  0.77125767  0.75000000  0.10948376  1.0
  Ir  Ir9  1  0.27125767  0.75000000  0.39051624  1.0
  Ir  Ir10  1  0.22874233  0.25000000  0.89051624  1.0
  Ir  Ir11  1  0.72874233  0.25000000  0.60948376  1.0
