# generated using pymatgen
data_Ga2Te5
_symmetry_space_group_name_H-M   'P 1'
_cell_length_a   6.74348780
_cell_length_b   6.74348780
_cell_length_c   6.74348780
_cell_angle_alpha   105.51255020
_cell_angle_beta   105.51255020
_cell_angle_gamma   117.71676584
_symmetry_Int_Tables_number   1
_chemical_formula_structural   Ga2Te5
_chemical_formula_sum   'Ga2 Te5'
_cell_volume   232.34973205
_cell_formula_units_Z   1
loop_
 _symmetry_equiv_pos_site_id
 _symmetry_equiv_pos_as_xyz
  1  'x, y, z'
loop_
 _atom_site_type_symbol
 _atom_site_label
 _atom_site_symmetry_multiplicity
 _atom_site_fract_x
 _atom_site_fract_y
 _atom_site_fract_z
 _atom_site_occupancy
  Ga  Ga0  1  0.75000000  0.25000000  0.50000000  1.0
  Ga  Ga1  1  0.25000000  0.75000000  0.50000000  1.0
  Te  Te2  1  0.67295437  1.18035602  0.85331039  1.0
  Te  Te3  1  0.18035602  0.32704563  0.50740165  1.0
  Te  Te4  1  0.32704563  0.81964398  1.14668961  1.0
  Te  Te5  1  0.81964398  0.67295437  0.49259835  1.0
  Te  Te6  1  0.00000000  0.00000000  0.00000000  1.0
