# generated using pymatgen
data_RbMoPO6
_symmetry_space_group_name_H-M   'P 1'
_cell_length_a   10.22800861
_cell_length_b   9.77503933
_cell_length_c   8.47895944
_cell_angle_alpha   67.72551615
_cell_angle_beta   62.17731361
_cell_angle_gamma   50.09717023
_symmetry_Int_Tables_number   1
_chemical_formula_structural   RbMoPO6
_chemical_formula_sum   'Rb4 Mo4 P4 O24'
_cell_volume   571.15919044
_cell_formula_units_Z   4
loop_
 _symmetry_equiv_pos_site_id
 _symmetry_equiv_pos_as_xyz
  1  'x, y, z'
loop_
 _atom_site_type_symbol
 _atom_site_label
 _atom_site_symmetry_multiplicity
 _atom_site_fract_x
 _atom_site_fract_y
 _atom_site_fract_z
 _atom_site_occupancy
  Rb  Rb0  1  0.29452045  0.70547955  -0.29452045  1.0
  Rb  Rb1  1  -0.29452045  1.29452045  0.29452045  1.0
  Rb  Rb2  1  -0.04452045  0.54452045  0.54452045  1.0
  Rb  Rb3  1  -0.45547955  0.95547955  0.95547955  1.0
  Mo  Mo4  1  0.46997241  0.03002759  0.46997241  1.0
  Mo  Mo5  1  0.03002759  0.46997241  0.03002759  1.0
  Mo  Mo6  1  0.78002759  0.21997241  0.78002759  1.0
  Mo  Mo7  1  0.21997241  0.78002759  0.21997241  1.0
  P  P8  1  -0.13244062  0.86755938  0.13244062  1.0
  P  P9  1  0.13244062  0.13244062  -0.13244062  1.0
  P  P10  1  0.38244062  0.38244062  0.11755938  1.0
  P  P11  1  0.11755938  1.11755938  0.38244062  1.0
  O  O12  1  0.66013851  -0.04516981  1.23223159  1.0
  O  O13  1  0.15279971  0.23223159  -0.04516981  1.0
  O  O14  1  0.23223159  0.15279971  1.66013851  1.0
  O  O15  1  -0.04516981  0.66013851  0.15279971  1.0
  O  O16  1  0.58986149  0.29516981  0.01776841  1.0
  O  O17  1  0.09720029  1.01776841  0.29516981  1.0
  O  O18  1  0.01776841  1.09720029  0.58986149  1.0
  O  O19  1  0.29516981  0.58986149  0.09720029  1.0
  O  O20  1  -0.05454509  0.89339068  0.22750486  1.0
  O  O21  1  0.93364954  0.22750486  0.89339068  1.0
  O  O22  1  0.22750486  0.93364954  -0.05454509  1.0
  O  O23  1  0.89339068  -0.05454509  0.93364954  1.0
  O  O24  1  0.30454509  0.35660932  0.02249514  1.0
  O  O25  1  0.31635046  0.02249514  0.35660932  1.0
  O  O26  1  0.02249514  0.31635046  0.30454509  1.0
  O  O27  1  0.35660932  0.30454509  0.31635046  1.0
  O  O28  1  0.57398896  0.07200303  0.53761337  1.0
  O  O29  1  0.81639465  -0.46238663  1.07200303  1.0
  O  O30  1  0.53761337  -0.18360535  0.57398896  1.0
  O  O31  1  1.07200303  -0.42601104  0.81639465  1.0
  O  O32  1  0.67601104  0.17799697  0.71238663  1.0
  O  O33  1  0.43360535  0.71238663  0.17799697  1.0
  O  O34  1  0.71238663  0.43360535  0.67601104  1.0
  O  O35  1  0.17799697  0.67601104  0.43360535  1.0
