# generated using pymatgen
data_Cs3In2Br9
_symmetry_space_group_name_H-M   'P 1'
_cell_length_a   7.95265345
_cell_length_b   7.95265345
_cell_length_c   20.16453053
_cell_angle_alpha   90.00000000
_cell_angle_beta   90.00000000
_cell_angle_gamma   120.00000000
_symmetry_Int_Tables_number   1
_chemical_formula_structural   Cs3In2Br9
_chemical_formula_sum   'Cs6 In4 Br18'
_cell_volume   1104.44186877
_cell_formula_units_Z   2
loop_
 _symmetry_equiv_pos_site_id
 _symmetry_equiv_pos_as_xyz
  1  'x, y, z'
loop_
 _atom_site_type_symbol
 _atom_site_label
 _atom_site_symmetry_multiplicity
 _atom_site_fract_x
 _atom_site_fract_y
 _atom_site_fract_z
 _atom_site_occupancy
  Cs  Cs0  1  0.00000000  0.00000000  0.25000000  1.0
  Cs  Cs1  1  0.00000000  0.00000000  0.75000000  1.0
  Cs  Cs2  1  0.33333333  0.66666667  0.43132409  1.0
  Cs  Cs3  1  0.33333333  0.66666667  0.06867591  1.0
  Cs  Cs4  1  0.66666667  0.33333333  0.93132409  1.0
  Cs  Cs5  1  0.66666667  0.33333333  0.56867591  1.0
  In  In6  1  0.33333333  0.66666667  0.84418625  1.0
  In  In7  1  0.33333333  0.66666667  0.65581375  1.0
  In  In8  1  0.66666667  0.33333333  0.34418625  1.0
  In  In9  1  0.66666667  0.33333333  0.15581375  1.0
  Br  Br10  1  0.16887348  0.83112652  0.91041204  1.0
  Br  Br11  1  0.16887348  0.83112652  0.58958796  1.0
  Br  Br12  1  0.16887348  0.33774696  0.91041204  1.0
  Br  Br13  1  0.16887348  0.33774696  0.58958796  1.0
  Br  Br14  1  0.83112652  0.16887348  0.41041204  1.0
  Br  Br15  1  0.83112652  0.16887348  0.08958796  1.0
  Br  Br16  1  0.83112652  0.66225304  0.41041204  1.0
  Br  Br17  1  0.83112652  0.66225304  0.08958796  1.0
  Br  Br18  1  0.66225304  0.83112652  0.91041204  1.0
  Br  Br19  1  0.66225304  0.83112652  0.58958796  1.0
  Br  Br20  1  0.33774696  0.16887348  0.41041204  1.0
  Br  Br21  1  0.33774696  0.16887348  0.08958796  1.0
  Br  Br22  1  0.51278587  0.48721413  0.25000000  1.0
  Br  Br23  1  0.51278587  0.02557174  0.25000000  1.0
  Br  Br24  1  0.48721413  0.51278587  0.75000000  1.0
  Br  Br25  1  0.48721413  0.97442826  0.75000000  1.0
  Br  Br26  1  0.97442826  0.48721413  0.25000000  1.0
  Br  Br27  1  0.02557174  0.51278587  0.75000000  1.0
