# generated using pymatgen
data_Lu3Pd4
_symmetry_space_group_name_H-M   'P 1'
_cell_length_a   7.72670745
_cell_length_b   7.72670745
_cell_length_c   7.72670745
_cell_angle_alpha   114.16286412
_cell_angle_beta   114.16286412
_cell_angle_gamma   114.16286412
_symmetry_Int_Tables_number   1
_chemical_formula_structural   Lu3Pd4
_chemical_formula_sum   'Lu6 Pd8'
_cell_volume   276.84662359
_cell_formula_units_Z   2
loop_
 _symmetry_equiv_pos_site_id
 _symmetry_equiv_pos_as_xyz
  1  'x, y, z'
loop_
 _atom_site_type_symbol
 _atom_site_label
 _atom_site_symmetry_multiplicity
 _atom_site_fract_x
 _atom_site_fract_y
 _atom_site_fract_z
 _atom_site_occupancy
  Lu  Lu0  1  1.09637037  0.22644981  0.47977199  1.0
  Lu  Lu1  1  0.52022801  -0.09637037  -0.22644981  1.0
  Lu  Lu2  1  0.77355019  0.52022801  -0.09637037  1.0
  Lu  Lu3  1  0.90362963  0.77355019  0.52022801  1.0
  Lu  Lu4  1  0.47977199  0.09637037  0.22644981  1.0
  Lu  Lu5  1  1.22644981  1.47977199  0.09637037  1.0
  Pd  Pd6  1  0.95278585  0.43394879  0.26895186  1.0
  Pd  Pd7  1  0.73104814  1.04721415  -0.43394879  1.0
  Pd  Pd8  1  0.56605121  -0.26895186  0.04721415  1.0
  Pd  Pd9  1  1.04721415  0.56605121  0.73104814  1.0
  Pd  Pd10  1  1.26895186  0.95278585  0.43394879  1.0
  Pd  Pd11  1  0.43394879  0.26895186  -0.04721415  1.0
  Pd  Pd12  1  0.50000000  0.50000000  0.50000000  1.0
  Pd  Pd13  1  -0.00000000  -0.00000000  0.00000000  1.0
