# generated using pymatgen
data_Be(PO3)2
_symmetry_space_group_name_H-M   'P 1'
_cell_length_a   7.19220638
_cell_length_b   7.19220638
_cell_length_c   9.14605035
_cell_angle_alpha   90.00000000
_cell_angle_beta   90.00000000
_cell_angle_gamma   88.99334348
_symmetry_Int_Tables_number   1
_chemical_formula_structural   Be(PO3)2
_chemical_formula_sum   'Be4 P8 O24'
_cell_volume   473.03234268
_cell_formula_units_Z   4
loop_
 _symmetry_equiv_pos_site_id
 _symmetry_equiv_pos_as_xyz
  1  'x, y, z'
loop_
 _atom_site_type_symbol
 _atom_site_label
 _atom_site_symmetry_multiplicity
 _atom_site_fract_x
 _atom_site_fract_y
 _atom_site_fract_z
 _atom_site_occupancy
  Be  Be0  1  0.14151895  0.66605473  0.45835136  1.0
  Be  Be1  1  -0.33394527  1.14151895  0.54164864  1.0
  Be  Be2  1  0.33394527  0.85848105  0.04164864  1.0
  Be  Be3  1  -0.14151895  1.33394527  0.95835136  1.0
  P  P4  1  -0.14691548  1.61214058  0.21153066  1.0
  P  P5  1  0.61214058  0.85308452  0.78846934  1.0
  P  P6  1  -0.61214058  1.14691548  0.28846934  1.0
  P  P7  1  0.14691548  0.38785942  0.71153066  1.0
  P  P8  1  0.44025022  0.55974978  0.25000000  1.0
  P  P9  1  -0.44025022  1.44025022  0.75000000  1.0
  P  P10  1  0.91493775  0.91493775  0.00000000  1.0
  P  P11  1  0.08506225  0.08506225  0.50000000  1.0
  O  O12  1  0.34338413  0.60932796  0.39040000  1.0
  O  O13  1  -0.39067204  1.34338413  0.60960000  1.0
  O  O14  1  0.39067204  0.65661587  0.10960000  1.0
  O  O15  1  -0.34338413  1.39067204  0.89040000  1.0
  O  O16  1  -0.18247218  1.81471556  0.13774551  1.0
  O  O17  1  0.81471556  0.81752782  0.86225449  1.0
  O  O18  1  -0.81471556  1.18247218  0.36225449  1.0
  O  O19  1  0.18247218  0.18528444  0.63774551  1.0
  O  O20  1  -0.01180786  1.63310230  0.33369383  1.0
  O  O21  1  0.63310230  0.98819214  0.66630617  1.0
  O  O22  1  -0.63310230  1.01180786  0.16630617  1.0
  O  O23  1  0.01180786  0.36689770  0.83369383  1.0
  O  O24  1  -0.10275962  1.46672298  0.09885104  1.0
  O  O25  1  0.46672298  0.89724038  0.90114896  1.0
  O  O26  1  -0.46672298  1.10275962  0.40114896  1.0
  O  O27  1  0.10275962  0.53327702  0.59885104  1.0
  O  O28  1  -0.34319586  1.57865981  0.28886143  1.0
  O  O29  1  0.57865981  0.65680414  0.71113857  1.0
  O  O30  1  -0.57865981  1.34319586  0.21113857  1.0
  O  O31  1  0.34319586  0.42134019  0.78886143  1.0
  O  O32  1  -0.14076654  1.11632561  0.01118266  1.0
  O  O33  1  0.11632561  0.85923346  0.98881734  1.0
  O  O34  1  -0.11632561  1.14076654  0.48881734  1.0
  O  O35  1  0.14076654  0.88367439  0.51118266  1.0
