# generated using pymatgen
data_K6MgO4
_symmetry_space_group_name_H-M   'P 1'
_cell_length_a   8.59269766
_cell_length_b   8.59269766
_cell_length_c   6.65860750
_cell_angle_alpha   90.00000000
_cell_angle_beta   90.00000000
_cell_angle_gamma   120.00000000
_symmetry_Int_Tables_number   1
_chemical_formula_structural   K6MgO4
_chemical_formula_sum   'K12 Mg2 O8'
_cell_volume   425.76808992
_cell_formula_units_Z   2
loop_
 _symmetry_equiv_pos_site_id
 _symmetry_equiv_pos_as_xyz
  1  'x, y, z'
loop_
 _atom_site_type_symbol
 _atom_site_label
 _atom_site_symmetry_multiplicity
 _atom_site_fract_x
 _atom_site_fract_y
 _atom_site_fract_z
 _atom_site_occupancy
  K  K0  1  0.71163178  0.85581589  0.28032521  1.0
  K  K1  1  0.85581589  0.71163178  0.78032521  1.0
  K  K2  1  0.85581589  0.14418411  0.78032521  1.0
  K  K3  1  0.14418411  0.85581589  0.28032521  1.0
  K  K4  1  0.14418411  0.28836822  0.28032521  1.0
  K  K5  1  0.28836822  0.14418411  0.78032521  1.0
  K  K6  1  0.92692393  0.46346196  0.10720942  1.0
  K  K7  1  0.46346196  0.92692393  0.60720942  1.0
  K  K8  1  0.46346196  0.53653804  0.60720942  1.0
  K  K9  1  0.53653804  0.46346196  0.10720942  1.0
  K  K10  1  0.53653804  0.07307607  0.10720942  1.0
  K  K11  1  0.07307607  0.53653804  0.60720942  1.0
  Mg  Mg12  1  0.33333333  0.66666667  0.00240578  1.0
  Mg  Mg13  1  0.66666667  0.33333333  0.50240578  1.0
  O  O14  1  0.40392857  0.20196429  0.40145901  1.0
  O  O15  1  0.20196429  0.40392857  0.90145901  1.0
  O  O16  1  0.20196429  0.79803571  0.90145901  1.0
  O  O17  1  0.79803571  0.20196429  0.40145901  1.0
  O  O18  1  0.79803571  0.59607143  0.40145901  1.0
  O  O19  1  0.59607143  0.79803571  0.90145901  1.0
  O  O20  1  0.33333333  0.66666667  0.30701329  1.0
  O  O21  1  0.66666667  0.33333333  0.80701329  1.0
