# generated using pymatgen
data_Na5Sn2
_symmetry_space_group_name_H-M   'P 1'
_cell_length_a   8.18024950
_cell_length_b   8.18024950
_cell_length_c   8.18024950
_cell_angle_alpha   39.05364553
_cell_angle_beta   39.05364553
_cell_angle_gamma   39.05364553
_symmetry_Int_Tables_number   1
_chemical_formula_structural   Na5Sn2
_chemical_formula_sum   'Na5 Sn2'
_cell_volume   195.43510768
_cell_formula_units_Z   1
loop_
 _symmetry_equiv_pos_site_id
 _symmetry_equiv_pos_as_xyz
  1  'x, y, z'
loop_
 _atom_site_type_symbol
 _atom_site_label
 _atom_site_symmetry_multiplicity
 _atom_site_fract_x
 _atom_site_fract_y
 _atom_site_fract_z
 _atom_site_occupancy
  Na  Na0  1  0.85607069  0.85607069  0.85607069  1.0
  Na  Na1  1  1.14392931  1.14392931  0.14392931  1.0
  Na  Na2  1  0.71341802  0.71341802  0.71341802  1.0
  Na  Na3  1  1.28658198  1.28658198  0.28658198  1.0
  Na  Na4  1  -0.00000000  -0.00000000  0.00000000  1.0
  Sn  Sn5  1  1.56688049  0.56688049  0.56688049  1.0
  Sn  Sn6  1  1.43311951  0.43311951  0.43311951  1.0
