# generated using pymatgen
data_KSb2PO8
_symmetry_space_group_name_H-M   'P 1'
_cell_length_a   7.23298705
_cell_length_b   7.23298705
_cell_length_c   15.27626592
_cell_angle_alpha   84.88923006
_cell_angle_beta   95.11076994
_cell_angle_gamma   120.31356069
_symmetry_Int_Tables_number   1
_chemical_formula_structural   KSb2PO8
_chemical_formula_sum   'K4 Sb8 P4 O32'
_cell_volume   686.27756761
_cell_formula_units_Z   4
loop_
 _symmetry_equiv_pos_site_id
 _symmetry_equiv_pos_as_xyz
  1  'x, y, z'
loop_
 _atom_site_type_symbol
 _atom_site_label
 _atom_site_symmetry_multiplicity
 _atom_site_fract_x
 _atom_site_fract_y
 _atom_site_fract_z
 _atom_site_occupancy
  K  K0  1  0.68336409  0.07239257  0.58427300  1.0
  K  K1  1  0.92760743  0.31663591  0.08427300  1.0
  K  K2  1  0.73797698  0.01808254  0.85145775  1.0
  K  K3  1  0.98191746  0.26202302  0.35145775  1.0
  Sb  Sb4  1  0.70679561  0.54480870  0.72099467  1.0
  Sb  Sb5  1  0.45519130  0.29320439  0.22099467  1.0
  Sb  Sb6  1  1.02335072  0.71144440  0.53142676  1.0
  Sb  Sb7  1  0.28855560  -0.02335072  0.03142676  1.0
  Sb  Sb8  1  0.37699321  0.35787761  0.90434847  1.0
  Sb  Sb9  1  0.64212239  0.62300679  0.40434847  1.0
  Sb  Sb10  1  0.21028735  0.04129370  0.71478795  1.0
  Sb  Sb11  1  0.95870630  0.78971265  0.21478795  1.0
  P  P12  1  1.11749147  0.65385712  0.86226765  1.0
  P  P13  1  0.34614288  -0.11749147  0.36226765  1.0
  P  P14  1  1.31940109  0.45202130  0.57350952  1.0
  P  P15  1  0.54797870  -0.31940109  0.07350952  1.0
  O  O16  1  0.83371051  0.83476859  0.49618345  1.0
  O  O17  1  0.16523141  0.16628949  -0.00381655  1.0
  O  O18  1  0.57569747  0.58118378  0.82235501  1.0
  O  O19  1  0.41881622  0.42430253  0.32235501  1.0
  O  O20  1  0.89198816  0.86141779  0.71399106  1.0
  O  O21  1  0.13858221  0.10801184  0.21399106  1.0
  O  O22  1  0.52689998  0.22649344  0.72178658  1.0
  O  O23  1  0.77350656  0.47310002  0.22178658  1.0
  O  O24  1  1.07704921  0.76143930  0.93621966  1.0
  O  O25  1  0.23856070  -0.07704921  0.43621966  1.0
  O  O26  1  0.50030415  0.16821226  0.93958352  1.0
  O  O27  1  0.83178774  0.49969585  0.43958352  1.0
  O  O28  1  0.84964160  0.50469420  0.62620089  1.0
  O  O29  1  0.49530580  0.15035840  0.12620089  1.0
  O  O30  1  1.08982393  0.75339408  0.11342536  1.0
  O  O31  1  0.24660592  -0.08982393  0.61342536  1.0
  O  O32  1  0.90174123  0.49228121  0.81505580  1.0
  O  O33  1  0.50771879  0.09825877  0.31505580  1.0
  O  O34  1  1.17372977  0.72871331  0.29465542  1.0
  O  O35  1  0.27128669  -0.17372977  0.79465542  1.0
  O  O36  1  1.18235383  0.54591304  0.52915104  1.0
  O  O37  1  0.45408696  -0.18235383  0.02915104  1.0
  O  O38  1  1.21137220  0.51677740  0.90659633  1.0
  O  O39  1  0.48322260  -0.21137220  0.40659633  1.0
  O  O40  1  1.39413706  0.50816144  0.14110479  1.0
  O  O41  1  0.49183856  -0.39413706  0.64110479  1.0
  O  O42  1  1.15783005  0.23631124  0.62074246  1.0
  O  O43  1  0.76368876  -0.15783005  0.12074246  1.0
  O  O44  1  1.17021484  0.18409195  0.80960215  1.0
  O  O45  1  0.81590805  -0.17021484  0.30960215  1.0
  O  O46  1  0.42701160  0.41153515  0.49958070  1.0
  O  O47  1  0.58846485  0.57298840  -0.00041930  1.0
