# generated using pymatgen
data_Li4Ca2Mg(SiN3)2
_symmetry_space_group_name_H-M   'P 1'
_cell_length_a   5.73197659
_cell_length_b   5.73197659
_cell_length_c   5.63866652
_cell_angle_alpha   87.47438083
_cell_angle_beta   92.52561917
_cell_angle_gamma   62.18154522
_symmetry_Int_Tables_number   1
_chemical_formula_structural   Li4Ca2Mg(SiN3)2
_chemical_formula_sum   'Li4 Ca2 Mg1 Si2 N6'
_cell_volume   163.25331599
_cell_formula_units_Z   1
loop_
 _symmetry_equiv_pos_site_id
 _symmetry_equiv_pos_as_xyz
  1  'x, y, z'
loop_
 _atom_site_type_symbol
 _atom_site_label
 _atom_site_symmetry_multiplicity
 _atom_site_fract_x
 _atom_site_fract_y
 _atom_site_fract_z
 _atom_site_occupancy
  Li  Li0  1  1.33237095  0.00964638  0.62481587  1.0
  Li  Li1  1  0.99035362  -0.33237095  0.62481587  1.0
  Li  Li2  1  1.00964638  0.33237095  0.37518413  1.0
  Li  Li3  1  0.66762905  -0.00964638  0.37518413  1.0
  Ca  Ca4  1  0.67798316  -0.32201684  -0.00000000  1.0
  Ca  Ca5  1  1.32201684  0.32201684  -0.00000000  1.0
  Mg  Mg6  1  0.00000000  0.00000000  0.00000000  1.0
  Si  Si7  1  0.67856361  -0.67856361  0.63312749  1.0
  Si  Si8  1  0.32143639  -0.32143639  0.36687251  1.0
  N  N9  1  1.67775329  0.03280091  0.74822211  1.0
  N  N10  1  0.96719909  -0.67775329  0.74822211  1.0
  N  N11  1  1.03280091  0.67775329  0.25177789  1.0
  N  N12  1  0.32224671  -0.03280091  0.25177789  1.0
  N  N13  1  0.37783447  -0.37783447  0.68741430  1.0
  N  N14  1  0.62216553  -0.62216553  0.31258570  1.0
