# generated using pymatgen
data_Zr3Te
_symmetry_space_group_name_H-M   'P 1'
_cell_length_a   11.24106157
_cell_length_b   11.24106157
_cell_length_c   11.24106157
_cell_angle_alpha   29.37259061
_cell_angle_beta   29.37259061
_cell_angle_gamma   29.37259061
_symmetry_Int_Tables_number   1
_chemical_formula_structural   Zr3Te
_chemical_formula_sum   'Zr9 Te3'
_cell_volume   302.41526627
_cell_formula_units_Z   3
loop_
 _symmetry_equiv_pos_site_id
 _symmetry_equiv_pos_as_xyz
  1  'x, y, z'
loop_
 _atom_site_type_symbol
 _atom_site_label
 _atom_site_symmetry_multiplicity
 _atom_site_fract_x
 _atom_site_fract_y
 _atom_site_fract_z
 _atom_site_occupancy
  Zr  Zr0  1  1.41525298  1.41525298  -0.08867979  1.0
  Zr  Zr1  1  1.41525298  0.91132021  0.41525298  1.0
  Zr  Zr2  1  1.08867979  0.58474702  0.58474702  1.0
  Zr  Zr3  1  1.58474702  0.08867979  0.58474702  1.0
  Zr  Zr4  1  1.58474702  0.58474702  0.08867979  1.0
  Zr  Zr5  1  0.91132021  1.41525298  0.41525298  1.0
  Zr  Zr6  1  1.66735551  0.66735551  0.66735551  1.0
  Zr  Zr7  1  1.33264449  0.33264449  0.33264449  1.0
  Zr  Zr8  1  1.50000000  0.50000000  0.50000000  1.0
  Te  Te9  1  0.87466295  0.87466295  0.87466295  1.0
  Te  Te10  1  1.12533705  1.12533705  0.12533705  1.0
  Te  Te11  1  0.00000000  0.00000000  0.00000000  1.0
