# generated using pymatgen
data_Nb2VSe4
_symmetry_space_group_name_H-M   'P 1'
_cell_length_a   7.09637379
_cell_length_b   7.09637379
_cell_length_c   6.36390618
_cell_angle_alpha   65.09087045
_cell_angle_beta   114.90912955
_cell_angle_gamma   151.40159754
_symmetry_Int_Tables_number   1
_chemical_formula_structural   Nb2VSe4
_chemical_formula_sum   'Nb2 V1 Se4'
_cell_volume   138.15390631
_cell_formula_units_Z   1
loop_
 _symmetry_equiv_pos_site_id
 _symmetry_equiv_pos_as_xyz
  1  'x, y, z'
loop_
 _atom_site_type_symbol
 _atom_site_label
 _atom_site_symmetry_multiplicity
 _atom_site_fract_x
 _atom_site_fract_y
 _atom_site_fract_z
 _atom_site_occupancy
  Nb  Nb0  1  0.74328889  -0.74328889  0.67777687  1.0
  Nb  Nb1  1  1.25671111  -0.25671111  0.32222313  1.0
  V  V2  1  0.00000000  0.00000000  0.00000000  1.0
  Se  Se3  1  0.89999828  -0.89999828  0.55668977  1.0
  Se  Se4  1  1.10000172  -0.10000172  0.44331023  1.0
  Se  Se5  1  0.63595101  -0.63595101  0.97505836  1.0
  Se  Se6  1  1.36404899  -0.36404899  0.02494164  1.0
