# generated using pymatgen
data_Tl2NiSe2
_symmetry_space_group_name_H-M   'P 1'
_cell_length_a   8.00126522
_cell_length_b   8.00126522
_cell_length_c   8.00126522
_cell_angle_alpha   149.40684601
_cell_angle_beta   149.40684601
_cell_angle_gamma   43.81279140
_symmetry_Int_Tables_number   1
_chemical_formula_structural   Tl2NiSe2
_chemical_formula_sum   'Tl2 Ni1 Se2'
_cell_volume   132.30863936
_cell_formula_units_Z   1
loop_
 _symmetry_equiv_pos_site_id
 _symmetry_equiv_pos_as_xyz
  1  'x, y, z'
loop_
 _atom_site_type_symbol
 _atom_site_label
 _atom_site_symmetry_multiplicity
 _atom_site_fract_x
 _atom_site_fract_y
 _atom_site_fract_z
 _atom_site_occupancy
  Tl  Tl0  1  0.25000000  0.75000000  0.50000000  1.0
  Tl  Tl1  1  0.75000000  0.25000000  0.50000000  1.0
  Ni  Ni2  1  0.00000000  0.00000000  0.00000000  1.0
  Se  Se3  1  0.58237411  0.58237411  1.00000000  1.0
  Se  Se4  1  0.41762589  0.41762589  0.00000000  1.0
