# generated using pymatgen
data_CaZn2Si2(HO4)2
_symmetry_space_group_name_H-M   'P 1'
_cell_length_a   5.35199592
_cell_length_b   5.35199592
_cell_length_c   12.67387499
_cell_angle_alpha   90.00000000
_cell_angle_beta   90.00000000
_cell_angle_gamma   106.86892712
_symmetry_Int_Tables_number   1
_chemical_formula_structural   CaZn2Si2(HO4)2
_chemical_formula_sum   'Ca2 Zn4 Si4 H4 O16'
_cell_volume   347.40797842
_cell_formula_units_Z   2
loop_
 _symmetry_equiv_pos_site_id
 _symmetry_equiv_pos_as_xyz
  1  'x, y, z'
loop_
 _atom_site_type_symbol
 _atom_site_label
 _atom_site_symmetry_multiplicity
 _atom_site_fract_x
 _atom_site_fract_y
 _atom_site_fract_z
 _atom_site_occupancy
  Ca  Ca0  1  -0.21467873  1.21467873  0.50000000  1.0
  Ca  Ca1  1  0.28532127  0.71467873  0.00000000  1.0
  Zn  Zn2  1  -0.59006202  1.07750593  0.25272728  1.0
  Zn  Zn3  1  -0.57750593  1.09006202  0.75272728  1.0
  Zn  Zn4  1  -0.07750593  1.59006202  0.74727272  1.0
  Zn  Zn5  1  -0.09006202  1.57750593  0.24727272  1.0
  Si  Si6  1  0.41064592  0.59947682  0.38217138  1.0
  Si  Si7  1  -0.09947682  1.08935408  0.88217138  1.0
  Si  Si8  1  0.40052318  0.58935408  0.61782862  1.0
  Si  Si9  1  -0.08935408  1.09947682  0.11782862  1.0
  H  H10  1  -0.45454158  1.29843796  0.04702670  1.0
  H  H11  1  0.20156204  0.95454158  0.54702670  1.0
  H  H12  1  -0.29843796  1.45454158  0.95297330  1.0
  H  H13  1  0.04545842  0.79843796  0.45297330  1.0
  O  O14  1  0.53611134  0.91499847  0.37247808  1.0
  O  O15  1  0.58500153  0.96388866  0.87247808  1.0
  O  O16  1  0.08500153  0.46388866  0.62752192  1.0
  O  O17  1  0.03611134  0.41499847  0.12752192  1.0
  O  O18  1  -0.45927321  1.44892531  0.29378096  1.0
  O  O19  1  0.05107469  0.95927321  0.79378096  1.0
  O  O20  1  -0.44892531  1.45927321  0.70621904  1.0
  O  O21  1  0.04072679  0.94892531  0.20621904  1.0
  O  O22  1  -0.41029706  1.01693744  0.12104933  1.0
  O  O23  1  0.48306256  0.91029706  0.62104933  1.0
  O  O24  1  -0.01693744  1.41029706  0.87895067  1.0
  O  O25  1  0.08970294  0.51693744  0.37895067  1.0
  O  O26  1  0.49688689  0.50311311  0.50000000  1.0
  O  O27  1  -0.00311311  0.00311311  0.00000000  1.0
  O  O28  1  0.05229039  0.94770961  0.50000000  1.0
  O  O29  1  -0.44770961  1.44770961  0.00000000  1.0
