# generated using pymatgen
data_Si(Sn3O4)2
_symmetry_space_group_name_H-M   'P 1'
_cell_length_a   7.40714795
_cell_length_b   7.40714795
_cell_length_c   12.06137406
_cell_angle_alpha   90.00000000
_cell_angle_beta   90.00000000
_cell_angle_gamma   120.00000000
_symmetry_Int_Tables_number   1
_chemical_formula_structural   Si(Sn3O4)2
_chemical_formula_sum   'Si2 Sn12 O16'
_cell_volume   573.09874425
_cell_formula_units_Z   2
loop_
 _symmetry_equiv_pos_site_id
 _symmetry_equiv_pos_as_xyz
  1  'x, y, z'
loop_
 _atom_site_type_symbol
 _atom_site_label
 _atom_site_symmetry_multiplicity
 _atom_site_fract_x
 _atom_site_fract_y
 _atom_site_fract_z
 _atom_site_occupancy
  Si  Si0  1  0.33333333  0.66666667  0.52210861  1.0
  Si  Si1  1  0.66666667  0.33333333  0.02210861  1.0
  Sn  Sn2  1  0.65610030  0.82805015  0.02509286  1.0
  Sn  Sn3  1  0.82805015  0.65610030  0.52509286  1.0
  Sn  Sn4  1  0.82805015  0.17194985  0.52509286  1.0
  Sn  Sn5  1  0.17194985  0.82805015  0.02509286  1.0
  Sn  Sn6  1  0.17194985  0.34389970  0.02509286  1.0
  Sn  Sn7  1  0.34389970  0.17194985  0.52509286  1.0
  Sn  Sn8  1  0.01120387  0.50560193  0.26623542  1.0
  Sn  Sn9  1  0.50560193  0.01120387  0.76623542  1.0
  Sn  Sn10  1  0.50560193  0.49439807  0.76623542  1.0
  Sn  Sn11  1  0.49439807  0.50560193  0.26623542  1.0
  Sn  Sn12  1  0.49439807  0.98879613  0.26623542  1.0
  Sn  Sn13  1  0.98879613  0.49439807  0.76623542  1.0
  O  O14  1  0.61662554  0.80831277  0.19894939  1.0
  O  O15  1  0.80831277  0.61662554  0.69894939  1.0
  O  O16  1  0.80831277  0.19168723  0.69894939  1.0
  O  O17  1  0.19168723  0.80831277  0.19894939  1.0
  O  O18  1  0.19168723  0.38337446  0.19894939  1.0
  O  O19  1  0.38337446  0.19168723  0.69894939  1.0
  O  O20  1  0.91123035  0.45561518  0.06881694  1.0
  O  O21  1  0.45561518  0.91123035  0.56881694  1.0
  O  O22  1  0.45561518  0.54438482  0.56881694  1.0
  O  O23  1  0.54438482  0.45561518  0.06881694  1.0
  O  O24  1  0.54438482  0.08876965  0.06881694  1.0
  O  O25  1  0.08876965  0.54438482  0.56881694  1.0
  O  O26  1  0.33333333  0.66666667  -0.00063194  1.0
  O  O27  1  0.66666667  0.33333333  0.49936806  1.0
  O  O28  1  0.33333333  0.66666667  0.38423950  1.0
  O  O29  1  0.66666667  0.33333333  0.88423950  1.0
