# generated using pymatgen
data_Na2SeO2
_symmetry_space_group_name_H-M   'P 1'
_cell_length_a   9.42812942
_cell_length_b   8.53300042
_cell_length_c   6.99349758
_cell_angle_alpha   74.03301989
_cell_angle_beta   60.47501162
_cell_angle_gamma   45.49196849
_symmetry_Int_Tables_number   1
_chemical_formula_structural   Na2SeO2
_chemical_formula_sum   'Na8 Se4 O8'
_cell_volume   346.88254721
_cell_formula_units_Z   4
loop_
 _symmetry_equiv_pos_site_id
 _symmetry_equiv_pos_as_xyz
  1  'x, y, z'
loop_
 _atom_site_type_symbol
 _atom_site_label
 _atom_site_symmetry_multiplicity
 _atom_site_fract_x
 _atom_site_fract_y
 _atom_site_fract_z
 _atom_site_occupancy
  Na  Na0  1  -0.22006999  0.63485273  0.46109297  1.0
  Na  Na1  1  0.12412429  0.46109297  1.63485273  1.0
  Na  Na2  1  -0.38485273  0.47006999  1.12587571  1.0
  Na  Na3  1  -0.21109297  1.12587571  0.47006999  1.0
  Na  Na4  1  0.46109297  0.12412429  -0.22006999  1.0
  Na  Na5  1  0.63485273  -0.22006999  1.12412429  1.0
  Na  Na6  1  0.12587571  0.78890703  0.61514727  1.0
  Na  Na7  1  -0.52993001  0.61514727  0.78890703  1.0
  Se  Se8  1  0.12500000  0.12500000  1.62500000  1.0
  Se  Se9  1  0.12500000  0.62500000  1.12500000  1.0
  Se  Se10  1  0.12500000  0.12500000  1.12500000  1.0
  Se  Se11  1  0.62500000  0.12500000  1.12500000  1.0
  O  O12  1  0.40847387  -0.16299268  1.51602232  1.0
  O  O13  1  0.23849649  0.51602232  -0.16299268  1.0
  O  O14  1  -0.58700732  0.84152613  1.01150351  1.0
  O  O15  1  -0.26602232  1.01150351  0.84152613  1.0
  O  O16  1  0.51602232  0.23849649  1.40847387  1.0
  O  O17  1  -0.16299268  0.40847387  0.23849649  1.0
  O  O18  1  0.01150351  0.73397768  0.41299268  1.0
  O  O19  1  -0.15847387  0.41299268  0.73397768  1.0
