# generated using pymatgen
data_Sr6ScCr(BO3)6
_symmetry_space_group_name_H-M   'P 1'
_cell_length_a   7.67391640
_cell_length_b   7.67391640
_cell_length_c   7.67391640
_cell_angle_alpha   105.32270784
_cell_angle_beta   105.32270784
_cell_angle_gamma   105.32270784
_symmetry_Int_Tables_number   1
_chemical_formula_structural   Sr6ScCr(BO3)6
_chemical_formula_sum   'Sr6 Sc1 Cr1 B6 O18'
_cell_volume   392.30327721
_cell_formula_units_Z   1
loop_
 _symmetry_equiv_pos_site_id
 _symmetry_equiv_pos_as_xyz
  1  'x, y, z'
loop_
 _atom_site_type_symbol
 _atom_site_label
 _atom_site_symmetry_multiplicity
 _atom_site_fract_x
 _atom_site_fract_y
 _atom_site_fract_z
 _atom_site_occupancy
  Sr  Sr0  1  0.76549406  0.66611221  0.15398360  1.0
  Sr  Sr1  1  1.33388779  -0.15398360  0.23450594  1.0
  Sr  Sr2  1  0.84601640  0.23450594  0.33388779  1.0
  Sr  Sr3  1  1.23450594  0.33388779  -0.15398360  1.0
  Sr  Sr4  1  0.66611221  1.15398360  -0.23450594  1.0
  Sr  Sr5  1  1.15398360  0.76549406  -0.33388779  1.0
  Sc  Sc6  1  0.50000000  0.50000000  0.50000000  1.0
  Cr  Cr7  1  0.00000000  0.00000000  0.00000000  1.0
  B  B8  1  1.54818320  0.79001143  -0.12870806  1.0
  B  B9  1  1.20998857  0.12870806  -0.54818320  1.0
  B  B10  1  1.12870806  -0.54818320  0.20998857  1.0
  B  B11  1  0.45181680  0.20998857  0.12870806  1.0
  B  B12  1  0.79001143  0.87129194  0.54818320  1.0
  B  B13  1  0.87129194  1.54818320  -0.20998857  1.0
  O  O14  1  0.72836266  0.92867217  -0.00259747  1.0
  O  O15  1  1.07132783  0.00259747  -0.72836266  1.0
  O  O16  1  1.00259747  -0.72836266  0.07132783  1.0
  O  O17  1  0.27163734  0.07132783  0.00259747  1.0
  O  O18  1  0.92867217  0.99740253  -0.27163734  1.0
  O  O19  1  0.99740253  0.72836266  -0.07132783  1.0
  O  O20  1  1.48819220  0.76305597  -0.32504278  1.0
  O  O21  1  1.23694403  0.32504278  -0.48819220  1.0
  O  O22  1  1.32504278  -0.48819220  0.23694403  1.0
  O  O23  1  0.51180780  0.23694403  0.32504278  1.0
  O  O24  1  0.76305597  0.67495722  0.48819220  1.0
  O  O25  1  0.67495722  1.48819220  -0.23694403  1.0
  O  O26  1  0.57391781  0.30432230  0.05338274  1.0
  O  O27  1  0.69567770  0.94661726  0.42608219  1.0
  O  O28  1  0.94661726  1.42608219  -0.30432230  1.0
  O  O29  1  1.42608219  0.69567770  -0.05338274  1.0
  O  O30  1  1.30432230  0.05338274  -0.42608219  1.0
  O  O31  1  1.05338274  -0.42608219  0.30432230  1.0
