# generated using pymatgen
data_Na2BeGeO4
_symmetry_space_group_name_H-M   'P 1'
_cell_length_a   7.29467843
_cell_length_b   5.09439534
_cell_length_c   10.26636774
_cell_angle_alpha   90.00000000
_cell_angle_beta   90.41863375
_cell_angle_gamma   90.00000000
_symmetry_Int_Tables_number   1
_chemical_formula_structural   Na2BeGeO4
_chemical_formula_sum   'Na8 Be4 Ge4 O16'
_cell_volume   381.50832634
_cell_formula_units_Z   4
loop_
 _symmetry_equiv_pos_site_id
 _symmetry_equiv_pos_as_xyz
  1  'x, y, z'
loop_
 _atom_site_type_symbol
 _atom_site_label
 _atom_site_symmetry_multiplicity
 _atom_site_fract_x
 _atom_site_fract_y
 _atom_site_fract_z
 _atom_site_occupancy
  Na  Na0  1  0.26220695  0.68108067  0.86071085  1.0
  Na  Na1  1  0.26220695  0.81891933  0.36071085  1.0
  Na  Na2  1  0.73779305  0.18108067  0.63928915  1.0
  Na  Na3  1  0.73779305  0.31891933  0.13928915  1.0
  Na  Na4  1  1.00108270  0.20716652  0.89148414  1.0
  Na  Na5  1  1.00108270  0.29283348  0.39148414  1.0
  Na  Na6  1  -0.00108270  0.70716652  0.60851586  1.0
  Na  Na7  1  -0.00108270  0.79283348  0.10851586  1.0
  Be  Be8  1  0.50059762  0.15638460  0.91288621  1.0
  Be  Be9  1  0.50059762  0.34361540  0.41288621  1.0
  Be  Be10  1  0.49940238  0.65638460  0.58711379  1.0
  Be  Be11  1  0.49940238  0.84361540  0.08711379  1.0
  Ge  Ge12  1  0.27984564  0.15534166  0.65936374  1.0
  Ge  Ge13  1  0.27984564  0.34465834  0.15936374  1.0
  Ge  Ge14  1  0.72015436  0.65534166  0.84063626  1.0
  Ge  Ge15  1  0.72015436  0.84465834  0.34063626  1.0
  O  O16  1  0.31580996  0.21623909  0.82919341  1.0
  O  O17  1  0.31580996  0.28376091  0.32919341  1.0
  O  O18  1  0.68419004  0.71623909  0.67080659  1.0
  O  O19  1  0.68419004  0.78376091  0.17080659  1.0
  O  O20  1  0.05215151  0.23755678  0.62212755  1.0
  O  O21  1  0.05215151  0.26244322  0.12212755  1.0
  O  O22  1  0.94784849  0.73755678  0.87787245  1.0
  O  O23  1  0.94784849  0.76244322  0.37787245  1.0
  O  O24  1  0.68637603  0.31454094  0.87486393  1.0
  O  O25  1  0.68637603  0.18545906  0.37486393  1.0
  O  O26  1  0.31362397  0.81454094  0.62513607  1.0
  O  O27  1  0.31362397  0.68545906  0.12513607  1.0
  O  O28  1  0.45307189  0.33249931  0.57350285  1.0
  O  O29  1  0.45307189  0.16750069  0.07350285  1.0
  O  O30  1  0.54692811  0.83249931  0.92649715  1.0
  O  O31  1  0.54692811  0.66750069  0.42649715  1.0
