# generated using pymatgen
data_W3O8
_symmetry_space_group_name_H-M   'P 1'
_cell_length_a   10.47299409
_cell_length_b   14.20235288
_cell_length_c   3.81713760
_cell_angle_alpha   90.00000000
_cell_angle_beta   90.00000000
_cell_angle_gamma   90.00000000
_symmetry_Int_Tables_number   1
_chemical_formula_structural   W3O8
_chemical_formula_sum   'W12 O32'
_cell_volume   567.76546612
_cell_formula_units_Z   4
loop_
 _symmetry_equiv_pos_site_id
 _symmetry_equiv_pos_as_xyz
  1  'x, y, z'
loop_
 _atom_site_type_symbol
 _atom_site_label
 _atom_site_symmetry_multiplicity
 _atom_site_fract_x
 _atom_site_fract_y
 _atom_site_fract_z
 _atom_site_occupancy
  W  W0  1  0.46732206  0.61355104  -0.00000000  1.0
  W  W1  1  0.96732206  0.88644896  0.00000000  1.0
  W  W2  1  0.53267794  0.38644896  -0.00000000  1.0
  W  W3  1  0.03267794  0.11355104  0.00000000  1.0
  W  W4  1  0.28395789  0.91437021  0.00000000  1.0
  W  W5  1  0.78395789  0.58562979  0.00000000  1.0
  W  W6  1  0.71604211  0.08562979  0.00000000  1.0
  W  W7  1  0.21604211  0.41437021  0.00000000  1.0
  W  W8  1  0.12162689  0.66661419  0.00000000  1.0
  W  W9  1  0.62162689  0.83338581  0.00000000  1.0
  W  W10  1  0.87837311  0.33338581  0.00000000  1.0
  W  W11  1  0.37837311  0.16661419  0.00000000  1.0
  O  O12  1  0.47255301  0.61560297  0.50000000  1.0
  O  O13  1  0.97255301  0.88439703  0.50000000  1.0
  O  O14  1  0.52744699  0.38439703  0.50000000  1.0
  O  O15  1  0.02744699  0.11560297  0.50000000  1.0
  O  O16  1  0.27485980  0.90921272  0.50000000  1.0
  O  O17  1  0.77485980  0.59078728  0.50000000  1.0
  O  O18  1  0.72514020  0.09078728  0.50000000  1.0
  O  O19  1  0.22514020  0.40921272  0.50000000  1.0
  O  O20  1  0.12200118  0.67038561  0.50000000  1.0
  O  O21  1  0.62200118  0.82961439  0.50000000  1.0
  O  O22  1  0.87799882  0.32961439  0.50000000  1.0
  O  O23  1  0.37799882  0.17038561  0.50000000  1.0
  O  O24  1  0.43859786  0.84855796  -0.00000000  1.0
  O  O25  1  0.93859786  0.65144204  0.00000000  1.0
  O  O26  1  0.56140214  0.15144204  -0.00000000  1.0
  O  O27  1  0.06140214  0.34855796  0.00000000  1.0
  O  O28  1  0.38835402  0.48744107  -0.00000000  1.0
  O  O29  1  0.88835402  0.01255893  0.00000000  1.0
  O  O30  1  0.61164598  0.51255893  -0.00000000  1.0
  O  O31  1  0.11164598  -0.01255893  0.00000000  1.0
  O  O32  1  0.31107237  0.67128761  -0.00000000  1.0
  O  O33  1  0.81107237  0.82871239  0.00000000  1.0
  O  O34  1  0.68892763  0.32871239  -0.00000000  1.0
  O  O35  1  0.18892763  0.17128761  0.00000000  1.0
  O  O36  1  0.12868891  0.81238581  -0.00000000  1.0
  O  O37  1  0.62868891  0.68761419  0.00000000  1.0
  O  O38  1  0.87131109  0.18761419  -0.00000000  1.0
  O  O39  1  0.37131109  0.31238581  0.00000000  1.0
  O  O40  1  0.13889403  0.53192397  -0.00000000  1.0
  O  O41  1  0.63889403  0.96807603  0.00000000  1.0
  O  O42  1  0.86110597  0.46807603  -0.00000000  1.0
  O  O43  1  0.36110597  0.03192397  0.00000000  1.0
