# generated using pymatgen
data_H6CSN4
_symmetry_space_group_name_H-M   'P 1'
_cell_length_a   4.78530845
_cell_length_b   16.04510834
_cell_length_c   7.31520154
_cell_angle_alpha   90.00000000
_cell_angle_beta   122.52885206
_cell_angle_gamma   90.00000000
_symmetry_Int_Tables_number   1
_chemical_formula_structural   H6CSN4
_chemical_formula_sum   'H24 C4 S4 N16'
_cell_volume   473.55309214
_cell_formula_units_Z   4
loop_
 _symmetry_equiv_pos_site_id
 _symmetry_equiv_pos_as_xyz
  1  'x, y, z'
loop_
 _atom_site_type_symbol
 _atom_site_label
 _atom_site_symmetry_multiplicity
 _atom_site_fract_x
 _atom_site_fract_y
 _atom_site_fract_z
 _atom_site_occupancy
  H  H0  1  0.51929265  0.29917147  0.11791503  1.0
  H  H1  1  0.51929265  0.20082853  0.61791503  1.0
  H  H2  1  0.48070735  0.79917147  0.38208497  1.0
  H  H3  1  0.48070735  0.70082853  0.88208497  1.0
  H  H4  1  0.95697856  0.90661124  0.04300045  1.0
  H  H5  1  0.95697856  0.59338876  0.54300045  1.0
  H  H6  1  0.04302144  0.40661124  0.45699955  1.0
  H  H7  1  0.04302144  0.09338876  0.95699955  1.0
  H  H8  1  0.94782325  0.47905315  0.13553639  1.0
  H  H9  1  0.94782325  0.02094685  0.63553639  1.0
  H  H10  1  0.05217675  0.97905315  0.36446361  1.0
  H  H11  1  0.05217675  0.52094685  0.86446361  1.0
  H  H12  1  0.89980339  0.73238680  0.26682806  1.0
  H  H13  1  0.89980339  0.76761320  0.76682806  1.0
  H  H14  1  0.10019661  0.23238680  0.23317194  1.0
  H  H15  1  0.10019661  0.26761320  0.73317194  1.0
  H  H16  1  0.68529928  0.45992069  0.33839728  1.0
  H  H17  1  0.68529928  0.04007931  0.83839728  1.0
  H  H18  1  0.31470072  0.95992069  0.16160272  1.0
  H  H19  1  0.31470072  0.54007931  0.66160272  1.0
  H  H20  1  0.38034095  0.30519853  0.37740062  1.0
  H  H21  1  0.38034095  0.19480147  0.87740062  1.0
  H  H22  1  0.61965905  0.80519853  0.12259938  1.0
  H  H23  1  0.61965905  0.69480147  0.62259938  1.0
  C  C24  1  0.67388826  0.12384031  0.46442263  1.0
  C  C25  1  0.67388826  0.37615969  0.96442263  1.0
  C  C26  1  0.32611174  0.62384031  0.03557737  1.0
  C  C27  1  0.32611174  0.87615969  0.53557737  1.0
  S  S28  1  0.67384672  0.09699879  0.23728897  1.0
  S  S29  1  0.67384672  0.40300121  0.73728897  1.0
  S  S30  1  0.32615328  0.59699879  0.26271103  1.0
  S  S31  1  0.32615328  0.90300121  0.76271103  1.0
  N  N32  1  0.82809063  0.42639998  0.13983468  1.0
  N  N33  1  0.82809063  0.07360002  0.63983468  1.0
  N  N34  1  0.17190937  0.92639998  0.36016532  1.0
  N  N35  1  0.17190937  0.57360002  0.86016532  1.0
  N  N36  1  0.80735309  0.41080999  0.32101372  1.0
  N  N37  1  0.80735309  0.08919001  0.82101372  1.0
  N  N38  1  0.19264691  0.91080999  0.17898628  1.0
  N  N39  1  0.19264691  0.58919001  0.67898628  1.0
  N  N40  1  0.53005428  0.19246734  0.48167004  1.0
  N  N41  1  0.53005428  0.30753266  0.98167004  1.0
  N  N42  1  0.46994572  0.69246734  0.01832996  1.0
  N  N43  1  0.46994572  0.80753266  0.51832996  1.0
  N  N44  1  0.34679904  0.24755393  0.30768042  1.0
  N  N45  1  0.34679904  0.25244607  0.80768042  1.0
  N  N46  1  0.65320096  0.74755393  0.19231958  1.0
  N  N47  1  0.65320096  0.75244607  0.69231958  1.0
