# generated using pymatgen
data_In2Ag2GeSe6
_symmetry_space_group_name_H-M   'P 1'
_cell_length_a   7.56101678
_cell_length_b   7.56101678
_cell_length_c   12.95431468
_cell_angle_alpha   73.42094690
_cell_angle_beta   106.57905310
_cell_angle_gamma   119.08970991
_symmetry_Int_Tables_number   1
_chemical_formula_structural   In2Ag2GeSe6
_chemical_formula_sum   'In4 Ag4 Ge2 Se12'
_cell_volume   610.68492834
_cell_formula_units_Z   2
loop_
 _symmetry_equiv_pos_site_id
 _symmetry_equiv_pos_as_xyz
  1  'x, y, z'
loop_
 _atom_site_type_symbol
 _atom_site_label
 _atom_site_symmetry_multiplicity
 _atom_site_fract_x
 _atom_site_fract_y
 _atom_site_fract_z
 _atom_site_occupancy
  In  In0  1  1.08233853  -0.21434621  0.70000998  1.0
  In  In1  1  1.21434621  -0.08233853  0.20000998  1.0
  In  In2  1  1.22770283  -0.41759311  0.50107199  1.0
  In  In3  1  1.41759311  -0.22770283  0.00107199  1.0
  Ag  Ag4  1  0.70885278  0.09666932  0.69349153  1.0
  Ag  Ag5  1  0.90333068  0.29114722  0.19349153  1.0
  Ag  Ag6  1  0.29978265  0.28398046  0.85551095  1.0
  Ag  Ag7  1  0.71601954  0.70021735  0.35551095  1.0
  Ge  Ge8  1  0.84710052  0.69175012  0.94232522  1.0
  Ge  Ge9  1  0.30824988  0.15289948  0.44232522  1.0
  Se  Se10  1  0.98662929  0.97812090  0.50003380  1.0
  Se  Se11  1  0.02187910  0.01337071  0.00003380  1.0
  Se  Se12  1  0.74334451  0.73599625  0.75011402  1.0
  Se  Se13  1  0.26400375  0.25665549  0.25011402  1.0
  Se  Se14  1  0.51016755  0.45554657  0.52189316  1.0
  Se  Se15  1  0.54445343  0.48983245  0.02189316  1.0
  Se  Se16  1  1.02573976  -0.51305481  0.99216394  1.0
  Se  Se17  1  1.51305481  -0.02573976  0.49216394  1.0
  Se  Se18  1  1.07380221  -0.56333711  0.68534727  1.0
  Se  Se19  1  1.56333711  -0.07380221  0.18534727  1.0
  Se  Se20  1  0.42784850  0.03377675  0.81213815  1.0
  Se  Se21  1  0.96622325  0.57215150  0.31213815  1.0
