# generated using pymatgen
data_Ba3Lu2Zn5O11
_symmetry_space_group_name_H-M   'P 1'
_cell_length_a   9.62776149
_cell_length_b   9.62776149
_cell_length_c   9.62776149
_cell_angle_alpha   60.00000000
_cell_angle_beta   60.00000000
_cell_angle_gamma   60.00000000
_symmetry_Int_Tables_number   1
_chemical_formula_structural   Ba3Lu2Zn5O11
_chemical_formula_sum   'Ba6 Lu4 Zn10 O22'
_cell_volume   631.04593149
_cell_formula_units_Z   2
loop_
 _symmetry_equiv_pos_site_id
 _symmetry_equiv_pos_as_xyz
  1  'x, y, z'
loop_
 _atom_site_type_symbol
 _atom_site_label
 _atom_site_symmetry_multiplicity
 _atom_site_fract_x
 _atom_site_fract_y
 _atom_site_fract_z
 _atom_site_occupancy
  Ba  Ba0  1  -0.79359738  0.79359738  0.79359738  1.0
  Ba  Ba1  1  -0.20640262  0.79359738  0.20640262  1.0
  Ba  Ba2  1  -0.20640262  0.20640262  0.79359738  1.0
  Ba  Ba3  1  0.20640262  1.20640262  -0.20640262  1.0
  Ba  Ba4  1  0.20640262  -0.20640262  0.20640262  1.0
  Ba  Ba5  1  -0.20640262  0.20640262  0.20640262  1.0
  Lu  Lu6  1  0.33588638  1.33588638  0.33588638  1.0
  Lu  Lu7  1  -0.00765913  0.33588638  0.33588638  1.0
  Lu  Lu8  1  0.33588638  1.33588638  -0.00765913  1.0
  Lu  Lu9  1  0.33588638  -0.00765913  0.33588638  1.0
  Zn  Zn10  1  0.58309251  0.91690749  -0.08309251  1.0
  Zn  Zn11  1  0.91690749  0.91690749  -0.41690749  1.0
  Zn  Zn12  1  0.91690749  0.58309251  -0.08309251  1.0
  Zn  Zn13  1  0.58309251  0.58309251  -0.08309251  1.0
  Zn  Zn14  1  0.58309251  0.91690749  -0.41690749  1.0
  Zn  Zn15  1  0.91690749  0.58309251  -0.41690749  1.0
  Zn  Zn16  1  -0.41643441  0.58356559  0.58356559  1.0
  Zn  Zn17  1  1.24930322  0.58356559  -0.41643441  1.0
  Zn  Zn18  1  -0.41643441  0.58356559  1.24930322  1.0
  Zn  Zn19  1  0.58356559  1.24930322  -0.41643441  1.0
  O  O20  1  0.49907927  1.16922269  0.49907927  1.0
  O  O21  1  0.49907927  1.49907927  0.16922269  1.0
  O  O22  1  -0.16738122  0.49907927  0.16922269  1.0
  O  O23  1  -0.16738122  0.16922269  0.49907927  1.0
  O  O24  1  0.16922269  1.49907927  0.49907927  1.0
  O  O25  1  -0.16738122  0.49907927  0.49907927  1.0
  O  O26  1  0.16922269  1.49907927  -0.16738122  1.0
  O  O27  1  0.49907927  1.49907927  -0.16738122  1.0
  O  O28  1  0.49907927  -0.16738122  0.49907927  1.0
  O  O29  1  0.16922269  -0.16738122  0.49907927  1.0
  O  O30  1  0.49907927  1.16922269  -0.16738122  1.0
  O  O31  1  0.49907927  -0.16738122  0.16922269  1.0
  O  O32  1  0.84199191  0.84199191  -0.15800809  1.0
  O  O33  1  0.47402426  0.84199191  -0.15800809  1.0
  O  O34  1  0.84199191  0.84199191  -0.52597574  1.0
  O  O35  1  0.84199191  0.47402426  -0.15800809  1.0
  O  O36  1  0.16950573  0.16950573  0.16950573  1.0
  O  O37  1  0.49148280  0.16950573  0.16950573  1.0
  O  O38  1  0.16950573  0.16950573  0.49148280  1.0
  O  O39  1  0.16950573  0.49148280  0.16950573  1.0
  O  O40  1  -0.50000000  0.50000000  0.50000000  1.0
  O  O41  1  -0.00000000  0.00000000  -0.00000000  1.0
