# generated using pymatgen
data_FeN4
_symmetry_space_group_name_H-M   'P 1'
_cell_length_a   2.97063564
_cell_length_b   3.79314597
_cell_length_c   3.86733311
_cell_angle_alpha   106.81173365
_cell_angle_beta   114.89604281
_cell_angle_gamma   84.44343201
_symmetry_Int_Tables_number   1
_chemical_formula_structural   FeN4
_chemical_formula_sum   'Fe1 N4'
_cell_volume   37.82281021
_cell_formula_units_Z   1
loop_
 _symmetry_equiv_pos_site_id
 _symmetry_equiv_pos_as_xyz
  1  'x, y, z'
loop_
 _atom_site_type_symbol
 _atom_site_label
 _atom_site_symmetry_multiplicity
 _atom_site_fract_x
 _atom_site_fract_y
 _atom_site_fract_z
 _atom_site_occupancy
  Fe  Fe0  1  -0.50000000  -0.00000000  0.00000000  1.0
  N  N1  1  -0.36836455  -0.65236658  0.49415443  1.0
  N  N2  1  -0.63163545  -0.34763342  0.50584557  1.0
  N  N3  1  -0.07354623  -0.68973847  0.86380507  1.0
  N  N4  1  -0.92645377  -0.31026153  0.13619493  1.0
