# generated using pymatgen
data_BaPb2IF5
_symmetry_space_group_name_H-M   'P 1'
_cell_length_a   6.12456806
_cell_length_b   6.12456806
_cell_length_c   10.21110402
_cell_angle_alpha   90.00000000
_cell_angle_beta   90.00000000
_cell_angle_gamma   90.00000000
_symmetry_Int_Tables_number   1
_chemical_formula_structural   BaPb2IF5
_chemical_formula_sum   'Ba2 Pb4 I2 F10'
_cell_volume   383.02192143
_cell_formula_units_Z   2
loop_
 _symmetry_equiv_pos_site_id
 _symmetry_equiv_pos_as_xyz
  1  'x, y, z'
loop_
 _atom_site_type_symbol
 _atom_site_label
 _atom_site_symmetry_multiplicity
 _atom_site_fract_x
 _atom_site_fract_y
 _atom_site_fract_z
 _atom_site_occupancy
  Ba  Ba0  1  0.00000000  0.00000000  0.50000000  1.0
  Ba  Ba1  1  0.50000000  0.50000000  0.50000000  1.0
  Pb  Pb2  1  0.50000000  0.00000000  0.19573154  1.0
  Pb  Pb3  1  0.00000000  0.50000000  0.80426846  1.0
  Pb  Pb4  1  0.50000000  0.00000000  0.76170872  1.0
  Pb  Pb5  1  0.00000000  0.50000000  0.23829128  1.0
  I  I6  1  0.00000000  0.00000000  0.00000000  1.0
  I  I7  1  0.50000000  0.50000000  0.00000000  1.0
  F  F8  1  0.73583586  0.23583586  0.32187140  1.0
  F  F9  1  0.73583586  0.76416414  0.32187140  1.0
  F  F10  1  0.23583586  0.73583586  0.67812860  1.0
  F  F11  1  0.23583586  0.26416414  0.67812860  1.0
  F  F12  1  0.76416414  0.73583586  0.67812860  1.0
  F  F13  1  0.76416414  0.26416414  0.67812860  1.0
  F  F14  1  0.26416414  0.23583586  0.32187140  1.0
  F  F15  1  0.26416414  0.76416414  0.32187140  1.0
  F  F16  1  0.50000000  0.00000000  0.53479404  1.0
  F  F17  1  0.00000000  0.50000000  0.46520596  1.0
