# generated using pymatgen
data_Na2MoSeO6
_symmetry_space_group_name_H-M   'P 1'
_cell_length_a   8.47519273
_cell_length_b   8.47519273
_cell_length_c   8.47519273
_cell_angle_alpha   90.00000000
_cell_angle_beta   90.00000000
_cell_angle_gamma   90.00000000
_symmetry_Int_Tables_number   1
_chemical_formula_structural   Na2MoSeO6
_chemical_formula_sum   'Na8 Mo4 Se4 O24'
_cell_volume   608.76370117
_cell_formula_units_Z   4
loop_
 _symmetry_equiv_pos_site_id
 _symmetry_equiv_pos_as_xyz
  1  'x, y, z'
loop_
 _atom_site_type_symbol
 _atom_site_label
 _atom_site_symmetry_multiplicity
 _atom_site_fract_x
 _atom_site_fract_y
 _atom_site_fract_z
 _atom_site_occupancy
  Na  Na0  1  0.24803225  0.74803225  0.75196775  1.0
  Na  Na1  1  0.74803225  0.75196775  0.24803225  1.0
  Na  Na2  1  0.75196775  0.24803225  0.74803225  1.0
  Na  Na3  1  0.25196775  0.25196775  0.25196775  1.0
  Na  Na4  1  0.03472192  0.53472192  0.96527808  1.0
  Na  Na5  1  0.53472192  0.96527808  0.03472192  1.0
  Na  Na6  1  0.96527808  0.03472192  0.53472192  1.0
  Na  Na7  1  0.46527808  0.46527808  0.46527808  1.0
  Mo  Mo8  1  0.49137618  0.99137618  0.50862382  1.0
  Mo  Mo9  1  0.99137618  0.50862382  0.49137618  1.0
  Mo  Mo10  1  0.50862382  0.49137618  0.99137618  1.0
  Mo  Mo11  1  0.00862382  0.00862382  0.00862382  1.0
  Se  Se12  1  0.82821613  0.32821613  0.17178387  1.0
  Se  Se13  1  0.32821613  0.17178387  0.82821613  1.0
  Se  Se14  1  0.17178387  0.82821613  0.32821613  1.0
  Se  Se15  1  0.67178387  0.67178387  0.67178387  1.0
  O  O16  1  0.49454910  0.74393457  0.60033004  1.0
  O  O17  1  0.99454910  0.75606543  0.39966996  1.0
  O  O18  1  0.24393457  0.89966996  0.50545090  1.0
  O  O19  1  0.74393457  0.60033004  0.49454910  1.0
  O  O20  1  0.39966996  0.99454910  0.75606543  1.0
  O  O21  1  0.89966996  0.50545090  0.24393457  1.0
  O  O22  1  0.50545090  0.24393457  0.89966996  1.0
  O  O23  1  0.00545090  0.25606543  0.10033004  1.0
  O  O24  1  0.75606543  0.39966996  0.99454910  1.0
  O  O25  1  0.25606543  0.10033004  0.00545090  1.0
  O  O26  1  0.60033004  0.49454910  0.74393457  1.0
  O  O27  1  0.10033004  0.00545090  0.25606543  1.0
  O  O28  1  0.31326392  0.51373654  0.92216395  1.0
  O  O29  1  0.81326392  0.98626346  0.07783605  1.0
  O  O30  1  0.01373654  0.57783605  0.68673608  1.0
  O  O31  1  0.51373654  0.92216395  0.31326392  1.0
  O  O32  1  0.07783605  0.81326392  0.98626346  1.0
  O  O33  1  0.57783605  0.68673608  0.01373654  1.0
  O  O34  1  0.68673608  0.01373654  0.57783605  1.0
  O  O35  1  0.18673608  0.48626346  0.42216395  1.0
  O  O36  1  0.98626346  0.07783605  0.81326392  1.0
  O  O37  1  0.48626346  0.42216395  0.18673608  1.0
  O  O38  1  0.92216395  0.31326392  0.51373654  1.0
  O  O39  1  0.42216395  0.18673608  0.48626346  1.0
