# generated using pymatgen
data_Na5HfAs3
_symmetry_space_group_name_H-M   'P 1'
_cell_length_a   8.52214633
_cell_length_b   7.57209972
_cell_length_c   16.22657093
_cell_angle_alpha   90.00000000
_cell_angle_beta   121.14218810
_cell_angle_gamma   90.00000000
_symmetry_Int_Tables_number   1
_chemical_formula_structural   Na5HfAs3
_chemical_formula_sum   'Na20 Hf4 As12'
_cell_volume   896.20682994
_cell_formula_units_Z   4
loop_
 _symmetry_equiv_pos_site_id
 _symmetry_equiv_pos_as_xyz
  1  'x, y, z'
loop_
 _atom_site_type_symbol
 _atom_site_label
 _atom_site_symmetry_multiplicity
 _atom_site_fract_x
 _atom_site_fract_y
 _atom_site_fract_z
 _atom_site_occupancy
  Na  Na0  1  0.58394941  0.49002945  0.76163586  1.0
  Na  Na1  1  0.58394941  0.00997055  0.26163586  1.0
  Na  Na2  1  0.41605059  0.99002945  0.73836414  1.0
  Na  Na3  1  0.41605059  0.50997055  0.23836414  1.0
  Na  Na4  1  0.09454384  0.52926559  0.91607211  1.0
  Na  Na5  1  0.09454384  0.97073441  0.41607211  1.0
  Na  Na6  1  0.90545616  0.02926559  0.58392789  1.0
  Na  Na7  1  0.90545616  0.47073441  0.08392789  1.0
  Na  Na8  1  0.50426525  0.16219360  0.58147330  1.0
  Na  Na9  1  0.50426525  0.33780640  0.08147330  1.0
  Na  Na10  1  0.49573475  0.66219360  0.91852670  1.0
  Na  Na11  1  0.49573475  0.83780640  0.41852670  1.0
  Na  Na12  1  0.23913382  0.01290352  0.90749875  1.0
  Na  Na13  1  0.23913382  0.48709648  0.40749875  1.0
  Na  Na14  1  0.76086618  0.51290352  0.59250125  1.0
  Na  Na15  1  0.76086618  0.98709648  0.09250125  1.0
  Na  Na16  1  0.18066754  0.34649545  0.75712822  1.0
  Na  Na17  1  0.18066754  0.15350455  0.25712822  1.0
  Na  Na18  1  0.81933246  0.84649545  0.74287178  1.0
  Na  Na19  1  0.81933246  0.65350455  0.24287178  1.0
  Hf  Hf20  1  0.84002273  0.14194186  0.91368195  1.0
  Hf  Hf21  1  0.84002273  0.35805814  0.41368195  1.0
  Hf  Hf22  1  0.15997727  0.64194186  0.58631805  1.0
  Hf  Hf23  1  0.15997727  0.85805814  0.08631805  1.0
  As  As24  1  0.15946245  0.29332141  0.56941381  1.0
  As  As25  1  0.15946245  0.20667859  0.06941381  1.0
  As  As26  1  0.84053755  0.79332141  0.93058619  1.0
  As  As27  1  0.84053755  0.70667859  0.43058619  1.0
  As  As28  1  0.85570633  0.23813166  0.76515492  1.0
  As  As29  1  0.85570633  0.26186834  0.26515492  1.0
  As  As30  1  0.14429367  0.73813166  0.73484508  1.0
  As  As31  1  0.14429367  0.76186834  0.23484508  1.0
  As  As32  1  0.55722870  0.25748451  0.91694818  1.0
  As  As33  1  0.55722870  0.24251549  0.41694818  1.0
  As  As34  1  0.44277130  0.75748451  0.58305182  1.0
  As  As35  1  0.44277130  0.74251549  0.08305182  1.0
