# generated using pymatgen
data_CaCl2
_symmetry_space_group_name_H-M   'P 1'
_cell_length_a   6.75740966
_cell_length_b   13.29561600
_cell_length_c   6.88267472
_cell_angle_alpha   90.00000000
_cell_angle_beta   90.00000000
_cell_angle_gamma   90.00000000
_symmetry_Int_Tables_number   1
_chemical_formula_structural   CaCl2
_chemical_formula_sum   'Ca8 Cl16'
_cell_volume   618.36650388
_cell_formula_units_Z   8
loop_
 _symmetry_equiv_pos_site_id
 _symmetry_equiv_pos_as_xyz
  1  'x, y, z'
loop_
 _atom_site_type_symbol
 _atom_site_label
 _atom_site_symmetry_multiplicity
 _atom_site_fract_x
 _atom_site_fract_y
 _atom_site_fract_z
 _atom_site_occupancy
  Ca  Ca0  1  0.26865122  0.11278296  0.04311029  1.0
  Ca  Ca1  1  0.26865122  0.38721704  0.54311029  1.0
  Ca  Ca2  1  0.76865122  0.11278296  0.45688971  1.0
  Ca  Ca3  1  0.76865122  0.38721704  0.95688971  1.0
  Ca  Ca4  1  0.73134878  0.61278296  0.45688971  1.0
  Ca  Ca5  1  0.73134878  0.88721704  0.95688971  1.0
  Ca  Ca6  1  0.23134878  0.61278296  0.04311029  1.0
  Ca  Ca7  1  0.23134878  0.88721704  0.54311029  1.0
  Cl  Cl8  1  0.49988057  0.47440061  0.23908859  1.0
  Cl  Cl9  1  0.49988057  0.02559939  0.73908859  1.0
  Cl  Cl10  1  0.99988057  0.47440061  0.26091141  1.0
  Cl  Cl11  1  0.99988057  0.02559939  0.76091141  1.0
  Cl  Cl12  1  0.50011943  0.97440061  0.26091141  1.0
  Cl  Cl13  1  0.50011943  0.52559939  0.76091141  1.0
  Cl  Cl14  1  0.00011943  0.97440061  0.23908859  1.0
  Cl  Cl15  1  0.00011943  0.52559939  0.73908859  1.0
  Cl  Cl16  1  0.13420100  0.21118732  0.37677947  1.0
  Cl  Cl17  1  0.13420100  0.28881268  0.87677947  1.0
  Cl  Cl18  1  0.63420100  0.21118732  0.12322053  1.0
  Cl  Cl19  1  0.63420100  0.28881268  0.62322053  1.0
  Cl  Cl20  1  0.86579900  0.71118732  0.12322053  1.0
  Cl  Cl21  1  0.86579900  0.78881268  0.62322053  1.0
  Cl  Cl22  1  0.36579900  0.71118732  0.37677947  1.0
  Cl  Cl23  1  0.36579900  0.78881268  0.87677947  1.0
