# generated using pymatgen
data_SrFe2(SeO3)4
_symmetry_space_group_name_H-M   'P 1'
_cell_length_a   7.25088262
_cell_length_b   5.46900740
_cell_length_c   7.29940847
_cell_angle_alpha   90.00000000
_cell_angle_beta   91.45716276
_cell_angle_gamma   90.00000000
_symmetry_Int_Tables_number   1
_chemical_formula_structural   SrFe2(SeO3)4
_chemical_formula_sum   'Sr1 Fe2 Se4 O12'
_cell_volume   289.36539076
_cell_formula_units_Z   1
loop_
 _symmetry_equiv_pos_site_id
 _symmetry_equiv_pos_as_xyz
  1  'x, y, z'
loop_
 _atom_site_type_symbol
 _atom_site_label
 _atom_site_symmetry_multiplicity
 _atom_site_fract_x
 _atom_site_fract_y
 _atom_site_fract_z
 _atom_site_occupancy
  Sr  Sr0  1  0.50000000  0.50000000  0.50000000  1.0
  Fe  Fe1  1  -0.00000000  0.00000000  0.50000000  1.0
  Fe  Fe2  1  0.50000000  0.50000000  -0.00000000  1.0
  Se  Se3  1  0.90783956  0.50000000  0.27932504  1.0
  Se  Se4  1  0.09216044  0.50000000  0.72067496  1.0
  Se  Se5  1  0.70457054  0.00000000  0.88666787  1.0
  Se  Se6  1  0.29542946  0.00000000  0.11333213  1.0
  O  O7  1  0.76416677  0.50000000  0.08885889  1.0
  O  O8  1  0.23583323  0.50000000  0.91114111  1.0
  O  O9  1  0.81672857  0.26552994  0.41139326  1.0
  O  O10  1  0.81672857  0.73447006  0.41139326  1.0
  O  O11  1  0.18327143  0.73447006  0.58860674  1.0
  O  O12  1  0.18327143  0.26552994  0.58860674  1.0
  O  O13  1  0.89121819  0.00000000  0.74888954  1.0
  O  O14  1  0.10878181  0.00000000  0.25111046  1.0
  O  O15  1  0.57114316  0.24454966  0.80491009  1.0
  O  O16  1  0.57114316  0.75545034  0.80491009  1.0
  O  O17  1  0.42885684  0.75545034  0.19508991  1.0
  O  O18  1  0.42885684  0.24454966  0.19508991  1.0
