# generated using pymatgen
data_Ag(Mo3Se4)2
_symmetry_space_group_name_H-M   'P 1'
_cell_length_a   6.80984078
_cell_length_b   6.80984078
_cell_length_c   6.80984078
_cell_angle_alpha   91.94983810
_cell_angle_beta   91.94983810
_cell_angle_gamma   91.94983810
_symmetry_Int_Tables_number   1
_chemical_formula_structural   Ag(Mo3Se4)2
_chemical_formula_sum   'Ag1 Mo6 Se8'
_cell_volume   315.23776627
_cell_formula_units_Z   1
loop_
 _symmetry_equiv_pos_site_id
 _symmetry_equiv_pos_as_xyz
  1  'x, y, z'
loop_
 _atom_site_type_symbol
 _atom_site_label
 _atom_site_symmetry_multiplicity
 _atom_site_fract_x
 _atom_site_fract_y
 _atom_site_fract_z
 _atom_site_occupancy
  Ag  Ag0  1  0.00000000  0.00000000  0.00000000  1.0
  Mo  Mo1  1  1.58306480  -0.23314951  0.44911441  1.0
  Mo  Mo2  1  0.76685049  0.44911441  0.58306480  1.0
  Mo  Mo3  1  1.44911441  0.58306480  -0.23314951  1.0
  Mo  Mo4  1  0.41693520  1.23314951  -0.44911441  1.0
  Mo  Mo5  1  1.23314951  0.55088559  -0.58306480  1.0
  Mo  Mo6  1  0.55088559  0.41693520  0.23314951  1.0
  Se  Se7  1  0.77555176  0.77555176  0.77555176  1.0
  Se  Se8  1  0.22444824  0.22444824  0.22444824  1.0
  Se  Se9  1  0.62124622  1.26263910  -0.12677462  1.0
  Se  Se10  1  1.26263910  0.87322538  -0.37875378  1.0
  Se  Se11  1  0.87322538  0.62124622  0.26263910  1.0
  Se  Se12  1  1.37875378  -0.26263910  0.12677462  1.0
  Se  Se13  1  0.73736090  0.12677462  0.37875378  1.0
  Se  Se14  1  1.12677462  0.37875378  -0.26263910  1.0
