# generated using pymatgen
data_Y3Si3Rh2
_symmetry_space_group_name_H-M   'P 1'
_cell_length_a   5.73965689
_cell_length_b   5.73965689
_cell_length_c   13.75855505
_cell_angle_alpha   90.00000000
_cell_angle_beta   90.00000000
_cell_angle_gamma   137.28091952
_symmetry_Int_Tables_number   1
_chemical_formula_structural   Y3Si3Rh2
_chemical_formula_sum   'Y6 Si6 Rh4'
_cell_volume   307.49164987
_cell_formula_units_Z   2
loop_
 _symmetry_equiv_pos_site_id
 _symmetry_equiv_pos_as_xyz
  1  'x, y, z'
loop_
 _atom_site_type_symbol
 _atom_site_label
 _atom_site_symmetry_multiplicity
 _atom_site_fract_x
 _atom_site_fract_y
 _atom_site_fract_z
 _atom_site_occupancy
  Y  Y0  1  0.07884088  0.92115912  0.88574195  1.0
  Y  Y1  1  0.07884088  0.92115912  0.61425805  1.0
  Y  Y2  1  -0.07884088  0.07884088  0.38574195  1.0
  Y  Y3  1  -0.07884088  0.07884088  0.11425805  1.0
  Y  Y4  1  0.35607713  0.64392287  0.75000000  1.0
  Y  Y5  1  -0.35607713  0.35607713  0.25000000  1.0
  Si  Si6  1  0.38913951  0.61086049  0.96044003  1.0
  Si  Si7  1  0.38913951  0.61086049  0.53955997  1.0
  Si  Si8  1  -0.38913951  0.38913951  0.46044003  1.0
  Si  Si9  1  -0.38913951  0.38913951  0.03955997  1.0
  Si  Si10  1  -0.33582063  0.33582063  0.75000000  1.0
  Si  Si11  1  0.33582063  0.66417937  0.25000000  1.0
  Rh  Rh12  1  0.21488648  0.78511352  0.41966471  1.0
  Rh  Rh13  1  0.21488648  0.78511352  0.08033529  1.0
  Rh  Rh14  1  -0.21488648  0.21488648  0.91966471  1.0
  Rh  Rh15  1  -0.21488648  0.21488648  0.58033529  1.0
