# generated using pymatgen
data_Sr(CO2)2
_symmetry_space_group_name_H-M   'P 1'
_cell_length_a   6.88043885
_cell_length_b   7.64239921
_cell_length_c   8.99386660
_cell_angle_alpha   90.00000000
_cell_angle_beta   90.00000000
_cell_angle_gamma   90.00000000
_symmetry_Int_Tables_number   1
_chemical_formula_structural   Sr(CO2)2
_chemical_formula_sum   'Sr4 C8 O16'
_cell_volume   472.92503121
_cell_formula_units_Z   4
loop_
 _symmetry_equiv_pos_site_id
 _symmetry_equiv_pos_as_xyz
  1  'x, y, z'
loop_
 _atom_site_type_symbol
 _atom_site_label
 _atom_site_symmetry_multiplicity
 _atom_site_fract_x
 _atom_site_fract_y
 _atom_site_fract_z
 _atom_site_occupancy
  Sr  Sr0  1  1.00453671  0.76322579  0.18381570  1.0
  Sr  Sr1  1  -0.00453671  0.26322579  0.31618430  1.0
  Sr  Sr2  1  0.50453671  0.73677421  0.81618430  1.0
  Sr  Sr3  1  0.49546329  0.23677421  0.68381570  1.0
  C  C4  1  0.63560127  0.55295288  0.16113201  1.0
  C  C5  1  0.36439873  0.05295288  0.33886799  1.0
  C  C6  1  0.13560127  0.94704712  0.83886799  1.0
  C  C7  1  0.86439873  0.44704712  0.66113201  1.0
  C  C8  1  0.22638668  0.37651854  0.99063107  1.0
  C  C9  1  0.77361332  0.87651854  0.50936893  1.0
  C  C10  1  0.72638668  0.12348146  0.00936893  1.0
  C  C11  1  0.27361332  0.62348146  0.49063107  1.0
  O  O12  1  0.75217572  0.50092734  0.25787868  1.0
  O  O13  1  0.24782428  1.00092734  0.24212132  1.0
  O  O14  1  0.25217572  -0.00092734  0.74212132  1.0
  O  O15  1  0.74782428  0.49907266  0.75787868  1.0
  O  O16  1  0.65190301  0.67767316  0.07145605  1.0
  O  O17  1  0.34809699  0.17767316  0.42854395  1.0
  O  O18  1  0.15190301  0.82232684  0.92854395  1.0
  O  O19  1  0.84809699  0.32232684  0.57145605  1.0
  O  O20  1  0.33588974  0.43228820  0.89065146  1.0
  O  O21  1  0.66411026  0.93228820  0.60934854  1.0
  O  O22  1  0.83588974  0.06771180  0.10934854  1.0
  O  O23  1  0.16411026  0.56771180  0.39065146  1.0
  O  O24  1  0.12874727  0.45034774  0.08943130  1.0
  O  O25  1  0.87125273  0.95034774  0.41056870  1.0
  O  O26  1  0.62874727  0.04965226  0.91056870  1.0
  O  O27  1  0.37125273  0.54965226  0.58943130  1.0
