# generated using pymatgen
data_Be3N2
_symmetry_space_group_name_H-M   'P 1'
_cell_length_a   7.06106472
_cell_length_b   7.06106472
_cell_length_c   7.06106472
_cell_angle_alpha   109.47122063
_cell_angle_beta   109.47122063
_cell_angle_gamma   109.47122063
_symmetry_Int_Tables_number   1
_chemical_formula_structural   Be3N2
_chemical_formula_sum   'Be24 N16'
_cell_volume   271.01210276
_cell_formula_units_Z   8
loop_
 _symmetry_equiv_pos_site_id
 _symmetry_equiv_pos_as_xyz
  1  'x, y, z'
loop_
 _atom_site_type_symbol
 _atom_site_label
 _atom_site_symmetry_multiplicity
 _atom_site_fract_x
 _atom_site_fract_y
 _atom_site_fract_z
 _atom_site_occupancy
  Be  Be0  1  0.53182058  0.52597470  0.76629651  1.0
  Be  Be1  1  1.03182058  1.26552407  1.00584589  1.0
  Be  Be2  1  0.25967819  0.76552407  0.73370349  1.0
  Be  Be3  1  0.75967819  1.02597470  0.49415411  1.0
  Be  Be4  1  0.50584589  1.24032181  0.97402530  1.0
  Be  Be5  1  1.00584589  1.03182058  1.26552407  1.0
  Be  Be6  1  0.76629651  0.53182058  0.52597470  1.0
  Be  Be7  1  1.26629651  0.74032181  1.23447593  1.0
  Be  Be8  1  0.76552407  0.73370349  0.25967819  1.0
  Be  Be9  1  1.26552407  1.00584589  1.03182058  1.0
  Be  Be10  1  0.97402530  1.50584589  1.24032181  1.0
  Be  Be11  1  1.47402530  1.23370349  1.46817942  1.0
  Be  Be12  1  1.74032181  1.23447593  1.26629651  1.0
  Be  Be13  1  1.24032181  0.97402530  1.50584589  1.0
  Be  Be14  1  1.46817942  1.47402530  1.23370349  1.0
  Be  Be15  1  0.96817942  0.73447593  0.99415411  1.0
  Be  Be16  1  1.23370349  1.46817942  1.47402530  1.0
  Be  Be17  1  0.73370349  1.25967819  0.76552407  1.0
  Be  Be18  1  1.49415411  0.75967819  1.02597470  1.0
  Be  Be19  1  0.99415411  0.96817942  0.73447593  1.0
  Be  Be20  1  1.02597470  0.49415411  0.75967819  1.0
  Be  Be21  1  0.52597470  0.76629651  0.53182058  1.0
  Be  Be22  1  1.23447593  1.26629651  1.74032181  1.0
  Be  Be23  1  0.73447593  0.99415411  0.96817942  1.0
  N  N24  1  1.72894661  1.47894661  1.25000000  1.0
  N  N25  1  1.22894661  0.97894661  1.25000000  1.0
  N  N26  1  0.75000000  0.77105339  0.02105339  1.0
  N  N27  1  0.25000000  1.22894661  0.97894661  1.0
  N  N28  1  0.25000000  0.72894661  0.47894661  1.0
  N  N29  1  0.75000000  1.27105339  0.52105339  1.0
  N  N30  1  1.47894661  1.25000000  1.72894661  1.0
  N  N31  1  0.97894661  0.25000000  1.22894661  1.0
  N  N32  1  0.02105339  0.75000000  0.77105339  1.0
  N  N33  1  0.52105339  0.75000000  0.27105339  1.0
  N  N34  1  0.27105339  0.52105339  0.75000000  1.0
  N  N35  1  0.77105339  1.02105339  0.75000000  1.0
  N  N36  1  1.00000000  0.50000000  1.00000000  1.0
  N  N37  1  0.50000000  0.50000000  0.50000000  1.0
  N  N38  1  1.00000000  1.00000000  1.50000000  1.0
  N  N39  1  1.50000000  1.00000000  1.00000000  1.0
