# generated using pymatgen
data_GeS
_symmetry_space_group_name_H-M   'P 1'
_cell_length_a   5.94599397
_cell_length_b   5.94599397
_cell_length_c   3.89264249
_cell_angle_alpha   90.00000000
_cell_angle_beta   90.00000000
_cell_angle_gamma   141.85839360
_symmetry_Int_Tables_number   1
_chemical_formula_structural   GeS
_chemical_formula_sum   'Ge2 S2'
_cell_volume   84.99742511
_cell_formula_units_Z   2
loop_
 _symmetry_equiv_pos_site_id
 _symmetry_equiv_pos_as_xyz
  1  'x, y, z'
loop_
 _atom_site_type_symbol
 _atom_site_label
 _atom_site_symmetry_multiplicity
 _atom_site_fract_x
 _atom_site_fract_y
 _atom_site_fract_z
 _atom_site_occupancy
  Ge  Ge0  1  0.14048695  0.85951305  0.25000000  1.0
  Ge  Ge1  1  -0.14048695  0.14048695  0.75000000  1.0
  S  S2  1  0.35241016  0.64758984  0.25000000  1.0
  S  S3  1  -0.35241016  0.35241016  0.75000000  1.0
