# generated using pymatgen
data_NaZnSiHO4
_symmetry_space_group_name_H-M   'P 1'
_cell_length_a   5.22837091
_cell_length_b   7.76405193
_cell_length_c   9.46629580
_cell_angle_alpha   90.00000000
_cell_angle_beta   90.00000000
_cell_angle_gamma   90.00000000
_symmetry_Int_Tables_number   1
_chemical_formula_structural   NaZnSiHO4
_chemical_formula_sum   'Na4 Zn4 Si4 H4 O16'
_cell_volume   384.26859498
_cell_formula_units_Z   4
loop_
 _symmetry_equiv_pos_site_id
 _symmetry_equiv_pos_as_xyz
  1  'x, y, z'
loop_
 _atom_site_type_symbol
 _atom_site_label
 _atom_site_symmetry_multiplicity
 _atom_site_fract_x
 _atom_site_fract_y
 _atom_site_fract_z
 _atom_site_occupancy
  Na  Na0  1  0.97522738  0.79159986  0.83567897  1.0
  Na  Na1  1  0.47522738  0.70840014  0.16432103  1.0
  Na  Na2  1  0.02477262  0.29159986  0.66432103  1.0
  Na  Na3  1  0.52477262  0.20840014  0.33567897  1.0
  Zn  Zn4  1  0.47674508  0.61080259  0.51154102  1.0
  Zn  Zn5  1  0.97674508  0.88919741  0.48845898  1.0
  Zn  Zn6  1  0.52325492  0.11080259  0.98845898  1.0
  Zn  Zn7  1  0.02325492  0.38919741  0.01154102  1.0
  Si  Si8  1  0.48575766  0.98478241  0.66056654  1.0
  Si  Si9  1  0.98575766  0.51521759  0.33943346  1.0
  Si  Si10  1  0.51424234  0.48478241  0.83943346  1.0
  Si  Si11  1  0.01424234  0.01521759  0.16056654  1.0
  H  H12  1  0.47671377  0.78132902  0.87378804  1.0
  H  H13  1  0.97671377  0.71867098  0.12621196  1.0
  H  H14  1  0.52328623  0.28132902  0.62621196  1.0
  H  H15  1  0.02328623  0.21867098  0.37378804  1.0
  O  O16  1  0.37018929  0.33399924  0.93306299  1.0
  O  O17  1  0.87018929  0.16600076  0.06693701  1.0
  O  O18  1  0.62981071  0.83399924  0.56693701  1.0
  O  O19  1  0.12981071  0.66600076  0.43306299  1.0
  O  O20  1  0.39754360  0.66789403  0.90743772  1.0
  O  O21  1  0.89754360  0.83210597  0.09256228  1.0
  O  O22  1  0.60245640  0.16789403  0.59256228  1.0
  O  O23  1  0.10245640  0.33210597  0.40743772  1.0
  O  O24  1  0.42352967  0.45991469  0.67432914  1.0
  O  O25  1  0.92352967  0.04008531  0.32567086  1.0
  O  O26  1  0.57647033  0.95991469  0.82567086  1.0
  O  O27  1  0.07647033  0.54008531  0.17432914  1.0
  O  O28  1  0.17400926  0.97971589  0.64908951  1.0
  O  O29  1  0.67400926  0.52028411  0.35091049  1.0
  O  O30  1  0.82599074  0.47971589  0.85091049  1.0
  O  O31  1  0.32599074  0.02028411  0.14908951  1.0
