# generated using pymatgen
data_SbN(OF3)2
_symmetry_space_group_name_H-M   'P 1'
_cell_length_a   5.36972858
_cell_length_b   5.36972858
_cell_length_c   5.73584337
_cell_angle_alpha   90.00000000
_cell_angle_beta   90.00000000
_cell_angle_gamma   99.67956890
_symmetry_Int_Tables_number   1
_chemical_formula_structural   SbN(OF3)2
_chemical_formula_sum   'Sb1 N1 O2 F6'
_cell_volume   163.03268495
_cell_formula_units_Z   1
loop_
 _symmetry_equiv_pos_site_id
 _symmetry_equiv_pos_as_xyz
  1  'x, y, z'
loop_
 _atom_site_type_symbol
 _atom_site_label
 _atom_site_symmetry_multiplicity
 _atom_site_fract_x
 _atom_site_fract_y
 _atom_site_fract_z
 _atom_site_occupancy
  Sb  Sb0  1  0.50000000  0.50000000  0.50000000  1.0
  N  N1  1  0.00000000  0.00000000  0.00000000  1.0
  O  O2  1  0.13720074  0.86279926  0.00000000  1.0
  O  O3  1  -0.13720074  1.13720074  0.00000000  1.0
  F  F4  1  0.69613667  0.69613667  0.73955701  1.0
  F  F5  1  0.69613667  0.69613667  0.26044299  1.0
  F  F6  1  0.30386333  0.30386333  0.73955701  1.0
  F  F7  1  0.30386333  0.30386333  0.26044299  1.0
  F  F8  1  0.26625027  0.73374973  0.50000000  1.0
  F  F9  1  -0.26625027  1.26625027  0.50000000  1.0
