# generated using pymatgen
data_Ag3SNO3
_symmetry_space_group_name_H-M   'P 1'
_cell_length_a   8.04554191
_cell_length_b   8.04554191
_cell_length_c   8.04554191
_cell_angle_alpha   90.00000000
_cell_angle_beta   90.00000000
_cell_angle_gamma   90.00000000
_symmetry_Int_Tables_number   1
_chemical_formula_structural   Ag3SNO3
_chemical_formula_sum   'Ag12 S4 N4 O12'
_cell_volume   520.79391851
_cell_formula_units_Z   4
loop_
 _symmetry_equiv_pos_site_id
 _symmetry_equiv_pos_as_xyz
  1  'x, y, z'
loop_
 _atom_site_type_symbol
 _atom_site_label
 _atom_site_symmetry_multiplicity
 _atom_site_fract_x
 _atom_site_fract_y
 _atom_site_fract_z
 _atom_site_occupancy
  Ag  Ag0  1  0.35673353  0.81226482  0.01743962  1.0
  Ag  Ag1  1  0.85673353  0.68773518  0.98256038  1.0
  Ag  Ag2  1  0.31226482  0.48256038  0.64326647  1.0
  Ag  Ag3  1  0.81226482  0.01743962  0.35673353  1.0
  Ag  Ag4  1  0.98256038  0.85673353  0.68773518  1.0
  Ag  Ag5  1  0.48256038  0.64326647  0.31226482  1.0
  Ag  Ag6  1  0.64326647  0.31226482  0.48256038  1.0
  Ag  Ag7  1  0.14326647  0.18773518  0.51743962  1.0
  Ag  Ag8  1  0.68773518  0.98256038  0.85673353  1.0
  Ag  Ag9  1  0.18773518  0.51743962  0.14326647  1.0
  Ag  Ag10  1  0.01743962  0.35673353  0.81226482  1.0
  Ag  Ag11  1  0.51743962  0.14326647  0.18773518  1.0
  S  S12  1  0.13980177  0.63980177  0.86019823  1.0
  S  S13  1  0.63980177  0.86019823  0.13980177  1.0
  S  S14  1  0.86019823  0.13980177  0.63980177  1.0
  S  S15  1  0.36019823  0.36019823  0.36019823  1.0
  N  N16  1  0.42457826  0.92457826  0.57542174  1.0
  N  N17  1  0.92457826  0.57542174  0.42457826  1.0
  N  N18  1  0.57542174  0.42457826  0.92457826  1.0
  N  N19  1  0.07542174  0.07542174  0.07542174  1.0
  O  O20  1  0.46616405  0.31152343  0.92879673  1.0
  O  O21  1  0.96616405  0.18847657  0.07120327  1.0
  O  O22  1  0.81152343  0.57120327  0.53383595  1.0
  O  O23  1  0.31152343  0.92879673  0.46616405  1.0
  O  O24  1  0.07120327  0.96616405  0.18847657  1.0
  O  O25  1  0.57120327  0.53383595  0.81152343  1.0
  O  O26  1  0.53383595  0.81152343  0.57120327  1.0
  O  O27  1  0.03383595  0.68847657  0.42879673  1.0
  O  O28  1  0.18847657  0.07120327  0.96616405  1.0
  O  O29  1  0.68847657  0.42879673  0.03383595  1.0
  O  O30  1  0.92879673  0.46616405  0.31152343  1.0
  O  O31  1  0.42879673  0.03383595  0.68847657  1.0
