# generated using pymatgen
data_Ba6Ru3(ClO6)2
_symmetry_space_group_name_H-M   'P 1'
_cell_length_a   5.91724889
_cell_length_b   5.91724889
_cell_length_c   15.03141685
_cell_angle_alpha   90.00000000
_cell_angle_beta   90.00000000
_cell_angle_gamma   120.00000000
_symmetry_Int_Tables_number   1
_chemical_formula_structural   Ba6Ru3(ClO6)2
_chemical_formula_sum   'Ba6 Ru3 Cl2 O12'
_cell_volume   455.79570027
_cell_formula_units_Z   1
loop_
 _symmetry_equiv_pos_site_id
 _symmetry_equiv_pos_as_xyz
  1  'x, y, z'
loop_
 _atom_site_type_symbol
 _atom_site_label
 _atom_site_symmetry_multiplicity
 _atom_site_fract_x
 _atom_site_fract_y
 _atom_site_fract_z
 _atom_site_occupancy
  Ba  Ba0  1  0.33333333  0.66666667  0.07858711  1.0
  Ba  Ba1  1  0.66666667  0.33333333  0.92141289  1.0
  Ba  Ba2  1  0.33333333  0.66666667  0.36248271  1.0
  Ba  Ba3  1  0.66666667  0.33333333  0.63751729  1.0
  Ba  Ba4  1  0.33333333  0.66666667  0.78759673  1.0
  Ba  Ba5  1  0.66666667  0.33333333  0.21240327  1.0
  Ru  Ru6  1  0.00000000  0.00000000  0.17802970  1.0
  Ru  Ru7  1  0.00000000  0.00000000  0.82197030  1.0
  Ru  Ru8  1  0.00000000  0.00000000  0.00000000  1.0
  Cl  Cl9  1  0.33333333  0.66666667  0.57707877  1.0
  Cl  Cl10  1  0.66666667  0.33333333  0.42292123  1.0
  O  O11  1  0.67938238  0.83969119  0.23989308  1.0
  O  O12  1  0.83969119  0.67938238  0.76010692  1.0
  O  O13  1  0.83969119  0.16030881  0.76010692  1.0
  O  O14  1  0.16030881  0.83969119  0.23989308  1.0
  O  O15  1  0.16030881  0.32061762  0.23989308  1.0
  O  O16  1  0.32061762  0.16030881  0.76010692  1.0
  O  O17  1  0.30837965  0.15418983  0.08209543  1.0
  O  O18  1  0.15418983  0.30837965  0.91790457  1.0
  O  O19  1  0.15418983  0.84581017  0.91790457  1.0
  O  O20  1  0.84581017  0.15418983  0.08209543  1.0
  O  O21  1  0.84581017  0.69162035  0.08209543  1.0
  O  O22  1  0.69162035  0.84581017  0.91790457  1.0
