# generated using pymatgen
data_BaMnAlF7
_symmetry_space_group_name_H-M   'P 1'
_cell_length_a   7.47339574
_cell_length_b   7.47339574
_cell_length_c   14.68038078
_cell_angle_alpha   88.98385771
_cell_angle_beta   91.01614229
_cell_angle_gamma   138.57745167
_symmetry_Int_Tables_number   1
_chemical_formula_structural   BaMnAlF7
_chemical_formula_sum   'Ba4 Mn4 Al4 F28'
_cell_volume   542.36956754
_cell_formula_units_Z   4
loop_
 _symmetry_equiv_pos_site_id
 _symmetry_equiv_pos_as_xyz
  1  'x, y, z'
loop_
 _atom_site_type_symbol
 _atom_site_label
 _atom_site_symmetry_multiplicity
 _atom_site_fract_x
 _atom_site_fract_y
 _atom_site_fract_z
 _atom_site_occupancy
  Ba  Ba0  1  0.64718163  0.27183437  0.62176443  1.0
  Ba  Ba1  1  0.72816563  0.35281837  0.12176443  1.0
  Ba  Ba2  1  1.27183437  0.64718163  0.87823557  1.0
  Ba  Ba3  1  0.35281837  -0.27183437  0.37823557  1.0
  Mn  Mn4  1  0.95894265  0.95894265  0.75000000  1.0
  Mn  Mn5  1  0.04105735  0.04105735  0.25000000  1.0
  Mn  Mn6  1  0.00000000  0.00000000  0.00000000  1.0
  Mn  Mn7  1  -0.00000000  0.00000000  0.50000000  1.0
  Al  Al8  1  0.38711551  -0.37304445  0.62532091  1.0
  Al  Al9  1  1.37304445  0.61288449  0.12532091  1.0
  Al  Al10  1  0.62695555  0.38711551  0.87467909  1.0
  Al  Al11  1  0.61288449  0.37304445  0.37467909  1.0
  F  F12  1  0.60744334  -0.39218838  0.84293602  1.0
  F  F13  1  1.39218838  0.39255666  0.34293602  1.0
  F  F14  1  0.60781162  0.60744334  0.65706398  1.0
  F  F15  1  0.39255666  0.39218838  0.15706398  1.0
  F  F16  1  0.86681728  -0.01111564  0.37140183  1.0
  F  F17  1  1.01111564  0.13318272  0.87140183  1.0
  F  F18  1  0.98888436  0.86681728  0.12859817  1.0
  F  F19  1  0.13318272  0.01111564  0.62859817  1.0
  F  F20  1  0.66106623  -0.08120965  0.54793288  1.0
  F  F21  1  1.08120965  0.33893377  0.04793288  1.0
  F  F22  1  0.91879035  0.66106623  0.95206712  1.0
  F  F23  1  0.33893377  0.08120965  0.45206712  1.0
  F  F24  1  0.54212380  -0.12735312  0.71824221  1.0
  F  F25  1  1.12735312  0.45787620  0.21824221  1.0
  F  F26  1  0.87264688  0.54212380  0.78175779  1.0
  F  F27  1  0.45787620  0.12735312  0.28175779  1.0
  F  F28  1  0.68106286  0.19573518  0.90954006  1.0
  F  F29  1  0.80426482  0.31893714  0.40954006  1.0
  F  F30  1  1.19573518  0.68106286  0.59045994  1.0
  F  F31  1  0.31893714  -0.19573518  0.09045994  1.0
  F  F32  1  0.34955986  0.11664610  0.79958540  1.0
  F  F33  1  0.88335390  0.65044014  0.29958540  1.0
  F  F34  1  1.11664610  0.34955986  0.70041460  1.0
  F  F35  1  0.65044014  -0.11664610  0.20041460  1.0
  F  F36  1  0.41068143  0.24858648  0.97481007  1.0
  F  F37  1  0.75141352  0.58931857  0.47481007  1.0
  F  F38  1  1.24858648  0.41068143  0.52518993  1.0
  F  F39  1  0.58931857  -0.24858648  0.02518993  1.0
