# generated using pymatgen
data_Ba3Fe3Se7
_symmetry_space_group_name_H-M   'P 1'
_cell_length_a   11.13479843
_cell_length_b   11.13479843
_cell_length_c   7.17525479
_cell_angle_alpha   90.00000000
_cell_angle_beta   90.00000000
_cell_angle_gamma   120.00000000
_symmetry_Int_Tables_number   1
_chemical_formula_structural   Ba3Fe3Se7
_chemical_formula_sum   'Ba6 Fe6 Se14'
_cell_volume   770.42910031
_cell_formula_units_Z   2
loop_
 _symmetry_equiv_pos_site_id
 _symmetry_equiv_pos_as_xyz
  1  'x, y, z'
loop_
 _atom_site_type_symbol
 _atom_site_label
 _atom_site_symmetry_multiplicity
 _atom_site_fract_x
 _atom_site_fract_y
 _atom_site_fract_z
 _atom_site_occupancy
  Fe  Fe0  1  0.51232359  0.25616180  0.25225745  1.0
  Fe  Fe1  1  0.25616180  0.51232359  0.75225745  1.0
  Fe  Fe2  1  0.25616180  0.74383820  0.75225745  1.0
  Fe  Fe3  1  0.74383820  0.25616180  0.25225745  1.0
  Fe  Fe4  1  0.74383820  0.48767641  0.25225745  1.0
  Fe  Fe5  1  0.48767641  0.74383820  0.75225745  1.0
  Ba  Ba6  1  0.63109128  0.81554564  0.27030025  1.0
  Ba  Ba7  1  0.81554564  0.63109128  0.77030025  1.0
  Ba  Ba8  1  0.81554564  0.18445436  0.77030025  1.0
  Ba  Ba9  1  0.18445436  0.81554564  0.27030025  1.0
  Ba  Ba10  1  0.18445436  0.36890872  0.27030025  1.0
  Ba  Ba11  1  0.36890872  0.18445436  0.77030025  1.0
  Se  Se12  1  0.27699508  0.13849754  0.32846619  1.0
  Se  Se13  1  0.13849754  0.27699508  0.82846619  1.0
  Se  Se14  1  0.13849754  0.86150246  0.82846619  1.0
  Se  Se15  1  0.86150246  0.13849754  0.32846619  1.0
  Se  Se16  1  0.86150246  0.72300492  0.32846619  1.0
  Se  Se17  1  0.72300492  0.86150246  0.82846619  1.0
  Se  Se18  1  0.33333333  0.66666667  0.02016669  1.0
  Se  Se19  1  0.66666667  0.33333333  0.52016669  1.0
  Se  Se20  1  0.90776805  0.45388403  0.07675389  1.0
  Se  Se21  1  0.45388403  0.90776805  0.57675389  1.0
  Se  Se22  1  0.45388403  0.54611597  0.57675389  1.0
  Se  Se23  1  0.54611597  0.45388403  0.07675389  1.0
  Se  Se24  1  0.54611597  0.09223195  0.07675389  1.0
  Se  Se25  1  0.09223195  0.54611597  0.57675389  1.0
