# generated using pymatgen
data_Ba6NaCu3Te14
_symmetry_space_group_name_H-M   'P 1'
_cell_length_a   14.33715974
_cell_length_b   14.33715974
_cell_length_c   9.10839495
_cell_angle_alpha   90.00000000
_cell_angle_beta   90.00000000
_cell_angle_gamma   120.00000000
_symmetry_Int_Tables_number   1
_chemical_formula_structural   Ba6NaCu3Te14
_chemical_formula_sum   'Ba12 Na2 Cu6 Te28'
_cell_volume   1621.43197634
_cell_formula_units_Z   2
loop_
 _symmetry_equiv_pos_site_id
 _symmetry_equiv_pos_as_xyz
  1  'x, y, z'
loop_
 _atom_site_type_symbol
 _atom_site_label
 _atom_site_symmetry_multiplicity
 _atom_site_fract_x
 _atom_site_fract_y
 _atom_site_fract_z
 _atom_site_occupancy
  Ba  Ba0  1  0.20839730  0.75709332  0.25000000  1.0
  Ba  Ba1  1  0.20839730  0.45130398  0.75000000  1.0
  Ba  Ba2  1  0.75709332  0.20839730  0.25000000  1.0
  Ba  Ba3  1  0.75709332  0.54869602  0.75000000  1.0
  Ba  Ba4  1  0.54869602  0.75709332  0.75000000  1.0
  Ba  Ba5  1  0.54869602  0.79160270  0.25000000  1.0
  Ba  Ba6  1  0.24290668  0.79160270  0.75000000  1.0
  Ba  Ba7  1  0.24290668  0.45130398  0.25000000  1.0
  Ba  Ba8  1  0.79160270  0.54869602  0.25000000  1.0
  Ba  Ba9  1  0.79160270  0.24290668  0.75000000  1.0
  Ba  Ba10  1  0.45130398  0.20839730  0.75000000  1.0
  Ba  Ba11  1  0.45130398  0.24290668  0.25000000  1.0
  Na  Na12  1  0.00000000  0.00000000  0.50000000  1.0
  Na  Na13  1  0.00000000  0.00000000  0.00000000  1.0
  Cu  Cu14  1  0.80749856  0.80749856  0.25000000  1.0
  Cu  Cu15  1  0.80749856  0.00000000  0.75000000  1.0
  Cu  Cu16  1  -0.00000000  0.80749856  0.75000000  1.0
  Cu  Cu17  1  0.00000000  0.19250144  0.25000000  1.0
  Cu  Cu18  1  0.19250144  0.19250144  0.75000000  1.0
  Cu  Cu19  1  0.19250144  0.00000000  0.25000000  1.0
  Te  Te20  1  0.68220668  0.68220668  0.47533162  1.0
  Te  Te21  1  0.68220668  0.68220668  0.02466838  1.0
  Te  Te22  1  0.68220668  0.00000000  0.97533162  1.0
  Te  Te23  1  0.68220668  0.00000000  0.52466838  1.0
  Te  Te24  1  0.00000000  0.68220668  0.97533162  1.0
  Te  Te25  1  0.00000000  0.68220668  0.52466838  1.0
  Te  Te26  1  0.00000000  0.31779332  0.47533162  1.0
  Te  Te27  1  0.00000000  0.31779332  0.02466838  1.0
  Te  Te28  1  0.31779332  0.31779332  0.97533162  1.0
  Te  Te29  1  0.31779332  0.31779332  0.52466838  1.0
  Te  Te30  1  0.31779332  0.00000000  0.47533162  1.0
  Te  Te31  1  0.31779332  0.00000000  0.02466838  1.0
  Te  Te32  1  0.53246986  0.53246986  0.25000000  1.0
  Te  Te33  1  0.53246986  0.00000000  0.75000000  1.0
  Te  Te34  1  0.00000000  0.53246986  0.75000000  1.0
  Te  Te35  1  -0.00000000  0.46753014  0.25000000  1.0
  Te  Te36  1  0.46753014  0.46753014  0.75000000  1.0
  Te  Te37  1  0.46753014  0.00000000  0.25000000  1.0
  Te  Te38  1  0.17201382  0.17201382  0.25000000  1.0
  Te  Te39  1  0.17201382  0.00000000  0.75000000  1.0
  Te  Te40  1  0.00000000  0.17201382  0.75000000  1.0
  Te  Te41  1  -0.00000000  0.82798618  0.25000000  1.0
  Te  Te42  1  0.82798618  0.82798618  0.75000000  1.0
  Te  Te43  1  0.82798618  0.00000000  0.25000000  1.0
  Te  Te44  1  0.33333333  0.66666667  0.50000000  1.0
  Te  Te45  1  0.33333333  0.66666667  0.00000000  1.0
  Te  Te46  1  0.66666667  0.33333333  0.50000000  1.0
  Te  Te47  1  0.66666667  0.33333333  0.00000000  1.0
