# generated using pymatgen
data_ZnB2(CN)8
_symmetry_space_group_name_H-M   'P 1'
_cell_length_a   7.58737186
_cell_length_b   7.58737186
_cell_length_c   6.39930379
_cell_angle_alpha   90.00000000
_cell_angle_beta   90.00000000
_cell_angle_gamma   120.00000000
_symmetry_Int_Tables_number   1
_chemical_formula_structural   ZnB2(CN)8
_chemical_formula_sum   'Zn1 B2 C8 N8'
_cell_volume   319.04070657
_cell_formula_units_Z   1
loop_
 _symmetry_equiv_pos_site_id
 _symmetry_equiv_pos_as_xyz
  1  'x, y, z'
loop_
 _atom_site_type_symbol
 _atom_site_label
 _atom_site_symmetry_multiplicity
 _atom_site_fract_x
 _atom_site_fract_y
 _atom_site_fract_z
 _atom_site_occupancy
  Zn  Zn0  1  0.00000000  0.00000000  0.00000000  1.0
  B  B1  1  0.33333333  0.66666667  0.67102975  1.0
  B  B2  1  0.66666667  0.33333333  0.32897025  1.0
  C  C3  1  0.43920189  0.21960095  0.24483505  1.0
  C  C4  1  0.21960095  0.43920189  0.75516495  1.0
  C  C5  1  0.21960095  0.78039905  0.75516495  1.0
  C  C6  1  0.78039905  0.21960095  0.24483505  1.0
  C  C7  1  0.78039905  0.56079811  0.24483505  1.0
  C  C8  1  0.56079811  0.78039905  0.75516495  1.0
  C  C9  1  0.33333333  0.66666667  0.42347790  1.0
  C  C10  1  0.66666667  0.33333333  0.57652210  1.0
  N  N11  1  0.27301742  0.13650871  0.18472285  1.0
  N  N12  1  0.13650871  0.27301742  0.81527715  1.0
  N  N13  1  0.13650871  0.86349129  0.81527715  1.0
  N  N14  1  0.86349129  0.13650871  0.18472285  1.0
  N  N15  1  0.86349129  0.72698258  0.18472285  1.0
  N  N16  1  0.72698258  0.86349129  0.81527715  1.0
  N  N17  1  0.33333333  0.66666667  0.24173210  1.0
  N  N18  1  0.66666667  0.33333333  0.75826790  1.0
