# generated using pymatgen
data_P4Pb3O13
_symmetry_space_group_name_H-M   'P 1'
_cell_length_a   8.01273020
_cell_length_b   7.50875385
_cell_length_c   10.38559261
_cell_angle_alpha   104.29775973
_cell_angle_beta   102.55111947
_cell_angle_gamma   94.52715929
_symmetry_Int_Tables_number   1
_chemical_formula_structural   P4Pb3O13
_chemical_formula_sum   'P8 Pb6 O26'
_cell_volume   585.19454477
_cell_formula_units_Z   2
loop_
 _symmetry_equiv_pos_site_id
 _symmetry_equiv_pos_as_xyz
  1  'x, y, z'
loop_
 _atom_site_type_symbol
 _atom_site_label
 _atom_site_symmetry_multiplicity
 _atom_site_fract_x
 _atom_site_fract_y
 _atom_site_fract_z
 _atom_site_occupancy
  P  P0  1  -0.53780081  -0.85712970  -0.63656139  1.0
  P  P1  1  -0.46219919  -0.14287030  -0.36343861  1.0
  P  P2  1  -0.80334954  -0.83167970  -0.00664507  1.0
  P  P3  1  -0.19665046  -0.16832030  -0.99335493  1.0
  P  P4  1  -0.46382591  -0.63368596  -0.83485568  1.0
  P  P5  1  -0.53617409  -0.36631404  -0.16514432  1.0
  P  P6  1  -0.80957080  -0.31248352  -0.53628570  1.0
  P  P7  1  -0.19042920  -0.68751648  -0.46371430  1.0
  Pb  Pb8  1  -0.76489722  -0.81378738  -0.34731716  1.0
  Pb  Pb9  1  -0.23510278  -0.18621262  -0.65268284  1.0
  Pb  Pb10  1  -0.97582916  -0.74368955  -0.72711429  1.0
  Pb  Pb11  1  -0.02417084  -0.25631045  -0.27288571  1.0
  Pb  Pb12  1  -0.77439756  -0.29252066  -0.88597349  1.0
  Pb  Pb13  1  -0.22560244  -0.70747934  -0.11402651  1.0
  O  O14  1  -0.82290244  -0.95998924  -0.91587113  1.0
  O  O15  1  -0.17709756  -0.04001076  -0.08412887  1.0
  O  O16  1  -0.51066055  -0.96551635  -0.28169483  1.0
  O  O17  1  -0.48933945  -0.03448365  -0.71830517  1.0
  O  O18  1  -0.84928631  -0.92466363  -0.16194674  1.0
  O  O19  1  -0.15071369  -0.07533637  -0.83805326  1.0
  O  O20  1  -0.71199698  -0.87119338  -0.60234051  1.0
  O  O21  1  -0.28800302  -0.12880662  -0.39765949  1.0
  O  O22  1  -0.11040452  -0.84051528  -0.55299472  1.0
  O  O23  1  -0.88959548  -0.15948472  -0.44700528  1.0
  O  O24  1  -0.39690189  -0.77341226  -0.49350708  1.0
  O  O25  1  -0.60309811  -0.22658774  -0.50649292  1.0
  O  O26  1  -0.59329595  -0.75999837  -0.97312132  1.0
  O  O27  1  -0.40670405  -0.24000163  -0.02687868  1.0
  O  O28  1  -0.52912327  -0.69442647  -0.71260835  1.0
  O  O29  1  -0.47087673  -0.30557353  -0.28739165  1.0
  O  O30  1  -0.28384908  -0.67230374  -0.84293784  1.0
  O  O31  1  -0.71615092  -0.32769626  -0.15706216  1.0
  O  O32  1  -0.89155654  -0.65565522  -0.96915565  1.0
  O  O33  1  -0.10844346  -0.34434478  -0.03084435  1.0
  O  O34  1  -0.81577646  -0.49474009  -0.49748049  1.0
  O  O35  1  -0.18422354  -0.50525991  -0.50251951  1.0
  O  O36  1  -0.49387614  -0.43168823  -0.81288901  1.0
  O  O37  1  -0.50612386  -0.56831177  -0.18711099  1.0
  O  O38  1  -0.88303235  -0.33576122  -0.69023068  1.0
  O  O39  1  -0.11696765  -0.66423878  -0.30976932  1.0
