# generated using pymatgen
data_Y3(B3Os4)2
_symmetry_space_group_name_H-M   'P 1'
_cell_length_a   10.04594565
_cell_length_b   9.25869391
_cell_length_c   5.51480075
_cell_angle_alpha   81.43125852
_cell_angle_beta   65.69222433
_cell_angle_gamma   32.87651715
_symmetry_Int_Tables_number   1
_chemical_formula_structural   Y3(B3Os4)2
_chemical_formula_sum   'Y3 B6 Os8'
_cell_volume   232.83280655
_cell_formula_units_Z   1
loop_
 _symmetry_equiv_pos_site_id
 _symmetry_equiv_pos_as_xyz
  1  'x, y, z'
loop_
 _atom_site_type_symbol
 _atom_site_label
 _atom_site_symmetry_multiplicity
 _atom_site_fract_x
 _atom_site_fract_y
 _atom_site_fract_z
 _atom_site_occupancy
  Y  Y0  1  0.82038712  0.82038712  -0.82038712  1.0
  Y  Y1  1  0.17961288  1.17961288  -0.17961288  1.0
  Y  Y2  1  0.00000000  0.00000000  0.00000000  1.0
  B  B3  1  1.52600884  -0.17586578  0.17586578  1.0
  B  B4  1  1.17586578  0.47399116  0.52600884  1.0
  B  B5  1  0.82413422  0.52600884  0.47399116  1.0
  B  B6  1  1.47399116  0.17586578  -0.17586578  1.0
  B  B7  1  0.68303423  -0.68303423  0.68303423  1.0
  B  B8  1  0.31696577  -0.31696577  1.31696577  1.0
  Os  Os9  1  0.90959966  0.90959966  0.59040034  1.0
  Os  Os10  1  1.09040034  0.09040034  0.40959966  1.0
  Os  Os11  1  1.40959966  0.40959966  0.09040034  1.0
  Os  Os12  1  0.59040034  0.59040034  0.90959966  1.0
  Os  Os13  1  0.57942015  0.57942015  -0.57942015  1.0
  Os  Os14  1  0.42057985  1.42057985  -0.42057985  1.0
  Os  Os15  1  0.75000000  0.75000000  0.75000000  1.0
  Os  Os16  1  1.25000000  0.25000000  0.25000000  1.0
