# generated using pymatgen
data_KV2AgO6
_symmetry_space_group_name_H-M   'P 1'
_cell_length_a   7.42557376
_cell_length_b   7.42557376
_cell_length_c   5.88332704
_cell_angle_alpha   80.36267500
_cell_angle_beta   99.63732500
_cell_angle_gamma   93.50656796
_symmetry_Int_Tables_number   1
_chemical_formula_structural   KV2AgO6
_chemical_formula_sum   'K2 V4 Ag2 O12'
_cell_volume   315.12650990
_cell_formula_units_Z   2
loop_
 _symmetry_equiv_pos_site_id
 _symmetry_equiv_pos_as_xyz
  1  'x, y, z'
loop_
 _atom_site_type_symbol
 _atom_site_label
 _atom_site_symmetry_multiplicity
 _atom_site_fract_x
 _atom_site_fract_y
 _atom_site_fract_z
 _atom_site_occupancy
  K  K0  1  0.79967342  0.79967342  0.75000000  1.0
  K  K1  1  0.20032658  0.20032658  0.25000000  1.0
  V  V2  1  1.29467120  -0.12480719  0.77002515  1.0
  V  V3  1  1.12480719  -0.29467120  0.27002515  1.0
  V  V4  1  0.87519281  0.29467120  0.72997485  1.0
  V  V5  1  0.70532880  0.12480719  0.22997485  1.0
  Ag  Ag6  1  0.40682491  0.40682491  0.75000000  1.0
  Ag  Ag7  1  0.59317509  0.59317509  0.25000000  1.0
  O  O8  1  1.45445781  -0.28177852  0.83532971  1.0
  O  O9  1  1.28177852  -0.45445781  0.33532971  1.0
  O  O10  1  0.71822148  0.45445781  0.66467029  1.0
  O  O11  1  0.54554219  0.28177852  0.16467029  1.0
  O  O12  1  0.83657757  0.14239287  0.99316557  1.0
  O  O13  1  0.85760713  0.16342243  0.49316557  1.0
  O  O14  1  1.14239287  -0.16342243  0.50683443  1.0
  O  O15  1  1.16342243  -0.14239287  0.00683443  1.0
  O  O16  1  0.38603390  0.08364548  0.71701098  1.0
  O  O17  1  0.91635452  0.61396610  0.21701098  1.0
  O  O18  1  1.08364548  -0.61396610  0.78298902  1.0
  O  O19  1  1.61396610  -0.08364548  0.28298902  1.0
