# generated using pymatgen
data_TlBS3
_symmetry_space_group_name_H-M   'P 1'
_cell_length_a   7.07364199
_cell_length_b   12.28918995
_cell_length_c   5.83889452
_cell_angle_alpha   90.00000000
_cell_angle_beta   113.45408224
_cell_angle_gamma   90.00000000
_symmetry_Int_Tables_number   1
_chemical_formula_structural   TlBS3
_chemical_formula_sum   'Tl4 B4 S12'
_cell_volume   465.63532386
_cell_formula_units_Z   4
loop_
 _symmetry_equiv_pos_site_id
 _symmetry_equiv_pos_as_xyz
  1  'x, y, z'
loop_
 _atom_site_type_symbol
 _atom_site_label
 _atom_site_symmetry_multiplicity
 _atom_site_fract_x
 _atom_site_fract_y
 _atom_site_fract_z
 _atom_site_occupancy
  Tl  Tl0  1  0.74915385  0.40544833  0.73842616  1.0
  Tl  Tl1  1  0.74915385  0.09455167  0.23842616  1.0
  Tl  Tl2  1  0.25084615  0.90544833  0.76157384  1.0
  Tl  Tl3  1  0.25084615  0.59455167  0.26157384  1.0
  B  B4  1  0.79240537  0.76913328  0.84444781  1.0
  B  B5  1  0.79240537  0.73086672  0.34444781  1.0
  B  B6  1  0.20759463  0.26913328  0.65555219  1.0
  B  B7  1  0.20759463  0.23086672  0.15555219  1.0
  S  S8  1  0.95490082  0.69912657  0.68761663  1.0
  S  S9  1  0.95490082  0.80087343  0.18761663  1.0
  S  S10  1  0.04509918  0.19912657  0.81238337  1.0
  S  S11  1  0.04509918  0.30087343  0.31238337  1.0
  S  S12  1  0.68222192  0.89955115  0.65914259  1.0
  S  S13  1  0.68222192  0.60044885  0.15914259  1.0
  S  S14  1  0.31777808  0.39955115  0.84085741  1.0
  S  S15  1  0.31777808  0.10044885  0.34085741  1.0
  S  S16  1  0.55197013  0.68274958  0.81787878  1.0
  S  S17  1  0.55197013  0.81725042  0.31787878  1.0
  S  S18  1  0.44802987  0.18274958  0.68212122  1.0
  S  S19  1  0.44802987  0.31725042  0.18212122  1.0
