# generated using pymatgen
data_CaGa2Ni
_symmetry_space_group_name_H-M   'P 1'
_cell_length_a   5.57722899
_cell_length_b   5.57722899
_cell_length_c   6.97227313
_cell_angle_alpha   90.00000000
_cell_angle_beta   90.00000000
_cell_angle_gamma   137.33213078
_symmetry_Int_Tables_number   1
_chemical_formula_structural   CaGa2Ni
_chemical_formula_sum   'Ca2 Ga4 Ni2'
_cell_volume   146.98710120
_cell_formula_units_Z   2
loop_
 _symmetry_equiv_pos_site_id
 _symmetry_equiv_pos_as_xyz
  1  'x, y, z'
loop_
 _atom_site_type_symbol
 _atom_site_label
 _atom_site_symmetry_multiplicity
 _atom_site_fract_x
 _atom_site_fract_y
 _atom_site_fract_z
 _atom_site_occupancy
  Ca  Ca0  1  0.44292843  0.55707157  0.75000000  1.0
  Ca  Ca1  1  -0.44292843  0.44292843  0.25000000  1.0
  Ga  Ga2  1  0.16132735  0.83867265  0.94357073  1.0
  Ga  Ga3  1  0.16132735  0.83867265  0.55642927  1.0
  Ga  Ga4  1  -0.16132735  0.16132735  0.44357073  1.0
  Ga  Ga5  1  -0.16132735  0.16132735  0.05642927  1.0
  Ni  Ni6  1  -0.28171184  0.28171184  0.75000000  1.0
  Ni  Ni7  1  0.28171184  0.71828816  0.25000000  1.0
