# generated using pymatgen
data_K2Ag(AsSe2)3
_symmetry_space_group_name_H-M   'P 1'
_cell_length_a   13.00692106
_cell_length_b   7.77090974
_cell_length_c   18.15272823
_cell_angle_alpha   90.00000000
_cell_angle_beta   126.53298649
_cell_angle_gamma   90.00000000
_symmetry_Int_Tables_number   1
_chemical_formula_structural   K2Ag(AsSe2)3
_chemical_formula_sum   'K8 Ag4 As12 Se24'
_cell_volume   1474.28644040
_cell_formula_units_Z   4
loop_
 _symmetry_equiv_pos_site_id
 _symmetry_equiv_pos_as_xyz
  1  'x, y, z'
loop_
 _atom_site_type_symbol
 _atom_site_label
 _atom_site_symmetry_multiplicity
 _atom_site_fract_x
 _atom_site_fract_y
 _atom_site_fract_z
 _atom_site_occupancy
  K  K0  1  0.90909859  0.11681124  0.25351674  1.0
  K  K1  1  0.90909859  0.38318876  0.75351674  1.0
  K  K2  1  0.09090141  0.61681124  0.24648326  1.0
  K  K3  1  0.09090141  0.88318876  0.74648326  1.0
  K  K4  1  0.71460512  0.86153572  0.38515142  1.0
  K  K5  1  0.71460512  0.63846428  0.88515142  1.0
  K  K6  1  0.28539488  0.36153572  0.11484858  1.0
  K  K7  1  0.28539488  0.13846428  0.61484858  1.0
  Ag  Ag8  1  0.97413622  0.01408745  0.07144884  1.0
  Ag  Ag9  1  0.97413622  0.48591255  0.57144884  1.0
  Ag  Ag10  1  0.02586378  0.51408745  0.42855116  1.0
  Ag  Ag11  1  0.02586378  0.98591255  0.92855116  1.0
  As  As12  1  0.72422035  0.40746352  0.34520416  1.0
  As  As13  1  0.72422035  0.09253648  0.84520416  1.0
  As  As14  1  0.27577965  0.90746352  0.15479584  1.0
  As  As15  1  0.27577965  0.59253648  0.65479584  1.0
  As  As16  1  0.62419449  0.30765393  0.49484492  1.0
  As  As17  1  0.62419449  0.19234607  0.99484492  1.0
  As  As18  1  0.37580551  0.80765393  0.00515508  1.0
  As  As19  1  0.37580551  0.69234607  0.50515508  1.0
  As  As20  1  0.32208191  0.06988851  0.36262843  1.0
  As  As21  1  0.32208191  0.43011149  0.86262843  1.0
  As  As22  1  0.67791809  0.56988851  0.13737157  1.0
  As  As23  1  0.67791809  0.93011149  0.63737157  1.0
  Se  Se24  1  0.91102047  0.22973497  0.43893172  1.0
  Se  Se25  1  0.91102047  0.27026503  0.93893172  1.0
  Se  Se26  1  0.08897953  0.72973497  0.06106828  1.0
  Se  Se27  1  0.08897953  0.77026503  0.56106828  1.0
  Se  Se28  1  0.85253361  0.69504900  0.27614108  1.0
  Se  Se29  1  0.85253361  0.80495100  0.77614108  1.0
  Se  Se30  1  0.14746639  0.19504900  0.22385892  1.0
  Se  Se31  1  0.14746639  0.30495100  0.72385892  1.0
  Se  Se32  1  0.78919511  0.42172623  0.08204880  1.0
  Se  Se33  1  0.78919511  0.07827377  0.58204880  1.0
  Se  Se34  1  0.21080489  0.92172623  0.41795120  1.0
  Se  Se35  1  0.21080489  0.57827377  0.91795120  1.0
  Se  Se36  1  0.62493068  0.30547224  0.18795148  1.0
  Se  Se37  1  0.62493068  0.19452776  0.68795148  1.0
  Se  Se38  1  0.37506932  0.80547224  0.31204852  1.0
  Se  Se39  1  0.37506932  0.69452776  0.81204852  1.0
  Se  Se40  1  0.55724559  0.24261510  0.33840418  1.0
  Se  Se41  1  0.55724559  0.25738490  0.83840418  1.0
  Se  Se42  1  0.44275441  0.74261510  0.16159582  1.0
  Se  Se43  1  0.44275441  0.75738490  0.66159582  1.0
  Se  Se44  1  0.25015010  0.44068399  0.46221308  1.0
  Se  Se45  1  0.25015010  0.05931601  0.96221308  1.0
  Se  Se46  1  0.74984990  0.94068399  0.03778692  1.0
  Se  Se47  1  0.74984990  0.55931601  0.53778692  1.0
