# generated using pymatgen
data_Sc3Ni11Ge4
_symmetry_space_group_name_H-M   'P 1'
_cell_length_a   8.09812894
_cell_length_b   8.09812894
_cell_length_c   8.44718859
_cell_angle_alpha   90.00000000
_cell_angle_beta   90.00000000
_cell_angle_gamma   120.00000000
_symmetry_Int_Tables_number   1
_chemical_formula_structural   Sc3Ni11Ge4
_chemical_formula_sum   'Sc6 Ni22 Ge8'
_cell_volume   479.74692150
_cell_formula_units_Z   2
loop_
 _symmetry_equiv_pos_site_id
 _symmetry_equiv_pos_as_xyz
  1  'x, y, z'
loop_
 _atom_site_type_symbol
 _atom_site_label
 _atom_site_symmetry_multiplicity
 _atom_site_fract_x
 _atom_site_fract_y
 _atom_site_fract_z
 _atom_site_occupancy
  Sc  Sc0  1  0.19667471  0.80332529  0.25000000  1.0
  Sc  Sc1  1  0.19667471  0.39334942  0.25000000  1.0
  Sc  Sc2  1  0.60665058  0.80332529  0.25000000  1.0
  Sc  Sc3  1  0.80332529  0.19667471  0.75000000  1.0
  Sc  Sc4  1  0.80332529  0.60665058  0.75000000  1.0
  Sc  Sc5  1  0.39334942  0.19667471  0.75000000  1.0
  Ni  Ni6  1  0.15365397  0.84634603  0.90577964  1.0
  Ni  Ni7  1  0.15365397  0.30730794  0.90577964  1.0
  Ni  Ni8  1  0.69269206  0.84634603  0.90577964  1.0
  Ni  Ni9  1  0.84634603  0.15365397  0.09422036  1.0
  Ni  Ni10  1  0.84634603  0.69269206  0.09422036  1.0
  Ni  Ni11  1  0.30730794  0.15365397  0.09422036  1.0
  Ni  Ni12  1  0.84634603  0.15365397  0.40577964  1.0
  Ni  Ni13  1  0.84634603  0.69269206  0.40577964  1.0
  Ni  Ni14  1  0.30730794  0.15365397  0.40577964  1.0
  Ni  Ni15  1  0.15365397  0.84634603  0.59422036  1.0
  Ni  Ni16  1  0.15365397  0.30730794  0.59422036  1.0
  Ni  Ni17  1  0.69269206  0.84634603  0.59422036  1.0
  Ni  Ni18  1  0.56376296  0.43623704  0.25000000  1.0
  Ni  Ni19  1  0.56376296  0.12752592  0.25000000  1.0
  Ni  Ni20  1  0.87247408  0.43623704  0.25000000  1.0
  Ni  Ni21  1  0.43623704  0.56376296  0.75000000  1.0
  Ni  Ni22  1  0.43623704  0.87247408  0.75000000  1.0
  Ni  Ni23  1  0.12752592  0.56376296  0.75000000  1.0
  Ni  Ni24  1  0.33333333  0.66666667  0.49545253  1.0
  Ni  Ni25  1  0.66666667  0.33333333  0.50454747  1.0
  Ni  Ni26  1  0.66666667  0.33333333  0.99545253  1.0
  Ni  Ni27  1  0.33333333  0.66666667  0.00454747  1.0
  Ge  Ge28  1  0.50000000  0.50000000  0.50000000  1.0
  Ge  Ge29  1  0.50000000  0.00000000  0.50000000  1.0
  Ge  Ge30  1  -0.00000000  0.50000000  0.50000000  1.0
  Ge  Ge31  1  0.50000000  0.50000000  0.00000000  1.0
  Ge  Ge32  1  0.50000000  0.00000000  0.00000000  1.0
  Ge  Ge33  1  -0.00000000  0.50000000  0.00000000  1.0
  Ge  Ge34  1  0.00000000  0.00000000  0.25000000  1.0
  Ge  Ge35  1  0.00000000  0.00000000  0.75000000  1.0
