# generated using pymatgen
data_Ba2CrO4
_symmetry_space_group_name_H-M   'P 1'
_cell_length_a   7.69535541
_cell_length_b   5.96698357
_cell_length_c   10.62835776
_cell_angle_alpha   90.00000000
_cell_angle_beta   90.00000000
_cell_angle_gamma   90.00000000
_symmetry_Int_Tables_number   1
_chemical_formula_structural   Ba2CrO4
_chemical_formula_sum   'Ba8 Cr4 O16'
_cell_volume   488.03356167
_cell_formula_units_Z   4
loop_
 _symmetry_equiv_pos_site_id
 _symmetry_equiv_pos_as_xyz
  1  'x, y, z'
loop_
 _atom_site_type_symbol
 _atom_site_label
 _atom_site_symmetry_multiplicity
 _atom_site_fract_x
 _atom_site_fract_y
 _atom_site_fract_z
 _atom_site_occupancy
  Ba  Ba0  1  0.84884798  0.75000000  0.43020364  1.0
  Ba  Ba1  1  0.34884798  0.75000000  0.06979636  1.0
  Ba  Ba2  1  0.15115202  0.25000000  0.56979636  1.0
  Ba  Ba3  1  0.65115202  0.25000000  0.93020364  1.0
  Ba  Ba4  1  0.50234076  0.75000000  0.69619444  1.0
  Ba  Ba5  1  0.00234076  0.75000000  0.80380556  1.0
  Ba  Ba6  1  0.49765924  0.25000000  0.30380556  1.0
  Ba  Ba7  1  0.99765924  0.25000000  0.19619444  1.0
  Cr  Cr8  1  0.78269915  0.75000000  0.07880703  1.0
  Cr  Cr9  1  0.28269915  0.75000000  0.42119297  1.0
  Cr  Cr10  1  0.21730085  0.25000000  0.92119297  1.0
  Cr  Cr11  1  0.71730085  0.25000000  0.57880703  1.0
  O  O12  1  0.69438058  0.99534673  0.14792089  1.0
  O  O13  1  0.69438058  0.50465327  0.14792089  1.0
  O  O14  1  0.19438058  0.99534673  0.35207911  1.0
  O  O15  1  0.19438058  0.50465327  0.35207911  1.0
  O  O16  1  0.30561942  0.49534673  0.85207911  1.0
  O  O17  1  0.30561942  0.00465327  0.85207911  1.0
  O  O18  1  0.80561942  0.49534673  0.64792089  1.0
  O  O19  1  0.80561942  0.00465327  0.64792089  1.0
  O  O20  1  0.01049448  0.75000000  0.07833492  1.0
  O  O21  1  0.51049448  0.75000000  0.42166508  1.0
  O  O22  1  0.98950552  0.25000000  0.92166508  1.0
  O  O23  1  0.48950552  0.25000000  0.57833492  1.0
  O  O24  1  0.18564820  0.75000000  0.57645014  1.0
  O  O25  1  0.68564820  0.75000000  0.92354986  1.0
  O  O26  1  0.81435180  0.25000000  0.42354986  1.0
  O  O27  1  0.31435180  0.25000000  0.07645014  1.0
