# generated using pymatgen
data_LiCaSi3N5
_symmetry_space_group_name_H-M   'P 1'
_cell_length_a   5.36955669
_cell_length_b   16.76701260
_cell_length_c   4.91423736
_cell_angle_alpha   90.00000000
_cell_angle_beta   90.00000000
_cell_angle_gamma   90.00000000
_symmetry_Int_Tables_number   1
_chemical_formula_structural   LiCaSi3N5
_chemical_formula_sum   'Li4 Ca4 Si12 N20'
_cell_volume   442.43579147
_cell_formula_units_Z   4
loop_
 _symmetry_equiv_pos_site_id
 _symmetry_equiv_pos_as_xyz
  1  'x, y, z'
loop_
 _atom_site_type_symbol
 _atom_site_label
 _atom_site_symmetry_multiplicity
 _atom_site_fract_x
 _atom_site_fract_y
 _atom_site_fract_z
 _atom_site_occupancy
  Li  Li0  1  0.15556118  0.08736922  0.00676544  1.0
  Li  Li1  1  0.84443882  0.91263078  0.50676544  1.0
  Li  Li2  1  0.34443882  0.58736922  0.50676544  1.0
  Li  Li3  1  0.65556118  0.41263078  0.00676544  1.0
  Ca  Ca4  1  0.18327982  0.68906660  0.02429131  1.0
  Ca  Ca5  1  0.81672018  0.31093340  0.52429131  1.0
  Ca  Ca6  1  0.31672018  0.18906660  0.52429131  1.0
  Ca  Ca7  1  0.68327982  0.81093340  0.02429131  1.0
  Si  Si8  1  0.17122786  0.49159047  0.99982406  1.0
  Si  Si9  1  0.82877214  0.50840953  0.49982406  1.0
  Si  Si10  1  0.32877214  0.99159047  0.49982406  1.0
  Si  Si11  1  0.67122786  0.00840953  0.99982406  1.0
  Si  Si12  1  0.17610614  0.90999952  0.00169185  1.0
  Si  Si13  1  0.82389386  0.09000048  0.50169185  1.0
  Si  Si14  1  0.32389386  0.40999952  0.50169185  1.0
  Si  Si15  1  0.67610614  0.59000048  0.00169185  1.0
  Si  Si16  1  0.20103095  0.30199775  0.98783683  1.0
  Si  Si17  1  0.79896905  0.69800225  0.48783683  1.0
  Si  Si18  1  0.29896905  0.80199775  0.48783683  1.0
  Si  Si19  1  0.70103095  0.19800225  0.98783683  1.0
  N  N20  1  0.11237681  0.71876884  0.56046132  1.0
  N  N21  1  0.88762319  0.28123116  0.06046132  1.0
  N  N22  1  0.38762319  0.21876884  0.06046132  1.0
  N  N23  1  0.61237681  0.78123116  0.56046132  1.0
  N  N24  1  0.12363628  0.06481835  0.58292925  1.0
  N  N25  1  0.87636372  0.93518165  0.08292925  1.0
  N  N26  1  0.37636372  0.56481835  0.08292925  1.0
  N  N27  1  0.62363628  0.43518165  0.58292925  1.0
  N  N28  1  0.12509428  0.48588243  0.64021197  1.0
  N  N29  1  0.87490572  0.51411757  0.14021197  1.0
  N  N30  1  0.37490572  0.98588243  0.14021197  1.0
  N  N31  1  0.62509428  0.01411757  0.64021197  1.0
  N  N32  1  0.22813241  0.89922893  0.64390439  1.0
  N  N33  1  0.77186759  0.10077107  0.14390439  1.0
  N  N34  1  0.27186759  0.39922893  0.14390439  1.0
  N  N35  1  0.72813241  0.60077107  0.64390439  1.0
  N  N36  1  0.24411876  0.32075071  0.64208258  1.0
  N  N37  1  0.75588124  0.67924929  0.14208258  1.0
  N  N38  1  0.25588124  0.82075071  0.14208258  1.0
  N  N39  1  0.74411876  0.17924929  0.64208258  1.0
