# generated using pymatgen
data_NaGa(SeO3)2
_symmetry_space_group_name_H-M   'P 1'
_cell_length_a   12.65566719
_cell_length_b   5.39495113
_cell_length_c   8.01422114
_cell_angle_alpha   90.00000000
_cell_angle_beta   90.00000000
_cell_angle_gamma   90.00000000
_symmetry_Int_Tables_number   1
_chemical_formula_structural   NaGa(SeO3)2
_chemical_formula_sum   'Na4 Ga4 Se8 O24'
_cell_volume   547.18462095
_cell_formula_units_Z   4
loop_
 _symmetry_equiv_pos_site_id
 _symmetry_equiv_pos_as_xyz
  1  'x, y, z'
loop_
 _atom_site_type_symbol
 _atom_site_label
 _atom_site_symmetry_multiplicity
 _atom_site_fract_x
 _atom_site_fract_y
 _atom_site_fract_z
 _atom_site_occupancy
  Na  Na0  1  0.38955580  0.75000000  0.01532412  1.0
  Na  Na1  1  0.88955580  0.75000000  0.48467588  1.0
  Na  Na2  1  0.61044420  0.25000000  0.98467588  1.0
  Na  Na3  1  0.11044420  0.25000000  0.51532412  1.0
  Ga  Ga4  1  0.10408563  0.75000000  0.19792400  1.0
  Ga  Ga5  1  0.60408563  0.75000000  0.30207600  1.0
  Ga  Ga6  1  0.89591437  0.25000000  0.80207600  1.0
  Ga  Ga7  1  0.39591437  0.25000000  0.69792400  1.0
  Se  Se8  1  0.56482396  0.75000000  0.70889142  1.0
  Se  Se9  1  0.06482396  0.75000000  0.79110858  1.0
  Se  Se10  1  0.43517604  0.25000000  0.29110858  1.0
  Se  Se11  1  0.93517604  0.25000000  0.20889142  1.0
  Se  Se12  1  0.29284989  0.75000000  0.49087784  1.0
  Se  Se13  1  0.79284989  0.75000000  0.00912216  1.0
  Se  Se14  1  0.70715011  0.25000000  0.50912216  1.0
  Se  Se15  1  0.20715011  0.25000000  0.99087784  1.0
  O  O16  1  0.49603903  0.99404225  0.79768985  1.0
  O  O17  1  0.49603903  0.50595775  0.79768985  1.0
  O  O18  1  0.99603903  0.99404225  0.70231015  1.0
  O  O19  1  0.99603903  0.50595775  0.70231015  1.0
  O  O20  1  0.50396097  0.49404225  0.20231015  1.0
  O  O21  1  0.50396097  0.00595775  0.20231015  1.0
  O  O22  1  0.00396097  0.49404225  0.29768985  1.0
  O  O23  1  0.00396097  0.00595775  0.29768985  1.0
  O  O24  1  0.28510660  1.00099062  0.62543450  1.0
  O  O25  1  0.28510660  0.49900938  0.62543450  1.0
  O  O26  1  0.78510660  1.00099062  0.87456550  1.0
  O  O27  1  0.78510660  0.49900938  0.87456550  1.0
  O  O28  1  0.71489340  0.50099062  0.37456550  1.0
  O  O29  1  0.71489340  -0.00099062  0.37456550  1.0
  O  O30  1  0.21489340  0.50099062  0.12543450  1.0
  O  O31  1  0.21489340  -0.00099062  0.12543450  1.0
  O  O32  1  0.01936736  0.75000000  0.99256240  1.0
  O  O33  1  0.51936736  0.75000000  0.50743760  1.0
  O  O34  1  0.98063264  0.25000000  0.00743760  1.0
  O  O35  1  0.48063264  0.25000000  0.49256240  1.0
  O  O36  1  0.66155594  0.75000000  0.06892256  1.0
  O  O37  1  0.16155594  0.75000000  0.43107744  1.0
  O  O38  1  0.33844406  0.25000000  0.93107744  1.0
  O  O39  1  0.83844406  0.25000000  0.56892256  1.0
