# generated using pymatgen
data_Mn(GaSe2)2
_symmetry_space_group_name_H-M   'P 1'
_cell_length_a   6.82755075
_cell_length_b   6.82755075
_cell_length_c   6.82755075
_cell_angle_alpha   130.47049986
_cell_angle_beta   130.47049986
_cell_angle_gamma   72.65570545
_symmetry_Int_Tables_number   1
_chemical_formula_structural   Mn(GaSe2)2
_chemical_formula_sum   'Mn1 Ga2 Se4'
_cell_volume   179.97132218
_cell_formula_units_Z   1
loop_
 _symmetry_equiv_pos_site_id
 _symmetry_equiv_pos_as_xyz
  1  'x, y, z'
loop_
 _atom_site_type_symbol
 _atom_site_label
 _atom_site_symmetry_multiplicity
 _atom_site_fract_x
 _atom_site_fract_y
 _atom_site_fract_z
 _atom_site_occupancy
  Mn  Mn0  1  0.50000000  0.50000000  1.00000000  1.0
  Ga  Ga1  1  0.25000000  0.75000000  0.50000000  1.0
  Ga  Ga2  1  0.00000000  0.00000000  0.00000000  1.0
  Se  Se3  1  0.38505828  0.89786873  1.01681707  1.0
  Se  Se4  1  1.10213127  1.11894835  1.48718955  1.0
  Se  Se5  1  0.88105165  0.36824121  0.98318293  1.0
  Se  Se6  1  0.63175879  0.61494172  0.51281045  1.0
