# generated using pymatgen
data_K3Ta3Si2O13
_symmetry_space_group_name_H-M   'P 1'
_cell_length_a   9.19303850
_cell_length_b   9.19303850
_cell_length_c   7.87478603
_cell_angle_alpha   90.00000000
_cell_angle_beta   90.00000000
_cell_angle_gamma   120.00000000
_symmetry_Int_Tables_number   1
_chemical_formula_structural   K3Ta3Si2O13
_chemical_formula_sum   'K6 Ta6 Si4 O26'
_cell_volume   576.35166442
_cell_formula_units_Z   2
loop_
 _symmetry_equiv_pos_site_id
 _symmetry_equiv_pos_as_xyz
  1  'x, y, z'
loop_
 _atom_site_type_symbol
 _atom_site_label
 _atom_site_symmetry_multiplicity
 _atom_site_fract_x
 _atom_site_fract_y
 _atom_site_fract_z
 _atom_site_occupancy
  K  K0  1  0.40264554  0.40264554  0.50000000  1.0
  K  K1  1  -0.00000000  0.59735446  0.50000000  1.0
  K  K2  1  0.59735446  0.00000000  0.50000000  1.0
  K  K3  1  0.39019819  0.39019819  0.00000000  1.0
  K  K4  1  0.00000000  0.60980181  0.00000000  1.0
  K  K5  1  0.60980181  0.00000000  0.00000000  1.0
  Ta  Ta6  1  0.76281014  0.76281014  0.74941160  1.0
  Ta  Ta7  1  0.76281014  0.76281014  0.25058840  1.0
  Ta  Ta8  1  -0.00000000  0.23718986  0.74941160  1.0
  Ta  Ta9  1  -0.00000000  0.23718986  0.25058840  1.0
  Ta  Ta10  1  0.23718986  0.00000000  0.74941160  1.0
  Ta  Ta11  1  0.23718986  0.00000000  0.25058840  1.0
  Si  Si12  1  0.33333333  0.66666667  0.79003170  1.0
  Si  Si13  1  0.33333333  0.66666667  0.20996830  1.0
  Si  Si14  1  0.66666667  0.33333333  0.79003170  1.0
  Si  Si15  1  0.66666667  0.33333333  0.20996830  1.0
  O  O16  1  0.30445070  0.81891176  0.72838667  1.0
  O  O17  1  0.30445070  0.81891176  0.27161333  1.0
  O  O18  1  0.81891176  0.30445070  0.72838667  1.0
  O  O19  1  0.81891176  0.30445070  0.27161333  1.0
  O  O20  1  0.51446106  0.69554930  0.72838667  1.0
  O  O21  1  0.51446106  0.69554930  0.27161333  1.0
  O  O22  1  0.18108824  0.48553894  0.72838667  1.0
  O  O23  1  0.18108824  0.48553894  0.27161333  1.0
  O  O24  1  0.69554930  0.51446106  0.72838667  1.0
  O  O25  1  0.69554930  0.51446106  0.27161333  1.0
  O  O26  1  0.48553894  0.18108824  0.72838667  1.0
  O  O27  1  0.48553894  0.18108824  0.27161333  1.0
  O  O28  1  0.17539362  0.17539362  0.76458005  1.0
  O  O29  1  0.17539362  0.17539362  0.23541995  1.0
  O  O30  1  -0.00000000  0.82460638  0.76458005  1.0
  O  O31  1  -0.00000000  0.82460638  0.23541995  1.0
  O  O32  1  0.82460638  0.00000000  0.76458005  1.0
  O  O33  1  0.82460638  0.00000000  0.23541995  1.0
  O  O34  1  0.76914268  0.76914268  0.50000000  1.0
  O  O35  1  -0.00000000  0.23085732  0.50000000  1.0
  O  O36  1  0.23085732  0.00000000  0.50000000  1.0
  O  O37  1  0.73145885  0.73145885  0.00000000  1.0
  O  O38  1  0.00000000  0.26854115  0.00000000  1.0
  O  O39  1  0.26854115  0.00000000  0.00000000  1.0
  O  O40  1  0.33333333  0.66666667  0.00000000  1.0
  O  O41  1  0.66666667  0.33333333  0.00000000  1.0
