# generated using pymatgen
data_MoAs2O7
_symmetry_space_group_name_H-M   'P 1'
_cell_length_a   8.12666136
_cell_length_b   4.68352106
_cell_length_c   17.73124719
_cell_angle_alpha   90.00000000
_cell_angle_beta   108.87652508
_cell_angle_gamma   90.00000000
_symmetry_Int_Tables_number   1
_chemical_formula_structural   MoAs2O7
_chemical_formula_sum   'Mo4 As8 O28'
_cell_volume   638.57972653
_cell_formula_units_Z   4
loop_
 _symmetry_equiv_pos_site_id
 _symmetry_equiv_pos_as_xyz
  1  'x, y, z'
loop_
 _atom_site_type_symbol
 _atom_site_label
 _atom_site_symmetry_multiplicity
 _atom_site_fract_x
 _atom_site_fract_y
 _atom_site_fract_z
 _atom_site_occupancy
  Mo  Mo0  1  0.93506083  0.49744798  0.09434757  1.0
  Mo  Mo1  1  0.93506083  0.00255202  0.59434757  1.0
  Mo  Mo2  1  0.06493917  0.99744798  0.40565243  1.0
  Mo  Mo3  1  0.06493917  0.50255202  0.90565243  1.0
  As  As4  1  0.77629318  0.95361850  0.94182366  1.0
  As  As5  1  0.77629318  0.54638150  0.44182366  1.0
  As  As6  1  0.22370682  0.45361850  0.55817634  1.0
  As  As7  1  0.22370682  0.04638150  0.05817634  1.0
  As  As8  1  0.40882892  0.48265897  0.28699678  1.0
  As  As9  1  0.40882892  0.01734103  0.78699678  1.0
  As  As10  1  0.59117108  0.98265897  0.21300322  1.0
  As  As11  1  0.59117108  0.51734103  0.71300322  1.0
  O  O12  1  0.98274993  0.21145733  0.32484943  1.0
  O  O13  1  0.98274993  0.28854267  0.82484943  1.0
  O  O14  1  0.01725007  0.71145733  0.17515057  1.0
  O  O15  1  0.01725007  0.78854267  0.67515057  1.0
  O  O16  1  0.90342172  0.24161769  0.47553245  1.0
  O  O17  1  0.90342172  0.25838231  0.97553245  1.0
  O  O18  1  0.09657828  0.74161769  0.02446755  1.0
  O  O19  1  0.09657828  0.75838231  0.52446755  1.0
  O  O20  1  0.84911837  0.75164982  0.37678425  1.0
  O  O21  1  0.84911837  0.74835018  0.87678425  1.0
  O  O22  1  0.15088163  0.25164982  0.12321575  1.0
  O  O23  1  0.15088163  0.24835018  0.62321575  1.0
  O  O24  1  0.79104445  0.28199199  0.11823563  1.0
  O  O25  1  0.79104445  0.21800801  0.61823563  1.0
  O  O26  1  0.20895555  0.78199199  0.38176437  1.0
  O  O27  1  0.20895555  0.71800801  0.88176437  1.0
  O  O28  1  0.55138199  0.35534740  0.23068966  1.0
  O  O29  1  0.55138199  0.14465260  0.73068966  1.0
  O  O30  1  0.44861801  0.85534740  0.26931034  1.0
  O  O31  1  0.44861801  0.64465260  0.76931034  1.0
  O  O32  1  0.56596536  0.42813083  0.39168164  1.0
  O  O33  1  0.56596536  0.07186917  0.89168164  1.0
  O  O34  1  0.43403464  0.92813083  0.10831836  1.0
  O  O35  1  0.43403464  0.57186917  0.60831836  1.0
  O  O36  1  0.24311050  0.24873803  0.47944790  1.0
  O  O37  1  0.24311050  0.25126197  0.97944790  1.0
  O  O38  1  0.75688950  0.74873803  0.02055210  1.0
  O  O39  1  0.75688950  0.75126197  0.52055210  1.0
