# generated using pymatgen
data_Ba3Mn2V4(O7F)2
_symmetry_space_group_name_H-M   'P 1'
_cell_length_a   7.85426295
_cell_length_b   7.85426295
_cell_length_c   9.68657483
_cell_angle_alpha   74.24510689
_cell_angle_beta   105.75489311
_cell_angle_gamma   138.88282798
_symmetry_Int_Tables_number   1
_chemical_formula_structural   Ba3Mn2V4(O7F)2
_chemical_formula_sum   'Ba3 Mn2 V4 O14 F2'
_cell_volume   376.07015448
_cell_formula_units_Z   1
loop_
 _symmetry_equiv_pos_site_id
 _symmetry_equiv_pos_as_xyz
  1  'x, y, z'
loop_
 _atom_site_type_symbol
 _atom_site_label
 _atom_site_symmetry_multiplicity
 _atom_site_fract_x
 _atom_site_fract_y
 _atom_site_fract_z
 _atom_site_occupancy
  Ba  Ba0  1  0.60580625  0.39419375  0.36452289  1.0
  Ba  Ba1  1  0.39419375  -0.39419375  0.63547711  1.0
  Ba  Ba2  1  0.00000000  0.00000000  0.00000000  1.0
  Mn  Mn3  1  0.10142989  -0.10142989  0.66185842  1.0
  Mn  Mn4  1  0.89857011  0.10142989  0.33814158  1.0
  V  V5  1  0.75880842  0.24119158  0.72077316  1.0
  V  V6  1  0.24119158  -0.24119158  0.27922684  1.0
  V  V7  1  0.62650458  0.37349542  0.90695678  1.0
  V  V8  1  0.37349542  -0.37349542  0.09304322  1.0
  O  O9  1  0.95429451  0.54626551  0.62955962  1.0
  O  O10  1  0.45373449  0.04570549  0.62955962  1.0
  O  O11  1  1.04570549  0.45373449  0.37044038  1.0
  O  O12  1  0.54626551  -0.04570549  0.37044038  1.0
  O  O13  1  0.87447643  0.12552357  0.72542438  1.0
  O  O14  1  0.12552357  -0.12552357  0.27457562  1.0
  O  O15  1  0.81838819  0.67625895  0.81115567  1.0
  O  O16  1  0.32374105  0.18161181  0.81115567  1.0
  O  O17  1  1.18161181  0.32374105  0.18884433  1.0
  O  O18  1  0.67625895  -0.18161181  0.18884433  1.0
  O  O19  1  0.60996031  0.39003969  0.07143385  1.0
  O  O20  1  0.39003969  -0.39003969  0.92856615  1.0
  O  O21  1  0.74863270  0.25136730  0.90191884  1.0
  O  O22  1  0.25136730  -0.25136730  0.09808116  1.0
  F  F23  1  0.23035361  0.23035361  0.50000000  1.0
  F  F24  1  0.76964639  0.76964639  0.50000000  1.0
