# generated using pymatgen
data_EuMgSi
_symmetry_space_group_name_H-M   'P 1'
_cell_length_a   7.49153759
_cell_length_b   4.43818101
_cell_length_c   8.44098536
_cell_angle_alpha   90.00000000
_cell_angle_beta   90.00000000
_cell_angle_gamma   90.00000000
_symmetry_Int_Tables_number   1
_chemical_formula_structural   EuMgSi
_chemical_formula_sum   'Eu4 Mg4 Si4'
_cell_volume   280.65263268
_cell_formula_units_Z   4
loop_
 _symmetry_equiv_pos_site_id
 _symmetry_equiv_pos_as_xyz
  1  'x, y, z'
loop_
 _atom_site_type_symbol
 _atom_site_label
 _atom_site_symmetry_multiplicity
 _atom_site_fract_x
 _atom_site_fract_y
 _atom_site_fract_z
 _atom_site_occupancy
  Eu  Eu0  1  0.98081689  0.75000000  0.68090348  1.0
  Eu  Eu1  1  0.48081689  0.75000000  0.81909652  1.0
  Eu  Eu2  1  0.01918311  0.25000000  0.31909652  1.0
  Eu  Eu3  1  0.51918311  0.25000000  0.18090348  1.0
  Mg  Mg4  1  0.85431577  0.75000000  0.06283772  1.0
  Mg  Mg5  1  0.35431577  0.75000000  0.43716228  1.0
  Mg  Mg6  1  0.14568423  0.25000000  0.93716228  1.0
  Mg  Mg7  1  0.64568423  0.25000000  0.56283772  1.0
  Si  Si8  1  0.72704715  0.75000000  0.38467194  1.0
  Si  Si9  1  0.22704715  0.75000000  0.11532806  1.0
  Si  Si10  1  0.27295285  0.25000000  0.61532806  1.0
  Si  Si11  1  0.77295285  0.25000000  0.88467194  1.0
