# generated using pymatgen
data_RbNaMgP2O7
_symmetry_space_group_name_H-M   'P 1'
_cell_length_a   15.00817653
_cell_length_b   5.23145071
_cell_length_c   9.68952009
_cell_angle_alpha   90.00000000
_cell_angle_beta   90.00000000
_cell_angle_gamma   90.00000000
_symmetry_Int_Tables_number   1
_chemical_formula_structural   RbNaMgP2O7
_chemical_formula_sum   'Rb4 Na4 Mg4 P8 O28'
_cell_volume   760.76817122
_cell_formula_units_Z   4
loop_
 _symmetry_equiv_pos_site_id
 _symmetry_equiv_pos_as_xyz
  1  'x, y, z'
loop_
 _atom_site_type_symbol
 _atom_site_label
 _atom_site_symmetry_multiplicity
 _atom_site_fract_x
 _atom_site_fract_y
 _atom_site_fract_z
 _atom_site_occupancy
  Rb  Rb0  1  0.09137936  0.01763625  0.86614963  1.0
  Rb  Rb1  1  0.90862064  0.98236375  0.36614963  1.0
  Rb  Rb2  1  0.40862064  0.51763625  0.36614963  1.0
  Rb  Rb3  1  0.59137936  0.48236375  0.86614963  1.0
  Na  Na4  1  0.35514881  0.03653172  0.69007609  1.0
  Na  Na5  1  0.64485119  0.96346828  0.19007609  1.0
  Na  Na6  1  0.14485119  0.53653172  0.19007609  1.0
  Na  Na7  1  0.85514881  0.46346828  0.69007609  1.0
  Mg  Mg8  1  0.18485256  0.00106035  0.44416273  1.0
  Mg  Mg9  1  0.81514744  0.99893965  0.94416273  1.0
  Mg  Mg10  1  0.31514744  0.50106035  0.94416273  1.0
  Mg  Mg11  1  0.68485256  0.49893965  0.44416273  1.0
  P  P12  1  0.05599975  0.48251725  0.47743968  1.0
  P  P13  1  0.94400025  0.51748275  0.97743968  1.0
  P  P14  1  0.44400025  0.98251725  0.97743968  1.0
  P  P15  1  0.55599975  0.01748275  0.47743968  1.0
  P  P16  1  0.21853155  0.49247456  0.63346373  1.0
  P  P17  1  0.78146845  0.50752544  0.13346373  1.0
  P  P18  1  0.28146845  -0.00752544  0.13346373  1.0
  P  P19  1  0.71853155  1.00752544  0.63346373  1.0
  O  O20  1  0.23764221  0.77579050  0.60105644  1.0
  O  O21  1  0.76235779  0.22420950  0.10105644  1.0
  O  O22  1  0.26235779  0.27579050  0.10105644  1.0
  O  O23  1  0.73764221  0.72420950  0.60105644  1.0
  O  O24  1  0.10972367  0.45528260  0.62806250  1.0
  O  O25  1  0.89027633  0.54471740  0.12806250  1.0
  O  O26  1  0.39027633  0.95528260  0.12806250  1.0
  O  O27  1  0.60972367  0.04471740  0.62806250  1.0
  O  O28  1  0.24327131  0.41429785  0.78082825  1.0
  O  O29  1  0.75672869  0.58570215  0.28082825  1.0
  O  O30  1  0.25672869  0.91429785  0.28082825  1.0
  O  O31  1  0.74327131  0.08570215  0.78082825  1.0
  O  O32  1  0.25788419  0.30448778  0.52731176  1.0
  O  O33  1  0.74211581  0.69551222  0.02731176  1.0
  O  O34  1  0.24211581  0.80448778  0.02731176  1.0
  O  O35  1  0.75788419  0.19551222  0.52731176  1.0
  O  O36  1  0.95804881  0.47230962  0.51480615  1.0
  O  O37  1  0.04195119  0.52769038  0.01480615  1.0
  O  O38  1  0.54195119  0.97230962  0.01480615  1.0
  O  O39  1  0.45804881  0.02769038  0.51480615  1.0
  O  O40  1  0.08674891  0.73660030  0.41259390  1.0
  O  O41  1  0.91325109  0.26339970  0.91259390  1.0
  O  O42  1  0.41325109  0.23660030  0.91259390  1.0
  O  O43  1  0.58674891  0.76339970  0.41259390  1.0
  O  O44  1  0.08903445  0.25734841  0.38780915  1.0
  O  O45  1  0.91096555  0.74265159  0.88780915  1.0
  O  O46  1  0.41096555  0.75734841  0.88780915  1.0
  O  O47  1  0.58903445  0.24265159  0.38780915  1.0
