# generated using pymatgen
data_Ca2ScReO6
_symmetry_space_group_name_H-M   'P 1'
_cell_length_a   5.62014679
_cell_length_b   8.01784044
_cell_length_c   5.75125023
_cell_angle_alpha   90.00000000
_cell_angle_beta   90.00000000
_cell_angle_gamma   90.00000000
_symmetry_Int_Tables_number   1
_chemical_formula_structural   Ca2ScReO6
_chemical_formula_sum   'Ca4 Sc2 Re2 O12'
_cell_volume   259.15961819
_cell_formula_units_Z   2
loop_
 _symmetry_equiv_pos_site_id
 _symmetry_equiv_pos_as_xyz
  1  'x, y, z'
loop_
 _atom_site_type_symbol
 _atom_site_label
 _atom_site_symmetry_multiplicity
 _atom_site_fract_x
 _atom_site_fract_y
 _atom_site_fract_z
 _atom_site_occupancy
  Ca  Ca0  1  0.03151612  0.75371374  0.44546491  1.0
  Ca  Ca1  1  0.53151612  0.74628626  -0.05453509  1.0
  Ca  Ca2  1  0.96848388  0.24628626  0.44546491  1.0
  Ca  Ca3  1  0.46848388  0.25371374  -0.05453509  1.0
  Sc  Sc4  1  0.50000000  0.50000000  0.50186219  1.0
  Sc  Sc5  1  0.00000000  0.00000000  0.00186219  1.0
  Re  Re6  1  0.50000000  0.00000000  0.51055287  1.0
  Re  Re7  1  0.00000000  0.50000000  0.01055287  1.0
  O  O8  1  0.26370170  0.00497162  0.76163768  1.0
  O  O9  1  0.76370170  0.49502838  0.26163768  1.0
  O  O10  1  0.73629830  0.99502838  0.76163768  1.0
  O  O11  1  0.23629830  0.50497162  0.26163768  1.0
  O  O12  1  0.25191516  0.50031284  0.77944647  1.0
  O  O13  1  0.75191516  0.99968716  0.27944647  1.0
  O  O14  1  0.74808484  0.49968716  0.77944647  1.0
  O  O15  1  0.24808484  0.00031284  0.27944647  1.0
  O  O16  1  0.98588641  0.74372934  1.02334342  1.0
  O  O17  1  0.48588641  0.75627066  0.52334342  1.0
  O  O18  1  0.01411359  0.25627066  1.02334342  1.0
  O  O19  1  0.51411359  0.24372934  0.52334342  1.0
