# generated using pymatgen
data_K2Pd3S4
_symmetry_space_group_name_H-M   'P 1'
_cell_length_a   14.17416706
_cell_length_b   13.40484634
_cell_length_c   6.30037729
_cell_angle_alpha   83.71969221
_cell_angle_beta   70.05963384
_cell_angle_gamma   26.22067395
_symmetry_Int_Tables_number   1
_chemical_formula_structural   K2Pd3S4
_chemical_formula_sum   'K4 Pd6 S8'
_cell_volume   438.00004301
_cell_formula_units_Z   2
loop_
 _symmetry_equiv_pos_site_id
 _symmetry_equiv_pos_as_xyz
  1  'x, y, z'
loop_
 _atom_site_type_symbol
 _atom_site_label
 _atom_site_symmetry_multiplicity
 _atom_site_fract_x
 _atom_site_fract_y
 _atom_site_fract_z
 _atom_site_occupancy
  K  K0  1  0.07811249  1.07811249  -0.07811249  1.0
  K  K1  1  -0.07811249  0.92188751  0.07811249  1.0
  K  K2  1  0.17188751  0.17188751  0.32811249  1.0
  K  K3  1  0.32811249  0.32811249  0.17188751  1.0
  Pd  Pd4  1  0.50000000  0.50000000  -0.50000000  1.0
  Pd  Pd5  1  -0.25000000  0.75000000  0.75000000  1.0
  Pd  Pd6  1  -0.25109477  0.74890523  0.25109477  1.0
  Pd  Pd7  1  0.25109477  0.25109477  -0.25109477  1.0
  Pd  Pd8  1  0.50109477  0.50109477  -0.00109477  1.0
  Pd  Pd9  1  -0.00109477  0.99890523  0.50109477  1.0
  S  S10  1  0.28446088  0.59765943  0.38940468  1.0
  S  S11  1  0.38940468  0.72847501  0.28446088  1.0
  S  S12  1  0.59765943  0.28446088  -0.27152499  1.0
  S  S13  1  0.72847501  0.38940468  -0.40234057  1.0
  S  S14  1  0.96553912  -0.34765943  0.86059532  1.0
  S  S15  1  0.86059532  -0.47847501  0.96553912  1.0
  S  S16  1  -0.34765943  0.96553912  0.52152499  1.0
  S  S17  1  -0.47847501  0.86059532  0.65234057  1.0
