# generated using pymatgen
data_Gd4NiB13
_symmetry_space_group_name_H-M   'P 1'
_cell_length_a   7.36561050
_cell_length_b   7.36561050
_cell_length_c   6.97764694
_cell_angle_alpha   90.00000000
_cell_angle_beta   90.00000000
_cell_angle_gamma   90.00000000
_symmetry_Int_Tables_number   1
_chemical_formula_structural   Gd4NiB13
_chemical_formula_sum   'Gd8 Ni2 B26'
_cell_volume   378.55282320
_cell_formula_units_Z   2
loop_
 _symmetry_equiv_pos_site_id
 _symmetry_equiv_pos_as_xyz
  1  'x, y, z'
loop_
 _atom_site_type_symbol
 _atom_site_label
 _atom_site_symmetry_multiplicity
 _atom_site_fract_x
 _atom_site_fract_y
 _atom_site_fract_z
 _atom_site_occupancy
  Ni  Ni0  1  0.50000000  0.50000000  0.00000000  1.0
  Ni  Ni1  1  0.00000000  0.00000000  0.50000000  1.0
  B  B2  1  0.33067659  0.54031544  0.25700485  1.0
  B  B3  1  0.33067659  0.54031544  0.74299515  1.0
  B  B4  1  0.83067659  0.95968456  0.75700485  1.0
  B  B5  1  0.83067659  0.95968456  0.24299515  1.0
  B  B6  1  0.45968456  0.33067659  0.25700485  1.0
  B  B7  1  0.45968456  0.33067659  0.74299515  1.0
  B  B8  1  0.95968456  0.16932341  0.75700485  1.0
  B  B9  1  0.95968456  0.16932341  0.24299515  1.0
  B  B10  1  0.66932341  0.45968456  0.25700485  1.0
  B  B11  1  0.66932341  0.45968456  0.74299515  1.0
  B  B12  1  0.16932341  0.04031544  0.75700485  1.0
  B  B13  1  0.16932341  0.04031544  0.24299515  1.0
  B  B14  1  0.54031544  0.66932341  0.25700485  1.0
  B  B15  1  0.54031544  0.66932341  0.74299515  1.0
  B  B16  1  0.04031544  0.83067659  0.75700485  1.0
  B  B17  1  0.04031544  0.83067659  0.24299515  1.0
  B  B18  1  0.40654484  0.09345516  0.25000000  1.0
  B  B19  1  0.40654484  0.09345516  0.75000000  1.0
  B  B20  1  0.90654484  0.40654484  0.75000000  1.0
  B  B21  1  0.90654484  0.40654484  0.25000000  1.0
  B  B22  1  0.59345516  0.90654484  0.25000000  1.0
  B  B23  1  0.59345516  0.90654484  0.75000000  1.0
  B  B24  1  0.09345516  0.59345516  0.75000000  1.0
  B  B25  1  0.09345516  0.59345516  0.25000000  1.0
  B  B26  1  0.50000000  0.50000000  0.50000000  1.0
  B  B27  1  0.00000000  0.00000000  -0.00000000  1.0
  Gd  Gd28  1  0.32068827  0.81557288  0.50000000  1.0
  Gd  Gd29  1  0.82068827  0.68442712  0.00000000  1.0
  Gd  Gd30  1  0.18442712  0.32068827  0.50000000  1.0
  Gd  Gd31  1  0.68442712  0.17931173  -0.00000000  1.0
  Gd  Gd32  1  0.67931173  0.18442712  0.50000000  1.0
  Gd  Gd33  1  0.17931173  0.31557288  0.00000000  1.0
  Gd  Gd34  1  0.81557288  0.67931173  0.50000000  1.0
  Gd  Gd35  1  0.31557288  0.82068827  -0.00000000  1.0
