# generated using pymatgen
data_Fe23C6
_symmetry_space_group_name_H-M   'P 1'
_cell_length_a   7.40327376
_cell_length_b   7.40327376
_cell_length_c   7.40327376
_cell_angle_alpha   60.00000000
_cell_angle_beta   60.00000000
_cell_angle_gamma   60.00000000
_symmetry_Int_Tables_number   1
_chemical_formula_structural   Fe23C6
_chemical_formula_sum   'Fe23 C6'
_cell_volume   286.91709769
_cell_formula_units_Z   1
loop_
 _symmetry_equiv_pos_site_id
 _symmetry_equiv_pos_as_xyz
  1  'x, y, z'
loop_
 _atom_site_type_symbol
 _atom_site_label
 _atom_site_symmetry_multiplicity
 _atom_site_fract_x
 _atom_site_fract_y
 _atom_site_fract_z
 _atom_site_occupancy
  Fe  Fe0  1  1.66071200  -0.00000000  0.00000000  1.0
  Fe  Fe1  1  1.00000000  0.33928800  -0.33928800  1.0
  Fe  Fe2  1  1.00000000  0.66071200  -0.66071200  1.0
  Fe  Fe3  1  1.33928800  0.00000000  -0.00000000  1.0
  Fe  Fe4  1  -0.00000000  1.66071200  0.00000000  1.0
  Fe  Fe5  1  0.33928800  1.00000000  -0.33928800  1.0
  Fe  Fe6  1  0.00000000  0.00000000  0.66071200  1.0
  Fe  Fe7  1  0.33928800  -0.33928800  1.00000000  1.0
  Fe  Fe8  1  0.66071200  1.00000000  -0.66071200  1.0
  Fe  Fe9  1  0.00000000  1.33928800  -0.00000000  1.0
  Fe  Fe10  1  0.66071200  -0.66071200  1.00000000  1.0
  Fe  Fe11  1  0.00000000  0.00000000  0.33928800  1.0
  Fe  Fe12  1  0.61615631  0.61615631  -0.38384369  1.0
  Fe  Fe13  1  0.38384369  1.38384369  -0.15153106  1.0
  Fe  Fe14  1  1.38384369  -0.15153106  0.38384369  1.0
  Fe  Fe15  1  1.15153106  0.61615631  0.61615631  1.0
  Fe  Fe16  1  -0.15153106  1.38384369  0.38384369  1.0
  Fe  Fe17  1  0.61615631  1.15153106  -0.38384369  1.0
  Fe  Fe18  1  0.61615631  0.61615631  1.15153106  1.0
  Fe  Fe19  1  1.38384369  0.38384369  0.38384369  1.0
  Fe  Fe20  1  0.75000000  0.75000000  -0.25000000  1.0
  Fe  Fe21  1  1.25000000  0.25000000  0.25000000  1.0
  Fe  Fe22  1  0.00000000  -0.00000000  0.00000000  1.0
  C  C23  1  -0.72271067  0.72271067  0.72271067  1.0
  C  C24  1  -0.27728933  0.27728933  0.72271067  1.0
  C  C25  1  0.72271067  0.72271067  -0.72271067  1.0
  C  C26  1  0.27728933  1.27728933  -0.27728933  1.0
  C  C27  1  0.27728933  -0.27728933  1.27728933  1.0
  C  C28  1  -0.27728933  0.27728933  0.27728933  1.0
