# generated using pymatgen
data_Sr2Mg17
_symmetry_space_group_name_H-M   'P 1'
_cell_length_a   10.50910292
_cell_length_b   10.50910292
_cell_length_c   10.28590316
_cell_angle_alpha   90.00000000
_cell_angle_beta   90.00000000
_cell_angle_gamma   120.00000000
_symmetry_Int_Tables_number   1
_chemical_formula_structural   Sr2Mg17
_chemical_formula_sum   'Sr4 Mg34'
_cell_volume   983.79441657
_cell_formula_units_Z   2
loop_
 _symmetry_equiv_pos_site_id
 _symmetry_equiv_pos_as_xyz
  1  'x, y, z'
loop_
 _atom_site_type_symbol
 _atom_site_label
 _atom_site_symmetry_multiplicity
 _atom_site_fract_x
 _atom_site_fract_y
 _atom_site_fract_z
 _atom_site_occupancy
  Sr  Sr0  1  0.33333333  0.66666667  0.25000000  1.0
  Sr  Sr1  1  0.66666667  0.33333333  0.75000000  1.0
  Sr  Sr2  1  0.00000000  0.00000000  0.25000000  1.0
  Sr  Sr3  1  0.00000000  0.00000000  0.75000000  1.0
  Mg  Mg4  1  0.16522196  0.83477804  0.47954880  1.0
  Mg  Mg5  1  0.16522196  0.83477804  0.02045120  1.0
  Mg  Mg6  1  0.16522196  0.33044393  0.47954880  1.0
  Mg  Mg7  1  0.16522196  0.33044393  0.02045120  1.0
  Mg  Mg8  1  0.83477804  0.16522196  -0.02045120  1.0
  Mg  Mg9  1  0.83477804  0.16522196  0.52045120  1.0
  Mg  Mg10  1  0.83477804  0.66955607  -0.02045120  1.0
  Mg  Mg11  1  0.83477804  0.66955607  0.52045120  1.0
  Mg  Mg12  1  0.66955607  0.83477804  0.47954880  1.0
  Mg  Mg13  1  0.66955607  0.83477804  0.02045120  1.0
  Mg  Mg14  1  0.33044393  0.16522196  -0.02045120  1.0
  Mg  Mg15  1  0.33044393  0.16522196  0.52045120  1.0
  Mg  Mg16  1  0.36756212  0.03863569  0.25000000  1.0
  Mg  Mg17  1  0.36756212  0.32892643  0.25000000  1.0
  Mg  Mg18  1  0.03863569  0.36756212  0.75000000  1.0
  Mg  Mg19  1  0.03863569  0.67107357  0.75000000  1.0
  Mg  Mg20  1  0.67107357  0.03863569  0.25000000  1.0
  Mg  Mg21  1  0.67107357  0.63243788  0.25000000  1.0
  Mg  Mg22  1  -0.03863569  0.63243788  0.25000000  1.0
  Mg  Mg23  1  -0.03863569  0.32892643  0.25000000  1.0
  Mg  Mg24  1  0.63243788  0.67107357  0.75000000  1.0
  Mg  Mg25  1  0.63243788  -0.03863569  0.75000000  1.0
  Mg  Mg26  1  0.32892643  0.36756212  0.75000000  1.0
  Mg  Mg27  1  0.32892643  -0.03863569  0.75000000  1.0
  Mg  Mg28  1  0.50000000  0.50000000  0.50000000  1.0
  Mg  Mg29  1  0.50000000  0.50000000  0.00000000  1.0
  Mg  Mg30  1  0.50000000  0.00000000  0.50000000  1.0
  Mg  Mg31  1  0.50000000  0.00000000  0.00000000  1.0
  Mg  Mg32  1  0.00000000  0.50000000  0.50000000  1.0
  Mg  Mg33  1  0.00000000  0.50000000  0.00000000  1.0
  Mg  Mg34  1  0.33333333  0.66666667  0.89743962  1.0
  Mg  Mg35  1  0.33333333  0.66666667  0.60256038  1.0
  Mg  Mg36  1  0.66666667  0.33333333  0.39743962  1.0
  Mg  Mg37  1  0.66666667  0.33333333  0.10256038  1.0
