# generated using pymatgen
data_Sr6Tb2Al4O15
_symmetry_space_group_name_H-M   'P 1'
_cell_length_a   9.36671529
_cell_length_b   9.36671529
_cell_length_c   7.78065973
_cell_angle_alpha   89.39292803
_cell_angle_beta   90.60707197
_cell_angle_gamma   143.85845031
_symmetry_Int_Tables_number   1
_chemical_formula_structural   Sr6Tb2Al4O15
_chemical_formula_sum   'Sr6 Tb2 Al4 O15'
_cell_volume   402.58325342
_cell_formula_units_Z   1
loop_
 _symmetry_equiv_pos_site_id
 _symmetry_equiv_pos_as_xyz
  1  'x, y, z'
loop_
 _atom_site_type_symbol
 _atom_site_label
 _atom_site_symmetry_multiplicity
 _atom_site_fract_x
 _atom_site_fract_y
 _atom_site_fract_z
 _atom_site_occupancy
  Sr  Sr0  1  0.88163820  -0.77559811  0.49630693  1.0
  Sr  Sr1  1  1.22440189  -0.11836180  0.50369307  1.0
  Sr  Sr2  1  1.23803964  -0.07607047  0.96522422  1.0
  Sr  Sr3  1  0.92392953  -0.76196036  0.03477578  1.0
  Sr  Sr4  1  0.44558385  0.44558385  0.50000000  1.0
  Sr  Sr5  1  0.51951484  0.51951484  -0.00000000  1.0
  Tb  Tb6  1  1.39444271  -0.28982998  0.75408174  1.0
  Tb  Tb7  1  0.71017002  -0.60555729  0.24591826  1.0
  Al  Al8  1  0.99799804  -0.97507114  0.77278576  1.0
  Al  Al9  1  1.02492886  -0.00200196  0.22721424  1.0
  Al  Al10  1  0.75762755  -0.62553021  0.75689041  1.0
  Al  Al11  1  1.37446979  -0.24237245  0.24310959  1.0
  O  O12  1  1.05378230  -0.80673770  0.31073679  1.0
  O  O13  1  1.19326230  0.05378230  0.68926321  1.0
  O  O14  1  1.12446634  -0.69785208  0.74039544  1.0
  O  O15  1  1.30214792  0.12446634  0.25960456  1.0
  O  O16  1  1.07680873  -0.39619951  0.76782761  1.0
  O  O17  1  1.60380049  0.07680873  0.23217239  1.0
  O  O18  1  0.70983030  -0.61104190  0.53764196  1.0
  O  O19  1  1.38895810  -0.29016970  0.46235804  1.0
  O  O20  1  0.67213702  -0.60047755  0.94586204  1.0
  O  O21  1  1.39952245  -0.32786298  0.05413796  1.0
  O  O22  1  1.68319553  -0.23148255  0.72778418  1.0
  O  O23  1  0.76851745  -0.31680447  0.27221582  1.0
  O  O24  1  1.61503350  0.08750897  0.77586697  1.0
  O  O25  1  1.08750897  -0.38496650  0.22413303  1.0
  O  O26  1  0.01408368  0.01408368  0.00000000  1.0
