# generated using pymatgen
data_GdGaGe2O7
_symmetry_space_group_name_H-M   'P 1'
_cell_length_a   7.29403560
_cell_length_b   6.64322023
_cell_length_c   12.94039767
_cell_angle_alpha   90.00000000
_cell_angle_beta   117.92824329
_cell_angle_gamma   90.00000000
_symmetry_Int_Tables_number   1
_chemical_formula_structural   GdGaGe2O7
_chemical_formula_sum   'Gd4 Ga4 Ge8 O28'
_cell_volume   554.01030362
_cell_formula_units_Z   4
loop_
 _symmetry_equiv_pos_site_id
 _symmetry_equiv_pos_as_xyz
  1  'x, y, z'
loop_
 _atom_site_type_symbol
 _atom_site_label
 _atom_site_symmetry_multiplicity
 _atom_site_fract_x
 _atom_site_fract_y
 _atom_site_fract_z
 _atom_site_occupancy
  Gd  Gd0  1  0.74214137  0.85506208  0.97287839  1.0
  Gd  Gd1  1  0.74214137  0.64493792  0.47287839  1.0
  Gd  Gd2  1  0.25785863  0.35506208  0.52712161  1.0
  Gd  Gd3  1  0.25785863  0.14493792  0.02712161  1.0
  Ga  Ga4  1  0.71253332  0.90120585  0.23055172  1.0
  Ga  Ga5  1  0.71253332  0.59879415  0.73055172  1.0
  Ga  Ga6  1  0.28746668  0.40120585  0.26944828  1.0
  Ga  Ga7  1  0.28746668  0.09879415  0.76944828  1.0
  Ge  Ge8  1  0.80049350  0.41169397  0.22217445  1.0
  Ge  Ge9  1  0.80049350  0.08830603  0.72217445  1.0
  Ge  Ge10  1  0.19950650  0.91169397  0.27782555  1.0
  Ge  Ge11  1  0.19950650  0.58830603  0.77782555  1.0
  Ge  Ge12  1  0.71648891  0.15842588  0.45731915  1.0
  Ge  Ge13  1  0.71648891  0.34157412  0.95731915  1.0
  Ge  Ge14  1  0.28351109  0.65842588  0.04268085  1.0
  Ge  Ge15  1  0.28351109  0.84157412  0.54268085  1.0
  O  O16  1  0.92775209  0.87864314  0.18875512  1.0
  O  O17  1  0.92775209  0.62135686  0.68875512  1.0
  O  O18  1  0.07224791  0.37864314  0.31124488  1.0
  O  O19  1  0.07224791  0.12135686  0.81124488  1.0
  O  O20  1  0.91068299  0.32917496  0.47933591  1.0
  O  O21  1  0.91068299  0.17082504  0.97933591  1.0
  O  O22  1  0.08931701  0.82917496  0.02066409  1.0
  O  O23  1  0.08931701  0.67082504  0.52066409  1.0
  O  O24  1  0.75726455  0.49922797  0.07896114  1.0
  O  O25  1  0.75726455  1.00077203  0.57896114  1.0
  O  O26  1  0.24273545  -0.00077203  0.42103886  1.0
  O  O27  1  0.24273545  0.50077203  0.92103886  1.0
  O  O28  1  0.71274878  0.94644297  0.37422685  1.0
  O  O29  1  0.71274878  0.55355703  0.87422685  1.0
  O  O30  1  0.28725122  0.44644297  0.12577315  1.0
  O  O31  1  0.28725122  0.05355703  0.62577315  1.0
  O  O32  1  0.65015222  0.18975447  0.18697504  1.0
  O  O33  1  0.65015222  0.31024553  0.68697504  1.0
  O  O34  1  0.34984778  0.68975447  0.31302496  1.0
  O  O35  1  0.34984778  0.81024553  0.81302496  1.0
  O  O36  1  0.51301448  0.34096787  0.42327918  1.0
  O  O37  1  0.51301448  0.15903213  0.92327918  1.0
  O  O38  1  0.48698552  0.84096787  0.07672082  1.0
  O  O39  1  0.48698552  0.65903213  0.57672082  1.0
  O  O40  1  0.28160224  0.11187951  0.21974402  1.0
  O  O41  1  0.28160224  0.38812049  0.71974402  1.0
  O  O42  1  0.71839776  0.61187951  0.28025598  1.0
  O  O43  1  0.71839776  0.88812049  0.78025598  1.0
