# generated using pymatgen
data_Lu3Ga8Rh3
_symmetry_space_group_name_H-M   'P 1'
_cell_length_a   8.12312595
_cell_length_b   8.12312595
_cell_length_c   8.12312595
_cell_angle_alpha   150.35061059
_cell_angle_beta   106.32015697
_cell_angle_gamma   81.36883247
_symmetry_Int_Tables_number   1
_chemical_formula_structural   Lu3Ga8Rh3
_chemical_formula_sum   'Lu3 Ga8 Rh3'
_cell_volume   249.42039287
_cell_formula_units_Z   1
loop_
 _symmetry_equiv_pos_site_id
 _symmetry_equiv_pos_as_xyz
  1  'x, y, z'
loop_
 _atom_site_type_symbol
 _atom_site_label
 _atom_site_symmetry_multiplicity
 _atom_site_fract_x
 _atom_site_fract_y
 _atom_site_fract_z
 _atom_site_occupancy
  Lu  Lu0  1  0.50000000  0.50000000  1.00000000  1.0
  Lu  Lu1  1  0.83241940  0.83241940  1.00000000  1.0
  Lu  Lu2  1  1.16758060  1.16758060  1.00000000  1.0
  Ga  Ga3  1  0.33873928  0.62267120  0.71606808  1.0
  Ga  Ga4  1  1.66126072  1.37732880  1.28393192  1.0
  Ga  Ga5  1  0.90660312  0.62267120  1.28393192  1.0
  Ga  Ga6  1  1.09339688  1.37732880  0.71606808  1.0
  Ga  Ga7  1  1.45787879  0.82826364  0.62961516  1.0
  Ga  Ga8  1  0.54212121  0.17173636  0.37038484  1.0
  Ga  Ga9  1  1.19864848  0.82826364  0.37038484  1.0
  Ga  Ga10  1  0.80135152  0.17173636  0.62961516  1.0
  Rh  Rh11  1  -0.00000000  0.50000000  0.50000000  1.0
  Rh  Rh12  1  0.77522485  0.00000000  0.77522485  1.0
  Rh  Rh13  1  0.22477515  -0.00000000  0.22477515  1.0
