# generated using pymatgen
data_Bi12PO20
_symmetry_space_group_name_H-M   'P 1'
_cell_length_a   8.96699550
_cell_length_b   8.96699550
_cell_length_c   8.96699550
_cell_angle_alpha   109.47122063
_cell_angle_beta   109.47122063
_cell_angle_gamma   109.47122063
_symmetry_Int_Tables_number   1
_chemical_formula_structural   Bi12PO20
_chemical_formula_sum   'Bi12 P1 O20'
_cell_volume   555.03320398
_cell_formula_units_Z   1
loop_
 _symmetry_equiv_pos_site_id
 _symmetry_equiv_pos_as_xyz
  1  'x, y, z'
loop_
 _atom_site_type_symbol
 _atom_site_label
 _atom_site_symmetry_multiplicity
 _atom_site_fract_x
 _atom_site_fract_y
 _atom_site_fract_z
 _atom_site_occupancy
  Bi  Bi0  1  0.49988960  0.34713705  0.20040611  1.0
  Bi  Bi1  1  1.14673094  1.29948349  0.79959389  1.0
  Bi  Bi2  1  0.20040611  0.49988960  0.34713705  1.0
  Bi  Bi3  1  1.15275255  0.85326906  1.65286295  1.0
  Bi  Bi4  1  0.34713705  0.20040611  0.49988960  1.0
  Bi  Bi5  1  0.70051651  0.84724745  0.50011040  1.0
  Bi  Bi6  1  0.85326906  1.65286295  1.15275255  1.0
  Bi  Bi7  1  0.50011040  0.70051651  0.84724745  1.0
  Bi  Bi8  1  0.84724745  0.50011040  0.70051651  1.0
  Bi  Bi9  1  0.79959389  1.14673094  1.29948349  1.0
  Bi  Bi10  1  1.29948349  0.79959389  1.14673094  1.0
  Bi  Bi11  1  1.65286295  1.15275255  0.85326906  1.0
  P  P12  1  0.00000000  0.00000000  0.00000000  1.0
  O  O13  1  0.73975343  0.62458756  0.37996149  1.0
  O  O14  1  1.24462607  1.35979194  0.62003851  1.0
  O  O15  1  0.37996149  0.73975343  0.62458756  1.0
  O  O16  1  1.11516587  0.75537393  1.37541244  1.0
  O  O17  1  0.62458756  0.37996149  0.73975343  1.0
  O  O18  1  0.64020806  0.88483413  0.26024657  1.0
  O  O19  1  0.75537393  1.37541244  1.11516587  1.0
  O  O20  1  0.26024657  0.64020806  0.88483413  1.0
  O  O21  1  0.88483413  0.26024657  0.64020806  1.0
  O  O22  1  0.62003851  1.24462607  1.35979194  1.0
  O  O23  1  1.35979194  0.62003851  1.24462607  1.0
  O  O24  1  1.37541244  1.11516587  0.75537393  1.0
  O  O25  1  0.82432828  0.82432828  0.82432828  1.0
  O  O26  1  1.00000000  1.00000000  0.17567172  1.0
  O  O27  1  1.00000000  0.17567172  1.00000000  1.0
  O  O28  1  0.17567172  1.00000000  1.00000000  1.0
  O  O29  1  0.40188585  0.40188585  0.40188585  1.0
  O  O30  1  1.00000000  1.00000000  0.59811415  1.0
  O  O31  1  1.00000000  0.59811415  1.00000000  1.0
  O  O32  1  0.59811415  1.00000000  1.00000000  1.0
