# generated using pymatgen
data_Na4RuN6O13
_symmetry_space_group_name_H-M   'P 1'
_cell_length_a   7.60674918
_cell_length_b   7.60674918
_cell_length_c   12.49288031
_cell_angle_alpha   88.88964781
_cell_angle_beta   91.11035219
_cell_angle_gamma   62.70444901
_symmetry_Int_Tables_number   1
_chemical_formula_structural   Na4RuN6O13
_chemical_formula_sum   'Na8 Ru2 N12 O26'
_cell_volume   641.93563633
_cell_formula_units_Z   2
loop_
 _symmetry_equiv_pos_site_id
 _symmetry_equiv_pos_as_xyz
  1  'x, y, z'
loop_
 _atom_site_type_symbol
 _atom_site_label
 _atom_site_symmetry_multiplicity
 _atom_site_fract_x
 _atom_site_fract_y
 _atom_site_fract_z
 _atom_site_occupancy
  N  N0  1  0.80506168  -0.15333804  0.98585360  1.0
  N  N1  1  1.15333804  0.19493832  0.48585360  1.0
  N  N2  1  0.84666196  -0.19493832  0.51414640  1.0
  N  N3  1  1.19493832  0.15333804  0.01414640  1.0
  N  N4  1  0.50637850  -0.25515127  0.06508616  1.0
  N  N5  1  1.25515127  0.49362150  0.56508616  1.0
  N  N6  1  0.74484873  -0.49362150  0.43491384  1.0
  N  N7  1  1.49362150  0.25515127  0.93491384  1.0
  N  N8  1  1.53864054  0.07640872  0.15516580  1.0
  N  N9  1  0.92359128  -0.53864054  0.65516580  1.0
  N  N10  1  1.07640872  0.53864054  0.34483420  1.0
  N  N11  1  0.46135946  -0.07640872  0.84483420  1.0
  O  O12  1  0.57848056  -0.35048205  0.45043049  1.0
  O  O13  1  1.35048205  0.42151944  0.95043049  1.0
  O  O14  1  0.64951795  -0.42151944  0.04956951  1.0
  O  O15  1  1.42151944  0.35048205  0.54956951  1.0
  O  O16  1  0.85500189  -0.07743455  0.44628732  1.0
  O  O17  1  1.07743455  0.14499811  0.94628732  1.0
  O  O18  1  0.92256545  -0.14499811  0.05371268  1.0
  O  O19  1  1.14499811  0.07743455  0.55371268  1.0
  O  O20  1  0.37320110  -0.24807131  0.12506683  1.0
  O  O21  1  1.24807131  0.62679890  0.62506683  1.0
  O  O22  1  0.75192869  -0.62679890  0.37493317  1.0
  O  O23  1  1.62679890  0.24807131  0.87493317  1.0
  O  O24  1  0.55718787  -0.03217638  0.23491410  1.0
  O  O25  1  1.03217638  0.44281213  0.73491410  1.0
  O  O26  1  0.96782362  -0.44281213  0.26508590  1.0
  O  O27  1  1.44281213  0.03217638  0.76508590  1.0
  O  O28  1  1.54031597  0.23947274  0.17104642  1.0
  O  O29  1  0.76052726  -0.54031597  0.67104642  1.0
  O  O30  1  1.23947274  0.54031597  0.32895358  1.0
  O  O31  1  0.45968403  -0.23947274  0.82895358  1.0
  O  O32  1  1.26478552  0.12479445  0.40760004  1.0
  O  O33  1  0.87520555  -0.26478552  0.90760004  1.0
  O  O34  1  1.12479445  0.26478552  0.09239996  1.0
  O  O35  1  0.73521448  -0.12479445  0.59239996  1.0
  O  O36  1  1.00397817  0.00397817  0.25000000  1.0
  O  O37  1  0.99602183  -0.00397817  0.75000000  1.0
  Na  Na38  1  0.32816901  -0.17548545  0.31585368  1.0
  Na  Na39  1  1.17548545  0.67183099  0.81585368  1.0
  Na  Na40  1  0.82451455  -0.67183099  0.18414632  1.0
  Na  Na41  1  1.67183099  0.17548545  0.68414632  1.0
  Na  Na42  1  1.54353005  0.20616931  0.37607002  1.0
  Na  Na43  1  0.79383069  -0.54353005  0.87607002  1.0
  Na  Na44  1  1.20616931  0.54353005  0.12392998  1.0
  Na  Na45  1  0.45646995  -0.20616931  0.62392998  1.0
  Ru  Ru46  1  1.50000000  -0.00000000  0.00000000  1.0
  Ru  Ru47  1  1.00000000  -0.50000000  0.50000000  1.0
