# generated using pymatgen
data_SbRhSe
_symmetry_space_group_name_H-M   'P 1'
_cell_length_a   6.25403354
_cell_length_b   6.25403354
_cell_length_c   6.25403354
_cell_angle_alpha   90.00000000
_cell_angle_beta   90.00000000
_cell_angle_gamma   90.00000000
_symmetry_Int_Tables_number   1
_chemical_formula_structural   SbRhSe
_chemical_formula_sum   'Sb4 Rh4 Se4'
_cell_volume   244.61361081
_cell_formula_units_Z   4
loop_
 _symmetry_equiv_pos_site_id
 _symmetry_equiv_pos_as_xyz
  1  'x, y, z'
loop_
 _atom_site_type_symbol
 _atom_site_label
 _atom_site_symmetry_multiplicity
 _atom_site_fract_x
 _atom_site_fract_y
 _atom_site_fract_z
 _atom_site_occupancy
  Sb  Sb0  1  0.12394468  0.62394468  0.87605532  1.0
  Sb  Sb1  1  0.62394468  0.87605532  0.12394468  1.0
  Sb  Sb2  1  0.87605532  0.12394468  0.62394468  1.0
  Sb  Sb3  1  0.37605532  0.37605532  0.37605532  1.0
  Rh  Rh4  1  0.49461970  0.99461970  0.50538030  1.0
  Rh  Rh5  1  0.99461970  0.50538030  0.49461970  1.0
  Rh  Rh6  1  0.50538030  0.49461970  0.99461970  1.0
  Rh  Rh7  1  0.00538030  0.00538030  0.00538030  1.0
  Se  Se8  1  0.87802417  0.37802417  0.12197583  1.0
  Se  Se9  1  0.37802417  0.12197583  0.87802417  1.0
  Se  Se10  1  0.12197583  0.87802417  0.37802417  1.0
  Se  Se11  1  0.62197583  0.62197583  0.62197583  1.0
