# generated using pymatgen
data_Lu4NiB13
_symmetry_space_group_name_H-M   'P 1'
_cell_length_a   7.21832275
_cell_length_b   7.21832275
_cell_length_c   6.73598741
_cell_angle_alpha   90.00000000
_cell_angle_beta   90.00000000
_cell_angle_gamma   90.00000000
_symmetry_Int_Tables_number   1
_chemical_formula_structural   Lu4NiB13
_chemical_formula_sum   'Lu8 Ni2 B26'
_cell_volume   350.97312297
_cell_formula_units_Z   2
loop_
 _symmetry_equiv_pos_site_id
 _symmetry_equiv_pos_as_xyz
  1  'x, y, z'
loop_
 _atom_site_type_symbol
 _atom_site_label
 _atom_site_symmetry_multiplicity
 _atom_site_fract_x
 _atom_site_fract_y
 _atom_site_fract_z
 _atom_site_occupancy
  Lu  Lu0  1  0.32116822  0.81451863  0.50000000  1.0
  Lu  Lu1  1  0.82116822  0.68548137  0.00000000  1.0
  Lu  Lu2  1  0.18548137  0.32116822  0.50000000  1.0
  Lu  Lu3  1  0.68548137  0.17883178  0.00000000  1.0
  Lu  Lu4  1  0.67883178  0.18548137  0.50000000  1.0
  Lu  Lu5  1  0.17883178  0.31451863  0.00000000  1.0
  Lu  Lu6  1  0.81451863  0.67883178  0.50000000  1.0
  Lu  Lu7  1  0.31451863  0.82116822  -0.00000000  1.0
  Ni  Ni8  1  0.50000000  0.50000000  0.00000000  1.0
  Ni  Ni9  1  0.00000000  0.00000000  0.50000000  1.0
  B  B10  1  0.32840867  0.53970891  0.25655977  1.0
  B  B11  1  0.32840867  0.53970891  0.74344023  1.0
  B  B12  1  0.82840867  0.96029109  0.75655977  1.0
  B  B13  1  0.82840867  0.96029109  0.24344023  1.0
  B  B14  1  0.46029109  0.32840867  0.25655977  1.0
  B  B15  1  0.46029109  0.32840867  0.74344023  1.0
  B  B16  1  0.96029109  0.17159133  0.75655977  1.0
  B  B17  1  0.96029109  0.17159133  0.24344023  1.0
  B  B18  1  0.67159133  0.46029109  0.25655977  1.0
  B  B19  1  0.67159133  0.46029109  0.74344023  1.0
  B  B20  1  0.17159133  0.03970891  0.75655977  1.0
  B  B21  1  0.17159133  0.03970891  0.24344023  1.0
  B  B22  1  0.53970891  0.67159133  0.25655977  1.0
  B  B23  1  0.53970891  0.67159133  0.74344023  1.0
  B  B24  1  0.03970891  0.82840867  0.75655977  1.0
  B  B25  1  0.03970891  0.82840867  0.24344023  1.0
  B  B26  1  0.40933891  0.09066109  0.25000000  1.0
  B  B27  1  0.40933891  0.09066109  0.75000000  1.0
  B  B28  1  0.90933891  0.40933891  0.75000000  1.0
  B  B29  1  0.90933891  0.40933891  0.25000000  1.0
  B  B30  1  0.59066109  0.90933891  0.25000000  1.0
  B  B31  1  0.59066109  0.90933891  0.75000000  1.0
  B  B32  1  0.09066109  0.59066109  0.75000000  1.0
  B  B33  1  0.09066109  0.59066109  0.25000000  1.0
  B  B34  1  0.50000000  0.50000000  0.50000000  1.0
  B  B35  1  0.00000000  0.00000000  0.00000000  1.0
