# generated using pymatgen
data_K2NaAs
_symmetry_space_group_name_H-M   'P 1'
_cell_length_a   5.36766160
_cell_length_b   5.36766160
_cell_length_c   10.70865140
_cell_angle_alpha   90.00000000
_cell_angle_beta   90.00000000
_cell_angle_gamma   120.00000000
_symmetry_Int_Tables_number   1
_chemical_formula_structural   K2NaAs
_chemical_formula_sum   'K4 Na2 As2'
_cell_volume   267.19951688
_cell_formula_units_Z   2
loop_
 _symmetry_equiv_pos_site_id
 _symmetry_equiv_pos_as_xyz
  1  'x, y, z'
loop_
 _atom_site_type_symbol
 _atom_site_label
 _atom_site_symmetry_multiplicity
 _atom_site_fract_x
 _atom_site_fract_y
 _atom_site_fract_z
 _atom_site_occupancy
  K  K0  1  0.33333333  0.66666667  0.91488045  1.0
  K  K1  1  0.33333333  0.66666667  0.58511955  1.0
  K  K2  1  0.66666667  0.33333333  0.41488045  1.0
  K  K3  1  0.66666667  0.33333333  0.08511955  1.0
  Na  Na4  1  0.00000000  0.00000000  0.25000000  1.0
  Na  Na5  1  0.00000000  0.00000000  0.75000000  1.0
  As  As6  1  0.33333333  0.66666667  0.25000000  1.0
  As  As7  1  0.66666667  0.33333333  0.75000000  1.0
