# generated using pymatgen
data_ZnHgC4(SN)4
_symmetry_space_group_name_H-M   'P 1'
_cell_length_a   8.35592005
_cell_length_b   8.35592005
_cell_length_c   8.35592005
_cell_angle_alpha   96.00290935
_cell_angle_beta   96.00290935
_cell_angle_gamma   142.26427443
_symmetry_Int_Tables_number   1
_chemical_formula_structural   ZnHgC4(SN)4
_chemical_formula_sum   'Zn1 Hg1 C4 S4 N4'
_cell_volume   337.87984223
_cell_formula_units_Z   1
loop_
 _symmetry_equiv_pos_site_id
 _symmetry_equiv_pos_as_xyz
  1  'x, y, z'
loop_
 _atom_site_type_symbol
 _atom_site_label
 _atom_site_symmetry_multiplicity
 _atom_site_fract_x
 _atom_site_fract_y
 _atom_site_fract_z
 _atom_site_occupancy
  Zn  Zn0  1  -0.00000000  -0.00000000  -0.00000000  1.0
  Hg  Hg1  1  0.75000000  0.25000000  0.50000000  1.0
  C  C2  1  0.60149070  0.44184031  0.72016930  1.0
  C  C3  1  1.11867860  0.39850930  0.84034961  1.0
  C  C4  1  0.72167101  0.88132140  1.27983070  1.0
  C  C5  1  0.55815969  1.27832899  1.15965039  1.0
  S  S6  1  1.57290218  1.81046170  1.42640338  1.0
  S  S7  1  0.85350121  1.42709782  1.23755953  1.0
  S  S8  1  1.38405832  1.14649879  0.57359662  1.0
  S  S9  1  1.18953830  0.61594168  0.76244047  1.0
  N  N10  1  0.75068105  0.65083390  0.82489858  1.0
  N  N11  1  1.07421753  0.24931895  0.90015286  1.0
  N  N12  1  0.82593533  0.92578247  1.17510142  1.0
  N  N13  1  0.34916610  1.17406467  1.09984714  1.0
