# generated using pymatgen
data_ZnSnP2
_symmetry_space_group_name_H-M   'P 1'
_cell_length_a   6.99937827
_cell_length_b   6.99937827
_cell_length_c   6.99937827
_cell_angle_alpha   131.90323647
_cell_angle_beta   131.90323647
_cell_angle_gamma   70.38189736
_symmetry_Int_Tables_number   1
_chemical_formula_structural   ZnSnP2
_chemical_formula_sum   'Zn2 Sn2 P4'
_cell_volume   186.14781602
_cell_formula_units_Z   2
loop_
 _symmetry_equiv_pos_site_id
 _symmetry_equiv_pos_as_xyz
  1  'x, y, z'
loop_
 _atom_site_type_symbol
 _atom_site_label
 _atom_site_symmetry_multiplicity
 _atom_site_fract_x
 _atom_site_fract_y
 _atom_site_fract_z
 _atom_site_occupancy
  Zn  Zn0  1  0.25000000  0.75000000  0.50000000  1.0
  Zn  Zn1  1  0.50000000  0.50000000  0.00000000  1.0
  Sn  Sn2  1  0.75000000  0.25000000  0.50000000  1.0
  Sn  Sn3  1  1.00000000  1.00000000  1.00000000  1.0
  P  P4  1  1.14713546  1.12500000  1.52213546  1.0
  P  P5  1  1.37500000  0.85286454  0.97786454  1.0
  P  P6  1  0.87500000  1.39713546  1.02213546  1.0
  P  P7  1  0.60286454  0.62500000  0.47786454  1.0
