# generated using pymatgen
data_Zr5Re24
_symmetry_space_group_name_H-M   'P 1'
_cell_length_a   8.46978354
_cell_length_b   8.46978354
_cell_length_c   8.46978354
_cell_angle_alpha   109.47122063
_cell_angle_beta   109.47122063
_cell_angle_gamma   109.47122063
_symmetry_Int_Tables_number   1
_chemical_formula_structural   Zr5Re24
_chemical_formula_sum   'Zr5 Re24'
_cell_volume   467.72980206
_cell_formula_units_Z   1
loop_
 _symmetry_equiv_pos_site_id
 _symmetry_equiv_pos_as_xyz
  1  'x, y, z'
loop_
 _atom_site_type_symbol
 _atom_site_label
 _atom_site_symmetry_multiplicity
 _atom_site_fract_x
 _atom_site_fract_y
 _atom_site_fract_z
 _atom_site_occupancy
  Zr  Zr0  1  0.37133796  0.37133796  0.37133796  1.0
  Zr  Zr1  1  1.00000000  1.00000000  0.62866204  1.0
  Zr  Zr2  1  1.00000000  0.62866204  1.00000000  1.0
  Zr  Zr3  1  0.62866204  1.00000000  1.00000000  1.0
  Zr  Zr4  1  0.00000000  0.00000000  0.00000000  1.0
  Re  Re5  1  0.81723792  0.62311633  0.62311633  1.0
  Re  Re6  1  0.62311633  0.81723792  0.62311633  1.0
  Re  Re7  1  1.00000000  1.19412158  0.37688367  1.0
  Re  Re8  1  1.19412158  1.00000000  0.37688367  1.0
  Re  Re9  1  0.62311633  0.62311633  0.81723792  1.0
  Re  Re10  1  0.80587842  0.80587842  0.18276208  1.0
  Re  Re11  1  1.00000000  0.37688367  1.19412158  1.0
  Re  Re12  1  0.80587842  0.18276208  0.80587842  1.0
  Re  Re13  1  0.18276208  0.80587842  0.80587842  1.0
  Re  Re14  1  0.37688367  1.00000000  1.19412158  1.0
  Re  Re15  1  1.19412158  0.37688367  1.00000000  1.0
  Re  Re16  1  0.37688367  1.19412158  1.00000000  1.0
  Re  Re17  1  0.28038738  0.60345597  0.60345597  1.0
  Re  Re18  1  0.60345597  0.28038738  0.60345597  1.0
  Re  Re19  1  1.00000000  0.67693141  1.39654403  1.0
  Re  Re20  1  0.67693141  1.00000000  1.39654403  1.0
  Re  Re21  1  0.60345597  0.60345597  0.28038738  1.0
  Re  Re22  1  1.32306859  1.32306859  0.71961262  1.0
  Re  Re23  1  1.00000000  1.39654403  0.67693141  1.0
  Re  Re24  1  1.32306859  0.71961262  1.32306859  1.0
  Re  Re25  1  0.71961262  1.32306859  1.32306859  1.0
  Re  Re26  1  1.39654403  1.00000000  0.67693141  1.0
  Re  Re27  1  0.67693141  1.39654403  1.00000000  1.0
  Re  Re28  1  1.39654403  0.67693141  1.00000000  1.0
