# generated using pymatgen
data_CdCuF4
_symmetry_space_group_name_H-M   'P 1'
_cell_length_a   6.48566551
_cell_length_b   6.48566551
_cell_length_c   6.48566551
_cell_angle_alpha   130.27228289
_cell_angle_beta   130.27228289
_cell_angle_gamma   72.97184958
_symmetry_Int_Tables_number   1
_chemical_formula_structural   CdCuF4
_chemical_formula_sum   'Cd2 Cu2 F8'
_cell_volume   155.10937294
_cell_formula_units_Z   2
loop_
 _symmetry_equiv_pos_site_id
 _symmetry_equiv_pos_as_xyz
  1  'x, y, z'
loop_
 _atom_site_type_symbol
 _atom_site_label
 _atom_site_symmetry_multiplicity
 _atom_site_fract_x
 _atom_site_fract_y
 _atom_site_fract_z
 _atom_site_occupancy
  Cd  Cd0  1  0.75000000  0.75000000  1.00000000  1.0
  Cd  Cd1  1  0.25000000  0.25000000  -0.00000000  1.0
  Cu  Cu2  1  0.50000000  -0.00000000  0.50000000  1.0
  Cu  Cu3  1  0.00000000  0.50000000  0.50000000  1.0
  F  F4  1  1.19220965  0.69220965  1.14084537  1.0
  F  F5  1  0.44863572  0.94863572  1.14084537  1.0
  F  F6  1  1.05136428  1.19220965  1.50000000  1.0
  F  F7  1  0.30779035  0.44863572  0.50000000  1.0
  F  F8  1  0.69220965  0.55136428  0.50000000  1.0
  F  F9  1  0.94863572  0.80779035  1.50000000  1.0
  F  F10  1  0.55136428  1.05136428  0.85915463  1.0
  F  F11  1  0.80779035  0.30779035  0.85915463  1.0
