# generated using pymatgen
data_EuP7
_symmetry_space_group_name_H-M   'P 1'
_cell_length_a   10.61662068
_cell_length_b   5.70177936
_cell_length_c   13.20395830
_cell_angle_alpha   90.00000000
_cell_angle_beta   124.11496761
_cell_angle_gamma   90.00000000
_symmetry_Int_Tables_number   1
_chemical_formula_structural   EuP7
_chemical_formula_sum   'Eu4 P28'
_cell_volume   661.73788538
_cell_formula_units_Z   4
loop_
 _symmetry_equiv_pos_site_id
 _symmetry_equiv_pos_as_xyz
  1  'x, y, z'
loop_
 _atom_site_type_symbol
 _atom_site_label
 _atom_site_symmetry_multiplicity
 _atom_site_fract_x
 _atom_site_fract_y
 _atom_site_fract_z
 _atom_site_occupancy
  Eu  Eu0  1  0.75254684  0.39218423  0.21689290  1.0
  Eu  Eu1  1  0.75254684  0.10781577  0.71689290  1.0
  Eu  Eu2  1  0.24745316  0.89218423  0.28310710  1.0
  Eu  Eu3  1  0.24745316  0.60781577  0.78310710  1.0
  P  P4  1  0.36258232  0.40320759  0.27893169  1.0
  P  P5  1  0.36258232  0.09679241  0.77893169  1.0
  P  P6  1  0.63741768  0.90320759  0.22106831  1.0
  P  P7  1  0.63741768  0.59679241  0.72106831  1.0
  P  P8  1  0.58269224  0.27771362  0.43756226  1.0
  P  P9  1  0.58269224  0.22228638  0.93756226  1.0
  P  P10  1  0.41730776  0.77771362  0.06243774  1.0
  P  P11  1  0.41730776  0.72228638  0.56243774  1.0
  P  P12  1  0.78891203  0.44509893  0.45960066  1.0
  P  P13  1  0.78891203  0.05490107  0.95960066  1.0
  P  P14  1  0.21108797  0.94509893  0.04039934  1.0
  P  P15  1  0.21108797  0.55490107  0.54039934  1.0
  P  P16  1  0.96325435  0.20519700  0.14160194  1.0
  P  P17  1  0.96325435  0.29480300  0.64160194  1.0
  P  P18  1  0.03674565  0.70519700  0.35839806  1.0
  P  P19  1  0.03674565  0.79480300  0.85839806  1.0
  P  P20  1  0.99444828  0.04407053  0.41435514  1.0
  P  P21  1  0.99444828  0.45592947  0.91435514  1.0
  P  P22  1  0.00555172  0.54407053  0.08564486  1.0
  P  P23  1  0.00555172  0.95592947  0.58564486  1.0
  P  P24  1  0.21732268  0.20550105  0.46817817  1.0
  P  P25  1  0.21732268  0.29449895  0.96817817  1.0
  P  P26  1  0.78267732  0.70550105  0.03182183  1.0
  P  P27  1  0.78267732  0.79449895  0.53182183  1.0
  P  P28  1  0.41766089  0.43098734  0.14005075  1.0
  P  P29  1  0.41766089  0.06901266  0.64005075  1.0
  P  P30  1  0.58233911  0.93098734  0.35994925  1.0
  P  P31  1  0.58233911  0.56901266  0.85994925  1.0
