# generated using pymatgen
data_As2SO6
_symmetry_space_group_name_H-M   'P 1'
_cell_length_a   4.89105730
_cell_length_b   11.53039091
_cell_length_c   5.18429461
_cell_angle_alpha   90.00000000
_cell_angle_beta   90.00000000
_cell_angle_gamma   90.00000000
_symmetry_Int_Tables_number   1
_chemical_formula_structural   As2SO6
_chemical_formula_sum   'As4 S2 O12'
_cell_volume   292.37245559
_cell_formula_units_Z   2
loop_
 _symmetry_equiv_pos_site_id
 _symmetry_equiv_pos_as_xyz
  1  'x, y, z'
loop_
 _atom_site_type_symbol
 _atom_site_label
 _atom_site_symmetry_multiplicity
 _atom_site_fract_x
 _atom_site_fract_y
 _atom_site_fract_z
 _atom_site_occupancy
  As  As0  1  0.26881674  0.80675516  0.66817345  1.0
  As  As1  1  0.76881674  0.69324484  0.33182655  1.0
  As  As2  1  0.73118326  0.19324484  0.66817345  1.0
  As  As3  1  0.23118326  0.30675516  0.33182655  1.0
  S  S4  1  0.50000000  0.50000000  0.68735195  1.0
  S  S5  1  0.00000000  0.00000000  0.31264805  1.0
  O  O6  1  0.42052091  0.74300407  0.37503392  1.0
  O  O7  1  0.92052091  0.75699593  0.62496608  1.0
  O  O8  1  0.57947909  0.25699593  0.37503392  1.0
  O  O9  1  0.07947909  0.24300407  0.62496608  1.0
  O  O10  1  0.39247156  0.59651112  0.83974009  1.0
  O  O11  1  0.89247156  0.90348888  0.16025991  1.0
  O  O12  1  0.60752844  0.40348888  0.83974009  1.0
  O  O13  1  0.10752844  0.09651112  0.16025991  1.0
  O  O14  1  0.22923211  0.95847748  0.49643648  1.0
  O  O15  1  0.72923211  0.54152252  0.50356352  1.0
  O  O16  1  0.77076789  0.04152252  0.49643648  1.0
  O  O17  1  0.27076789  0.45847748  0.50356352  1.0
