# generated using pymatgen
data_ReTeSeCl4
_symmetry_space_group_name_H-M   'P 1'
_cell_length_a   10.78262023
_cell_length_b   10.78262023
_cell_length_c   10.78262023
_cell_angle_alpha   113.92799352
_cell_angle_beta   113.92799352
_cell_angle_gamma   100.88413603
_symmetry_Int_Tables_number   1
_chemical_formula_structural   ReTeSeCl4
_chemical_formula_sum   'Re4 Te4 Se4 Cl16'
_cell_volume   949.14594496
_cell_formula_units_Z   4
loop_
 _symmetry_equiv_pos_site_id
 _symmetry_equiv_pos_as_xyz
  1  'x, y, z'
loop_
 _atom_site_type_symbol
 _atom_site_label
 _atom_site_symmetry_multiplicity
 _atom_site_fract_x
 _atom_site_fract_y
 _atom_site_fract_z
 _atom_site_occupancy
  Re  Re0  1  0.45803127  0.59793238  0.91069801  1.0
  Re  Re1  1  1.45266674  1.54196873  1.13990111  1.0
  Re  Re2  1  0.68723437  1.54733326  1.08930199  1.0
  Re  Re3  1  1.40206762  1.31276563  1.86009889  1.0
  Te  Te4  1  0.34396911  0.80438562  0.89448476  1.0
  Te  Te5  1  1.55051565  1.65603089  1.46041651  1.0
  Te  Te6  1  0.90990085  1.44948435  1.10551524  1.0
  Te  Te7  1  1.19561438  1.09009915  1.53958349  1.0
  Se  Se8  1  0.56622871  1.36283033  1.12917998  1.0
  Se  Se9  1  1.56295127  1.43377129  1.79660162  1.0
  Se  Se10  1  1.23365035  1.43704873  0.87082002  1.0
  Se  Se11  1  0.63716967  0.76634965  1.20339838  1.0
  Cl  Cl12  1  0.60717322  0.79646195  0.90294007  1.0
  Cl  Cl13  1  1.29576685  1.39282678  1.18928874  1.0
  Cl  Cl14  1  0.89352188  1.70423315  1.09705993  1.0
  Cl  Cl15  1  1.20353805  1.10647812  1.81071126  1.0
  Cl  Cl16  1  0.47072009  1.10509929  0.75055717  1.0
  Cl  Cl17  1  0.27983708  0.52927991  0.63437920  1.0
  Cl  Cl18  1  1.35454212  1.72016292  1.24944283  1.0
  Cl  Cl19  1  0.89490071  0.64545788  0.36562080  1.0
  Cl  Cl20  1  0.85802841  1.23623326  1.12985283  1.0
  Cl  Cl21  1  1.27182441  1.14197159  1.37820485  1.0
  Cl  Cl22  1  1.10638043  1.72817559  0.87014717  1.0
  Cl  Cl23  1  0.76376674  0.89361957  1.62179515  1.0
  Cl  Cl24  1  0.47669555  1.02464806  1.16240608  1.0
  Cl  Cl25  1  0.68571053  0.52330445  0.54795250  1.0
  Cl  Cl26  1  0.86224197  0.31428947  0.83759392  1.0
  Cl  Cl27  1  0.97535194  1.13775803  1.45204750  1.0
