# generated using pymatgen
data_NiP
_symmetry_space_group_name_H-M   'P 1'
_cell_length_a   4.88548312
_cell_length_b   6.93363229
_cell_length_c   6.04240377
_cell_angle_alpha   90.00000000
_cell_angle_beta   90.00000000
_cell_angle_gamma   90.00000000
_symmetry_Int_Tables_number   1
_chemical_formula_structural   NiP
_chemical_formula_sum   'Ni8 P8'
_cell_volume   204.68125254
_cell_formula_units_Z   8
loop_
 _symmetry_equiv_pos_site_id
 _symmetry_equiv_pos_as_xyz
  1  'x, y, z'
loop_
 _atom_site_type_symbol
 _atom_site_label
 _atom_site_symmetry_multiplicity
 _atom_site_fract_x
 _atom_site_fract_y
 _atom_site_fract_z
 _atom_site_occupancy
  Ni  Ni0  1  0.48451254  0.39974664  0.19280392  1.0
  Ni  Ni1  1  0.48451254  0.10025336  0.69280392  1.0
  Ni  Ni2  1  0.98451254  0.39974664  0.30719608  1.0
  Ni  Ni3  1  0.98451254  0.10025336  0.80719608  1.0
  Ni  Ni4  1  0.51548746  0.89974664  0.30719608  1.0
  Ni  Ni5  1  0.51548746  0.60025336  0.80719608  1.0
  Ni  Ni6  1  0.01548746  0.89974664  0.19280392  1.0
  Ni  Ni7  1  0.01548746  0.60025336  0.69280392  1.0
  P  P8  1  0.32646706  0.11446052  0.05649977  1.0
  P  P9  1  0.32646706  0.38553948  0.55649977  1.0
  P  P10  1  0.82646706  0.11446052  0.44350023  1.0
  P  P11  1  0.82646706  0.38553948  0.94350023  1.0
  P  P12  1  0.67353294  0.61446052  0.44350023  1.0
  P  P13  1  0.67353294  0.88553948  0.94350023  1.0
  P  P14  1  0.17353294  0.61446052  0.05649977  1.0
  P  P15  1  0.17353294  0.88553948  0.55649977  1.0
