# generated using pymatgen
data_V4GeS8
_symmetry_space_group_name_H-M   'P 1'
_cell_length_a   6.85187864
_cell_length_b   6.85187864
_cell_length_c   6.85187864
_cell_angle_alpha   60.00000000
_cell_angle_beta   60.00000000
_cell_angle_gamma   60.00000000
_symmetry_Int_Tables_number   1
_chemical_formula_structural   V4GeS8
_chemical_formula_sum   'V4 Ge1 S8'
_cell_volume   227.46468980
_cell_formula_units_Z   1
loop_
 _symmetry_equiv_pos_site_id
 _symmetry_equiv_pos_as_xyz
  1  'x, y, z'
loop_
 _atom_site_type_symbol
 _atom_site_label
 _atom_site_symmetry_multiplicity
 _atom_site_fract_x
 _atom_site_fract_y
 _atom_site_fract_z
 _atom_site_occupancy
  V  V0  1  -0.39709705  0.60290295  0.60290295  1.0
  V  V1  1  1.19129114  0.60290295  -0.39709705  1.0
  V  V2  1  -0.39709705  0.60290295  1.19129114  1.0
  V  V3  1  0.60290295  1.19129114  -0.39709705  1.0
  Ge  Ge4  1  0.00000000  0.00000000  0.00000000  1.0
  S  S5  1  0.86319638  0.86319638  -0.13680362  1.0
  S  S6  1  0.41041087  0.86319638  -0.13680362  1.0
  S  S7  1  0.86319638  0.86319638  -0.58958913  1.0
  S  S8  1  0.86319638  0.41041087  -0.13680362  1.0
  S  S9  1  0.37084378  1.37084378  0.37084378  1.0
  S  S10  1  -0.11253134  0.37084378  0.37084378  1.0
  S  S11  1  0.37084378  1.37084378  -0.11253134  1.0
  S  S12  1  0.37084378  -0.11253134  0.37084378  1.0
