# generated using pymatgen
data_In5Se5Cl
_symmetry_space_group_name_H-M   'P 1'
_cell_length_a   9.39164063
_cell_length_b   4.17884751
_cell_length_c   15.76560087
_cell_angle_alpha   90.00000000
_cell_angle_beta   93.26850353
_cell_angle_gamma   90.00000000
_symmetry_Int_Tables_number   1
_chemical_formula_structural   In5Se5Cl
_chemical_formula_sum   'In10 Se10 Cl2'
_cell_volume   617.73396361
_cell_formula_units_Z   2
loop_
 _symmetry_equiv_pos_site_id
 _symmetry_equiv_pos_as_xyz
  1  'x, y, z'
loop_
 _atom_site_type_symbol
 _atom_site_label
 _atom_site_symmetry_multiplicity
 _atom_site_fract_x
 _atom_site_fract_y
 _atom_site_fract_z
 _atom_site_occupancy
  In  In0  1  0.94428293  0.25000000  0.84329837  1.0
  In  In1  1  0.05571707  0.75000000  0.15670163  1.0
  In  In2  1  0.87461737  0.25000000  0.43345112  1.0
  In  In3  1  0.12538263  0.75000000  0.56654888  1.0
  In  In4  1  0.60380483  0.25000000  0.63545332  1.0
  In  In5  1  0.39619517  0.75000000  0.36454668  1.0
  In  In6  1  0.33935306  0.25000000  0.05576788  1.0
  In  In7  1  0.66064694  0.75000000  0.94423212  1.0
  In  In8  1  0.22916753  0.25000000  0.79324412  1.0
  In  In9  1  0.77083247  0.75000000  0.20675588  1.0
  Se  Se10  1  0.95258555  0.25000000  0.60076952  1.0
  Se  Se11  1  0.04741445  0.75000000  0.39923048  1.0
  Se  Se12  1  0.83743616  0.25000000  -0.00312861  1.0
  Se  Se13  1  0.16256384  0.75000000  1.00312861  1.0
  Se  Se14  1  0.68361611  0.25000000  0.30276270  1.0
  Se  Se15  1  0.31638389  0.75000000  0.69723730  1.0
  Se  Se16  1  0.46326812  0.25000000  0.89916224  1.0
  Se  Se17  1  0.53673188  0.75000000  0.10083776  1.0
  Se  Se18  1  0.21904350  0.25000000  0.21368008  1.0
  Se  Se19  1  0.78095650  0.75000000  0.78631992  1.0
  Cl  Cl20  1  0.32896809  0.25000000  0.50475587  1.0
  Cl  Cl21  1  0.67103191  0.75000000  0.49524413  1.0
