# generated using pymatgen
data_Cd3(BO2)7
_symmetry_space_group_name_H-M   'P 1'
_cell_length_a   8.87132963
_cell_length_b   8.87132963
_cell_length_c   8.87132963
_cell_angle_alpha   60.32319765
_cell_angle_beta   60.32319765
_cell_angle_gamma   60.32319765
_symmetry_Int_Tables_number   1
_chemical_formula_structural   Cd3(BO2)7
_chemical_formula_sum   'Cd6 B14 O28'
_cell_volume   497.29652590
_cell_formula_units_Z   2
loop_
 _symmetry_equiv_pos_site_id
 _symmetry_equiv_pos_as_xyz
  1  'x, y, z'
loop_
 _atom_site_type_symbol
 _atom_site_label
 _atom_site_symmetry_multiplicity
 _atom_site_fract_x
 _atom_site_fract_y
 _atom_site_fract_z
 _atom_site_occupancy
  Cd  Cd0  1  1.02917436  1.03538485  0.44026529  1.0
  Cd  Cd1  1  0.52917436  0.94026529  -0.46461515  1.0
  Cd  Cd2  1  0.53538485  0.52917436  -0.05973471  1.0
  Cd  Cd3  1  1.03538485  1.44026529  0.02917436  1.0
  Cd  Cd4  1  0.94026529  0.53538485  -0.47082564  1.0
  Cd  Cd5  1  1.44026529  1.02917436  0.03538485  1.0
  O  O6  1  0.28290481  0.74751463  -0.94454399  1.0
  O  O7  1  0.78290481  0.55545601  -0.75248537  1.0
  O  O8  1  0.24751463  0.78290481  -0.44454399  1.0
  O  O9  1  0.74751463  0.05545601  -0.71709519  1.0
  O  O10  1  0.55545601  0.24751463  -0.21709519  1.0
  O  O11  1  0.05545601  0.28290481  -0.25248537  1.0
  O  O12  1  0.37799989  0.76340593  -0.74482049  1.0
  O  O13  1  0.87799989  -0.24482049  0.26340593  1.0
  O  O14  1  1.26340593  -0.12200011  -0.24482049  1.0
  O  O15  1  0.76340593  0.25517951  -0.62200011  1.0
  O  O16  1  0.75517951  0.26340593  -0.12200011  1.0
  O  O17  1  0.25517951  0.37799989  -0.23659407  1.0
  O  O18  1  0.36979130  0.23166685  -0.46029863  1.0
  O  O19  1  0.86979130  0.03970137  -0.26833315  1.0
  O  O20  1  0.73166685  -0.13020870  0.03970137  1.0
  O  O21  1  0.23166685  0.53970137  -0.63020870  1.0
  O  O22  1  1.03970137  -0.26833315  -0.13020870  1.0
  O  O23  1  0.53970137  0.36979130  -0.76833315  1.0
  O  O24  1  1.05141549  -0.13890547  -0.69694265  1.0
  O  O25  1  0.55141549  0.80305735  -0.63890547  1.0
  O  O26  1  0.36109453  0.55141549  -0.19694265  1.0
  O  O27  1  0.86109453  -0.69694265  0.05141549  1.0
  O  O28  1  0.80305735  0.36109453  -0.44858451  1.0
  O  O29  1  0.30305735  0.05141549  -0.13890547  1.0
  O  O30  1  0.00401965  0.00401965  0.00401965  1.0
  O  O31  1  0.50401965  0.50401965  -0.49598035  1.0
  O  O32  1  1.20105128  1.20105128  0.20105128  1.0
  O  O33  1  0.70105128  0.70105128  -0.29894872  1.0
  B  B34  1  0.23710829  0.73127889  -0.75596106  1.0
  B  B35  1  0.73710829  -0.25596106  0.23127889  1.0
  B  B36  1  1.23127889  -0.26289171  -0.25596106  1.0
  B  B37  1  0.73127889  0.24403894  -0.76289171  1.0
  B  B38  1  0.74403894  0.23127889  -0.26289171  1.0
  B  B39  1  0.24403894  0.23710829  -0.26872111  1.0
  B  B40  1  0.91688181  -0.08130901  0.21656325  1.0
  B  B41  1  0.41688181  0.71656325  -0.58130901  1.0
  B  B42  1  0.41869099  0.41688181  -0.28343675  1.0
  B  B43  1  0.91869099  0.21656325  -0.08311819  1.0
  B  B44  1  0.71656325  0.41869099  -0.58311819  1.0
  B  B45  1  1.21656325  -0.08311819  -0.08130901  1.0
  B  B46  1  0.38275473  0.38275473  -0.61724527  1.0
  B  B47  1  0.88275473  0.88275473  -0.11724527  1.0
