# generated using pymatgen
data_CeGe2Rh
_symmetry_space_group_name_H-M   'P 1'
_cell_length_a   8.87509582
_cell_length_b   8.87509582
_cell_length_c   4.34593408
_cell_angle_alpha   90.00000000
_cell_angle_beta   90.00000000
_cell_angle_gamma   152.09629079
_symmetry_Int_Tables_number   1
_chemical_formula_structural   CeGe2Rh
_chemical_formula_sum   'Ce2 Ge4 Rh2'
_cell_volume   160.20019810
_cell_formula_units_Z   2
loop_
 _symmetry_equiv_pos_site_id
 _symmetry_equiv_pos_as_xyz
  1  'x, y, z'
loop_
 _atom_site_type_symbol
 _atom_site_label
 _atom_site_symmetry_multiplicity
 _atom_site_fract_x
 _atom_site_fract_y
 _atom_site_fract_z
 _atom_site_occupancy
  Ce  Ce0  1  0.39112146  0.60887854  0.75000000  1.0
  Ce  Ce1  1  -0.39112146  0.39112146  0.25000000  1.0
  Ge  Ge2  1  0.03828709  0.96171291  0.75000000  1.0
  Ge  Ge3  1  -0.03828709  0.03828709  0.25000000  1.0
  Ge  Ge4  1  -0.24922998  0.24922998  0.75000000  1.0
  Ge  Ge5  1  0.24922998  0.75077002  0.25000000  1.0
  Rh  Rh6  1  0.17816677  0.82183323  0.75000000  1.0
  Rh  Rh7  1  -0.17816677  0.17816677  0.25000000  1.0
