# generated using pymatgen
data_ZnS
_symmetry_space_group_name_H-M   'P 1'
_cell_length_a   3.84923341
_cell_length_b   3.84923341
_cell_length_c   75.53589503
_cell_angle_alpha   90.00000000
_cell_angle_beta   90.00000000
_cell_angle_gamma   120.00000000
_symmetry_Int_Tables_number   1
_chemical_formula_structural   ZnS
_chemical_formula_sum   'Zn24 S24'
_cell_volume   969.24262272
_cell_formula_units_Z   24
loop_
 _symmetry_equiv_pos_site_id
 _symmetry_equiv_pos_as_xyz
  1  'x, y, z'
loop_
 _atom_site_type_symbol
 _atom_site_label
 _atom_site_symmetry_multiplicity
 _atom_site_fract_x
 _atom_site_fract_y
 _atom_site_fract_z
 _atom_site_occupancy
  Zn  Zn0  1  0.00000000  0.00000000  0.09376330  1.0
  Zn  Zn1  1  0.00000000  0.00000000  0.26043565  1.0
  Zn  Zn2  1  0.00000000  0.00000000  0.38542983  1.0
  Zn  Zn3  1  0.00000000  0.00000000  0.51042970  1.0
  Zn  Zn4  1  0.00000000  0.00000000  0.63542999  1.0
  Zn  Zn5  1  -0.00000000  -0.00000000  0.76042490  1.0
  Zn  Zn6  1  0.00000000  0.00000000  0.92709679  1.0
  Zn  Zn7  1  0.66666667  0.33333333  0.01042411  1.0
  Zn  Zn8  1  0.66666667  0.33333333  0.17710277  1.0
  Zn  Zn9  1  0.66666667  0.33333333  0.30209149  1.0
  Zn  Zn10  1  0.66666667  0.33333333  0.46873896  1.0
  Zn  Zn11  1  0.66666667  0.33333333  0.55212447  1.0
  Zn  Zn12  1  0.66666667  0.33333333  0.71873863  1.0
  Zn  Zn13  1  0.66666667  0.33333333  0.80210129  1.0
  Zn  Zn14  1  0.66666667  0.33333333  0.88546308  1.0
  Zn  Zn15  1  0.33333333  0.66666667  0.05210152  1.0
  Zn  Zn16  1  0.33333333  0.66666667  0.13543487  1.0
  Zn  Zn17  1  0.33333333  0.66666667  0.21879765  1.0
  Zn  Zn18  1  0.33333333  0.66666667  0.34373397  1.0
  Zn  Zn19  1  0.33333333  0.66666667  0.42712433  1.0
  Zn  Zn20  1  0.33333333  0.66666667  0.59373971  1.0
  Zn  Zn21  1  0.33333333  0.66666667  0.67712362  1.0
  Zn  Zn22  1  0.33333333  0.66666667  0.84376800  1.0
  Zn  Zn23  1  0.33333333  0.66666667  0.96873398  1.0
  S  S24  1  0.00000000  0.00000000  0.12503169  1.0
  S  S25  1  0.00000000  0.00000000  0.29166979  1.0
  S  S26  1  -0.00000000  -0.00000000  0.41670814  1.0
  S  S27  1  0.00000000  0.00000000  0.54170782  1.0
  S  S28  1  0.00000000  0.00000000  0.66670806  1.0
  S  S29  1  -0.00000000  -0.00000000  0.79169729  1.0
  S  S30  1  0.00000000  0.00000000  0.95832381  1.0
  S  S31  1  0.66666667  0.33333333  0.04169630  1.0
  S  S32  1  0.66666667  0.33333333  0.20837815  1.0
  S  S33  1  0.66666667  0.33333333  0.33332129  1.0
  S  S34  1  0.66666667  0.33333333  0.49996070  1.0
  S  S35  1  0.66666667  0.33333333  0.58333711  1.0
  S  S36  1  0.66666667  0.33333333  0.74995885  1.0
  S  S37  1  0.66666667  0.33333333  0.83330751  1.0
  S  S38  1  0.66666667  0.33333333  0.91668241  1.0
  S  S39  1  0.33333333  0.66666667  -0.00004370  1.0
  S  S40  1  0.33333333  0.66666667  0.08330586  1.0
  S  S41  1  0.33333333  0.66666667  0.16664200  1.0
  S  S42  1  0.33333333  0.66666667  0.25001739  1.0
  S  S43  1  0.33333333  0.66666667  0.37495836  1.0
  S  S44  1  0.33333333  0.66666667  0.45833709  1.0
  S  S45  1  0.33333333  0.66666667  0.62496161  1.0
  S  S46  1  0.33333333  0.66666667  0.70833600  1.0
  S  S47  1  0.33333333  0.66666667  0.87504390  1.0
