# generated using pymatgen
data_ScNi2
_symmetry_space_group_name_H-M   'P 1'
_cell_length_a   9.77858400
_cell_length_b   9.77858400
_cell_length_c   9.77858400
_cell_angle_alpha   60.00000000
_cell_angle_beta   60.00000000
_cell_angle_gamma   60.00000000
_symmetry_Int_Tables_number   1
_chemical_formula_structural   ScNi2
_chemical_formula_sum   'Sc16 Ni32'
_cell_volume   661.16965655
_cell_formula_units_Z   16
loop_
 _symmetry_equiv_pos_site_id
 _symmetry_equiv_pos_as_xyz
  1  'x, y, z'
loop_
 _atom_site_type_symbol
 _atom_site_label
 _atom_site_symmetry_multiplicity
 _atom_site_fract_x
 _atom_site_fract_y
 _atom_site_fract_z
 _atom_site_occupancy
  Sc  Sc0  1  0.50005378  0.99994622  -0.00005378  1.0
  Sc  Sc1  1  0.99994622  0.99994622  -0.49994622  1.0
  Sc  Sc2  1  0.99994622  0.50005378  -0.00005378  1.0
  Sc  Sc3  1  0.50005378  0.50005378  -0.00005378  1.0
  Sc  Sc4  1  0.50005378  0.99994622  -0.49994622  1.0
  Sc  Sc5  1  0.99994622  0.50005378  -0.49994622  1.0
  Sc  Sc6  1  0.87500828  0.87500828  -0.12499172  1.0
  Sc  Sc7  1  0.37497516  0.87500828  -0.12499172  1.0
  Sc  Sc8  1  0.87500828  0.87500828  -0.62502484  1.0
  Sc  Sc9  1  0.87500828  0.37497516  -0.12499172  1.0
  Sc  Sc10  1  0.37495848  1.37495848  0.37495848  1.0
  Sc  Sc11  1  -0.12487544  0.37495848  0.37495848  1.0
  Sc  Sc12  1  0.37495848  1.37495848  -0.12487544  1.0
  Sc  Sc13  1  0.37495848  -0.12487544  0.37495848  1.0
  Sc  Sc14  1  -0.50000000  0.50000000  0.50000000  1.0
  Sc  Sc15  1  0.00000000  0.00000000  0.00000000  1.0
  Ni  Ni16  1  0.68749271  1.18752604  -0.31250729  1.0
  Ni  Ni17  1  -0.31250729  0.68749271  1.18752604  1.0
  Ni  Ni18  1  -0.56251145  0.68749271  1.18752604  1.0
  Ni  Ni19  1  0.43748855  1.18752604  -0.31250729  1.0
  Ni  Ni20  1  1.18752604  0.68749271  -0.31250729  1.0
  Ni  Ni21  1  -0.56251145  0.68749271  0.68749271  1.0
  Ni  Ni22  1  1.18752604  0.68749271  -0.56251145  1.0
  Ni  Ni23  1  -0.31250729  0.68749271  0.43748855  1.0
  Ni  Ni24  1  -0.31250729  0.43748855  0.68749271  1.0
  Ni  Ni25  1  1.18752604  0.43748855  -0.31250729  1.0
  Ni  Ni26  1  0.68749271  1.18752604  -0.56251145  1.0
  Ni  Ni27  1  -0.31250729  0.43748855  1.18752604  1.0
  Ni  Ni28  1  0.18750018  1.68749139  0.18750018  1.0
  Ni  Ni29  1  0.18750018  1.18750018  0.68749139  1.0
  Ni  Ni30  1  -0.06249175  0.18750018  0.68749139  1.0
  Ni  Ni31  1  -0.06249175  0.68749139  0.18750018  1.0
  Ni  Ni32  1  0.68749139  1.18750018  0.18750018  1.0
  Ni  Ni33  1  -0.06249175  0.18750018  0.18750018  1.0
  Ni  Ni34  1  0.68749139  1.18750018  -0.06249175  1.0
  Ni  Ni35  1  0.18750018  1.18750018  -0.06249175  1.0
  Ni  Ni36  1  0.18750018  -0.06249175  0.18750018  1.0
  Ni  Ni37  1  0.68749139  -0.06249175  0.18750018  1.0
  Ni  Ni38  1  0.18750018  1.68749139  -0.06249175  1.0
  Ni  Ni39  1  0.18750018  -0.06249175  0.68749139  1.0
  Ni  Ni40  1  0.68749446  0.68749446  -0.31250554  1.0
  Ni  Ni41  1  0.93751661  0.68749446  -0.31250554  1.0
  Ni  Ni42  1  0.68749446  0.68749446  -0.06248339  1.0
  Ni  Ni43  1  0.68749446  0.93751661  -0.31250554  1.0
  Ni  Ni44  1  0.18749342  0.18749342  0.18749342  1.0
  Ni  Ni45  1  0.43751975  0.18749342  0.18749342  1.0
  Ni  Ni46  1  0.18749342  0.18749342  0.43751975  1.0
  Ni  Ni47  1  0.18749342  0.43751975  0.18749342  1.0
