# generated using pymatgen
data_Cs4Sn2Au7
_symmetry_space_group_name_H-M   'P 1'
_cell_length_a   10.78541377
_cell_length_b   10.78541377
_cell_length_c   10.78541377
_cell_angle_alpha   37.97243039
_cell_angle_beta   37.97243039
_cell_angle_gamma   37.97243039
_symmetry_Int_Tables_number   1
_chemical_formula_structural   Cs4Sn2Au7
_chemical_formula_sum   'Cs4 Sn2 Au7'
_cell_volume   426.32596857
_cell_formula_units_Z   1
loop_
 _symmetry_equiv_pos_site_id
 _symmetry_equiv_pos_as_xyz
  1  'x, y, z'
loop_
 _atom_site_type_symbol
 _atom_site_label
 _atom_site_symmetry_multiplicity
 _atom_site_fract_x
 _atom_site_fract_y
 _atom_site_fract_z
 _atom_site_occupancy
  Cs  Cs0  1  0.81343342  0.81343342  0.81343342  1.0
  Cs  Cs1  1  1.18656658  1.18656658  0.18656658  1.0
  Cs  Cs2  1  0.68467127  0.68467127  0.68467127  1.0
  Cs  Cs3  1  1.31532873  1.31532873  0.31532873  1.0
  Sn  Sn4  1  1.55088624  0.55088624  0.55088624  1.0
  Sn  Sn5  1  1.44911376  0.44911376  0.44911376  1.0
  Au  Au6  1  1.21139866  1.21139866  -0.19380531  1.0
  Au  Au7  1  1.21139866  0.80619469  0.21139866  1.0
  Au  Au8  1  1.19380531  0.78860134  0.78860134  1.0
  Au  Au9  1  1.78860134  0.19380531  0.78860134  1.0
  Au  Au10  1  1.78860134  0.78860134  0.19380531  1.0
  Au  Au11  1  0.80619469  1.21139866  0.21139866  1.0
  Au  Au12  1  0.00000000  0.00000000  0.00000000  1.0
