# generated using pymatgen
data_BaGd2(MoO4)4
_symmetry_space_group_name_H-M   'P 1'
_cell_length_a   6.93345170
_cell_length_b   6.93345170
_cell_length_c   19.96538734
_cell_angle_alpha   89.45583731
_cell_angle_beta   90.54416269
_cell_angle_gamma   45.44731460
_symmetry_Int_Tables_number   1
_chemical_formula_structural   BaGd2(MoO4)4
_chemical_formula_sum   'Ba2 Gd4 Mo8 O32'
_cell_volume   683.74581936
_cell_formula_units_Z   2
loop_
 _symmetry_equiv_pos_site_id
 _symmetry_equiv_pos_as_xyz
  1  'x, y, z'
loop_
 _atom_site_type_symbol
 _atom_site_label
 _atom_site_symmetry_multiplicity
 _atom_site_fract_x
 _atom_site_fract_y
 _atom_site_fract_z
 _atom_site_occupancy
  Ba  Ba0  1  0.52873732  -0.47126268  0.75000000  1.0
  Ba  Ba1  1  0.47126268  0.47126268  0.25000000  1.0
  Gd  Gd2  1  0.64637242  -0.34943312  0.53211071  1.0
  Gd  Gd3  1  1.34943312  -0.64637242  0.03211071  1.0
  Gd  Gd4  1  0.65056688  -0.35362758  0.96788929  1.0
  Gd  Gd5  1  0.35362758  0.34943312  0.46788929  1.0
  Mo  Mo6  1  0.93142594  -0.04936995  0.91142031  1.0
  Mo  Mo7  1  1.04936995  -0.93142594  0.41142031  1.0
  Mo  Mo8  1  0.95063005  -0.06857407  0.58857969  1.0
  Mo  Mo9  1  0.06857406  0.04936995  0.08857969  1.0
  Mo  Mo10  1  0.23850443  0.23820727  0.85335082  1.0
  Mo  Mo11  1  0.76179273  -0.23850443  0.35335082  1.0
  Mo  Mo12  1  1.23820727  -0.76149557  0.64664918  1.0
  Mo  Mo13  1  0.76149557  -0.23820727  0.14664918  1.0
  O  O14  1  0.80672504  0.02344650  0.66646957  1.0
  O  O15  1  0.97655350  -0.80672504  0.16646957  1.0
  O  O16  1  1.02344650  -0.19327496  0.83353043  1.0
  O  O17  1  0.19327496  -0.02344650  0.33353043  1.0
  O  O18  1  0.67431074  -0.01240809  0.95538227  1.0
  O  O19  1  1.01240809  -0.67431074  0.45538227  1.0
  O  O20  1  0.98759191  -0.32568926  0.54461773  1.0
  O  O21  1  0.32568926  0.01240809  0.04461773  1.0
  O  O22  1  0.72691723  0.18415989  0.40062240  1.0
  O  O23  1  0.81584011  -0.72691723  0.90062240  1.0
  O  O24  1  1.18415989  -0.27308277  0.09937760  1.0
  O  O25  1  0.27308277  -0.18415989  0.59937760  1.0
  O  O26  1  0.41524347  -0.11158852  0.86824061  1.0
  O  O27  1  1.11158852  -0.41524347  0.36824061  1.0
  O  O28  1  0.88841148  -0.58475653  0.63175939  1.0
  O  O29  1  0.58475653  0.11158852  0.13175939  1.0
  O  O30  1  0.72450002  0.23974105  0.53624417  1.0
  O  O31  1  0.76025895  -0.72450002  0.03624417  1.0
  O  O32  1  1.23974105  -0.27549998  0.96375583  1.0
  O  O33  1  0.27549998  -0.23974105  0.46375583  1.0
  O  O34  1  0.38834565  -0.01553926  0.70743503  1.0
  O  O35  1  1.01553926  -0.38834565  0.20743503  1.0
  O  O36  1  0.98446074  -0.61165435  0.79256497  1.0
  O  O37  1  0.61165435  0.01553926  0.29256497  1.0
  O  O38  1  0.42507647  0.09185694  0.56703652  1.0
  O  O39  1  0.90814306  -0.42507647  0.06703652  1.0
  O  O40  1  1.09185694  -0.57492353  0.93296348  1.0
  O  O41  1  0.57492353  -0.09185694  0.43296348  1.0
  O  O42  1  0.46922062  0.24811136  0.82526975  1.0
  O  O43  1  0.75188864  -0.46922062  0.32526975  1.0
  O  O44  1  1.24811136  -0.53077938  0.67473025  1.0
  O  O45  1  0.53077938  -0.24811136  0.17473025  1.0
