# generated using pymatgen
data_NaYb(BH4)4
_symmetry_space_group_name_H-M   'P 1'
_cell_length_a   7.48937033
_cell_length_b   7.48937033
_cell_length_c   9.29096144
_cell_angle_alpha   90.00000000
_cell_angle_beta   90.00000000
_cell_angle_gamma   111.10776399
_symmetry_Int_Tables_number   1
_chemical_formula_structural   NaYb(BH4)4
_chemical_formula_sum   'Na2 Yb2 B8 H32'
_cell_volume   486.17046335
_cell_formula_units_Z   2
loop_
 _symmetry_equiv_pos_site_id
 _symmetry_equiv_pos_as_xyz
  1  'x, y, z'
loop_
 _atom_site_type_symbol
 _atom_site_label
 _atom_site_symmetry_multiplicity
 _atom_site_fract_x
 _atom_site_fract_y
 _atom_site_fract_z
 _atom_site_occupancy
  B  B0  1  0.22065122  0.30304807  0.25000000  1.0
  B  B1  1  -0.69695193  1.22065122  0.75000000  1.0
  B  B2  1  0.69695193  0.77934878  0.25000000  1.0
  B  B3  1  -0.22065122  1.69695193  0.75000000  1.0
  B  B4  1  0.23027543  0.76972457  0.46174154  1.0
  B  B5  1  0.23027543  0.76972457  0.03825846  1.0
  B  B6  1  -0.23027543  1.23027543  0.96174154  1.0
  B  B7  1  -0.23027543  1.23027543  0.53825846  1.0
  H  H8  1  0.09617942  0.66735591  0.38596373  1.0
  H  H9  1  0.09617942  0.66735591  0.11403627  1.0
  H  H10  1  -0.33264409  1.09617942  0.88596373  1.0
  H  H11  1  -0.33264409  1.09617942  0.61403627  1.0
  H  H12  1  0.33264409  0.90382058  0.38596373  1.0
  H  H13  1  0.33264409  0.90382058  0.11403627  1.0
  H  H14  1  -0.09617942  1.33264409  0.88596373  1.0
  H  H15  1  -0.09617942  1.33264409  0.61403627  1.0
  H  H16  1  0.32149920  0.36517132  0.35754609  1.0
  H  H17  1  0.32149920  0.36517132  0.14245391  1.0
  H  H18  1  -0.63482868  1.32149920  0.85754609  1.0
  H  H19  1  -0.63482868  1.32149920  0.64245391  1.0
  H  H20  1  0.63482868  0.67850080  0.35754609  1.0
  H  H21  1  0.63482868  0.67850080  0.14245391  1.0
  H  H22  1  -0.32149920  1.63482868  0.85754609  1.0
  H  H23  1  -0.32149920  1.63482868  0.64245391  1.0
  H  H24  1  0.86990491  0.84732909  0.25000000  1.0
  H  H25  1  -0.15267091  1.86990491  0.75000000  1.0
  H  H26  1  0.15267091  0.13009509  0.25000000  1.0
  H  H27  1  -0.86990491  1.15267091  0.75000000  1.0
  H  H28  1  0.17627849  0.82372151  0.93025982  1.0
  H  H29  1  0.17627849  0.82372151  0.56974018  1.0
  H  H30  1  -0.17627849  1.17627849  0.43025982  1.0
  H  H31  1  -0.17627849  1.17627849  0.06974018  1.0
  H  H32  1  0.32752510  0.67247490  0.49433277  1.0
  H  H33  1  0.32752510  0.67247490  1.00566723  1.0
  H  H34  1  -0.32752510  1.32752510  -0.00566723  1.0
  H  H35  1  -0.32752510  1.32752510  0.50566723  1.0
  H  H36  1  0.09416074  0.37378610  0.25000000  1.0
  H  H37  1  -0.62621390  1.09416074  0.75000000  1.0
  H  H38  1  0.62621390  0.90583926  0.25000000  1.0
  H  H39  1  -0.09416074  1.62621390  0.75000000  1.0
  Yb  Yb40  1  0.34626917  0.65373083  0.25000000  1.0
  Yb  Yb41  1  -0.34626917  1.34626917  0.75000000  1.0
  Na  Na42  1  0.00000000  0.00000000  0.50000000  1.0
  Na  Na43  1  0.00000000  0.00000000  0.00000000  1.0
