# generated using pymatgen
data_CsZn3(PO4)3
_symmetry_space_group_name_H-M   'P 1'
_cell_length_a   5.27970578
_cell_length_b   14.94440598
_cell_length_c   8.11201046
_cell_angle_alpha   98.79377716
_cell_angle_beta   106.17955184
_cell_angle_gamma   88.68665513
_symmetry_Int_Tables_number   1
_chemical_formula_structural   CsZn3(PO4)3
_chemical_formula_sum   'Cs2 Zn6 P6 O24'
_cell_volume   607.34743216
_cell_formula_units_Z   2
loop_
 _symmetry_equiv_pos_site_id
 _symmetry_equiv_pos_as_xyz
  1  'x, y, z'
loop_
 _atom_site_type_symbol
 _atom_site_label
 _atom_site_symmetry_multiplicity
 _atom_site_fract_x
 _atom_site_fract_y
 _atom_site_fract_z
 _atom_site_occupancy
  Cs  Cs0  1  -0.22480053  -0.75404634  -0.92813125  1.0
  Cs  Cs1  1  -0.77519947  -0.24595366  -0.07186875  1.0
  O  O2  1  -0.83333593  -0.59209700  -0.96390726  1.0
  O  O3  1  -0.16666407  -0.40790300  -0.03609274  1.0
  O  O4  1  -0.78286048  -0.81516440  -0.23533396  1.0
  O  O5  1  -0.21713952  -0.18483560  -0.76466604  1.0
  O  O6  1  -0.76076089  -0.66284911  -0.33035264  1.0
  O  O7  1  -0.23923911  -0.33715089  -0.66964736  1.0
  O  O8  1  -0.74386695  -0.46710817  -0.70572530  1.0
  O  O9  1  -0.25613305  -0.53289183  -0.29427470  1.0
  O  O10  1  -0.63046630  -0.63427189  -0.67286484  1.0
  O  O11  1  -0.36953370  -0.36572811  -0.32713516  1.0
  O  O12  1  -0.35247114  -0.54315868  -0.79760477  1.0
  O  O13  1  -0.64752886  -0.45684132  -0.20239523  1.0
  O  O14  1  -0.34162813  -0.96402609  -0.77998011  1.0
  O  O15  1  -0.65837187  -0.03597391  -0.22001989  1.0
  O  O16  1  -0.60514512  -0.89382831  -0.58408833  1.0
  O  O17  1  -0.39485488  -0.10617169  -0.41591167  1.0
  O  O18  1  -0.94894884  -0.79868380  -0.56257390  1.0
  O  O19  1  -0.05105116  -0.20131620  -0.43742610  1.0
  O  O20  1  -0.77163996  -0.03843366  -0.77867398  1.0
  O  O21  1  -0.22836004  -0.96156634  -0.22132602  1.0
  O  O22  1  -0.79371405  -0.26638222  -0.64248024  1.0
  O  O23  1  -0.20628595  -0.73361778  -0.35751976  1.0
  O  O24  1  -0.77476713  -0.89261540  -0.91359163  1.0
  O  O25  1  -0.22523287  -0.10738460  -0.08640837  1.0
  Zn  Zn26  1  -0.86959755  -0.55378280  -0.18685026  1.0
  Zn  Zn27  1  -0.13040245  -0.44621720  -0.81314974  1.0
  Zn  Zn28  1  -0.85432665  -0.92933724  -0.17186095  1.0
  Zn  Zn29  1  -0.14567334  -0.07066276  -0.82813905  1.0
  Zn  Zn30  1  -0.46736271  -0.64424531  -0.43472361  1.0
  Zn  Zn31  1  -0.53263729  -0.35575469  -0.56527639  1.0
  P  P32  1  -0.92389768  -0.75588717  -0.37069099  1.0
  P  P33  1  -0.07610232  -0.24411283  -0.62930901  1.0
  P  P34  1  -0.63409031  -0.55926670  -0.78502799  1.0
  P  P35  1  -0.36590969  -0.44073330  -0.21497201  1.0
  P  P36  1  -0.62797214  -0.94784191  -0.77107004  1.0
  P  P37  1  -0.37202786  -0.05215809  -0.22892996  1.0
