# generated using pymatgen
data_Eu(MgH3)2
_symmetry_space_group_name_H-M   'P 1'
_cell_length_a   3.71966395
_cell_length_b   3.71966395
_cell_length_c   7.99454965
_cell_angle_alpha   90.00000000
_cell_angle_beta   90.00000000
_cell_angle_gamma   90.00000000
_symmetry_Int_Tables_number   1
_chemical_formula_structural   Eu(MgH3)2
_chemical_formula_sum   'Eu1 Mg2 H6'
_cell_volume   110.61178853
_cell_formula_units_Z   1
loop_
 _symmetry_equiv_pos_site_id
 _symmetry_equiv_pos_as_xyz
  1  'x, y, z'
loop_
 _atom_site_type_symbol
 _atom_site_label
 _atom_site_symmetry_multiplicity
 _atom_site_fract_x
 _atom_site_fract_y
 _atom_site_fract_z
 _atom_site_occupancy
  H  H0  1  0.00000000  0.50000000  0.79549688  1.0
  H  H1  1  0.00000000  0.50000000  0.20450312  1.0
  H  H2  1  0.50000000  0.00000000  0.79549688  1.0
  H  H3  1  0.50000000  0.00000000  0.20450312  1.0
  H  H4  1  0.00000000  0.00000000  0.50000000  1.0
  H  H5  1  0.00000000  0.00000000  0.00000000  1.0
  Mg  Mg6  1  0.00000000  0.00000000  0.72631915  1.0
  Mg  Mg7  1  0.00000000  0.00000000  0.27368085  1.0
  Eu  Eu8  1  0.50000000  0.50000000  0.00000000  1.0
