# generated using pymatgen
data_La3(GeRh)4
_symmetry_space_group_name_H-M   'P 1'
_cell_length_a   13.10748833
_cell_length_b   13.10748833
_cell_length_c   13.10748833
_cell_angle_alpha   161.60116618
_cell_angle_beta   161.25772909
_cell_angle_gamma   26.38141767
_symmetry_Int_Tables_number   1
_chemical_formula_structural   La3(GeRh)4
_chemical_formula_sum   'La3 Ge4 Rh4'
_cell_volume   228.30095544
_cell_formula_units_Z   1
loop_
 _symmetry_equiv_pos_site_id
 _symmetry_equiv_pos_as_xyz
  1  'x, y, z'
loop_
 _atom_site_type_symbol
 _atom_site_label
 _atom_site_symmetry_multiplicity
 _atom_site_fract_x
 _atom_site_fract_y
 _atom_site_fract_z
 _atom_site_occupancy
  La  La0  1  0.64436563  0.14436563  0.50000000  1.0
  La  La1  1  0.35563437  0.85563437  0.50000000  1.0
  La  La2  1  0.00000000  0.00000000  0.00000000  1.0
  Ge  Ge3  1  0.80156573  0.30156573  0.50000000  1.0
  Ge  Ge4  1  0.19843427  0.69843427  0.50000000  1.0
  Ge  Ge5  1  0.54930069  0.54930069  1.00000000  1.0
  Ge  Ge6  1  0.45069931  0.45069931  -0.00000000  1.0
  Rh  Rh7  1  0.89967436  0.39967436  0.50000000  1.0
  Rh  Rh8  1  0.10032564  0.60032564  0.50000000  1.0
  Rh  Rh9  1  0.74997483  0.74997483  1.00000000  1.0
  Rh  Rh10  1  0.25002517  0.25002517  -0.00000000  1.0
