# generated using pymatgen
data_Rb3LuCl6
_symmetry_space_group_name_H-M   'P 1'
_cell_length_a   13.51921221
_cell_length_b   13.51921221
_cell_length_c   13.09478895
_cell_angle_alpha   80.96405136
_cell_angle_beta   99.03594864
_cell_angle_gamma   145.36288535
_symmetry_Int_Tables_number   1
_chemical_formula_structural   Rb3LuCl6
_chemical_formula_sum   'Rb12 Lu4 Cl24'
_cell_volume   1341.77502465
_cell_formula_units_Z   4
loop_
 _symmetry_equiv_pos_site_id
 _symmetry_equiv_pos_as_xyz
  1  'x, y, z'
loop_
 _atom_site_type_symbol
 _atom_site_label
 _atom_site_symmetry_multiplicity
 _atom_site_fract_x
 _atom_site_fract_y
 _atom_site_fract_z
 _atom_site_occupancy
  Rb  Rb0  1  1.64641964  -0.02540039  0.19128080  1.0
  Rb  Rb1  1  1.02540039  -0.64641964  0.69128080  1.0
  Rb  Rb2  1  0.97459961  -0.35358036  0.30871920  1.0
  Rb  Rb3  1  1.35358036  0.02540039  0.80871920  1.0
  Rb  Rb4  1  1.46948130  0.16507281  0.14651692  1.0
  Rb  Rb5  1  0.83492719  -0.46948130  0.64651692  1.0
  Rb  Rb6  1  1.16507281  -0.53051870  0.35348308  1.0
  Rb  Rb7  1  1.53051870  -0.16507281  0.85348308  1.0
  Rb  Rb8  1  1.27795116  0.16766167  0.44584782  1.0
  Rb  Rb9  1  0.83233833  -0.27795116  0.94584782  1.0
  Rb  Rb10  1  1.16766167  -0.72204884  0.05415218  1.0
  Rb  Rb11  1  1.72204884  -0.16766167  0.55415218  1.0
  Lu  Lu12  1  0.79625031  0.79625031  0.25000000  1.0
  Lu  Lu13  1  0.20374969  0.20374969  0.75000000  1.0
  Lu  Lu14  1  1.50000000  -0.00000000  0.50000000  1.0
  Lu  Lu15  1  1.00000000  -0.50000000  0.00000000  1.0
  Cl  Cl16  1  1.51948477  -0.35766410  0.31698186  1.0
  Cl  Cl17  1  1.35766410  -0.51948477  0.81698186  1.0
  Cl  Cl18  1  0.64233590  -0.48051523  0.18301814  1.0
  Cl  Cl19  1  1.48051523  0.35766410  0.68301814  1.0
  Cl  Cl20  1  1.90125454  0.02350576  0.79461795  1.0
  Cl  Cl21  1  0.97649424  -0.90125454  0.29461795  1.0
  Cl  Cl22  1  1.02350576  -0.09874546  0.70538205  1.0
  Cl  Cl23  1  1.09874546  -0.02350576  0.20538205  1.0
  Cl  Cl24  1  1.73833395  -0.15249142  0.06530984  1.0
  Cl  Cl25  1  1.15249142  -0.73833395  0.56530984  1.0
  Cl  Cl26  1  0.84750858  -0.26166605  0.43469016  1.0
  Cl  Cl27  1  1.26166605  0.15249142  0.93469016  1.0
  Cl  Cl28  1  1.78987781  0.15342138  0.46548846  1.0
  Cl  Cl29  1  0.84657862  -0.78987781  0.96548846  1.0
  Cl  Cl30  1  1.15342138  -0.21012219  0.03451154  1.0
  Cl  Cl31  1  1.21012219  -0.15342138  0.53451154  1.0
  Cl  Cl32  1  1.37023519  -0.13009401  0.31622004  1.0
  Cl  Cl33  1  1.13009401  -0.37023519  0.81622004  1.0
  Cl  Cl34  1  0.86990599  -0.62976481  0.18377996  1.0
  Cl  Cl35  1  1.62976481  0.13009401  0.68377996  1.0
  Cl  Cl36  1  1.61228979  0.27109917  0.42642077  1.0
  Cl  Cl37  1  0.72890083  -0.61228979  0.92642077  1.0
  Cl  Cl38  1  1.27109917  -0.38771021  0.07357923  1.0
  Cl  Cl39  1  1.38771021  -0.27109917  0.57357923  1.0
