# generated using pymatgen
data_Sr2Co(HO)6
_symmetry_space_group_name_H-M   'P 1'
_cell_length_a   5.74061633
_cell_length_b   6.24658681
_cell_length_c   9.93426458
_cell_angle_alpha   90.00000000
_cell_angle_beta   124.83250742
_cell_angle_gamma   90.00000000
_symmetry_Int_Tables_number   1
_chemical_formula_structural   Sr2Co(HO)6
_chemical_formula_sum   'Sr4 Co2 H12 O12'
_cell_volume   292.40698681
_cell_formula_units_Z   2
loop_
 _symmetry_equiv_pos_site_id
 _symmetry_equiv_pos_as_xyz
  1  'x, y, z'
loop_
 _atom_site_type_symbol
 _atom_site_label
 _atom_site_symmetry_multiplicity
 _atom_site_fract_x
 _atom_site_fract_y
 _atom_site_fract_z
 _atom_site_occupancy
  Sr  Sr0  1  0.71933952  0.07179826  0.25523379  1.0
  Sr  Sr1  1  0.71933952  0.42820174  0.75523379  1.0
  Sr  Sr2  1  0.28066048  0.57179826  0.24476621  1.0
  Sr  Sr3  1  0.28066048  0.92820174  0.74476621  1.0
  Co  Co4  1  0.00000000  0.50000000  0.50000000  1.0
  Co  Co5  1  0.00000000  0.00000000  0.00000000  1.0
  H  H6  1  0.71607738  0.31499382  0.03490428  1.0
  H  H7  1  0.71607738  0.18500618  0.53490428  1.0
  H  H8  1  0.28392262  0.81499382  0.46509572  1.0
  H  H9  1  0.28392262  0.68500618  0.96509572  1.0
  H  H10  1  0.69261435  0.77848225  0.51016152  1.0
  H  H11  1  0.69261435  0.72151775  1.01016152  1.0
  H  H12  1  0.30738565  0.27848225  -0.01016152  1.0
  H  H13  1  0.30738565  0.22151775  0.48983848  1.0
  H  H14  1  0.29232148  0.06991866  0.31221328  1.0
  H  H15  1  0.29232148  0.43008134  0.81221328  1.0
  H  H16  1  0.70767852  0.56991866  0.18778672  1.0
  H  H17  1  0.70767852  0.93008134  0.68778672  1.0
  O  O18  1  0.85972372  0.46433138  0.25043936  1.0
  O  O19  1  0.85972372  0.03566862  0.75043936  1.0
  O  O20  1  0.14027628  0.96433138  0.24956064  1.0
  O  O21  1  0.14027628  0.53566862  0.74956064  1.0
  O  O22  1  0.78657820  0.77827481  0.45312471  1.0
  O  O23  1  0.78657820  0.72172519  0.95312471  1.0
  O  O24  1  0.21342180  0.27827481  0.04687529  1.0
  O  O25  1  0.21342180  0.22172519  0.54687529  1.0
  O  O26  1  0.61222093  0.28746350  0.44424093  1.0
  O  O27  1  0.61222093  0.21253650  0.94424093  1.0
  O  O28  1  0.38777907  0.78746350  0.05575907  1.0
  O  O29  1  0.38777907  0.71253650  0.55575907  1.0
