# generated using pymatgen
data_AlCuBr4
_symmetry_space_group_name_H-M   'P 1'
_cell_length_a   5.96212556
_cell_length_b   5.96212556
_cell_length_c   10.59261737
_cell_angle_alpha   90.00000000
_cell_angle_beta   90.00000000
_cell_angle_gamma   90.00000000
_symmetry_Int_Tables_number   1
_chemical_formula_structural   AlCuBr4
_chemical_formula_sum   'Al2 Cu2 Br8'
_cell_volume   376.53514726
_cell_formula_units_Z   2
loop_
 _symmetry_equiv_pos_site_id
 _symmetry_equiv_pos_as_xyz
  1  'x, y, z'
loop_
 _atom_site_type_symbol
 _atom_site_label
 _atom_site_symmetry_multiplicity
 _atom_site_fract_x
 _atom_site_fract_y
 _atom_site_fract_z
 _atom_site_occupancy
  Al  Al0  1  0.50000000  0.00000000  0.25000000  1.0
  Al  Al1  1  0.00000000  0.50000000  0.75000000  1.0
  Cu  Cu2  1  0.00000000  0.00000000  0.00000000  1.0
  Cu  Cu3  1  0.00000000  0.00000000  0.50000000  1.0
  Br  Br4  1  0.27112874  0.77135367  0.12449623  1.0
  Br  Br5  1  0.72887126  0.77135367  0.37550377  1.0
  Br  Br6  1  0.22864633  0.72887126  0.62449623  1.0
  Br  Br7  1  0.77135367  0.72887126  0.87550377  1.0
  Br  Br8  1  0.27112874  0.22864633  0.37550377  1.0
  Br  Br9  1  0.72887126  0.22864633  0.12449623  1.0
  Br  Br10  1  0.22864633  0.27112874  0.87550377  1.0
  Br  Br11  1  0.77135367  0.27112874  0.62449623  1.0
