# generated using pymatgen
data_NaMo3P3O16
_symmetry_space_group_name_H-M   'P 1'
_cell_length_a   12.95340961
_cell_length_b   7.83583136
_cell_length_c   6.48485539
_cell_angle_alpha   82.63191169
_cell_angle_beta   79.12777693
_cell_angle_gamma   80.32943423
_symmetry_Int_Tables_number   1
_chemical_formula_structural   NaMo3P3O16
_chemical_formula_sum   'Na2 Mo6 P6 O32'
_cell_volume   634.03979722
_cell_formula_units_Z   2
loop_
 _symmetry_equiv_pos_site_id
 _symmetry_equiv_pos_as_xyz
  1  'x, y, z'
loop_
 _atom_site_type_symbol
 _atom_site_label
 _atom_site_symmetry_multiplicity
 _atom_site_fract_x
 _atom_site_fract_y
 _atom_site_fract_z
 _atom_site_occupancy
  Mo  Mo0  1  -0.35613227  -0.79092555  -0.44373133  1.0
  Mo  Mo1  1  -0.64386773  -0.20907445  -0.55626867  1.0
  Mo  Mo2  1  -0.96164854  -0.78518735  -0.29921252  1.0
  Mo  Mo3  1  -0.03835146  -0.21481265  -0.70078748  1.0
  Mo  Mo4  1  -0.66384389  -0.75930681  -0.90480167  1.0
  Mo  Mo5  1  -0.33615611  -0.24069319  -0.09519833  1.0
  O  O6  1  -0.98642200  -0.75662213  -0.98170434  1.0
  O  O7  1  -0.01357800  -0.24337787  -0.01829566  1.0
  O  O8  1  -0.32281251  -0.40241753  -0.90120388  1.0
  O  O9  1  -0.67718749  -0.59758247  -0.09879612  1.0
  O  O10  1  -0.51370169  -0.74565243  -0.86896575  1.0
  O  O11  1  -0.48629831  -0.25434757  -0.13103425  1.0
  O  O12  1  -0.65796944  -0.24466548  -0.85612325  1.0
  O  O13  1  -0.34203056  -0.75533452  -0.14387675  1.0
  O  O14  1  -0.80506236  -0.83297259  -0.87547841  1.0
  O  O15  1  -0.19493764  -0.16702741  -0.12452159  1.0
  O  O16  1  -0.92637058  -0.05141108  -0.77811796  1.0
  O  O17  1  -0.07362942  -0.94858892  -0.22188204  1.0
  O  O18  1  -0.33367840  -0.80005612  -0.75897830  1.0
  O  O19  1  -0.66632160  -0.19994388  -0.24102170  1.0
  O  O20  1  -0.88748666  -0.40699167  -0.72322265  1.0
  O  O21  1  -0.11251334  -0.59300833  -0.27677735  1.0
  O  O22  1  -0.71985600  -0.62004529  -0.65900445  1.0
  O  O23  1  -0.28014400  -0.37995471  -0.34099555  1.0
  O  O24  1  -0.64502465  -0.98806134  -0.63207339  1.0
  O  O25  1  -0.35497535  -0.01193866  -0.36792661  1.0
  O  O26  1  -0.97504420  -0.76597858  -0.60515111  1.0
  O  O27  1  -0.02495580  -0.23402142  -0.39484889  1.0
  O  O28  1  -0.76644955  -0.34593836  -0.47870519  1.0
  O  O29  1  -0.23355045  -0.65406164  -0.52129481  1.0
  O  O30  1  -0.48418662  -0.69895436  -0.41808808  1.0
  O  O31  1  -0.51581338  -0.30104564  -0.58191192  1.0
  O  O32  1  -0.87840950  -0.57964599  -0.35903429  1.0
  O  O33  1  -0.12159050  -0.42035401  -0.64096571  1.0
  O  O34  1  -0.85977687  -0.94879493  -0.30360106  1.0
  O  O35  1  -0.14022313  -0.05120507  -0.69639894  1.0
  O  O36  1  -0.60539433  -0.96585603  -0.07150180  1.0
  O  O37  1  -0.39460567  -0.03414397  -0.92849820  1.0
  Na  Na38  1  -0.17395097  -0.64768374  -0.90250470  1.0
  Na  Na39  1  -0.82604903  -0.35231626  -0.09749530  1.0
  P  P40  1  -0.39812761  -0.83613549  -0.92732938  1.0
  P  P41  1  -0.60187239  -0.16386451  -0.07267062  1.0
  P  P42  1  -0.92308302  -0.85358209  -0.80798701  1.0
  P  P43  1  -0.07691698  -0.14641791  -0.19201299  1.0
  P  P44  1  -0.81559590  -0.49023446  -0.56250361  1.0
  P  P45  1  -0.18440410  -0.50976554  -0.43749639  1.0
