# generated using pymatgen
data_HfMnP
_symmetry_space_group_name_H-M   'P 1'
_cell_length_a   6.38571354
_cell_length_b   3.60328333
_cell_length_c   7.46770839
_cell_angle_alpha   90.00000000
_cell_angle_beta   90.00000000
_cell_angle_gamma   90.00000000
_symmetry_Int_Tables_number   1
_chemical_formula_structural   HfMnP
_chemical_formula_sum   'Hf4 Mn4 P4'
_cell_volume   171.82849862
_cell_formula_units_Z   4
loop_
 _symmetry_equiv_pos_site_id
 _symmetry_equiv_pos_as_xyz
  1  'x, y, z'
loop_
 _atom_site_type_symbol
 _atom_site_label
 _atom_site_symmetry_multiplicity
 _atom_site_fract_x
 _atom_site_fract_y
 _atom_site_fract_z
 _atom_site_occupancy
  Hf  Hf0  1  0.96812894  0.75000000  0.67469934  1.0
  Hf  Hf1  1  0.46812894  0.75000000  0.82530066  1.0
  Hf  Hf2  1  0.03187106  0.25000000  0.32530066  1.0
  Hf  Hf3  1  0.53187106  0.25000000  0.17469934  1.0
  Mn  Mn4  1  0.86399726  0.75000000  0.06003254  1.0
  Mn  Mn5  1  0.36399726  0.75000000  0.43996746  1.0
  Mn  Mn6  1  0.13600274  0.25000000  0.93996746  1.0
  Mn  Mn7  1  0.63600274  0.25000000  0.56003254  1.0
  P  P8  1  0.73313992  0.75000000  0.37156115  1.0
  P  P9  1  0.23313992  0.75000000  0.12843885  1.0
  P  P10  1  0.26686008  0.25000000  0.62843885  1.0
  P  P11  1  0.76686008  0.25000000  0.87156115  1.0
