# generated using pymatgen
data_Lu2Mg2Ru
_symmetry_space_group_name_H-M   'P 1'
_cell_length_a   10.34249240
_cell_length_b   10.34249240
_cell_length_c   10.34249240
_cell_angle_alpha   161.28921715
_cell_angle_beta   161.28921715
_cell_angle_gamma   26.58136167
_symmetry_Int_Tables_number   1
_chemical_formula_structural   Lu2Mg2Ru
_chemical_formula_sum   'Lu2 Mg2 Ru1'
_cell_volume   113.80480957
_cell_formula_units_Z   1
loop_
 _symmetry_equiv_pos_site_id
 _symmetry_equiv_pos_as_xyz
  1  'x, y, z'
loop_
 _atom_site_type_symbol
 _atom_site_label
 _atom_site_symmetry_multiplicity
 _atom_site_fract_x
 _atom_site_fract_y
 _atom_site_fract_z
 _atom_site_occupancy
  Lu  Lu0  1  0.58004193  0.58004193  1.00000000  1.0
  Lu  Lu1  1  0.41995807  0.41995807  -0.00000000  1.0
  Mg  Mg2  1  0.79915904  0.79915904  1.00000000  1.0
  Mg  Mg3  1  0.20084096  0.20084096  -0.00000000  1.0
  Ru  Ru4  1  0.00000000  0.00000000  0.00000000  1.0
