# generated using pymatgen
data_Ca(Ni2Sn)2
_symmetry_space_group_name_H-M   'P 1'
_cell_length_a   6.73436300
_cell_length_b   6.73436300
_cell_length_c   6.73436300
_cell_angle_alpha   110.01466268
_cell_angle_beta   110.01466268
_cell_angle_gamma   108.38971962
_symmetry_Int_Tables_number   1
_chemical_formula_structural   Ca(Ni2Sn)2
_chemical_formula_sum   'Ca2 Ni8 Sn4'
_cell_volume   235.04546400
_cell_formula_units_Z   2
loop_
 _symmetry_equiv_pos_site_id
 _symmetry_equiv_pos_as_xyz
  1  'x, y, z'
loop_
 _atom_site_type_symbol
 _atom_site_label
 _atom_site_symmetry_multiplicity
 _atom_site_fract_x
 _atom_site_fract_y
 _atom_site_fract_z
 _atom_site_occupancy
  Ca  Ca0  1  0.25000000  0.25000000  0.00000000  1.0
  Ca  Ca1  1  0.75000000  0.75000000  0.00000000  1.0
  Ni  Ni2  1  1.19481933  0.69481933  1.22002727  1.0
  Ni  Ni3  1  0.52520795  1.02520795  1.22002727  1.0
  Ni  Ni4  1  0.97479205  1.19481933  1.50000000  1.0
  Ni  Ni5  1  0.30518067  0.52520795  0.50000000  1.0
  Ni  Ni6  1  0.69481933  0.47479205  0.50000000  1.0
  Ni  Ni7  1  1.02520795  0.80518067  1.50000000  1.0
  Ni  Ni8  1  0.47479205  0.97479205  0.77997273  1.0
  Ni  Ni9  1  0.80518067  0.30518067  0.77997273  1.0
  Sn  Sn10  1  0.84179509  0.34179509  1.18359019  1.0
  Sn  Sn11  1  0.65820491  0.84179509  0.50000000  1.0
  Sn  Sn12  1  0.34179509  0.15820491  0.50000000  1.0
  Sn  Sn13  1  1.15820491  0.65820491  0.81640981  1.0
