# generated using pymatgen
data_SrSi3Au
_symmetry_space_group_name_H-M   'P 1'
_cell_length_a   5.89332923
_cell_length_b   5.89332923
_cell_length_c   5.89332923
_cell_angle_alpha   135.74461501
_cell_angle_beta   135.74461501
_cell_angle_gamma   64.37541245
_symmetry_Int_Tables_number   1
_chemical_formula_structural   SrSi3Au
_chemical_formula_sum   'Sr1 Si3 Au1'
_cell_volume   98.30985100
_cell_formula_units_Z   1
loop_
 _symmetry_equiv_pos_site_id
 _symmetry_equiv_pos_as_xyz
  1  'x, y, z'
loop_
 _atom_site_type_symbol
 _atom_site_label
 _atom_site_symmetry_multiplicity
 _atom_site_fract_x
 _atom_site_fract_y
 _atom_site_fract_z
 _atom_site_occupancy
  Sr  Sr0  1  0.62059064  0.62059064  1.00000000  1.0
  Si  Si1  1  0.87780647  0.37780647  0.50000000  1.0
  Si  Si2  1  0.37780647  0.87780647  0.50000000  1.0
  Si  Si3  1  0.00030001  0.00030001  0.00000000  1.0
  Au  Au4  1  0.25399640  0.25399640  0.00000000  1.0
