# generated using pymatgen
data_Nb(NiP4)4
_symmetry_space_group_name_H-M   'P 1'
_cell_length_a   10.30580390
_cell_length_b   10.30580390
_cell_length_c   11.23810771
_cell_angle_alpha   79.73326041
_cell_angle_beta   100.26673959
_cell_angle_gamma   147.71770067
_symmetry_Int_Tables_number   1
_chemical_formula_structural   Nb(NiP4)4
_chemical_formula_sum   'Nb2 Ni8 P32'
_cell_volume   626.41896929
_cell_formula_units_Z   2
loop_
 _symmetry_equiv_pos_site_id
 _symmetry_equiv_pos_as_xyz
  1  'x, y, z'
loop_
 _atom_site_type_symbol
 _atom_site_label
 _atom_site_symmetry_multiplicity
 _atom_site_fract_x
 _atom_site_fract_y
 _atom_site_fract_z
 _atom_site_occupancy
  Nb  Nb0  1  0.60573892  0.60573892  0.75000000  1.0
  Nb  Nb1  1  0.39426108  0.39426108  0.25000000  1.0
  Ni  Ni2  1  0.30554008  -0.19568172  0.87077707  1.0
  Ni  Ni3  1  1.19568172  0.69445992  0.37077707  1.0
  Ni  Ni4  1  0.80431828  0.30554008  0.62922293  1.0
  Ni  Ni5  1  0.69445992  0.19568172  0.12922293  1.0
  Ni  Ni6  1  0.79827213  0.01269758  0.42644849  1.0
  Ni  Ni7  1  0.98730242  0.20172787  0.92644849  1.0
  Ni  Ni8  1  1.01269758  0.79827213  0.07355151  1.0
  Ni  Ni9  1  0.20172787  -0.01269758  0.57355151  1.0
  P  P10  1  0.44075692  -0.11387618  0.68695153  1.0
  P  P11  1  1.11387618  0.55924308  0.18695153  1.0
  P  P12  1  0.88612382  0.44075692  0.81304847  1.0
  P  P13  1  0.55924308  0.11387618  0.31304847  1.0
  P  P14  1  0.72147037  0.14632715  0.94678016  1.0
  P  P15  1  0.85367285  0.27852963  0.44678016  1.0
  P  P16  1  1.14632715  0.72147037  0.55321984  1.0
  P  P17  1  0.27852963  -0.14632715  0.05321984  1.0
  P  P18  1  1.32040851  0.60466563  0.95817232  1.0
  P  P19  1  0.39533437  -0.32040851  0.45817232  1.0
  P  P20  1  0.60466563  0.32040851  0.54182768  1.0
  P  P21  1  0.67959149  0.39533437  0.04182768  1.0
  P  P22  1  0.65842340  -0.21479860  0.92021795  1.0
  P  P23  1  1.21479860  0.34157660  0.42021795  1.0
  P  P24  1  0.78520140  0.65842340  0.57978205  1.0
  P  P25  1  0.34157660  0.21479860  0.07978205  1.0
  P  P26  1  0.88746298  0.01325276  0.63125080  1.0
  P  P27  1  0.98674724  0.11253702  0.13125080  1.0
  P  P28  1  1.01325276  0.88746298  0.86874920  1.0
  P  P29  1  0.11253702  -0.01325276  0.36874920  1.0
  P  P30  1  1.25333527  0.26118548  0.89486450  1.0
  P  P31  1  0.73881452  -0.25333527  0.39486450  1.0
  P  P32  1  0.26118548  0.25333527  0.60513550  1.0
  P  P33  1  0.74666473  0.73881452  0.10513550  1.0
  P  P34  1  0.62072540  0.37471350  0.83891423  1.0
  P  P35  1  0.62528650  0.37927460  0.33891423  1.0
  P  P36  1  1.37471350  0.62072540  0.66108577  1.0
  P  P37  1  0.37927460  -0.37471350  0.16108577  1.0
  P  P38  1  0.27178457  -0.01199306  0.78047806  1.0
  P  P39  1  1.01199306  0.72821543  0.28047806  1.0
  P  P40  1  0.98800694  0.27178457  0.71952194  1.0
  P  P41  1  0.72821543  0.01199306  0.21952194  1.0
