# generated using pymatgen
data_TeRhCl
_symmetry_space_group_name_H-M   'P 1'
_cell_length_a   7.22225861
_cell_length_b   7.22225861
_cell_length_c   6.73245525
_cell_angle_alpha   64.39175489
_cell_angle_beta   115.60824511
_cell_angle_gamma   150.01624341
_symmetry_Int_Tables_number   1
_chemical_formula_structural   TeRhCl
_chemical_formula_sum   'Te2 Rh2 Cl2'
_cell_volume   156.95129699
_cell_formula_units_Z   2
loop_
 _symmetry_equiv_pos_site_id
 _symmetry_equiv_pos_as_xyz
  1  'x, y, z'
loop_
 _atom_site_type_symbol
 _atom_site_label
 _atom_site_symmetry_multiplicity
 _atom_site_fract_x
 _atom_site_fract_y
 _atom_site_fract_z
 _atom_site_occupancy
  Te  Te0  1  0.00838107  -0.00838107  0.01150754  1.0
  Te  Te1  1  0.72205357  -0.72205357  0.05704264  1.0
  Rh  Rh2  1  1.11578134  -0.11578134  0.77918269  1.0
  Rh  Rh3  1  0.61464548  -0.61464548  0.28938084  1.0
  Cl  Cl4  1  1.22284148  -0.22284148  0.55965226  1.0
  Cl  Cl5  1  1.50759707  -0.50759707  0.50893404  1.0
