# generated using pymatgen
data_Ti9(AlPt2)2
_symmetry_space_group_name_H-M   'P 1'
_cell_length_a   9.98107354
_cell_length_b   9.98107354
_cell_length_c   4.85147183
_cell_angle_alpha   90.00000000
_cell_angle_beta   90.00000000
_cell_angle_gamma   90.00000000
_symmetry_Int_Tables_number   1
_chemical_formula_structural   Ti9(AlPt2)2
_chemical_formula_sum   'Ti18 Al4 Pt8'
_cell_volume   483.31249733
_cell_formula_units_Z   2
loop_
 _symmetry_equiv_pos_site_id
 _symmetry_equiv_pos_as_xyz
  1  'x, y, z'
loop_
 _atom_site_type_symbol
 _atom_site_label
 _atom_site_symmetry_multiplicity
 _atom_site_fract_x
 _atom_site_fract_y
 _atom_site_fract_z
 _atom_site_occupancy
  Ti  Ti0  1  0.50000000  0.50000000  0.50000000  1.0
  Ti  Ti1  1  0.00000000  0.00000000  0.00000000  1.0
  Ti  Ti2  1  0.37287725  0.95996776  0.50000000  1.0
  Ti  Ti3  1  0.62712275  0.04003224  0.50000000  1.0
  Ti  Ti4  1  0.12712275  0.45996776  0.00000000  1.0
  Ti  Ti5  1  0.87287725  0.54003224  0.00000000  1.0
  Ti  Ti6  1  0.95996776  0.37287725  0.50000000  1.0
  Ti  Ti7  1  0.04003224  0.62712275  0.50000000  1.0
  Ti  Ti8  1  0.45996776  0.12712275  0.00000000  1.0
  Ti  Ti9  1  0.54003224  0.87287725  0.00000000  1.0
  Ti  Ti10  1  0.18818377  0.18818377  0.74493300  1.0
  Ti  Ti11  1  0.81181623  0.81181623  0.74493300  1.0
  Ti  Ti12  1  0.31181623  0.68818377  0.24493300  1.0
  Ti  Ti13  1  0.68818377  0.31181623  0.24493300  1.0
  Ti  Ti14  1  0.81181623  0.81181623  0.25506700  1.0
  Ti  Ti15  1  0.18818377  0.18818377  0.25506700  1.0
  Ti  Ti16  1  0.68818377  0.31181623  0.75506700  1.0
  Ti  Ti17  1  0.31181623  0.68818377  0.75506700  1.0
  Al  Al18  1  0.39712051  0.39712051  0.00000000  1.0
  Al  Al19  1  0.60287949  0.60287949  0.00000000  1.0
  Al  Al20  1  0.10287949  0.89712051  0.50000000  1.0
  Al  Al21  1  0.89712051  0.10287949  0.50000000  1.0
  Pt  Pt22  1  0.43826857  0.24036875  0.50000000  1.0
  Pt  Pt23  1  0.56173143  0.75963125  0.50000000  1.0
  Pt  Pt24  1  0.06173143  0.74036875  0.00000000  1.0
  Pt  Pt25  1  0.93826857  0.25963125  0.00000000  1.0
  Pt  Pt26  1  0.24036875  0.43826857  0.50000000  1.0
  Pt  Pt27  1  0.75963125  0.56173143  0.50000000  1.0
  Pt  Pt28  1  0.74036875  0.06173143  0.00000000  1.0
  Pt  Pt29  1  0.25963125  0.93826857  0.00000000  1.0
