# generated using pymatgen
data_SmTe2
_symmetry_space_group_name_H-M   'P 1'
_cell_length_a   4.46447972
_cell_length_b   4.46447972
_cell_length_c   9.34261446
_cell_angle_alpha   90.00000000
_cell_angle_beta   90.00000000
_cell_angle_gamma   90.00000000
_symmetry_Int_Tables_number   1
_chemical_formula_structural   SmTe2
_chemical_formula_sum   'Sm2 Te4'
_cell_volume   186.21305957
_cell_formula_units_Z   2
loop_
 _symmetry_equiv_pos_site_id
 _symmetry_equiv_pos_as_xyz
  1  'x, y, z'
loop_
 _atom_site_type_symbol
 _atom_site_label
 _atom_site_symmetry_multiplicity
 _atom_site_fract_x
 _atom_site_fract_y
 _atom_site_fract_z
 _atom_site_occupancy
  Te  Te0  1  0.00000000  0.00000000  0.00000000  1.0
  Te  Te1  1  0.50000000  0.50000000  0.00000000  1.0
  Te  Te2  1  0.50000000  0.00000000  0.63560934  1.0
  Te  Te3  1  0.00000000  0.50000000  0.36439066  1.0
  Sm  Sm4  1  0.50000000  0.00000000  0.28335872  1.0
  Sm  Sm5  1  0.00000000  0.50000000  0.71664128  1.0
