# generated using pymatgen
data_BaLa4GaCu4O13
_symmetry_space_group_name_H-M   'P 1'
_cell_length_a   8.65745241
_cell_length_b   8.65745241
_cell_length_c   3.95036442
_cell_angle_alpha   90.00000000
_cell_angle_beta   90.00000000
_cell_angle_gamma   90.00000000
_symmetry_Int_Tables_number   1
_chemical_formula_structural   BaLa4GaCu4O13
_chemical_formula_sum   'Ba1 La4 Ga1 Cu4 O13'
_cell_volume   296.08566819
_cell_formula_units_Z   1
loop_
 _symmetry_equiv_pos_site_id
 _symmetry_equiv_pos_as_xyz
  1  'x, y, z'
loop_
 _atom_site_type_symbol
 _atom_site_label
 _atom_site_symmetry_multiplicity
 _atom_site_fract_x
 _atom_site_fract_y
 _atom_site_fract_z
 _atom_site_occupancy
  Ba  Ba0  1  0.50000000  0.50000000  0.50000000  1.0
  La  La1  1  0.71107678  0.87464234  0.50000000  1.0
  La  La2  1  0.87464234  0.28892322  0.50000000  1.0
  La  La3  1  0.28892322  0.12535766  0.50000000  1.0
  La  La4  1  0.12535766  0.71107678  0.50000000  1.0
  Ga  Ga5  1  0.00000000  0.00000000  0.00000000  1.0
  Cu  Cu6  1  0.83243294  0.58921047  0.00000000  1.0
  Cu  Cu7  1  0.58921047  0.16756706  0.00000000  1.0
  Cu  Cu8  1  0.16756706  0.41078953  0.00000000  1.0
  Cu  Cu9  1  0.41078953  0.83243294  0.00000000  1.0
  O  O10  1  0.84172380  0.58877566  0.50000000  1.0
  O  O11  1  0.58877566  0.15827620  0.50000000  1.0
  O  O12  1  0.15827620  0.41122434  0.50000000  1.0
  O  O13  1  0.41122434  0.84172380  0.50000000  1.0
  O  O14  1  0.94916050  0.77617253  0.00000000  1.0
  O  O15  1  0.77617253  0.05083950  0.00000000  1.0
  O  O16  1  0.05083950  0.22382747  0.00000000  1.0
  O  O17  1  0.22382747  0.94916050  0.00000000  1.0
  O  O18  1  0.60473979  0.73453446  0.00000000  1.0
  O  O19  1  0.73453446  0.39526021  0.00000000  1.0
  O  O20  1  0.39526021  0.26546554  0.00000000  1.0
  O  O21  1  0.26546554  0.60473979  0.00000000  1.0
  O  O22  1  0.00000000  0.00000000  0.50000000  1.0
