# generated using pymatgen
data_Ag2S
_symmetry_space_group_name_H-M   'P 1'
_cell_length_a   4.26305045
_cell_length_b   5.89357886
_cell_length_c   7.00010175
_cell_angle_alpha   90.00000000
_cell_angle_beta   122.94650024
_cell_angle_gamma   90.00000000
_symmetry_Int_Tables_number   1
_chemical_formula_structural   Ag2S
_chemical_formula_sum   'Ag4 S2'
_cell_volume   147.59050069
_cell_formula_units_Z   2
loop_
 _symmetry_equiv_pos_site_id
 _symmetry_equiv_pos_as_xyz
  1  'x, y, z'
loop_
 _atom_site_type_symbol
 _atom_site_label
 _atom_site_symmetry_multiplicity
 _atom_site_fract_x
 _atom_site_fract_y
 _atom_site_fract_z
 _atom_site_occupancy
  Ag  Ag0  1  0.50009108  0.49995473  0.50003017  1.0
  Ag  Ag1  1  0.49990892  -0.00004527  0.49996983  1.0
  Ag  Ag2  1  -0.00020342  1.00008450  -0.00002199  1.0
  Ag  Ag3  1  1.00020342  0.50008450  1.00002199  1.0
  S  S4  1  0.46656536  0.74996077  0.76524193  1.0
  S  S5  1  0.53343464  0.24996077  0.23475807  1.0
