# generated using pymatgen
data_NiPtF6
_symmetry_space_group_name_H-M   'P 1'
_cell_length_a   5.43123509
_cell_length_b   5.43123509
_cell_length_c   5.43123509
_cell_angle_alpha   55.63154569
_cell_angle_beta   55.63154569
_cell_angle_gamma   55.63154569
_symmetry_Int_Tables_number   1
_chemical_formula_structural   NiPtF6
_chemical_formula_sum   'Ni1 Pt1 F6'
_cell_volume   101.80328139
_cell_formula_units_Z   1
loop_
 _symmetry_equiv_pos_site_id
 _symmetry_equiv_pos_as_xyz
  1  'x, y, z'
loop_
 _atom_site_type_symbol
 _atom_site_label
 _atom_site_symmetry_multiplicity
 _atom_site_fract_x
 _atom_site_fract_y
 _atom_site_fract_z
 _atom_site_occupancy
  Ni  Ni0  1  0.50000000  0.50000000  -0.50000000  1.0
  Pt  Pt1  1  -0.00000000  -0.00000000  0.00000000  1.0
  F  F2  1  0.10769396  0.75261033  -0.61095310  1.0
  F  F3  1  0.61095310  -0.10769396  0.24738967  1.0
  F  F4  1  1.24738967  -0.38904690  -0.10769396  1.0
  F  F5  1  0.89230604  0.24738967  -0.38904690  1.0
  F  F6  1  0.38904690  0.10769396  -0.24738967  1.0
  F  F7  1  0.75261033  0.38904690  -0.89230604  1.0
