# generated using pymatgen
data_GdTe3
_symmetry_space_group_name_H-M   'P 1'
_cell_length_a   14.72521792
_cell_length_b   14.72521792
_cell_length_c   4.58533446
_cell_angle_alpha   90.00000000
_cell_angle_beta   90.00000000
_cell_angle_gamma   163.88448583
_symmetry_Int_Tables_number   1
_chemical_formula_structural   GdTe3
_chemical_formula_sum   'Gd2 Te6'
_cell_volume   275.97803008
_cell_formula_units_Z   2
loop_
 _symmetry_equiv_pos_site_id
 _symmetry_equiv_pos_as_xyz
  1  'x, y, z'
loop_
 _atom_site_type_symbol
 _atom_site_label
 _atom_site_symmetry_multiplicity
 _atom_site_fract_x
 _atom_site_fract_y
 _atom_site_fract_z
 _atom_site_occupancy
  Gd  Gd0  1  0.05329084  0.94670916  0.75000000  1.0
  Gd  Gd1  1  -0.05329084  0.05329084  0.25000000  1.0
  Te  Te2  1  0.16294542  0.83705458  0.75000000  1.0
  Te  Te3  1  -0.16294542  0.16294542  0.25000000  1.0
  Te  Te4  1  0.31833014  0.68166986  0.75000000  1.0
  Te  Te5  1  -0.31833014  0.31833014  0.25000000  1.0
  Te  Te6  1  0.44945424  0.55054576  0.75000000  1.0
  Te  Te7  1  -0.44945424  0.44945424  0.25000000  1.0
