# generated using pymatgen
data_La(BIr)4
_symmetry_space_group_name_H-M   'P 1'
_cell_length_a   7.73368771
_cell_length_b   7.73368771
_cell_length_c   3.98066543
_cell_angle_alpha   90.00000000
_cell_angle_beta   90.00000000
_cell_angle_gamma   90.00000000
_symmetry_Int_Tables_number   1
_chemical_formula_structural   La(BIr)4
_chemical_formula_sum   'La2 B8 Ir8'
_cell_volume   238.08330310
_cell_formula_units_Z   2
loop_
 _symmetry_equiv_pos_site_id
 _symmetry_equiv_pos_as_xyz
  1  'x, y, z'
loop_
 _atom_site_type_symbol
 _atom_site_label
 _atom_site_symmetry_multiplicity
 _atom_site_fract_x
 _atom_site_fract_y
 _atom_site_fract_z
 _atom_site_occupancy
  La  La0  1  0.00000000  0.00000000  0.00000000  1.0
  La  La1  1  0.50000000  0.50000000  0.50000000  1.0
  B  B2  1  0.65864722  0.77982136  0.10654393  1.0
  B  B3  1  0.34135278  0.22017864  0.10654393  1.0
  B  B4  1  0.27982136  0.84135278  0.60654393  1.0
  B  B5  1  0.72017864  0.15864722  0.60654393  1.0
  B  B6  1  0.84135278  0.72017864  0.39345607  1.0
  B  B7  1  0.15864722  0.27982136  0.39345607  1.0
  B  B8  1  0.22017864  0.65864722  0.89345607  1.0
  B  B9  1  0.77982136  0.34135278  0.89345607  1.0
  Ir  Ir10  1  0.15853978  0.39044891  0.89353489  1.0
  Ir  Ir11  1  0.84146022  0.60955109  0.89353489  1.0
  Ir  Ir12  1  0.89044891  0.34146022  0.39353489  1.0
  Ir  Ir13  1  0.10955109  0.65853978  0.39353489  1.0
  Ir  Ir14  1  0.34146022  0.10955109  0.60646511  1.0
  Ir  Ir15  1  0.65853978  0.89044891  0.60646511  1.0
  Ir  Ir16  1  0.60955109  0.15853978  0.10646511  1.0
  Ir  Ir17  1  0.39044891  0.84146022  0.10646511  1.0
