# generated using pymatgen
data_PNF2
_symmetry_space_group_name_H-M   'P 1'
_cell_length_a   7.27996841
_cell_length_b   12.79273441
_cell_length_c   9.29319375
_cell_angle_alpha   90.00000000
_cell_angle_beta   90.00000000
_cell_angle_gamma   90.00000000
_symmetry_Int_Tables_number   1
_chemical_formula_structural   PNF2
_chemical_formula_sum   'P12 N12 F24'
_cell_volume   865.48166093
_cell_formula_units_Z   12
loop_
 _symmetry_equiv_pos_site_id
 _symmetry_equiv_pos_as_xyz
  1  'x, y, z'
loop_
 _atom_site_type_symbol
 _atom_site_label
 _atom_site_symmetry_multiplicity
 _atom_site_fract_x
 _atom_site_fract_y
 _atom_site_fract_z
 _atom_site_occupancy
  P  P0  1  0.33045010  0.85754725  0.58679849  1.0
  P  P1  1  0.33045010  0.64245275  0.58679849  1.0
  P  P2  1  0.83045010  0.85754725  0.91320151  1.0
  P  P3  1  0.83045010  0.64245275  0.91320151  1.0
  P  P4  1  0.66954990  0.35754725  0.41320151  1.0
  P  P5  1  0.66954990  0.14245275  0.41320151  1.0
  P  P6  1  0.16954990  0.35754725  0.08679849  1.0
  P  P7  1  0.16954990  0.14245275  0.08679849  1.0
  P  P8  1  0.40178080  0.25000000  0.55957347  1.0
  P  P9  1  0.90178080  0.25000000  0.94042653  1.0
  P  P10  1  0.59821920  0.75000000  0.44042653  1.0
  P  P11  1  0.09821920  0.75000000  0.05957347  1.0
  N  N12  1  0.49139085  0.35736018  0.51158484  1.0
  N  N13  1  0.49139085  0.14263982  0.51158484  1.0
  N  N14  1  0.99139085  0.35736018  0.98841516  1.0
  N  N15  1  0.99139085  0.14263982  0.98841516  1.0
  N  N16  1  0.50860915  0.85736018  0.48841516  1.0
  N  N17  1  0.50860915  0.64263982  0.48841516  1.0
  N  N18  1  0.00860915  0.85736018  0.01158484  1.0
  N  N19  1  0.00860915  0.64263982  0.01158484  1.0
  N  N20  1  0.25759719  0.25000000  0.13697061  1.0
  N  N21  1  0.75759719  0.25000000  0.36302939  1.0
  N  N22  1  0.74240281  0.75000000  0.86302939  1.0
  N  N23  1  0.24240281  0.75000000  0.63697061  1.0
  F  F24  1  0.36629480  0.92688920  0.72251283  1.0
  F  F25  1  0.36629480  0.57311080  0.72251283  1.0
  F  F26  1  0.86629480  0.92688920  0.77748717  1.0
  F  F27  1  0.86629480  0.57311080  0.77748717  1.0
  F  F28  1  0.63370520  0.42688920  0.27748717  1.0
  F  F29  1  0.63370520  0.07311080  0.27748717  1.0
  F  F30  1  0.13370520  0.42688920  0.22251283  1.0
  F  F31  1  0.13370520  0.07311080  0.22251283  1.0
  F  F32  1  0.32113371  0.42588243  0.01384568  1.0
  F  F33  1  0.32113371  0.07411757  0.01384568  1.0
  F  F34  1  0.82113371  0.42588243  0.48615432  1.0
  F  F35  1  0.82113371  0.07411757  0.48615432  1.0
  F  F36  1  0.67886629  0.92588243  0.98615432  1.0
  F  F37  1  0.67886629  0.57411757  0.98615432  1.0
  F  F38  1  0.17886629  0.92588243  0.51384568  1.0
  F  F39  1  0.17886629  0.57411757  0.51384568  1.0
  F  F40  1  0.37920327  0.25000000  0.72757323  1.0
  F  F41  1  0.87920327  0.25000000  0.77242677  1.0
  F  F42  1  0.62079673  0.75000000  0.27242677  1.0
  F  F43  1  0.12079673  0.75000000  0.22757323  1.0
  F  F44  1  0.19331990  0.25000000  0.51898444  1.0
  F  F45  1  0.69331990  0.25000000  0.98101556  1.0
  F  F46  1  0.80668010  0.75000000  0.48101556  1.0
  F  F47  1  0.30668010  0.75000000  0.01898444  1.0
