# generated using pymatgen
data_FeSe
_symmetry_space_group_name_H-M   'P 1'
_cell_length_a   5.91453697
_cell_length_b   4.59853247
_cell_length_c   4.60186886
_cell_angle_alpha   90.00000000
_cell_angle_beta   90.00000000
_cell_angle_gamma   90.00000000
_symmetry_Int_Tables_number   1
_chemical_formula_structural   FeSe
_chemical_formula_sum   'Fe4 Se4'
_cell_volume   125.16250517
_cell_formula_units_Z   4
loop_
 _symmetry_equiv_pos_site_id
 _symmetry_equiv_pos_as_xyz
  1  'x, y, z'
loop_
 _atom_site_type_symbol
 _atom_site_label
 _atom_site_symmetry_multiplicity
 _atom_site_fract_x
 _atom_site_fract_y
 _atom_site_fract_z
 _atom_site_occupancy
  Fe  Fe0  1  0.12561640  0.25000000  0.04738856  1.0
  Fe  Fe1  1  0.62561640  0.25000000  0.45261144  1.0
  Fe  Fe2  1  0.87438360  0.75000000  0.95261144  1.0
  Fe  Fe3  1  0.37438360  0.75000000  0.54738856  1.0
  Se  Se4  1  0.24613396  0.25000000  0.54227634  1.0
  Se  Se5  1  0.74613396  0.25000000  0.95772366  1.0
  Se  Se6  1  0.75386604  0.75000000  0.45772366  1.0
  Se  Se7  1  0.25386604  0.75000000  0.04227634  1.0
