# generated using pymatgen
data_TiSO5
_symmetry_space_group_name_H-M   'P 1'
_cell_length_a   7.47822410
_cell_length_b   7.47822410
_cell_length_c   9.66561681
_cell_angle_alpha   90.57584349
_cell_angle_beta   89.42415651
_cell_angle_gamma   40.96221229
_symmetry_Int_Tables_number   1
_chemical_formula_structural   TiSO5
_chemical_formula_sum   'Ti4 S4 O20'
_cell_volume   354.20974242
_cell_formula_units_Z   4
loop_
 _symmetry_equiv_pos_site_id
 _symmetry_equiv_pos_as_xyz
  1  'x, y, z'
loop_
 _atom_site_type_symbol
 _atom_site_label
 _atom_site_symmetry_multiplicity
 _atom_site_fract_x
 _atom_site_fract_y
 _atom_site_fract_z
 _atom_site_occupancy
  Ti  Ti0  1  0.59010340  -0.40989660  0.75000000  1.0
  Ti  Ti1  1  0.40989660  0.40989660  0.25000000  1.0
  Ti  Ti2  1  0.50000000  0.00000000  -0.00000000  1.0
  Ti  Ti3  1  1.00000000  -0.50000000  0.50000000  1.0
  S  S4  1  0.63379750  0.14940816  0.56177293  1.0
  S  S5  1  0.85059184  -0.63379750  0.06177293  1.0
  S  S6  1  1.14940816  -0.36620250  0.93822707  1.0
  S  S7  1  0.36620250  -0.14940816  0.43822707  1.0
  O  O8  1  0.85034250  -0.16022436  0.91902365  1.0
  O  O9  1  1.16022436  -0.85034250  0.41902365  1.0
  O  O10  1  0.83977564  -0.14965750  0.58097635  1.0
  O  O11  1  0.14965750  0.16022436  0.08097635  1.0
  O  O12  1  0.47500832  -0.13132142  0.84479392  1.0
  O  O13  1  1.13132142  -0.47500832  0.34479392  1.0
  O  O14  1  0.86867858  -0.52499168  0.65520608  1.0
  O  O15  1  0.52499168  0.13132142  0.15520608  1.0
  O  O16  1  0.65446553  0.19910517  0.41586106  1.0
  O  O17  1  0.80089483  -0.65446553  0.91586106  1.0
  O  O18  1  1.19910517  -0.34553447  0.08413894  1.0
  O  O19  1  0.34553447  -0.19910517  0.58413894  1.0
  O  O20  1  0.68739420  0.25305464  0.66084769  1.0
  O  O21  1  0.74694536  -0.68739420  0.16084769  1.0
  O  O22  1  1.25305464  -0.31260580  0.83915231  1.0
  O  O23  1  0.31260580  -0.25305464  0.33915231  1.0
  O  O24  1  1.28184078  -0.64541305  0.90976431  1.0
  O  O25  1  0.64541305  -0.28184078  0.40976431  1.0
  O  O26  1  0.35458695  0.28184078  0.59023569  1.0
  O  O27  1  0.71815922  -0.35458695  0.09023569  1.0
