# generated using pymatgen
data_Ge(PO2)3
_symmetry_space_group_name_H-M   'P 1'
_cell_length_a   7.97861816
_cell_length_b   7.97861816
_cell_length_c   7.97861816
_cell_angle_alpha   105.06695294
_cell_angle_beta   105.06695294
_cell_angle_gamma   105.06695294
_symmetry_Int_Tables_number   1
_chemical_formula_structural   Ge(PO2)3
_chemical_formula_sum   'Ge2 P6 O12'
_cell_volume   443.40802740
_cell_formula_units_Z   2
loop_
 _symmetry_equiv_pos_site_id
 _symmetry_equiv_pos_as_xyz
  1  'x, y, z'
loop_
 _atom_site_type_symbol
 _atom_site_label
 _atom_site_symmetry_multiplicity
 _atom_site_fract_x
 _atom_site_fract_y
 _atom_site_fract_z
 _atom_site_occupancy
  Ge  Ge0  1  0.50000000  0.50000000  0.50000000  1.0
  Ge  Ge1  1  0.00000000  0.00000000  0.00000000  1.0
  P  P2  1  0.75663516  0.57089409  -0.03748578  1.0
  P  P3  1  1.42910591  0.03748578  0.24336484  1.0
  P  P4  1  1.03748578  0.24336484  0.42910591  1.0
  P  P5  1  1.24336484  0.42910591  0.03748578  1.0
  P  P6  1  0.57089409  0.96251422  -0.24336484  1.0
  P  P7  1  0.96251422  0.75663516  -0.42910591  1.0
  O  O8  1  1.57873734  0.53685601  -0.19060259  1.0
  O  O9  1  0.46314399  1.19060259  -0.57873734  1.0
  O  O10  1  1.19060259  0.42126266  -0.53685601  1.0
  O  O11  1  0.42126266  0.46314399  0.19060259  1.0
  O  O12  1  1.53685601  -0.19060259  0.57873734  1.0
  O  O13  1  0.80939741  0.57873734  0.53685601  1.0
  O  O14  1  1.75332317  1.00577634  -0.08153379  1.0
  O  O15  1  0.99422366  0.08153379  -0.75332317  1.0
  O  O16  1  1.08153379  -0.75332317  -0.00577634  1.0
  O  O17  1  0.24667683  -0.00577634  0.08153379  1.0
  O  O18  1  1.00577634  0.91846621  0.75332317  1.0
  O  O19  1  0.91846621  1.75332317  0.00577634  1.0
