# generated using pymatgen
data_YSeClO3
_symmetry_space_group_name_H-M   'P 1'
_cell_length_a   7.44131027
_cell_length_b   7.00728754
_cell_length_c   8.82744963
_cell_angle_alpha   90.00000000
_cell_angle_beta   90.00000000
_cell_angle_gamma   90.00000000
_symmetry_Int_Tables_number   1
_chemical_formula_structural   YSeClO3
_chemical_formula_sum   'Y4 Se4 Cl4 O12'
_cell_volume   460.29324403
_cell_formula_units_Z   4
loop_
 _symmetry_equiv_pos_site_id
 _symmetry_equiv_pos_as_xyz
  1  'x, y, z'
loop_
 _atom_site_type_symbol
 _atom_site_label
 _atom_site_symmetry_multiplicity
 _atom_site_fract_x
 _atom_site_fract_y
 _atom_site_fract_z
 _atom_site_occupancy
  Y  Y0  1  0.60287258  0.75000000  0.53992105  1.0
  Y  Y1  1  0.10287258  0.75000000  0.96007895  1.0
  Y  Y2  1  0.39712742  0.25000000  0.46007895  1.0
  Y  Y3  1  0.89712742  0.25000000  0.03992105  1.0
  Se  Se4  1  0.71549268  0.75000000  0.13310066  1.0
  Se  Se5  1  0.21549268  0.75000000  0.36689934  1.0
  Se  Se6  1  0.28450732  0.25000000  0.86689934  1.0
  Se  Se7  1  0.78450732  0.25000000  0.63310066  1.0
  Cl  Cl8  1  0.93195804  0.75000000  0.68474511  1.0
  Cl  Cl9  1  0.43195804  0.75000000  0.81525489  1.0
  Cl  Cl10  1  0.06804196  0.25000000  0.31525489  1.0
  Cl  Cl11  1  0.56804196  0.25000000  0.18474511  1.0
  O  O12  1  0.86286975  0.92733421  0.07014059  1.0
  O  O13  1  0.86286975  0.57266579  0.07014059  1.0
  O  O14  1  0.36286975  0.92733421  0.42985941  1.0
  O  O15  1  0.36286975  0.57266579  0.42985941  1.0
  O  O16  1  0.13713025  0.42733421  0.92985941  1.0
  O  O17  1  0.13713025  0.07266579  0.92985941  1.0
  O  O18  1  0.63713025  0.42733421  0.57014059  1.0
  O  O19  1  0.63713025  0.07266579  0.57014059  1.0
  O  O20  1  0.75072136  0.75000000  0.32259184  1.0
  O  O21  1  0.25072136  0.75000000  0.17740816  1.0
  O  O22  1  0.24927864  0.25000000  0.67740816  1.0
  O  O23  1  0.74927864  0.25000000  0.82259184  1.0
