# generated using pymatgen
data_Ca2SiO4
_symmetry_space_group_name_H-M   'P 1'
_cell_length_a   5.49996361
_cell_length_b   5.49996361
_cell_length_c   7.65338652
_cell_angle_alpha   90.00000000
_cell_angle_beta   90.00000000
_cell_angle_gamma   120.00000000
_symmetry_Int_Tables_number   1
_chemical_formula_structural   Ca2SiO4
_chemical_formula_sum   'Ca4 Si2 O8'
_cell_volume   200.49516801
_cell_formula_units_Z   2
loop_
 _symmetry_equiv_pos_site_id
 _symmetry_equiv_pos_as_xyz
  1  'x, y, z'
loop_
 _atom_site_type_symbol
 _atom_site_label
 _atom_site_symmetry_multiplicity
 _atom_site_fract_x
 _atom_site_fract_y
 _atom_site_fract_z
 _atom_site_occupancy
  Ca  Ca0  1  0.33333333  0.66666667  0.18583606  1.0
  Ca  Ca1  1  0.66666667  0.33333333  0.68583606  1.0
  Ca  Ca2  1  0.00000000  -0.00000000  -0.06022399  1.0
  Ca  Ca3  1  -0.00000000  -0.00000000  0.43977601  1.0
  Si  Si4  1  0.33333333  0.66666667  0.66068730  1.0
  Si  Si5  1  0.66666667  0.33333333  0.16068730  1.0
  O  O6  1  0.33733049  0.16866525  0.22165537  1.0
  O  O7  1  0.16866525  0.33733049  0.72165537  1.0
  O  O8  1  0.16866525  0.83133475  0.72165537  1.0
  O  O9  1  0.83133475  0.16866525  0.22165537  1.0
  O  O10  1  0.83133475  0.66266951  0.22165537  1.0
  O  O11  1  0.66266951  0.83133475  0.72165537  1.0
  O  O12  1  0.33333333  0.66666667  0.44873451  1.0
  O  O13  1  0.66666667  0.33333333  0.94873451  1.0
