# generated using pymatgen
data_Lu(BRh)4
_symmetry_space_group_name_H-M   'P 1'
_cell_length_a   11.77432846
_cell_length_b   11.77432846
_cell_length_c   7.49873332
_cell_angle_alpha   90.00000000
_cell_angle_beta   90.00000000
_cell_angle_gamma   142.93461941
_symmetry_Int_Tables_number   1
_chemical_formula_structural   Lu(BRh)4
_chemical_formula_sum   'Lu6 B24 Rh24'
_cell_volume   626.58515223
_cell_formula_units_Z   6
loop_
 _symmetry_equiv_pos_site_id
 _symmetry_equiv_pos_as_xyz
  1  'x, y, z'
loop_
 _atom_site_type_symbol
 _atom_site_label
 _atom_site_symmetry_multiplicity
 _atom_site_fract_x
 _atom_site_fract_y
 _atom_site_fract_z
 _atom_site_occupancy
  Lu  Lu0  1  -0.33225536  1.33225536  0.00000000  1.0
  Lu  Lu1  1  -0.83225536  0.83225536  0.50000000  1.0
  Lu  Lu2  1  -0.16774464  0.16774464  0.50000000  1.0
  Lu  Lu3  1  0.33225536  0.66774464  0.00000000  1.0
  Lu  Lu4  1  0.00000000  0.00000000  0.00000000  1.0
  Lu  Lu5  1  0.50000000  0.50000000  0.50000000  1.0
  B  B6  1  -0.75344210  1.02696146  0.17010445  1.0
  B  B7  1  -0.52696146  1.25344210  0.67010445  1.0
  B  B8  1  0.52696146  0.74655790  0.67010445  1.0
  B  B9  1  0.75344210  0.97303854  0.17010445  1.0
  B  B10  1  0.25344210  0.47303854  0.32989555  1.0
  B  B11  1  0.02696146  0.24655790  0.82989555  1.0
  B  B12  1  -0.02696146  1.75344210  0.82989555  1.0
  B  B13  1  -0.25344210  1.52696146  0.32989555  1.0
  B  B14  1  -0.60957340  0.94764264  0.86278637  1.0
  B  B15  1  -0.44764264  1.10957340  0.36278637  1.0
  B  B16  1  0.44764264  0.89042660  0.36278637  1.0
  B  B17  1  0.60957340  1.05235736  0.86278637  1.0
  B  B18  1  0.10957340  0.55235736  0.63721363  1.0
  B  B19  1  -0.05235736  0.39042660  0.13721363  1.0
  B  B20  1  0.05235736  1.60957340  0.13721363  1.0
  B  B21  1  -0.10957340  1.44764264  0.63721363  1.0
  B  B22  1  0.30146979  0.40645508  0.16747903  1.0
  B  B23  1  0.09354492  0.19853021  0.66747903  1.0
  B  B24  1  -0.09354492  1.80146979  0.66747903  1.0
  B  B25  1  -0.30146979  1.59354492  0.16747903  1.0
  B  B26  1  -0.80146979  1.09354492  0.33252097  1.0
  B  B27  1  -0.59354492  1.30146979  0.83252097  1.0
  B  B28  1  0.59354492  0.69853021  0.83252097  1.0
  B  B29  1  0.80146979  0.90645508  0.33252097  1.0
  Rh  Rh30  1  -0.67441011  0.90899635  0.15556762  1.0
  Rh  Rh31  1  -0.40899635  1.17441011  0.65556762  1.0
  Rh  Rh32  1  0.40899635  0.82558989  0.65556762  1.0
  Rh  Rh33  1  0.67441011  1.09100365  0.15556762  1.0
  Rh  Rh34  1  0.17441011  0.59100365  0.34443238  1.0
  Rh  Rh35  1  -0.09100365  0.32558989  0.84443238  1.0
  Rh  Rh36  1  0.09100365  1.67441011  0.84443238  1.0
  Rh  Rh37  1  -0.17441011  1.40899635  0.34443238  1.0
  Rh  Rh38  1  -0.72051393  1.02833174  0.88399922  1.0
  Rh  Rh39  1  -0.52833174  1.22051393  0.38399922  1.0
  Rh  Rh40  1  0.52833174  0.77948607  0.38399922  1.0
  Rh  Rh41  1  0.72051393  0.97166826  0.88399922  1.0
  Rh  Rh42  1  0.22051393  0.47166826  0.61600078  1.0
  Rh  Rh43  1  0.02833174  0.27948607  0.11600078  1.0
  Rh  Rh44  1  -0.02833174  1.72051393  0.11600078  1.0
  Rh  Rh45  1  -0.22051393  1.52833174  0.61600078  1.0
  Rh  Rh46  1  -0.60408838  1.30837129  0.12150784  1.0
  Rh  Rh47  1  -0.80837129  1.10408838  0.62150784  1.0
  Rh  Rh48  1  0.80837129  0.89591162  0.62150784  1.0
  Rh  Rh49  1  0.60408838  0.69162871  0.12150784  1.0
  Rh  Rh50  1  0.10408838  0.19162871  0.37849216  1.0
  Rh  Rh51  1  0.30837129  0.39591162  0.87849216  1.0
  Rh  Rh52  1  -0.30837129  1.60408838  0.87849216  1.0
  Rh  Rh53  1  -0.10408838  1.80837129  0.37849216  1.0
