# generated using pymatgen
data_H6C2SO4
_symmetry_space_group_name_H-M   'P 1'
_cell_length_a   7.07891227
_cell_length_b   7.07891227
_cell_length_c   9.63596169
_cell_angle_alpha   58.20637526
_cell_angle_beta   121.79362474
_cell_angle_gamma   131.11853813
_symmetry_Int_Tables_number   1
_chemical_formula_structural   H6C2SO4
_chemical_formula_sum   'H12 C4 S2 O8'
_cell_volume   296.66279227
_cell_formula_units_Z   2
loop_
 _symmetry_equiv_pos_site_id
 _symmetry_equiv_pos_as_xyz
  1  'x, y, z'
loop_
 _atom_site_type_symbol
 _atom_site_label
 _atom_site_symmetry_multiplicity
 _atom_site_fract_x
 _atom_site_fract_y
 _atom_site_fract_z
 _atom_site_occupancy
  H  H0  1  0.73446266  -0.54683335  0.11080478  1.0
  H  H1  1  1.45316665  -0.26553734  0.38919522  1.0
  H  H2  1  1.26553734  0.54683335  0.88919522  1.0
  H  H3  1  0.54683335  0.26553734  0.61080478  1.0
  H  H4  1  0.95142259  -0.47540997  0.31068175  1.0
  H  H5  1  1.52459003  -0.04857741  0.18931825  1.0
  H  H6  1  1.04857741  0.47540997  0.68931825  1.0
  H  H7  1  0.47540997  0.04857741  0.81068175  1.0
  H  H8  1  0.60448508  0.36068642  0.26985875  1.0
  H  H9  1  1.36068642  -0.39551492  0.23014125  1.0
  H  H10  1  1.39551492  -0.36068642  0.73014125  1.0
  H  H11  1  0.63931358  0.39551492  0.76985875  1.0
  C  C12  1  0.76825584  -0.49477348  0.21368661  1.0
  C  C13  1  1.50522652  -0.23174416  0.28631339  1.0
  C  C14  1  1.23174416  0.49477348  0.78631339  1.0
  C  C15  1  0.49477348  0.23174416  0.71368661  1.0
  S  S16  1  0.94032807  0.94032807  0.25000000  1.0
  S  S17  1  0.05967193  0.05967193  0.75000000  1.0
  O  O18  1  0.94430122  -0.82174378  0.13325849  1.0
  O  O19  1  0.17825622  -0.05569878  0.36674151  1.0
  O  O20  1  1.05569878  0.82174378  0.86674151  1.0
  O  O21  1  1.82174378  0.05569878  0.63325849  1.0
  O  O22  1  0.78773246  0.75782591  0.13217584  1.0
  O  O23  1  1.75782591  -0.21226754  0.36782416  1.0
  O  O24  1  1.21226754  -0.75782591  0.86782416  1.0
  O  O25  1  0.24217409  0.21226754  0.63217584  1.0
