# generated using pymatgen
data_LaAuO3
_symmetry_space_group_name_H-M   'P 1'
_cell_length_a   4.08078432
_cell_length_b   13.25681188
_cell_length_c   5.73367836
_cell_angle_alpha   90.00000000
_cell_angle_beta   90.00000000
_cell_angle_gamma   90.00000000
_symmetry_Int_Tables_number   1
_chemical_formula_structural   LaAuO3
_chemical_formula_sum   'La4 Au4 O12'
_cell_volume   310.18162184
_cell_formula_units_Z   4
loop_
 _symmetry_equiv_pos_site_id
 _symmetry_equiv_pos_as_xyz
  1  'x, y, z'
loop_
 _atom_site_type_symbol
 _atom_site_label
 _atom_site_symmetry_multiplicity
 _atom_site_fract_x
 _atom_site_fract_y
 _atom_site_fract_z
 _atom_site_occupancy
  La  La0  1  0.73655226  0.08119910  0.25000000  1.0
  La  La1  1  0.73655226  0.41880090  0.75000000  1.0
  La  La2  1  0.26344774  0.58119910  0.25000000  1.0
  La  La3  1  0.26344774  0.91880090  0.75000000  1.0
  Au  Au4  1  0.92268129  0.82980197  0.25000000  1.0
  Au  Au5  1  0.92268129  0.67019803  0.75000000  1.0
  Au  Au6  1  0.07731871  0.32980197  0.25000000  1.0
  Au  Au7  1  0.07731871  0.17019803  0.75000000  1.0
  O  O8  1  0.74345014  0.92155038  0.49477777  1.0
  O  O9  1  0.74345014  0.92155038  0.00522223  1.0
  O  O10  1  0.74345014  0.57844962  0.99477777  1.0
  O  O11  1  0.74345014  0.57844962  0.50522223  1.0
  O  O12  1  0.25654986  0.42155038  0.49477777  1.0
  O  O13  1  0.25654986  0.42155038  0.00522223  1.0
  O  O14  1  0.25654986  0.07844962  0.99477777  1.0
  O  O15  1  0.25654986  0.07844962  0.50522223  1.0
  O  O16  1  0.83760637  0.25000000  0.50000000  1.0
  O  O17  1  0.83760637  0.25000000  0.00000000  1.0
  O  O18  1  0.16239363  0.75000000  0.50000000  1.0
  O  O19  1  0.16239363  0.75000000  0.00000000  1.0
