# generated using pymatgen
data_BaCrO4
_symmetry_space_group_name_H-M   'P 1'
_cell_length_a   5.68535466
_cell_length_b   7.42929507
_cell_length_c   9.15075414
_cell_angle_alpha   90.00000000
_cell_angle_beta   90.00000000
_cell_angle_gamma   90.00000000
_symmetry_Int_Tables_number   1
_chemical_formula_structural   BaCrO4
_chemical_formula_sum   'Ba4 Cr4 O16'
_cell_volume   386.51117602
_cell_formula_units_Z   4
loop_
 _symmetry_equiv_pos_site_id
 _symmetry_equiv_pos_as_xyz
  1  'x, y, z'
loop_
 _atom_site_type_symbol
 _atom_site_label
 _atom_site_symmetry_multiplicity
 _atom_site_fract_x
 _atom_site_fract_y
 _atom_site_fract_z
 _atom_site_occupancy
  Ba  Ba0  1  0.24974544  0.59490374  0.68290889  1.0
  Ba  Ba1  1  0.74974544  0.90509626  0.31709111  1.0
  Ba  Ba2  1  0.75025456  0.09490374  0.81709111  1.0
  Ba  Ba3  1  0.25025456  0.40509626  0.18290889  1.0
  Cr  Cr4  1  0.25087391  0.94104883  0.05728594  1.0
  Cr  Cr5  1  0.75087391  0.55895117  0.94271406  1.0
  Cr  Cr6  1  0.74912609  0.44104883  0.44271406  1.0
  Cr  Cr7  1  0.24912609  0.05895117  0.55728594  1.0
  O  O8  1  0.48732829  0.93209586  0.58001418  1.0
  O  O9  1  0.98732829  0.56790414  0.41998582  1.0
  O  O10  1  0.51267171  0.43209586  0.91998582  1.0
  O  O11  1  0.01267171  0.06790414  0.08001418  1.0
  O  O12  1  0.25172160  0.86010645  0.89043307  1.0
  O  O13  1  0.75172160  0.63989355  0.10956693  1.0
  O  O14  1  0.74827840  0.36010645  0.60956693  1.0
  O  O15  1  0.24827840  0.13989355  0.39043307  1.0
  O  O16  1  0.01230931  0.93061847  0.58015919  1.0
  O  O17  1  0.51230931  0.56938153  0.41984081  1.0
  O  O18  1  0.98769069  0.43061847  0.91984081  1.0
  O  O19  1  0.48769069  0.06938153  0.08015919  1.0
  O  O20  1  0.75193610  0.71924757  0.81861669  1.0
  O  O21  1  0.25193610  0.78075243  0.18138331  1.0
  O  O22  1  0.24806390  0.21924757  0.68138331  1.0
  O  O23  1  0.74806390  0.28075243  0.31861669  1.0
