# generated using pymatgen
data_RbSr4(BO3)3
_symmetry_space_group_name_H-M   'P 1'
_cell_length_a   7.04377104
_cell_length_b   7.04377104
_cell_length_c   11.13992238
_cell_angle_alpha   90.00000000
_cell_angle_beta   90.00000000
_cell_angle_gamma   59.25879321
_symmetry_Int_Tables_number   1
_chemical_formula_structural   RbSr4(BO3)3
_chemical_formula_sum   'Rb2 Sr8 B6 O18'
_cell_volume   475.04074609
_cell_formula_units_Z   2
loop_
 _symmetry_equiv_pos_site_id
 _symmetry_equiv_pos_as_xyz
  1  'x, y, z'
loop_
 _atom_site_type_symbol
 _atom_site_label
 _atom_site_symmetry_multiplicity
 _atom_site_fract_x
 _atom_site_fract_y
 _atom_site_fract_z
 _atom_site_occupancy
  Rb  Rb0  1  -0.17622056  1.01355660  0.75000000  1.0
  Rb  Rb1  1  -0.01355660  0.17622056  0.25000000  1.0
  Sr  Sr2  1  -0.76990746  1.19738841  0.53069043  1.0
  Sr  Sr3  1  -0.19738841  0.76990746  0.03069043  1.0
  Sr  Sr4  1  -0.19738841  0.76990746  0.46930957  1.0
  Sr  Sr5  1  -0.76990746  1.19738841  0.96930957  1.0
  Sr  Sr6  1  -0.20582528  0.50159447  0.75000000  1.0
  Sr  Sr7  1  -0.50159447  1.20582528  0.25000000  1.0
  Sr  Sr8  1  -0.62861418  0.62861418  0.50000000  1.0
  Sr  Sr9  1  -0.62861418  0.62861418  0.00000000  1.0
  B  B10  1  -0.59878683  0.94301686  0.75000000  1.0
  B  B11  1  0.05698314  0.59878683  0.25000000  1.0
  B  B12  1  0.21728898  0.53370214  0.75000000  1.0
  B  B13  1  -0.53370214  0.78271102  0.25000000  1.0
  B  B14  1  -0.19824722  0.19824722  0.50000000  1.0
  B  B15  1  -0.19824722  0.19824722  0.00000000  1.0
  O  O16  1  -0.20223021  0.39415154  0.52712068  1.0
  O  O17  1  -0.39415154  1.20223021  0.02712068  1.0
  O  O18  1  -0.39415154  1.20223021  0.47287932  1.0
  O  O19  1  -0.20223021  0.39415154  0.97287932  1.0
  O  O20  1  -0.48319535  0.85813192  0.64182754  1.0
  O  O21  1  0.14186808  0.48319535  0.14182754  1.0
  O  O22  1  0.14186808  0.48319535  0.35817246  1.0
  O  O23  1  -0.48319535  0.85813192  0.85817246  1.0
  O  O24  1  -0.56464211  0.90009853  0.14169321  1.0
  O  O25  1  0.09990147  0.56464211  0.64169321  1.0
  O  O26  1  0.09990147  0.56464211  0.85830679  1.0
  O  O27  1  -0.56464211  0.90009853  0.35830679  1.0
  O  O28  1  -0.81459404  1.11589451  0.75000000  1.0
  O  O29  1  -0.11589451  0.81459404  0.25000000  1.0
  O  O30  1  0.43205310  0.48592982  0.75000000  1.0
  O  O31  1  -0.48592982  0.56794690  0.25000000  1.0
  O  O32  1  0.00019645  -0.00019645  0.50000000  1.0
  O  O33  1  0.00019645  -0.00019645  0.00000000  1.0
