# generated using pymatgen
data_MnV2(PbO4)2
_symmetry_space_group_name_H-M   'P 1'
_cell_length_a   7.91727261
_cell_length_b   5.90694913
_cell_length_c   9.14772999
_cell_angle_alpha   90.00000000
_cell_angle_beta   111.34326933
_cell_angle_gamma   90.00000000
_symmetry_Int_Tables_number   1
_chemical_formula_structural   MnV2(PbO4)2
_chemical_formula_sum   'Mn2 V4 Pb4 O16'
_cell_volume   398.47048502
_cell_formula_units_Z   2
loop_
 _symmetry_equiv_pos_site_id
 _symmetry_equiv_pos_as_xyz
  1  'x, y, z'
loop_
 _atom_site_type_symbol
 _atom_site_label
 _atom_site_symmetry_multiplicity
 _atom_site_fract_x
 _atom_site_fract_y
 _atom_site_fract_z
 _atom_site_occupancy
  Mn  Mn0  1  0.00000000  -0.00000000  0.00000000  1.0
  Mn  Mn1  1  0.00000000  0.50000000  0.00000000  1.0
  V  V2  1  0.03201870  0.75000000  0.32874430  1.0
  V  V3  1  0.96798130  0.25000000  0.67125570  1.0
  V  V4  1  0.41840475  0.75000000  0.16733355  1.0
  V  V5  1  0.58159525  0.25000000  0.83266645  1.0
  Pb  Pb6  1  0.31851205  0.75000000  0.75965399  1.0
  Pb  Pb7  1  0.68148795  0.25000000  0.24034601  1.0
  Pb  Pb8  1  0.70989965  0.75000000  0.59109239  1.0
  Pb  Pb9  1  0.29010035  0.25000000  0.40890761  1.0
  O  O10  1  -0.02364342  0.49914884  0.78216745  1.0
  O  O11  1  -0.02364342  0.00085116  0.78216745  1.0
  O  O12  1  1.02364342  0.99914884  0.21783255  1.0
  O  O13  1  1.02364342  0.50085116  0.21783255  1.0
  O  O14  1  0.47069762  0.99038624  0.28403476  1.0
  O  O15  1  0.47069762  0.50961376  0.28403476  1.0
  O  O16  1  0.52930238  0.49038624  0.71596524  1.0
  O  O17  1  0.52930238  0.00961376  0.71596524  1.0
  O  O18  1  0.18067362  0.75000000  0.04328803  1.0
  O  O19  1  0.81932638  0.25000000  0.95671197  1.0
  O  O20  1  0.23782883  0.75000000  0.47676954  1.0
  O  O21  1  0.76217117  0.25000000  0.52323046  1.0
  O  O22  1  0.53840478  0.75000000  0.05107283  1.0
  O  O23  1  0.46159522  0.25000000  0.94892717  1.0
  O  O24  1  0.86369401  0.75000000  0.40028422  1.0
  O  O25  1  0.13630599  0.25000000  0.59971578  1.0
