# generated using pymatgen
data_TaTeBr9
_symmetry_space_group_name_H-M   'P 1'
_cell_length_a   7.17632847
_cell_length_b   12.48068325
_cell_length_c   10.55777394
_cell_angle_alpha   90.00000000
_cell_angle_beta   104.26264526
_cell_angle_gamma   90.00000000
_symmetry_Int_Tables_number   1
_chemical_formula_structural   TaTeBr9
_chemical_formula_sum   'Ta2 Te2 Br18'
_cell_volume   916.46509908
_cell_formula_units_Z   2
loop_
 _symmetry_equiv_pos_site_id
 _symmetry_equiv_pos_as_xyz
  1  'x, y, z'
loop_
 _atom_site_type_symbol
 _atom_site_label
 _atom_site_symmetry_multiplicity
 _atom_site_fract_x
 _atom_site_fract_y
 _atom_site_fract_z
 _atom_site_occupancy
  Ta  Ta0  1  0.85203124  0.25000000  0.85246978  1.0
  Ta  Ta1  1  0.14796876  0.75000000  0.14753022  1.0
  Te  Te2  1  0.74594871  0.25000000  0.47029002  1.0
  Te  Te3  1  0.25405129  0.75000000  0.52970998  1.0
  Br  Br4  1  0.95043187  0.39136043  0.69379406  1.0
  Br  Br5  1  0.95043187  0.10863957  0.69379406  1.0
  Br  Br6  1  0.04956813  0.89136043  0.30620594  1.0
  Br  Br7  1  0.04956813  0.60863957  0.30620594  1.0
  Br  Br8  1  0.73734549  0.39615019  0.96845620  1.0
  Br  Br9  1  0.73734549  0.10384981  0.96845620  1.0
  Br  Br10  1  0.26265451  0.89615019  0.03154380  1.0
  Br  Br11  1  0.26265451  0.60384981  0.03154380  1.0
  Br  Br12  1  0.55412348  0.40348576  0.33698211  1.0
  Br  Br13  1  0.55412348  0.09651424  0.33698211  1.0
  Br  Br14  1  0.44587652  0.90348576  0.66301789  1.0
  Br  Br15  1  0.44587652  0.59651424  0.66301789  1.0
  Br  Br16  1  0.51848007  0.25000000  0.67636932  1.0
  Br  Br17  1  0.48151993  0.75000000  0.32363068  1.0
  Br  Br18  1  0.18308340  0.25000000  -0.01280421  1.0
  Br  Br19  1  0.81691660  0.75000000  1.01280421  1.0
  Br  Br20  1  0.02269314  0.25000000  0.35585545  1.0
  Br  Br21  1  0.97730686  0.75000000  0.64414455  1.0
