# generated using pymatgen
data_CaSO4
_symmetry_space_group_name_H-M   'P 1'
_cell_length_a   6.42608578
_cell_length_b   6.99129473
_cell_length_c   8.19477386
_cell_angle_alpha   90.00000000
_cell_angle_beta   125.96294625
_cell_angle_gamma   90.00000000
_symmetry_Int_Tables_number   1
_chemical_formula_structural   CaSO4
_chemical_formula_sum   'Ca4 S4 O16'
_cell_volume   297.99067082
_cell_formula_units_Z   4
loop_
 _symmetry_equiv_pos_site_id
 _symmetry_equiv_pos_as_xyz
  1  'x, y, z'
loop_
 _atom_site_type_symbol
 _atom_site_label
 _atom_site_symmetry_multiplicity
 _atom_site_fract_x
 _atom_site_fract_y
 _atom_site_fract_z
 _atom_site_occupancy
  Ca  Ca0  1  0.80798545  0.84593605  0.21495867  1.0
  Ca  Ca1  1  0.80798545  0.65406395  0.71495867  1.0
  Ca  Ca2  1  0.19201455  0.34593605  0.28504133  1.0
  Ca  Ca3  1  0.19201455  0.15406395  0.78504133  1.0
  S  S4  1  0.69213236  0.33965045  0.30310744  1.0
  S  S5  1  0.69213236  0.16034955  0.80310744  1.0
  S  S6  1  0.30786764  0.83965045  0.19689256  1.0
  S  S7  1  0.30786764  0.66034955  0.69689256  1.0
  O  O8  1  0.87005477  0.16966158  0.37898193  1.0
  O  O9  1  0.87005477  0.33033842  0.87898193  1.0
  O  O10  1  0.12994523  0.66966158  0.12101807  1.0
  O  O11  1  0.12994523  0.83033842  0.62101807  1.0
  O  O12  1  0.81014884  0.49066531  0.25221100  1.0
  O  O13  1  0.81014884  0.00933469  0.75221100  1.0
  O  O14  1  0.18985116  0.99066531  0.24778900  1.0
  O  O15  1  0.18985116  0.50933469  0.74778900  1.0
  O  O16  1  0.66537069  0.40197806  0.46450466  1.0
  O  O17  1  0.66537069  0.09802194  0.96450466  1.0
  O  O18  1  0.33462931  0.90197806  0.03549534  1.0
  O  O19  1  0.33462931  0.59802194  0.53549534  1.0
  O  O20  1  0.42618904  0.29244601  0.12664502  1.0
  O  O21  1  0.42618904  0.20755399  0.62664502  1.0
  O  O22  1  0.57381096  0.79244601  0.37335498  1.0
  O  O23  1  0.57381096  0.70755399  0.87335498  1.0
