# generated using pymatgen
data_Na2Gd2Ti3O10
_symmetry_space_group_name_H-M   'P 1'
_cell_length_a   14.58226739
_cell_length_b   14.58226739
_cell_length_c   14.58226739
_cell_angle_alpha   164.92507021
_cell_angle_beta   164.92507021
_cell_angle_gamma   21.38158369
_symmetry_Int_Tables_number   1
_chemical_formula_structural   Na2Gd2Ti3O10
_chemical_formula_sum   'Na2 Gd2 Ti3 O10'
_cell_volume   209.71490829
_cell_formula_units_Z   1
loop_
 _symmetry_equiv_pos_site_id
 _symmetry_equiv_pos_as_xyz
  1  'x, y, z'
loop_
 _atom_site_type_symbol
 _atom_site_label
 _atom_site_symmetry_multiplicity
 _atom_site_fract_x
 _atom_site_fract_y
 _atom_site_fract_z
 _atom_site_occupancy
  Na  Na0  1  0.71221091  0.71221091  1.00000000  1.0
  Na  Na1  1  0.28778909  0.28778909  -0.00000000  1.0
  Gd  Gd2  1  0.57545776  0.57545776  1.00000000  1.0
  Gd  Gd3  1  0.42454224  0.42454224  0.00000000  1.0
  Ti  Ti4  1  0.85441484  0.85441484  1.00000000  1.0
  Ti  Ti5  1  0.14558516  0.14558516  0.00000000  1.0
  Ti  Ti6  1  0.00000000  0.00000000  0.00000000  1.0
  O  O7  1  0.36961521  0.86961521  0.50000000  1.0
  O  O8  1  0.63038479  0.13038479  0.50000000  1.0
  O  O9  1  0.86961521  0.36961521  0.50000000  1.0
  O  O10  1  0.13038479  0.63038479  0.50000000  1.0
  O  O11  1  0.93272851  0.93272851  1.00000000  1.0
  O  O12  1  0.06727149  0.06727149  -0.00000000  1.0
  O  O13  1  0.79299928  0.79299928  1.00000000  1.0
  O  O14  1  0.20700072  0.20700072  -0.00000000  1.0
  O  O15  1  0.50000000  0.00000000  0.50000000  1.0
  O  O16  1  0.00000000  0.50000000  0.50000000  1.0
