# generated using pymatgen
data_CaH12CO9
_symmetry_space_group_name_H-M   'P 1'
_cell_length_a   6.07395622
_cell_length_b   6.07395622
_cell_length_c   10.95659337
_cell_angle_alpha   76.60492052
_cell_angle_beta   103.39507948
_cell_angle_gamma   93.54516268
_symmetry_Int_Tables_number   1
_chemical_formula_structural   CaH12CO9
_chemical_formula_sum   'Ca2 H24 C2 O18'
_cell_volume   382.51285798
_cell_formula_units_Z   2
loop_
 _symmetry_equiv_pos_site_id
 _symmetry_equiv_pos_as_xyz
  1  'x, y, z'
loop_
 _atom_site_type_symbol
 _atom_site_label
 _atom_site_symmetry_multiplicity
 _atom_site_fract_x
 _atom_site_fract_y
 _atom_site_fract_z
 _atom_site_occupancy
  Ca  Ca0  1  0.35910002  0.35910002  0.75000000  1.0
  Ca  Ca1  1  0.64089998  0.64089998  0.25000000  1.0
  H  H2  1  1.62094675  -0.23946924  0.50096914  1.0
  H  H3  1  1.23946924  -0.62094675  1.00096914  1.0
  H  H4  1  0.76053076  0.62094675  -0.00096914  1.0
  H  H5  1  0.37905325  0.23946924  0.49903086  1.0
  H  H6  1  0.77265498  0.03895529  0.85161954  1.0
  H  H7  1  0.96104471  0.22734502  0.35161954  1.0
  H  H8  1  1.03895529  -0.22734502  0.64838046  1.0
  H  H9  1  1.22734502  -0.03895529  0.14838046  1.0
  H  H10  1  0.72083647  0.10779815  0.97435646  1.0
  H  H11  1  0.89220185  0.27916353  0.47435646  1.0
  H  H12  1  1.10779815  -0.27916353  0.52564354  1.0
  H  H13  1  1.27916353  -0.10779815  0.02564354  1.0
  H  H14  1  1.40052726  -0.15920459  0.85517687  1.0
  H  H15  1  1.15920459  -0.40052726  0.35517687  1.0
  H  H16  1  0.84079541  0.40052726  0.64482313  1.0
  H  H17  1  0.59947274  0.15920459  0.14482313  1.0
  H  H18  1  0.32178278  0.01183900  0.59296499  1.0
  H  H19  1  0.98816100  0.67821722  0.09296499  1.0
  H  H20  1  1.01183900  -0.67821722  0.90703501  1.0
  H  H21  1  1.67821722  -0.01183900  0.40703501  1.0
  H  H22  1  1.13906908  -0.11194850  0.83165812  1.0
  H  H23  1  1.11194850  -0.13906908  0.33165812  1.0
  H  H24  1  0.88805150  0.13906908  0.66834188  1.0
  H  H25  1  0.86093092  0.11194850  0.16834188  1.0
  C  C26  1  0.70349985  0.70349985  0.75000000  1.0
  C  C27  1  0.29650015  0.29650015  0.25000000  1.0
  O  O28  1  1.59275277  -0.34621810  0.84123251  1.0
  O  O29  1  1.34621810  -0.59275277  0.34123251  1.0
  O  O30  1  0.65378190  0.59275277  0.65876749  1.0
  O  O31  1  0.40724723  0.34621810  0.15876749  1.0
  O  O32  1  0.73716510  0.16858130  0.88405152  1.0
  O  O33  1  0.83141870  0.26283490  0.38405152  1.0
  O  O34  1  1.16858130  -0.26283490  0.61594848  1.0
  O  O35  1  1.26283490  -0.16858130  0.11594848  1.0
  O  O36  1  1.29120708  -0.05104365  0.86395329  1.0
  O  O37  1  1.05104365  -0.29120708  0.36395329  1.0
  O  O38  1  0.94895635  0.29120708  0.63604671  1.0
  O  O39  1  0.70879292  0.05104365  0.13604671  1.0
  O  O40  1  0.39772206  0.16102406  0.59105155  1.0
  O  O41  1  0.83897594  0.60227794  0.09105155  1.0
  O  O42  1  1.16102406  -0.60227794  0.90894845  1.0
  O  O43  1  1.60227794  -0.16102406  0.40894845  1.0
  O  O44  1  0.85916671  0.85916671  0.75000000  1.0
  O  O45  1  0.14083329  0.14083329  0.25000000  1.0
