# generated using pymatgen
data_Y4CdPd
_symmetry_space_group_name_H-M   'P 1'
_cell_length_a   9.72098292
_cell_length_b   9.72098292
_cell_length_c   9.72098292
_cell_angle_alpha   60.00000000
_cell_angle_beta   60.00000000
_cell_angle_gamma   60.00000000
_symmetry_Int_Tables_number   1
_chemical_formula_structural   Y4CdPd
_chemical_formula_sum   'Y16 Cd4 Pd4'
_cell_volume   649.55441908
_cell_formula_units_Z   4
loop_
 _symmetry_equiv_pos_site_id
 _symmetry_equiv_pos_as_xyz
  1  'x, y, z'
loop_
 _atom_site_type_symbol
 _atom_site_label
 _atom_site_symmetry_multiplicity
 _atom_site_fract_x
 _atom_site_fract_y
 _atom_site_fract_z
 _atom_site_occupancy
  Y  Y0  1  -0.35382711  0.64617289  0.64617289  1.0
  Y  Y1  1  1.06148133  0.64617289  -0.35382711  1.0
  Y  Y2  1  -0.35382711  0.64617289  1.06148133  1.0
  Y  Y3  1  0.64617289  1.06148133  -0.35382711  1.0
  Y  Y4  1  0.06546053  0.43453947  0.43453947  1.0
  Y  Y5  1  0.43453947  0.43453947  0.06546053  1.0
  Y  Y6  1  0.43453947  0.06546053  0.43453947  1.0
  Y  Y7  1  0.06546053  0.06546053  0.43453947  1.0
  Y  Y8  1  0.06546053  0.43453947  0.06546053  1.0
  Y  Y9  1  0.43453947  0.06546053  0.06546053  1.0
  Y  Y10  1  -0.81015418  0.81015418  0.81015418  1.0
  Y  Y11  1  -0.18984582  0.81015418  0.18984582  1.0
  Y  Y12  1  -0.18984582  0.18984582  0.81015418  1.0
  Y  Y13  1  0.18984582  1.18984582  -0.18984582  1.0
  Y  Y14  1  0.18984582  -0.18984582  0.18984582  1.0
  Y  Y15  1  -0.18984582  0.18984582  0.18984582  1.0
  Cd  Cd16  1  0.41795554  1.41795554  0.41795554  1.0
  Cd  Cd17  1  -0.25386662  0.41795554  0.41795554  1.0
  Cd  Cd18  1  0.41795554  1.41795554  -0.25386662  1.0
  Cd  Cd19  1  0.41795554  -0.25386662  0.41795554  1.0
  Pd  Pd20  1  0.85556599  0.85556599  -0.14443401  1.0
  Pd  Pd21  1  0.43330204  0.85556599  -0.14443401  1.0
  Pd  Pd22  1  0.85556599  0.85556599  -0.56669796  1.0
  Pd  Pd23  1  0.85556599  0.43330204  -0.14443401  1.0
