# generated using pymatgen
data_HfCoSn
_symmetry_space_group_name_H-M   'P 1'
_cell_length_a   7.12818859
_cell_length_b   7.12818859
_cell_length_c   7.13939484
_cell_angle_alpha   90.00000000
_cell_angle_beta   90.00000000
_cell_angle_gamma   120.00000000
_symmetry_Int_Tables_number   1
_chemical_formula_structural   HfCoSn
_chemical_formula_sum   'Hf6 Co6 Sn6'
_cell_volume   314.15964291
_cell_formula_units_Z   6
loop_
 _symmetry_equiv_pos_site_id
 _symmetry_equiv_pos_as_xyz
  1  'x, y, z'
loop_
 _atom_site_type_symbol
 _atom_site_label
 _atom_site_symmetry_multiplicity
 _atom_site_fract_x
 _atom_site_fract_y
 _atom_site_fract_z
 _atom_site_occupancy
  Hf  Hf0  1  0.99152650  0.59920588  0.25000000  1.0
  Hf  Hf1  1  0.59920588  0.99152650  0.75000000  1.0
  Hf  Hf2  1  0.60767938  0.00847350  0.25000000  1.0
  Hf  Hf3  1  0.40079412  0.39232062  0.25000000  1.0
  Hf  Hf4  1  0.00847350  0.60767938  0.75000000  1.0
  Hf  Hf5  1  0.39232062  0.40079412  0.75000000  1.0
  Co  Co6  1  0.33333333  0.66666667  0.46432581  1.0
  Co  Co7  1  0.33333333  0.66666667  0.03567419  1.0
  Co  Co8  1  0.66666667  0.33333333  0.96432581  1.0
  Co  Co9  1  0.66666667  0.33333333  0.53567419  1.0
  Co  Co10  1  0.00000000  0.00000000  0.25000000  1.0
  Co  Co11  1  0.00000000  0.00000000  0.75000000  1.0
  Sn  Sn12  1  0.73162373  0.73162373  0.50000000  1.0
  Sn  Sn13  1  0.73162373  0.73162373  0.00000000  1.0
  Sn  Sn14  1  -0.00000000  0.26837627  0.50000000  1.0
  Sn  Sn15  1  -0.00000000  0.26837627  0.00000000  1.0
  Sn  Sn16  1  0.26837627  0.00000000  0.50000000  1.0
  Sn  Sn17  1  0.26837627  0.00000000  0.00000000  1.0
