# generated using pymatgen
data_Rb2WS4
_symmetry_space_group_name_H-M   'P 1'
_cell_length_a   9.91544581
_cell_length_b   7.11241094
_cell_length_c   12.66974840
_cell_angle_alpha   90.00000000
_cell_angle_beta   90.00000000
_cell_angle_gamma   90.00000000
_symmetry_Int_Tables_number   1
_chemical_formula_structural   Rb2WS4
_chemical_formula_sum   'Rb8 W4 S16'
_cell_volume   893.50518473
_cell_formula_units_Z   4
loop_
 _symmetry_equiv_pos_site_id
 _symmetry_equiv_pos_as_xyz
  1  'x, y, z'
loop_
 _atom_site_type_symbol
 _atom_site_label
 _atom_site_symmetry_multiplicity
 _atom_site_fract_x
 _atom_site_fract_y
 _atom_site_fract_z
 _atom_site_occupancy
  Rb  Rb0  1  0.84499983  0.75000000  0.39259535  1.0
  Rb  Rb1  1  0.34499983  0.75000000  0.10740465  1.0
  Rb  Rb2  1  0.15500017  0.25000000  0.60740465  1.0
  Rb  Rb3  1  0.65500017  0.25000000  0.89259535  1.0
  Rb  Rb4  1  0.53939204  0.75000000  0.66745290  1.0
  Rb  Rb5  1  0.03939204  0.75000000  0.83254710  1.0
  Rb  Rb6  1  0.46060796  0.25000000  0.33254710  1.0
  Rb  Rb7  1  0.96060796  0.25000000  0.16745290  1.0
  W  W8  1  0.75470594  0.75000000  0.07151200  1.0
  W  W9  1  0.25470594  0.75000000  0.42848800  1.0
  W  W10  1  0.24529406  0.25000000  0.92848800  1.0
  W  W11  1  0.74529406  0.25000000  0.57151200  1.0
  S  S12  1  0.65999971  0.00076617  0.14161396  1.0
  S  S13  1  0.65999971  0.49923383  0.14161396  1.0
  S  S14  1  0.15999971  0.00076617  0.35838604  1.0
  S  S15  1  0.15999971  0.49923383  0.35838604  1.0
  S  S16  1  0.34000029  0.50076617  0.85838604  1.0
  S  S17  1  0.34000029  0.99923383  0.85838604  1.0
  S  S18  1  0.84000029  0.50076617  0.64161396  1.0
  S  S19  1  0.84000029  0.99923383  0.64161396  1.0
  S  S20  1  0.97356519  0.75000000  0.10624616  1.0
  S  S21  1  0.47356519  0.75000000  0.39375384  1.0
  S  S22  1  0.02643481  0.25000000  0.89375384  1.0
  S  S23  1  0.52643481  0.25000000  0.60624616  1.0
  S  S24  1  0.21728979  0.75000000  0.60024262  1.0
  S  S25  1  0.71728979  0.75000000  0.89975738  1.0
  S  S26  1  0.78271021  0.25000000  0.39975738  1.0
  S  S27  1  0.28271021  0.25000000  0.10024262  1.0
