# generated using pymatgen
data_HfGeMo
_symmetry_space_group_name_H-M   'P 1'
_cell_length_a   7.00990812
_cell_length_b   3.54457722
_cell_length_c   8.34573406
_cell_angle_alpha   90.00000000
_cell_angle_beta   90.00000000
_cell_angle_gamma   90.00000000
_symmetry_Int_Tables_number   1
_chemical_formula_structural   HfGeMo
_chemical_formula_sum   'Hf4 Ge4 Mo4'
_cell_volume   207.36779497
_cell_formula_units_Z   4
loop_
 _symmetry_equiv_pos_site_id
 _symmetry_equiv_pos_as_xyz
  1  'x, y, z'
loop_
 _atom_site_type_symbol
 _atom_site_label
 _atom_site_symmetry_multiplicity
 _atom_site_fract_x
 _atom_site_fract_y
 _atom_site_fract_z
 _atom_site_occupancy
  Hf  Hf0  1  0.95102896  0.75000000  0.66669912  1.0
  Hf  Hf1  1  0.45102896  0.75000000  0.83330088  1.0
  Hf  Hf2  1  0.04897104  0.25000000  0.33330088  1.0
  Hf  Hf3  1  0.54897104  0.25000000  0.16669912  1.0
  Ge  Ge4  1  0.74801788  0.75000000  0.36154191  1.0
  Ge  Ge5  1  0.24801788  0.75000000  0.13845809  1.0
  Ge  Ge6  1  0.25198212  0.25000000  0.63845809  1.0
  Ge  Ge7  1  0.75198212  0.25000000  0.86154191  1.0
  Mo  Mo8  1  0.86859574  0.75000000  0.06207887  1.0
  Mo  Mo9  1  0.36859574  0.75000000  0.43792113  1.0
  Mo  Mo10  1  0.13140426  0.25000000  0.93792113  1.0
  Mo  Mo11  1  0.63140426  0.25000000  0.56207887  1.0
