# generated using pymatgen
data_Pt(NCl)2
_symmetry_space_group_name_H-M   'P 1'
_cell_length_a   6.20026025
_cell_length_b   6.20026025
_cell_length_c   5.59881045
_cell_angle_alpha   90.00000000
_cell_angle_beta   90.00000000
_cell_angle_gamma   90.00000000
_symmetry_Int_Tables_number   1
_chemical_formula_structural   Pt(NCl)2
_chemical_formula_sum   'Pt2 N4 Cl4'
_cell_volume   215.23634187
_cell_formula_units_Z   2
loop_
 _symmetry_equiv_pos_site_id
 _symmetry_equiv_pos_as_xyz
  1  'x, y, z'
loop_
 _atom_site_type_symbol
 _atom_site_label
 _atom_site_symmetry_multiplicity
 _atom_site_fract_x
 _atom_site_fract_y
 _atom_site_fract_z
 _atom_site_occupancy
  Pt  Pt0  1  0.00000000  0.00000000  0.50000000  1.0
  Pt  Pt1  1  0.00000000  0.00000000  0.00000000  1.0
  N  N2  1  0.99893149  0.58955535  0.50000000  1.0
  N  N3  1  0.58955535  0.00106851  0.50000000  1.0
  N  N4  1  0.00106851  0.41044465  0.50000000  1.0
  N  N5  1  0.41044465  0.99893149  0.50000000  1.0
  Cl  Cl6  1  0.69838381  0.78842387  0.00000000  1.0
  Cl  Cl7  1  0.78842387  0.30161619  -0.00000000  1.0
  Cl  Cl8  1  0.30161619  0.21157613  0.00000000  1.0
  Cl  Cl9  1  0.21157613  0.69838381  -0.00000000  1.0
