# generated using pymatgen
data_Gd2(CuSn2)3
_symmetry_space_group_name_H-M   'P 1'
_cell_length_a   13.19888921
_cell_length_b   13.19888921
_cell_length_c   13.19888921
_cell_angle_alpha   160.53530404
_cell_angle_beta   160.53530404
_cell_angle_gamma   27.66295484
_symmetry_Int_Tables_number   1
_chemical_formula_structural   Gd2(CuSn2)3
_chemical_formula_sum   'Gd2 Cu3 Sn6'
_cell_volume   255.21243457
_cell_formula_units_Z   1
loop_
 _symmetry_equiv_pos_site_id
 _symmetry_equiv_pos_as_xyz
  1  'x, y, z'
loop_
 _atom_site_type_symbol
 _atom_site_label
 _atom_site_symmetry_multiplicity
 _atom_site_fract_x
 _atom_site_fract_y
 _atom_site_fract_z
 _atom_site_occupancy
  Gd  Gd0  1  0.00039445  0.00039445  0.00000000  1.0
  Gd  Gd1  1  0.68464882  0.68464882  1.00000000  1.0
  Cu  Cu2  1  0.58734298  0.08734298  0.50000000  1.0
  Cu  Cu3  1  0.08734298  0.58734298  0.50000000  1.0
  Cu  Cu4  1  0.23763531  0.23763531  0.00000000  1.0
  Sn  Sn5  1  0.79196536  0.29196536  0.50000000  1.0
  Sn  Sn6  1  0.29196536  0.79196536  0.50000000  1.0
  Sn  Sn7  1  0.90620449  0.40620449  0.50000000  1.0
  Sn  Sn8  1  0.40620449  0.90620449  0.50000000  1.0
  Sn  Sn9  1  0.14020815  0.14020815  -0.00000000  1.0
  Sn  Sn10  1  0.52878761  0.52878761  1.00000000  1.0
