# generated using pymatgen
data_CsOs2O9
_symmetry_space_group_name_H-M   'P 1'
_cell_length_a   7.98044150
_cell_length_b   7.98044150
_cell_length_c   11.49228691
_cell_angle_alpha   71.70438868
_cell_angle_beta   108.29561132
_cell_angle_gamma   136.65750917
_symmetry_Int_Tables_number   1
_chemical_formula_structural   CsOs2O9
_chemical_formula_sum   'Cs2 Os4 O18'
_cell_volume   472.82649195
_cell_formula_units_Z   2
loop_
 _symmetry_equiv_pos_site_id
 _symmetry_equiv_pos_as_xyz
  1  'x, y, z'
loop_
 _atom_site_type_symbol
 _atom_site_label
 _atom_site_symmetry_multiplicity
 _atom_site_fract_x
 _atom_site_fract_y
 _atom_site_fract_z
 _atom_site_occupancy
  Os  Os0  1  0.84065184  0.32486822  0.63821487  1.0
  Os  Os1  1  0.67513178  0.15934816  0.13821487  1.0
  Os  Os2  1  1.39050354  0.50865159  0.52443001  1.0
  Os  Os3  1  0.49134841  -0.39050354  0.02443001  1.0
  O  O4  1  0.68044548  0.68579356  0.48853095  1.0
  O  O5  1  0.31420644  0.31955452  -0.01146905  1.0
  O  O6  1  0.78365009  0.74790441  1.01617330  1.0
  O  O7  1  0.25209559  0.21634991  0.51617330  1.0
  O  O8  1  0.70034742  0.31514535  0.73297029  1.0
  O  O9  1  0.68485465  0.29965258  0.23297029  1.0
  O  O10  1  1.08992579  0.64015309  0.61017139  1.0
  O  O11  1  0.35984691  -0.08992579  0.11017139  1.0
  O  O12  1  0.61633941  0.20418927  0.51182271  1.0
  O  O13  1  0.79581073  0.38366059  0.01182271  1.0
  O  O14  1  1.36263574  0.70294081  0.90785820  1.0
  O  O15  1  0.29705919  -0.36263574  0.40785820  1.0
  O  O16  1  0.88582595  0.14126285  0.73971508  1.0
  O  O17  1  0.85873715  0.11417405  0.23971508  1.0
  O  O18  1  1.45859035  0.56470129  0.67384996  1.0
  O  O19  1  0.43529871  -0.45859035  0.17384996  1.0
  O  O20  1  1.01071946  0.29489767  0.54753586  1.0
  O  O21  1  0.70510233  -0.01071946  0.04753586  1.0
  Cs  Cs22  1  1.09175925  0.89208622  0.81522738  1.0
  Cs  Cs23  1  0.10791378  -0.09175925  0.31522738  1.0
