# generated using pymatgen
data_NaReO2
_symmetry_space_group_name_H-M   'P 1'
_cell_length_a   7.06955810
_cell_length_b   7.06955810
_cell_length_c   7.06955810
_cell_angle_alpha   130.57563427
_cell_angle_beta   130.57563427
_cell_angle_gamma   72.48818029
_symmetry_Int_Tables_number   1
_chemical_formula_structural   NaReO2
_chemical_formula_sum   'Na4 Re4 O8'
_cell_volume   199.21494328
_cell_formula_units_Z   4
loop_
 _symmetry_equiv_pos_site_id
 _symmetry_equiv_pos_as_xyz
  1  'x, y, z'
loop_
 _atom_site_type_symbol
 _atom_site_label
 _atom_site_symmetry_multiplicity
 _atom_site_fract_x
 _atom_site_fract_y
 _atom_site_fract_z
 _atom_site_occupancy
  Na  Na0  1  0.37500000  0.62500000  0.75000000  1.0
  Na  Na1  1  0.87500000  0.62500000  1.25000000  1.0
  Na  Na2  1  0.37500000  1.12500000  0.75000000  1.0
  Na  Na3  1  0.37500000  0.62500000  0.25000000  1.0
  Re  Re4  1  0.87500000  0.12500000  0.75000000  1.0
  Re  Re5  1  0.37500000  0.12500000  0.25000000  1.0
  Re  Re6  1  0.87500000  0.62500000  0.75000000  1.0
  Re  Re7  1  0.87500000  1.12500000  1.25000000  1.0
  O  O8  1  1.17152874  0.96424624  1.79272520  1.0
  O  O9  1  0.57847897  0.87119647  1.29272520  1.0
  O  O10  1  1.03575376  0.82847897  1.20728250  1.0
  O  O11  1  1.12880353  1.42152874  1.70728250  1.0
  O  O12  1  0.17152103  0.37880353  0.20727480  1.0
  O  O13  1  0.57847126  0.28575376  0.70727480  1.0
  O  O14  1  0.62119647  0.82847126  0.79271750  1.0
  O  O15  1  0.71424624  0.42152103  0.29271750  1.0
