# generated using pymatgen
data_Ca5CdPb3
_symmetry_space_group_name_H-M   'P 1'
_cell_length_a   9.61734485
_cell_length_b   9.61734485
_cell_length_c   6.94352172
_cell_angle_alpha   90.00000000
_cell_angle_beta   90.00000000
_cell_angle_gamma   120.00000000
_symmetry_Int_Tables_number   1
_chemical_formula_structural   Ca5CdPb3
_chemical_formula_sum   'Ca10 Cd2 Pb6'
_cell_volume   556.18696717
_cell_formula_units_Z   2
loop_
 _symmetry_equiv_pos_site_id
 _symmetry_equiv_pos_as_xyz
  1  'x, y, z'
loop_
 _atom_site_type_symbol
 _atom_site_label
 _atom_site_symmetry_multiplicity
 _atom_site_fract_x
 _atom_site_fract_y
 _atom_site_fract_z
 _atom_site_occupancy
  Ca  Ca0  1  0.71568410  0.71568410  0.25000000  1.0
  Ca  Ca1  1  0.71568410  -0.00000000  0.75000000  1.0
  Ca  Ca2  1  -0.00000000  0.71568410  0.75000000  1.0
  Ca  Ca3  1  0.00000000  0.28431590  0.25000000  1.0
  Ca  Ca4  1  0.28431590  0.28431590  0.75000000  1.0
  Ca  Ca5  1  0.28431590  0.00000000  0.25000000  1.0
  Ca  Ca6  1  0.33333333  0.66666667  0.50000000  1.0
  Ca  Ca7  1  0.33333333  0.66666667  0.00000000  1.0
  Ca  Ca8  1  0.66666667  0.33333333  0.50000000  1.0
  Ca  Ca9  1  0.66666667  0.33333333  -0.00000000  1.0
  Cd  Cd10  1  0.00000000  0.00000000  0.50000000  1.0
  Cd  Cd11  1  0.00000000  0.00000000  0.00000000  1.0
  Pb  Pb12  1  0.37756571  0.37756571  0.25000000  1.0
  Pb  Pb13  1  0.37756571  0.00000000  0.75000000  1.0
  Pb  Pb14  1  -0.00000000  0.37756571  0.75000000  1.0
  Pb  Pb15  1  -0.00000000  0.62243429  0.25000000  1.0
  Pb  Pb16  1  0.62243429  0.62243429  0.75000000  1.0
  Pb  Pb17  1  0.62243429  0.00000000  0.25000000  1.0
