# generated using pymatgen
data_Ba3Sn5
_symmetry_space_group_name_H-M   'P 1'
_cell_length_a   7.19662122
_cell_length_b   7.19662122
_cell_length_c   11.29806378
_cell_angle_alpha   90.00000000
_cell_angle_beta   90.00000000
_cell_angle_gamma   78.37136673
_symmetry_Int_Tables_number   1
_chemical_formula_structural   Ba3Sn5
_chemical_formula_sum   'Ba6 Sn10'
_cell_volume   573.13180226
_cell_formula_units_Z   2
loop_
 _symmetry_equiv_pos_site_id
 _symmetry_equiv_pos_as_xyz
  1  'x, y, z'
loop_
 _atom_site_type_symbol
 _atom_site_label
 _atom_site_symmetry_multiplicity
 _atom_site_fract_x
 _atom_site_fract_y
 _atom_site_fract_z
 _atom_site_occupancy
  Ba  Ba0  1  0.79463155  0.79463155  0.50000000  1.0
  Ba  Ba1  1  0.79463155  0.79463155  0.00000000  1.0
  Ba  Ba2  1  0.20536845  0.20536845  0.50000000  1.0
  Ba  Ba3  1  0.20536845  0.20536845  0.00000000  1.0
  Ba  Ba4  1  -0.35060806  1.35060806  0.25000000  1.0
  Ba  Ba5  1  0.35060806  0.64939194  0.75000000  1.0
  Sn  Sn6  1  0.09609148  0.51845568  0.25000000  1.0
  Sn  Sn7  1  -0.48154432  1.09609148  0.75000000  1.0
  Sn  Sn8  1  0.48154432  0.90390852  0.25000000  1.0
  Sn  Sn9  1  -0.09609148  1.48154432  0.75000000  1.0
  Sn  Sn10  1  0.30657997  0.69342003  0.43951600  1.0
  Sn  Sn11  1  0.30657997  0.69342003  0.06048400  1.0
  Sn  Sn12  1  -0.30657997  1.30657997  0.93951600  1.0
  Sn  Sn13  1  -0.30657997  1.30657997  0.56048400  1.0
  Sn  Sn14  1  0.05104497  0.94895503  0.25000000  1.0
  Sn  Sn15  1  -0.05104497  1.05104497  0.75000000  1.0
