# generated using pymatgen
data_Ba2Zn3(AsO)2
_symmetry_space_group_name_H-M   'P 1'
_cell_length_a   10.43704717
_cell_length_b   10.43704717
_cell_length_c   10.43704717
_cell_angle_alpha   156.71670743
_cell_angle_beta   156.71670743
_cell_angle_gamma   33.16241066
_symmetry_Int_Tables_number   1
_chemical_formula_structural   Ba2Zn3(AsO)2
_chemical_formula_sum   'Ba2 Zn3 As2 O2'
_cell_volume   177.47855571
_cell_formula_units_Z   1
loop_
 _symmetry_equiv_pos_site_id
 _symmetry_equiv_pos_as_xyz
  1  'x, y, z'
loop_
 _atom_site_type_symbol
 _atom_site_label
 _atom_site_symmetry_multiplicity
 _atom_site_fract_x
 _atom_site_fract_y
 _atom_site_fract_z
 _atom_site_occupancy
  Ba  Ba0  1  0.58890971  0.58890971  1.00000000  1.0
  Ba  Ba1  1  0.41109029  0.41109029  -0.00000000  1.0
  Zn  Zn2  1  0.25000000  0.75000000  0.50000000  1.0
  Zn  Zn3  1  0.75000000  0.25000000  0.50000000  1.0
  Zn  Zn4  1  0.00000000  0.00000000  0.00000000  1.0
  As  As5  1  0.82566133  0.82566133  1.00000000  1.0
  As  As6  1  0.17433867  0.17433867  -0.00000000  1.0
  O  O7  1  0.50000000  0.00000000  0.50000000  1.0
  O  O8  1  -0.00000000  0.50000000  0.50000000  1.0
