# generated using pymatgen
data_BaCrO3
_symmetry_space_group_name_H-M   'P 1'
_cell_length_a   5.69799287
_cell_length_b   5.69799287
_cell_length_c   9.30552294
_cell_angle_alpha   90.00000000
_cell_angle_beta   90.00000000
_cell_angle_gamma   120.00000000
_symmetry_Int_Tables_number   1
_chemical_formula_structural   BaCrO3
_chemical_formula_sum   'Ba4 Cr4 O12'
_cell_volume   261.64667435
_cell_formula_units_Z   4
loop_
 _symmetry_equiv_pos_site_id
 _symmetry_equiv_pos_as_xyz
  1  'x, y, z'
loop_
 _atom_site_type_symbol
 _atom_site_label
 _atom_site_symmetry_multiplicity
 _atom_site_fract_x
 _atom_site_fract_y
 _atom_site_fract_z
 _atom_site_occupancy
  Ba  Ba0  1  0.00000000  0.00000000  0.50000000  1.0
  Ba  Ba1  1  0.00000000  0.00000000  0.00000000  1.0
  Ba  Ba2  1  0.33333333  0.66666667  0.75000000  1.0
  Ba  Ba3  1  0.66666667  0.33333333  0.25000000  1.0
  Cr  Cr4  1  0.33333333  0.66666667  0.38815686  1.0
  Cr  Cr5  1  0.33333333  0.66666667  0.11184314  1.0
  Cr  Cr6  1  0.66666667  0.33333333  0.88815686  1.0
  Cr  Cr7  1  0.66666667  0.33333333  0.61184314  1.0
  O  O8  1  0.50000000  0.50000000  0.50000000  1.0
  O  O9  1  0.50000000  0.50000000  0.00000000  1.0
  O  O10  1  0.50000000  0.00000000  0.50000000  1.0
  O  O11  1  0.50000000  0.00000000  0.00000000  1.0
  O  O12  1  -0.00000000  0.50000000  0.50000000  1.0
  O  O13  1  -0.00000000  0.50000000  0.00000000  1.0
  O  O14  1  0.18700585  0.81299415  0.25000000  1.0
  O  O15  1  0.18700585  0.37401170  0.25000000  1.0
  O  O16  1  0.81299415  0.18700585  0.75000000  1.0
  O  O17  1  0.81299415  0.62598830  0.75000000  1.0
  O  O18  1  0.62598830  0.81299415  0.25000000  1.0
  O  O19  1  0.37401170  0.18700585  0.75000000  1.0
