# generated using pymatgen
data_Na5Cu3(PO4)4
_symmetry_space_group_name_H-M   'P 1'
_cell_length_a   5.13763092
_cell_length_b   9.37716389
_cell_length_c   8.64808812
_cell_angle_alpha   62.12839364
_cell_angle_beta   73.89279290
_cell_angle_gamma   75.84626328
_symmetry_Int_Tables_number   1
_chemical_formula_structural   Na5Cu3(PO4)4
_chemical_formula_sum   'Na5 Cu3 P4 O16'
_cell_volume   350.59625338
_cell_formula_units_Z   1
loop_
 _symmetry_equiv_pos_site_id
 _symmetry_equiv_pos_as_xyz
  1  'x, y, z'
loop_
 _atom_site_type_symbol
 _atom_site_label
 _atom_site_symmetry_multiplicity
 _atom_site_fract_x
 _atom_site_fract_y
 _atom_site_fract_z
 _atom_site_occupancy
  P  P0  1  -0.93519186  0.56387143  0.25281187  1.0
  P  P1  1  -0.06480814  0.43612857  -0.25281187  1.0
  P  P2  1  -0.28078917  0.97678926  -0.29048066  1.0
  P  P3  1  -0.71921083  0.02321074  0.29048066  1.0
  Cu  Cu4  1  -0.50000000  0.50000000  -0.50000000  1.0
  Cu  Cu5  1  -0.86720974  0.21059584  0.54545034  1.0
  Cu  Cu6  1  -0.13279026  0.78940416  -0.54545034  1.0
  O  O7  1  -0.97859707  1.00001475  -0.29855752  1.0
  O  O8  1  -0.02140293  -0.00001475  0.29855752  1.0
  O  O9  1  -0.96717257  0.73134621  0.25641363  1.0
  O  O10  1  -0.03282743  0.26865379  -0.25641363  1.0
  O  O11  1  -0.78397661  0.49950697  -0.29990124  1.0
  O  O12  1  -0.21602339  0.50049303  0.29990124  1.0
  O  O13  1  -0.79426189  0.58071620  0.06437215  1.0
  O  O14  1  -0.20573811  0.41928380  -0.06437215  1.0
  O  O15  1  -0.75664950  0.43228615  0.39922492  1.0
  O  O16  1  -0.24335050  0.56771385  -0.39922492  1.0
  O  O17  1  -0.58300678  0.86532259  -0.57946247  1.0
  O  O18  1  -0.41699322  0.13467741  0.57946247  1.0
  O  O19  1  -0.43241504  0.90997526  -0.09680213  1.0
  O  O20  1  -0.56758496  0.09002474  0.09680213  1.0
  O  O21  1  -0.24066799  0.82192062  -0.33284601  1.0
  O  O22  1  -0.75933201  0.17807938  0.33284601  1.0
  Na  Na23  1  -0.70674403  0.74915949  -0.27910733  1.0
  Na  Na24  1  -0.29325597  0.25084051  0.27910733  1.0
  Na  Na25  1  -0.33976023  0.63842017  0.01443608  1.0
  Na  Na26  1  -0.66023977  0.36157983  -0.01443608  1.0
  Na  Na27  1  0.00000000  0.00000000  0.00000000  1.0
