# generated using pymatgen
data_CaMnO3
_symmetry_space_group_name_H-M   'P 1'
_cell_length_a   7.50085399
_cell_length_b   7.50085399
_cell_length_c   7.51846451
_cell_angle_alpha   90.00000000
_cell_angle_beta   90.00000000
_cell_angle_gamma   90.00000000
_symmetry_Int_Tables_number   1
_chemical_formula_structural   CaMnO3
_chemical_formula_sum   'Ca8 Mn8 O24'
_cell_volume   423.00994401
_cell_formula_units_Z   8
loop_
 _symmetry_equiv_pos_site_id
 _symmetry_equiv_pos_as_xyz
  1  'x, y, z'
loop_
 _atom_site_type_symbol
 _atom_site_label
 _atom_site_symmetry_multiplicity
 _atom_site_fract_x
 _atom_site_fract_y
 _atom_site_fract_z
 _atom_site_occupancy
  Ca  Ca0  1  0.00000000  0.00000000  0.50000000  1.0
  Ca  Ca1  1  0.50000000  0.50000000  0.00000000  1.0
  Ca  Ca2  1  0.00000000  0.00000000  0.00000000  1.0
  Ca  Ca3  1  0.50000000  0.50000000  0.50000000  1.0
  Ca  Ca4  1  0.00000000  0.50000000  0.02333484  1.0
  Ca  Ca5  1  0.00000000  0.50000000  0.52333484  1.0
  Ca  Ca6  1  0.50000000  0.00000000  0.47666516  1.0
  Ca  Ca7  1  0.50000000  0.00000000  0.97666516  1.0
  Mn  Mn8  1  0.75000000  0.25000000  0.25000000  1.0
  Mn  Mn9  1  0.25000000  0.25000000  0.25000000  1.0
  Mn  Mn10  1  0.75000000  0.75000000  0.25000000  1.0
  Mn  Mn11  1  0.25000000  0.75000000  0.25000000  1.0
  Mn  Mn12  1  0.75000000  0.25000000  0.75000000  1.0
  Mn  Mn13  1  0.25000000  0.25000000  0.75000000  1.0
  Mn  Mn14  1  0.75000000  0.75000000  0.75000000  1.0
  Mn  Mn15  1  0.25000000  0.75000000  0.75000000  1.0
  O  O16  1  0.71853380  0.28146620  0.00000000  1.0
  O  O17  1  0.28146620  0.28146620  0.00000000  1.0
  O  O18  1  0.71853380  0.71853380  0.00000000  1.0
  O  O19  1  0.28146620  0.71853380  0.00000000  1.0
  O  O20  1  0.78146620  0.21853380  0.50000000  1.0
  O  O21  1  0.21853380  0.21853380  0.50000000  1.0
  O  O22  1  0.78146620  0.78146620  0.50000000  1.0
  O  O23  1  0.21853380  0.78146620  0.50000000  1.0
  O  O24  1  0.79535919  0.50000000  0.27982549  1.0
  O  O25  1  0.20464081  0.50000000  0.27982549  1.0
  O  O26  1  0.00000000  0.29535919  0.77982549  1.0
  O  O27  1  0.00000000  0.70464081  0.77982549  1.0
  O  O28  1  0.70464081  0.00000000  0.22017451  1.0
  O  O29  1  0.29535919  0.00000000  0.22017451  1.0
  O  O30  1  0.50000000  0.20464081  0.72017451  1.0
  O  O31  1  0.50000000  0.79535919  0.72017451  1.0
  O  O32  1  0.71119436  0.50000000  0.71656616  1.0
  O  O33  1  0.28880564  0.50000000  0.71656616  1.0
  O  O34  1  0.00000000  0.21119436  0.21656616  1.0
  O  O35  1  0.00000000  0.78880564  0.21656616  1.0
  O  O36  1  0.78880564  0.00000000  0.78343384  1.0
  O  O37  1  0.21119436  0.00000000  0.78343384  1.0
  O  O38  1  0.50000000  0.28880564  0.28343384  1.0
  O  O39  1  0.50000000  0.71119436  0.28343384  1.0
