# generated using pymatgen
data_TiAs2O7
_symmetry_space_group_name_H-M   'P 1'
_cell_length_a   5.24342796
_cell_length_b   13.22411846
_cell_length_c   9.86675061
_cell_angle_alpha   90.00000000
_cell_angle_beta   120.91876871
_cell_angle_gamma   90.00000000
_symmetry_Int_Tables_number   1
_chemical_formula_structural   TiAs2O7
_chemical_formula_sum   'Ti4 As8 O28'
_cell_volume   586.93654667
_cell_formula_units_Z   4
loop_
 _symmetry_equiv_pos_site_id
 _symmetry_equiv_pos_as_xyz
  1  'x, y, z'
loop_
 _atom_site_type_symbol
 _atom_site_label
 _atom_site_symmetry_multiplicity
 _atom_site_fract_x
 _atom_site_fract_y
 _atom_site_fract_z
 _atom_site_occupancy
  Ti  Ti0  1  0.63343976  0.15189779  0.34464490  1.0
  Ti  Ti1  1  0.63343976  0.34810221  0.84464490  1.0
  Ti  Ti2  1  0.36656024  0.65189779  0.15535510  1.0
  Ti  Ti3  1  0.36656024  0.84810221  0.65535510  1.0
  As  As4  1  0.88199825  0.48349012  0.18953384  1.0
  As  As5  1  0.88199825  0.01650988  0.68953384  1.0
  As  As6  1  0.11800175  0.98349012  0.31046616  1.0
  As  As7  1  0.11800175  0.51650988  0.81046616  1.0
  As  As8  1  0.22655000  0.30866661  0.44018390  1.0
  As  As9  1  0.22655000  0.19133339  0.94018390  1.0
  As  As10  1  0.77345000  0.80866661  0.05981610  1.0
  As  As11  1  0.77345000  0.69133339  0.55981610  1.0
  O  O12  1  0.97030195  0.07275675  0.37680695  1.0
  O  O13  1  0.97030195  0.42724325  0.87680695  1.0
  O  O14  1  0.02969805  0.57275675  0.12319305  1.0
  O  O15  1  0.02969805  0.92724325  0.62319305  1.0
  O  O16  1  0.89781445  0.27330559  0.42390619  1.0
  O  O17  1  0.89781445  0.22669441  0.92390619  1.0
  O  O18  1  0.10218555  0.77330559  0.07609381  1.0
  O  O19  1  0.10218555  0.72669441  0.57609381  1.0
  O  O20  1  0.81167253  0.93730347  0.12823395  1.0
  O  O21  1  0.81167253  0.56269653  0.62823395  1.0
  O  O22  1  0.18832747  0.43730347  0.37176605  1.0
  O  O23  1  0.18832747  0.06269653  0.87176605  1.0
  O  O24  1  0.72517122  0.38370948  0.06117011  1.0
  O  O25  1  0.72517122  0.11629052  0.56117011  1.0
  O  O26  1  0.27482878  0.88370948  0.43882989  1.0
  O  O27  1  0.27482878  0.61629052  0.93882989  1.0
  O  O28  1  0.52349091  0.18047824  0.12910455  1.0
  O  O29  1  0.52349091  0.31952176  0.62910455  1.0
  O  O30  1  0.47650909  0.68047824  0.37089545  1.0
  O  O31  1  0.47650909  0.81952176  0.87089545  1.0
  O  O32  1  0.35922870  0.03454209  0.26028840  1.0
  O  O33  1  0.35922870  0.46545791  0.76028840  1.0
  O  O34  1  0.64077130  0.53454209  0.23971160  1.0
  O  O35  1  0.64077130  0.96545791  0.73971160  1.0
  O  O36  1  0.31953041  0.23909982  0.32484226  1.0
  O  O37  1  0.31953041  0.26090018  0.82484226  1.0
  O  O38  1  0.68046959  0.73909982  0.17515774  1.0
  O  O39  1  0.68046959  0.76090018  0.67515774  1.0
