# generated using pymatgen
data_Mn5(SiO5)2
_symmetry_space_group_name_H-M   'P 1'
_cell_length_a   7.97724140
_cell_length_b   4.84588190
_cell_length_c   10.60817342
_cell_angle_alpha   90.00000000
_cell_angle_beta   107.19242788
_cell_angle_gamma   90.00000000
_symmetry_Int_Tables_number   1
_chemical_formula_structural   Mn5(SiO5)2
_chemical_formula_sum   'Mn10 Si4 O20'
_cell_volume   391.75439208
_cell_formula_units_Z   2
loop_
 _symmetry_equiv_pos_site_id
 _symmetry_equiv_pos_as_xyz
  1  'x, y, z'
loop_
 _atom_site_type_symbol
 _atom_site_label
 _atom_site_symmetry_multiplicity
 _atom_site_fract_x
 _atom_site_fract_y
 _atom_site_fract_z
 _atom_site_occupancy
  Mn  Mn0  1  0.78960728  0.96475465  0.16605323  1.0
  Mn  Mn1  1  0.78960728  0.53524535  0.66605323  1.0
  Mn  Mn2  1  0.21039272  0.46475465  0.33394677  1.0
  Mn  Mn3  1  0.21039272  0.03524535  0.83394677  1.0
  Mn  Mn4  1  0.57300681  0.97910968  0.39428818  1.0
  Mn  Mn5  1  0.57300681  0.52089032  0.89428818  1.0
  Mn  Mn6  1  0.42699319  0.47910968  0.10571182  1.0
  Mn  Mn7  1  0.42699319  0.02089032  0.60571182  1.0
  Mn  Mn8  1  -0.00000000  0.50000000  -0.00000000  1.0
  Mn  Mn9  1  0.00000000  -0.00000000  0.50000000  1.0
  Si  Si10  1  0.79132499  0.42060795  0.35826225  1.0
  Si  Si11  1  0.79132499  0.07939205  0.85826225  1.0
  Si  Si12  1  0.20867501  0.92060795  0.14173775  1.0
  Si  Si13  1  0.20867501  0.57939205  0.64173775  1.0
  O  O14  1  0.95987819  0.28191332  0.32139772  1.0
  O  O15  1  0.95987819  0.21808668  0.82139772  1.0
  O  O16  1  0.04012181  0.78191332  0.17860228  1.0
  O  O17  1  0.04012181  0.71808668  0.67860228  1.0
  O  O18  1  0.77629696  0.76022548  0.35449928  1.0
  O  O19  1  0.77629696  0.73977452  0.85449928  1.0
  O  O20  1  0.22370304  0.26022548  0.14550072  1.0
  O  O21  1  0.22370304  0.23977452  0.64550072  1.0
  O  O22  1  0.80922133  0.29857410  0.50748223  1.0
  O  O23  1  0.80922133  0.20142590  1.00748223  1.0
  O  O24  1  0.19077867  0.79857410  -0.00748223  1.0
  O  O25  1  0.19077867  0.70142590  0.49251777  1.0
  O  O26  1  0.61750460  0.25834890  0.25981047  1.0
  O  O27  1  0.61750460  0.24165110  0.75981047  1.0
  O  O28  1  0.38249540  0.75834890  0.24018953  1.0
  O  O29  1  0.38249540  0.74165110  0.74018953  1.0
  O  O30  1  0.40037379  0.19777473  0.43981815  1.0
  O  O31  1  0.40037379  0.30222527  0.93981815  1.0
  O  O32  1  0.59962621  0.69777473  0.06018185  1.0
  O  O33  1  0.59962621  0.80222527  0.56018185  1.0
