# generated using pymatgen
data_K2Ce(Si2O5)3
_symmetry_space_group_name_H-M   'P 1'
_cell_length_a   9.98897469
_cell_length_b   9.98897469
_cell_length_c   12.03929931
_cell_angle_alpha   52.85634787
_cell_angle_beta   127.14365213
_cell_angle_gamma   127.24553027
_symmetry_Int_Tables_number   1
_chemical_formula_structural   K2Ce(Si2O5)3
_chemical_formula_sum   'K4 Ce2 Si12 O30'
_cell_volume   706.44350464
_cell_formula_units_Z   2
loop_
 _symmetry_equiv_pos_site_id
 _symmetry_equiv_pos_as_xyz
  1  'x, y, z'
loop_
 _atom_site_type_symbol
 _atom_site_label
 _atom_site_symmetry_multiplicity
 _atom_site_fract_x
 _atom_site_fract_y
 _atom_site_fract_z
 _atom_site_occupancy
  K  K0  1  1.59566028  -0.24806915  0.50106909  1.0
  K  K1  1  1.24806915  0.40433972  1.00106909  1.0
  K  K2  1  0.75193085  -0.40433972  -0.00106909  1.0
  K  K3  1  0.40433972  0.24806915  0.49893091  1.0
  Ce  Ce4  1  0.33134379  0.33134379  0.75000000  1.0
  Ce  Ce5  1  0.66865621  0.66865621  0.25000000  1.0
  Si  Si6  1  1.87326363  0.06366913  0.72586037  1.0
  Si  Si7  1  0.93633087  -0.87326363  0.22586037  1.0
  Si  Si8  1  1.06366913  0.87326363  0.77413963  1.0
  Si  Si9  1  0.12673637  -0.06366913  0.27413963  1.0
  Si  Si10  1  0.59968054  -0.07195907  0.85393915  1.0
  Si  Si11  1  1.07195907  -0.59968054  0.35393915  1.0
  Si  Si12  1  0.92804093  0.59968054  0.64606085  1.0
  Si  Si13  1  1.40031946  0.07195907  0.14606085  1.0
  Si  Si14  1  0.30321250  -0.24797215  0.62408316  1.0
  Si  Si15  1  1.24797215  -0.30321250  0.12408316  1.0
  Si  Si16  1  0.75202785  0.30321250  0.87591684  1.0
  Si  Si17  1  1.69678750  0.24797215  0.37591684  1.0
  O  O18  1  0.56360667  -0.25518568  0.99765862  1.0
  O  O19  1  1.25518568  -0.56360667  0.49765862  1.0
  O  O20  1  0.74481432  0.56360667  0.50234138  1.0
  O  O21  1  1.43639333  0.25518568  0.00234138  1.0
  O  O22  1  0.77867340  -0.03164038  0.84322476  1.0
  O  O23  1  1.03164038  -0.77867340  0.34322476  1.0
  O  O24  1  0.96835962  0.77867340  0.65677524  1.0
  O  O25  1  1.22132660  0.03164038  0.15677524  1.0
  O  O26  1  1.40739518  -0.37834832  0.70539080  1.0
  O  O27  1  1.37834832  -0.40739518  0.20539080  1.0
  O  O28  1  0.62165168  0.40739518  0.79460920  1.0
  O  O29  1  0.59260482  0.37834832  0.29460920  1.0
  O  O30  1  1.72779610  0.13049111  0.55487108  1.0
  O  O31  1  0.86950889  -0.72779610  0.05487108  1.0
  O  O32  1  1.13049111  0.72779610  0.94512892  1.0
  O  O33  1  0.27220390  -0.13049111  0.44512892  1.0
  O  O34  1  0.63280461  0.10790527  0.85616300  1.0
  O  O35  1  0.89209473  -0.63280461  0.35616300  1.0
  O  O36  1  1.10790527  0.63280461  0.64383700  1.0
  O  O37  1  1.36719539  -0.10790527  0.14383700  1.0
  O  O38  1  0.42282546  -0.09273177  0.69718282  1.0
  O  O39  1  1.09273177  -0.42282546  0.19718282  1.0
  O  O40  1  0.90726823  0.42282546  0.80281718  1.0
  O  O41  1  1.57717454  0.09273177  0.30281718  1.0
  O  O42  1  0.22620886  0.06723707  0.74219832  1.0
  O  O43  1  0.93276293  0.77379114  0.24219832  1.0
  O  O44  1  1.06723707  -0.77379114  0.75780168  1.0
  O  O45  1  1.77379114  -0.06723707  0.25780168  1.0
  O  O46  1  0.89265653  0.89265653  0.75000000  1.0
  O  O47  1  0.10734347  0.10734347  0.25000000  1.0
