# generated using pymatgen
data_Li3B7O12
_symmetry_space_group_name_H-M   'P 1'
_cell_length_a   8.61430846
_cell_length_b   7.97208349
_cell_length_c   6.55315289
_cell_angle_alpha   99.02704438
_cell_angle_beta   104.91841949
_cell_angle_gamma   91.08100997
_symmetry_Int_Tables_number   1
_chemical_formula_structural   Li3B7O12
_chemical_formula_sum   'Li6 B14 O24'
_cell_volume   428.64727227
_cell_formula_units_Z   2
loop_
 _symmetry_equiv_pos_site_id
 _symmetry_equiv_pos_as_xyz
  1  'x, y, z'
loop_
 _atom_site_type_symbol
 _atom_site_label
 _atom_site_symmetry_multiplicity
 _atom_site_fract_x
 _atom_site_fract_y
 _atom_site_fract_z
 _atom_site_occupancy
  Li  Li0  1  -0.69659004  -0.42276310  -0.98395908  1.0
  Li  Li1  1  -0.30340996  -0.57723690  -0.01604092  1.0
  Li  Li2  1  -0.68232199  -0.80687508  -0.51443958  1.0
  Li  Li3  1  -0.31767801  -0.19312492  -0.48556042  1.0
  Li  Li4  1  -0.96683765  -0.69644832  -0.28069326  1.0
  Li  Li5  1  -0.03316235  -0.30355168  -0.71930674  1.0
  B  B6  1  -0.77129056  -0.77272444  -0.93880650  1.0
  B  B7  1  -0.22870944  -0.22727556  -0.06119350  1.0
  B  B8  1  -0.71467917  -0.07127791  -0.88411606  1.0
  B  B9  1  -0.28532083  -0.92872209  -0.11588394  1.0
  B  B10  1  -0.95821432  -0.62920519  -0.74549794  1.0
  B  B11  1  -0.04178568  -0.37079481  -0.25450206  1.0
  B  B12  1  -0.49080335  -0.64060564  -0.71617088  1.0
  B  B13  1  -0.50919665  -0.35939436  -0.28382912  1.0
  B  B14  1  -0.30836936  -0.79268262  -0.45806234  1.0
  B  B15  1  -0.69163064  -0.20731738  -0.54193766  1.0
  B  B16  1  -0.79842984  -0.45961463  -0.40525119  1.0
  B  B17  1  -0.20157016  -0.54038537  -0.59474881  1.0
  B  B18  1  -0.73164660  -0.99515269  -0.23155162  1.0
  B  B19  1  -0.26835340  -0.00484731  -0.76844838  1.0
  O  O20  1  -0.92424279  -0.69433522  -0.93454332  1.0
  O  O21  1  -0.07575721  -0.30566478  -0.06545668  1.0
  O  O22  1  -0.30661142  -0.89014882  -0.90984775  1.0
  O  O23  1  -0.69338858  -0.10985118  -0.09015225  1.0
  O  O24  1  -0.63804278  -0.63809887  -0.86136564  1.0
  O  O25  1  -0.36195722  -0.36190113  -0.13863436  1.0
  O  O26  1  -0.75122795  -0.91096012  -0.81247987  1.0
  O  O27  1  -0.24877205  -0.08903988  -0.18752013  1.0
  O  O28  1  -0.69598507  -0.20208434  -0.76998075  1.0
  O  O29  1  -0.30401493  -0.79791566  -0.23001925  1.0
  O  O30  1  -0.36680961  -0.53450620  -0.72894567  1.0
  O  O31  1  -0.63319039  -0.46549380  -0.27105433  1.0
  O  O32  1  -0.28558303  -0.96795496  -0.56577492  1.0
  O  O33  1  -0.71441697  -0.03204504  -0.43422508  1.0
  O  O34  1  -0.46971928  -0.74073229  -0.55978606  1.0
  O  O35  1  -0.53028072  -0.25926771  -0.44021394  1.0
  O  O36  1  -0.84869789  -0.63074180  -0.54759194  1.0
  O  O37  1  -0.15130211  -0.36925820  -0.45240806  1.0
  O  O38  1  -0.82051895  -0.32597395  -0.53470565  1.0
  O  O39  1  -0.17948105  -0.67402605  -0.46529435  1.0
  O  O40  1  -0.89535764  -0.44277516  -0.24017949  1.0
  O  O41  1  -0.10464236  -0.55722484  -0.75982051  1.0
  O  O42  1  -0.78529327  -0.83841937  -0.16904752  1.0
  O  O43  1  -0.21470673  -0.16158063  -0.83095248  1.0
