# generated using pymatgen
data_Sr(NiB)2
_symmetry_space_group_name_H-M   'P 1'
_cell_length_a   6.27352486
_cell_length_b   13.33743252
_cell_length_c   3.27150837
_cell_angle_alpha   90.00000000
_cell_angle_beta   90.00000000
_cell_angle_gamma   90.00000000
_symmetry_Int_Tables_number   1
_chemical_formula_structural   Sr(NiB)2
_chemical_formula_sum   'Sr4 Ni8 B8'
_cell_volume   273.73598566
_cell_formula_units_Z   4
loop_
 _symmetry_equiv_pos_site_id
 _symmetry_equiv_pos_as_xyz
  1  'x, y, z'
loop_
 _atom_site_type_symbol
 _atom_site_label
 _atom_site_symmetry_multiplicity
 _atom_site_fract_x
 _atom_site_fract_y
 _atom_site_fract_z
 _atom_site_occupancy
  Sr  Sr0  1  0.63746728  0.39743509  0.50000000  1.0
  Sr  Sr1  1  0.36253272  0.60256491  0.50000000  1.0
  Sr  Sr2  1  0.86253272  0.89743509  0.00000000  1.0
  Sr  Sr3  1  0.13746728  0.10256491  0.00000000  1.0
  Ni  Ni4  1  0.68780353  0.13209528  0.50000000  1.0
  Ni  Ni5  1  0.31219647  0.86790472  0.50000000  1.0
  Ni  Ni6  1  0.81219647  0.63209528  -0.00000000  1.0
  Ni  Ni7  1  0.18780353  0.36790472  -0.00000000  1.0
  Ni  Ni8  1  0.63098941  0.75843088  0.50000000  1.0
  Ni  Ni9  1  0.36901059  0.24156912  0.50000000  1.0
  Ni  Ni10  1  0.86901059  0.25843088  -0.00000000  1.0
  Ni  Ni11  1  0.13098941  0.74156912  -0.00000000  1.0
  B  B12  1  0.06901983  0.44605960  0.50000000  1.0
  B  B13  1  0.93098017  0.55394040  0.50000000  1.0
  B  B14  1  0.43098017  0.94605960  -0.00000000  1.0
  B  B15  1  0.56901983  0.05394040  -0.00000000  1.0
  B  B16  1  0.05479394  0.30998288  0.50000000  1.0
  B  B17  1  0.94520606  0.69001712  0.50000000  1.0
  B  B18  1  0.44520606  0.80998288  -0.00000000  1.0
  B  B19  1  0.55479394  0.19001712  -0.00000000  1.0
