# generated using pymatgen
data_NaBrO3
_symmetry_space_group_name_H-M   'P 1'
_cell_length_a   6.84109253
_cell_length_b   6.84109253
_cell_length_c   6.84109253
_cell_angle_alpha   90.00000000
_cell_angle_beta   90.00000000
_cell_angle_gamma   90.00000000
_symmetry_Int_Tables_number   1
_chemical_formula_structural   NaBrO3
_chemical_formula_sum   'Na4 Br4 O12'
_cell_volume   320.16687216
_cell_formula_units_Z   4
loop_
 _symmetry_equiv_pos_site_id
 _symmetry_equiv_pos_as_xyz
  1  'x, y, z'
loop_
 _atom_site_type_symbol
 _atom_site_label
 _atom_site_symmetry_multiplicity
 _atom_site_fract_x
 _atom_site_fract_y
 _atom_site_fract_z
 _atom_site_occupancy
  Na  Na0  1  0.42373427  0.92373427  0.57626573  1.0
  Na  Na1  1  0.92373427  0.57626573  0.42373427  1.0
  Na  Na2  1  0.57626573  0.42373427  0.92373427  1.0
  Na  Na3  1  0.07626573  0.07626573  0.07626573  1.0
  Br  Br4  1  0.09284086  0.59284086  0.90715914  1.0
  Br  Br5  1  0.59284086  0.90715914  0.09284086  1.0
  Br  Br6  1  0.90715914  0.09284086  0.59284086  1.0
  Br  Br7  1  0.40715914  0.40715914  0.40715914  1.0
  O  O8  1  0.49155941  0.78654329  0.90077337  1.0
  O  O9  1  0.99155941  0.71345671  0.09922663  1.0
  O  O10  1  0.28654329  0.59922663  0.50844059  1.0
  O  O11  1  0.78654329  0.90077337  0.49155941  1.0
  O  O12  1  0.09922663  0.99155941  0.71345671  1.0
  O  O13  1  0.59922663  0.50844059  0.28654329  1.0
  O  O14  1  0.50844059  0.28654329  0.59922663  1.0
  O  O15  1  0.00844059  0.21345671  0.40077337  1.0
  O  O16  1  0.71345671  0.09922663  0.99155941  1.0
  O  O17  1  0.21345671  0.40077337  0.00844059  1.0
  O  O18  1  0.90077337  0.49155941  0.78654329  1.0
  O  O19  1  0.40077337  0.00844059  0.21345671  1.0
