# generated using pymatgen
data_Mg2Ga
_symmetry_space_group_name_H-M   'P 1'
_cell_length_a   7.77795925
_cell_length_b   7.77795925
_cell_length_c   6.94957509
_cell_angle_alpha   90.00000000
_cell_angle_beta   90.00000000
_cell_angle_gamma   120.00000000
_symmetry_Int_Tables_number   1
_chemical_formula_structural   Mg2Ga
_chemical_formula_sum   'Mg12 Ga6'
_cell_volume   364.09960752
_cell_formula_units_Z   6
loop_
 _symmetry_equiv_pos_site_id
 _symmetry_equiv_pos_as_xyz
  1  'x, y, z'
loop_
 _atom_site_type_symbol
 _atom_site_label
 _atom_site_symmetry_multiplicity
 _atom_site_fract_x
 _atom_site_fract_y
 _atom_site_fract_z
 _atom_site_occupancy
  Mg  Mg0  1  0.98097808  0.60778246  0.25000000  1.0
  Mg  Mg1  1  0.60778246  0.98097808  0.75000000  1.0
  Mg  Mg2  1  0.62680438  0.01902192  0.25000000  1.0
  Mg  Mg3  1  0.39221754  0.37319562  0.25000000  1.0
  Mg  Mg4  1  0.01902192  0.62680438  0.75000000  1.0
  Mg  Mg5  1  0.37319562  0.39221754  0.75000000  1.0
  Mg  Mg6  1  0.72221461  0.72221461  0.50000000  1.0
  Mg  Mg7  1  0.72221461  0.72221461  0.00000000  1.0
  Mg  Mg8  1  -0.00000000  0.27778539  0.50000000  1.0
  Mg  Mg9  1  -0.00000000  0.27778539  0.00000000  1.0
  Mg  Mg10  1  0.27778539  0.00000000  0.50000000  1.0
  Mg  Mg11  1  0.27778539  0.00000000  0.00000000  1.0
  Ga  Ga12  1  0.33333333  0.66666667  0.47049445  1.0
  Ga  Ga13  1  0.33333333  0.66666667  0.02950555  1.0
  Ga  Ga14  1  0.66666667  0.33333333  0.97049445  1.0
  Ga  Ga15  1  0.66666667  0.33333333  0.52950555  1.0
  Ga  Ga16  1  0.00000000  0.00000000  0.25000000  1.0
  Ga  Ga17  1  0.00000000  0.00000000  0.75000000  1.0
