# generated using pymatgen
data_YNiSO7
_symmetry_space_group_name_H-M   'P 1'
_cell_length_a   6.16211808
_cell_length_b   6.38312094
_cell_length_c   12.64792490
_cell_angle_alpha   90.00000000
_cell_angle_beta   90.00000000
_cell_angle_gamma   90.00000000
_symmetry_Int_Tables_number   1
_chemical_formula_structural   YNiSO7
_chemical_formula_sum   'Y4 Ni4 S4 O28'
_cell_volume   497.48772235
_cell_formula_units_Z   4
loop_
 _symmetry_equiv_pos_site_id
 _symmetry_equiv_pos_as_xyz
  1  'x, y, z'
loop_
 _atom_site_type_symbol
 _atom_site_label
 _atom_site_symmetry_multiplicity
 _atom_site_fract_x
 _atom_site_fract_y
 _atom_site_fract_z
 _atom_site_occupancy
  Ni  Ni0  1  0.97098935  0.74636868  0.01020607  1.0
  Ni  Ni1  1  0.02901065  0.24636868  0.48979393  1.0
  Ni  Ni2  1  0.52901065  0.25363132  0.51020607  1.0
  Ni  Ni3  1  0.47098935  0.75363132  0.98979393  1.0
  O  O4  1  0.97178019  0.03369792  1.01312502  1.0
  O  O5  1  0.02821981  0.53369792  0.48687498  1.0
  O  O6  1  0.52821981  0.96630208  0.51312502  1.0
  O  O7  1  0.47178019  0.46630208  -0.01312502  1.0
  O  O8  1  0.50531194  0.68132135  0.72013454  1.0
  O  O9  1  0.49468806  1.18132135  0.77986546  1.0
  O  O10  1  0.99468806  0.31867865  0.22013454  1.0
  O  O11  1  0.00531194  -0.18132135  0.27986546  1.0
  O  O12  1  0.19965144  0.47949760  0.78796629  1.0
  O  O13  1  0.80034856  0.97949760  0.71203371  1.0
  O  O14  1  0.30034856  0.52050240  0.28796629  1.0
  O  O15  1  0.69965144  0.02050240  0.21203371  1.0
  O  O16  1  0.13600171  0.76400618  0.66806974  1.0
  O  O17  1  0.86399829  0.26400618  0.83193026  1.0
  O  O18  1  0.36399829  0.23599382  0.16806974  1.0
  O  O19  1  0.63600171  0.73599382  0.33193026  1.0
  O  O20  1  0.73579618  0.74437109  0.92803365  1.0
  O  O21  1  0.26420382  0.24437109  0.57196635  1.0
  O  O22  1  0.76420382  0.25562891  0.42803365  1.0
  O  O23  1  0.23579618  0.75562891  0.07196635  1.0
  O  O24  1  0.99735784  0.46289041  0.00273978  1.0
  O  O25  1  0.00264216  0.96289041  0.49726022  1.0
  O  O26  1  0.50264216  0.53710959  0.50273978  1.0
  O  O27  1  0.49735784  0.03710959  0.99726022  1.0
  O  O28  1  0.25549963  0.83149287  0.85119949  1.0
  O  O29  1  0.74450037  0.33149287  0.64880051  1.0
  O  O30  1  0.24450037  0.16850713  0.35119949  1.0
  O  O31  1  0.75549963  0.66850713  0.14880051  1.0
  Y  Y32  1  0.22543004  0.22756584  0.91088729  1.0
  Y  Y33  1  0.77456996  0.72756584  0.58911271  1.0
  Y  Y34  1  0.27456996  0.77243416  0.41088729  1.0
  Y  Y35  1  0.72543004  0.27243416  0.08911271  1.0
  S  S36  1  0.27712070  0.68605866  0.75376761  1.0
  S  S37  1  0.72287930  0.18605866  0.74623239  1.0
  S  S38  1  0.22287930  0.31394134  0.25376761  1.0
  S  S39  1  0.77712070  0.81394134  0.24623239  1.0
