# generated using pymatgen
data_NaLiCO4
_symmetry_space_group_name_H-M   'P 1'
_cell_length_a   9.04865947
_cell_length_b   9.04865947
_cell_length_c   3.46894489
_cell_angle_alpha   90.00000000
_cell_angle_beta   90.00000000
_cell_angle_gamma   120.00000000
_symmetry_Int_Tables_number   1
_chemical_formula_structural   NaLiCO4
_chemical_formula_sum   'Na3 Li3 C3 O12'
_cell_volume   245.97814495
_cell_formula_units_Z   3
loop_
 _symmetry_equiv_pos_site_id
 _symmetry_equiv_pos_as_xyz
  1  'x, y, z'
loop_
 _atom_site_type_symbol
 _atom_site_label
 _atom_site_symmetry_multiplicity
 _atom_site_fract_x
 _atom_site_fract_y
 _atom_site_fract_z
 _atom_site_occupancy
  Na  Na0  1  0.25976240  0.30133646  0.50000000  1.0
  Na  Na1  1  1.04157406  0.74023760  0.50000000  1.0
  Na  Na2  1  0.69866354  -0.04157406  0.50000000  1.0
  Li  Li3  1  0.64353146  0.65692169  -0.00000000  1.0
  Li  Li4  1  1.01339023  0.35646854  -0.00000000  1.0
  Li  Li5  1  0.34307831  -0.01339023  -0.00000000  1.0
  C  C6  1  0.00000000  0.00000000  0.00000000  1.0
  C  C7  1  0.33333333  0.66666667  0.50000000  1.0
  C  C8  1  0.66666667  0.33333333  0.00000000  1.0
  O  O9  1  0.83849078  0.88660154  -0.00000000  1.0
  O  O10  1  0.04811076  0.16150922  -0.00000000  1.0
  O  O11  1  0.11339846  0.95188924  0.00000000  1.0
  O  O12  1  0.47099145  0.65312252  0.50000000  1.0
  O  O13  1  0.18213107  0.52900855  0.50000000  1.0
  O  O14  1  0.34687748  0.81786893  0.50000000  1.0
  O  O15  1  0.38068198  0.22596764  0.00000000  1.0
  O  O16  1  0.84528566  0.61931802  -0.00000000  1.0
  O  O17  1  0.77403236  0.15471434  0.00000000  1.0
  O  O18  1  0.55389711  0.38138057  -0.00000000  1.0
  O  O19  1  0.82748346  0.44610289  -0.00000000  1.0
  O  O20  1  0.61861943  0.17251654  0.00000000  1.0
