# generated using pymatgen
data_VO2
_symmetry_space_group_name_H-M   'P 1'
_cell_length_a   7.29169163
_cell_length_b   7.29169163
_cell_length_c   7.29169163
_cell_angle_alpha   92.18513200
_cell_angle_beta   92.18513200
_cell_angle_gamma   157.47956597
_symmetry_Int_Tables_number   1
_chemical_formula_structural   VO2
_chemical_formula_sum   'V4 O8'
_cell_volume   145.63199962
_cell_formula_units_Z   4
loop_
 _symmetry_equiv_pos_site_id
 _symmetry_equiv_pos_as_xyz
  1  'x, y, z'
loop_
 _atom_site_type_symbol
 _atom_site_label
 _atom_site_symmetry_multiplicity
 _atom_site_fract_x
 _atom_site_fract_y
 _atom_site_fract_z
 _atom_site_occupancy
  V  V0  1  0.63705580  0.82220540  1.45926119  1.0
  V  V1  1  0.82220540  1.36294420  1.18514960  1.0
  V  V2  1  0.36294420  0.17779460  0.54073881  1.0
  V  V3  1  1.17779460  0.63705580  0.81485040  1.0
  O  O4  1  0.84342392  0.79691334  0.64033726  1.0
  O  O5  1  0.79691334  0.15657608  0.95348943  1.0
  O  O6  1  1.15657608  1.20308666  1.35966274  1.0
  O  O7  1  0.20308666  0.84342392  1.04651057  1.0
  O  O8  1  0.83821985  0.54364288  0.38186274  1.0
  O  O9  1  0.54364288  0.16178015  0.70542303  1.0
  O  O10  1  1.16178015  1.45635712  1.61813726  1.0
  O  O11  1  0.45635712  0.83821985  1.29457697  1.0
