# generated using pymatgen
data_SrMg4
_symmetry_space_group_name_H-M   'P 1'
_cell_length_a   10.42679325
_cell_length_b   10.42679325
_cell_length_c   27.95108160
_cell_angle_alpha   90.00000000
_cell_angle_beta   90.00000000
_cell_angle_gamma   120.00000000
_symmetry_Int_Tables_number   1
_chemical_formula_structural   SrMg4
_chemical_formula_sum   'Sr18 Mg72'
_cell_volume   2631.66602884
_cell_formula_units_Z   18
loop_
 _symmetry_equiv_pos_site_id
 _symmetry_equiv_pos_as_xyz
  1  'x, y, z'
loop_
 _atom_site_type_symbol
 _atom_site_label
 _atom_site_symmetry_multiplicity
 _atom_site_fract_x
 _atom_site_fract_y
 _atom_site_fract_z
 _atom_site_occupancy
  Sr  Sr0  1  0.13668198  0.86331802  0.43710963  1.0
  Sr  Sr1  1  0.13668198  0.86331802  0.06289037  1.0
  Sr  Sr2  1  0.13668198  0.27336397  0.43710963  1.0
  Sr  Sr3  1  0.13668198  0.27336397  0.06289037  1.0
  Sr  Sr4  1  0.86331802  0.13668198  0.93710963  1.0
  Sr  Sr5  1  0.86331802  0.13668198  0.56289037  1.0
  Sr  Sr6  1  0.86331802  0.72663603  0.93710963  1.0
  Sr  Sr7  1  0.86331802  0.72663603  0.56289037  1.0
  Sr  Sr8  1  0.72663603  0.86331802  0.43710963  1.0
  Sr  Sr9  1  0.72663603  0.86331802  0.06289037  1.0
  Sr  Sr10  1  0.27336397  0.13668198  0.93710963  1.0
  Sr  Sr11  1  0.27336397  0.13668198  0.56289037  1.0
  Sr  Sr12  1  0.51471514  0.48528486  0.25000000  1.0
  Sr  Sr13  1  0.51471514  0.02943027  0.25000000  1.0
  Sr  Sr14  1  0.48528486  0.51471514  0.75000000  1.0
  Sr  Sr15  1  0.48528486  0.97056973  0.75000000  1.0
  Sr  Sr16  1  0.97056973  0.48528486  0.25000000  1.0
  Sr  Sr17  1  0.02943027  0.51471514  0.75000000  1.0
  Mg  Mg18  1  0.17474957  0.82525043  0.84613057  1.0
  Mg  Mg19  1  0.17474957  0.82525043  0.65386943  1.0
  Mg  Mg20  1  0.17474957  0.34949914  0.84613057  1.0
  Mg  Mg21  1  0.17474957  0.34949914  0.65386943  1.0
  Mg  Mg22  1  0.82525043  0.17474957  0.34613057  1.0
  Mg  Mg23  1  0.82525043  0.17474957  0.15386943  1.0
  Mg  Mg24  1  0.82525043  0.65050086  0.34613057  1.0
  Mg  Mg25  1  0.82525043  0.65050086  0.15386943  1.0
  Mg  Mg26  1  0.65050086  0.82525043  0.84613057  1.0
  Mg  Mg27  1  0.65050086  0.82525043  0.65386943  1.0
  Mg  Mg28  1  0.34949914  0.17474957  0.34613057  1.0
  Mg  Mg29  1  0.34949914  0.17474957  0.15386943  1.0
  Mg  Mg30  1  0.16849949  0.83150051  0.31142411  1.0
  Mg  Mg31  1  0.16849949  0.83150051  0.18857589  1.0
  Mg  Mg32  1  0.16849949  0.33699899  0.31142411  1.0
  Mg  Mg33  1  0.16849949  0.33699899  0.18857589  1.0
  Mg  Mg34  1  0.83150051  0.16849949  0.81142411  1.0
  Mg  Mg35  1  0.83150051  0.16849949  0.68857589  1.0
  Mg  Mg36  1  0.83150051  0.66300101  0.81142411  1.0
  Mg  Mg37  1  0.83150051  0.66300101  0.68857589  1.0
  Mg  Mg38  1  0.66300101  0.83150051  0.31142411  1.0
  Mg  Mg39  1  0.66300101  0.83150051  0.18857589  1.0
  Mg  Mg40  1  0.33699899  0.16849949  0.81142411  1.0
  Mg  Mg41  1  0.33699899  0.16849949  0.68857589  1.0
  Mg  Mg42  1  0.23271393  0.76728607  0.94609943  1.0
  Mg  Mg43  1  0.23271393  0.76728607  0.55390057  1.0
  Mg  Mg44  1  0.23271393  0.46542786  0.94609943  1.0
  Mg  Mg45  1  0.23271393  0.46542786  0.55390057  1.0
  Mg  Mg46  1  0.76728607  0.23271393  0.44609943  1.0
  Mg  Mg47  1  0.76728607  0.23271393  0.05390057  1.0
  Mg  Mg48  1  0.76728607  0.53457214  0.44609943  1.0
  Mg  Mg49  1  0.76728607  0.53457214  0.05390057  1.0
  Mg  Mg50  1  0.53457214  0.76728607  0.94609943  1.0
  Mg  Mg51  1  0.53457214  0.76728607  0.55390057  1.0
  Mg  Mg52  1  0.46542786  0.23271393  0.44609943  1.0
  Mg  Mg53  1  0.46542786  0.23271393  0.05390057  1.0
  Mg  Mg54  1  0.49132563  0.50867437  0.38260640  1.0
  Mg  Mg55  1  0.49132563  0.50867437  0.11739360  1.0
  Mg  Mg56  1  0.49132563  -0.01734874  0.38260640  1.0
  Mg  Mg57  1  0.49132563  -0.01734874  0.11739360  1.0
  Mg  Mg58  1  0.50867437  0.49132563  0.88260640  1.0
  Mg  Mg59  1  0.50867437  0.49132563  0.61739360  1.0
  Mg  Mg60  1  0.50867437  0.01734874  0.88260640  1.0
  Mg  Mg61  1  0.50867437  0.01734874  0.61739360  1.0
  Mg  Mg62  1  0.01734874  0.50867437  0.38260640  1.0
  Mg  Mg63  1  0.01734874  0.50867437  0.11739360  1.0
  Mg  Mg64  1  -0.01734874  0.49132563  0.88260640  1.0
  Mg  Mg65  1  -0.01734874  0.49132563  0.61739360  1.0
  Mg  Mg66  1  0.89941272  0.10058728  0.25000000  1.0
  Mg  Mg67  1  0.89941272  0.79882545  0.25000000  1.0
  Mg  Mg68  1  0.10058728  0.89941272  0.75000000  1.0
  Mg  Mg69  1  0.10058728  0.20117455  0.75000000  1.0
  Mg  Mg70  1  0.20117455  0.10058728  0.25000000  1.0
  Mg  Mg71  1  0.79882545  0.89941272  0.75000000  1.0
  Mg  Mg72  1  0.50000000  0.50000000  0.50000000  1.0
  Mg  Mg73  1  0.50000000  0.50000000  0.00000000  1.0
  Mg  Mg74  1  0.50000000  0.00000000  0.50000000  1.0
  Mg  Mg75  1  0.50000000  0.00000000  0.00000000  1.0
  Mg  Mg76  1  -0.00000000  0.50000000  0.50000000  1.0
  Mg  Mg77  1  -0.00000000  0.50000000  0.00000000  1.0
  Mg  Mg78  1  0.33333333  0.66666667  0.45544631  1.0
  Mg  Mg79  1  0.33333333  0.66666667  0.04455369  1.0
  Mg  Mg80  1  0.66666667  0.33333333  0.95544631  1.0
  Mg  Mg81  1  0.66666667  0.33333333  0.54455369  1.0
  Mg  Mg82  1  0.33333333  0.66666667  0.33656196  1.0
  Mg  Mg83  1  0.33333333  0.66666667  0.16343804  1.0
  Mg  Mg84  1  0.66666667  0.33333333  0.83656196  1.0
  Mg  Mg85  1  0.66666667  0.33333333  0.66343804  1.0
  Mg  Mg86  1  0.00000000  0.00000000  0.34198968  1.0
  Mg  Mg87  1  0.00000000  0.00000000  0.15801032  1.0
  Mg  Mg88  1  0.00000000  0.00000000  0.84198968  1.0
  Mg  Mg89  1  0.00000000  0.00000000  0.65801032  1.0
