# generated using pymatgen
data_KSc(WO4)2
_symmetry_space_group_name_H-M   'P 1'
_cell_length_a   7.44418830
_cell_length_b   7.44418830
_cell_length_c   7.43151924
_cell_angle_alpha   61.16111962
_cell_angle_beta   118.83888038
_cell_angle_gamma   94.14922364
_symmetry_Int_Tables_number   1
_chemical_formula_structural   KSc(WO4)2
_chemical_formula_sum   'K2 Sc2 W4 O16'
_cell_volume   309.03675569
_cell_formula_units_Z   2
loop_
 _symmetry_equiv_pos_site_id
 _symmetry_equiv_pos_as_xyz
  1  'x, y, z'
loop_
 _atom_site_type_symbol
 _atom_site_label
 _atom_site_symmetry_multiplicity
 _atom_site_fract_x
 _atom_site_fract_y
 _atom_site_fract_z
 _atom_site_occupancy
  K  K0  1  0.20362665  0.20362665  0.25000000  1.0
  K  K1  1  0.79637335  0.79637335  0.75000000  1.0
  Sc  Sc2  1  0.77675510  0.77675510  0.25000000  1.0
  Sc  Sc3  1  0.22324490  0.22324490  0.75000000  1.0
  W  W4  1  0.69754938  0.30097135  0.22495988  1.0
  W  W5  1  0.69902865  0.30245062  0.72495988  1.0
  W  W6  1  1.30097135  -0.30245062  0.27504012  1.0
  W  W7  1  1.30245062  -0.30097135  0.77504012  1.0
  O  O8  1  0.61789289  0.23670688  0.44300560  1.0
  O  O9  1  0.76329312  0.38210711  0.94300560  1.0
  O  O10  1  1.23670688  -0.38210711  0.05699440  1.0
  O  O11  1  1.38210711  -0.23670688  0.55699440  1.0
  O  O12  1  1.60453219  -0.37616215  0.05094935  1.0
  O  O13  1  1.37616215  -0.60453219  0.55094935  1.0
  O  O14  1  0.62383785  0.60453219  0.44905065  1.0
  O  O15  1  0.39546781  0.37616215  0.94905065  1.0
  O  O16  1  0.75237223  0.03561224  0.29053014  1.0
  O  O17  1  0.96438776  0.24762777  0.79053014  1.0
  O  O18  1  1.03561224  -0.24762777  0.20946986  1.0
  O  O19  1  1.24762777  -0.03561224  0.70946986  1.0
  O  O20  1  1.33626863  -0.04294626  0.10333613  1.0
  O  O21  1  1.04294626  -0.33626863  0.60333613  1.0
  O  O22  1  0.95705374  0.33626863  0.39666387  1.0
  O  O23  1  0.66373137  0.04294626  0.89666387  1.0
