# generated using pymatgen
data_YNiSn
_symmetry_space_group_name_H-M   'P 1'
_cell_length_a   7.15958115
_cell_length_b   4.47480083
_cell_length_c   7.70396469
_cell_angle_alpha   90.00000000
_cell_angle_beta   90.00000000
_cell_angle_gamma   90.00000000
_symmetry_Int_Tables_number   1
_chemical_formula_structural   YNiSn
_chemical_formula_sum   'Y4 Ni4 Sn4'
_cell_volume   246.81730671
_cell_formula_units_Z   4
loop_
 _symmetry_equiv_pos_site_id
 _symmetry_equiv_pos_as_xyz
  1  'x, y, z'
loop_
 _atom_site_type_symbol
 _atom_site_label
 _atom_site_symmetry_multiplicity
 _atom_site_fract_x
 _atom_site_fract_y
 _atom_site_fract_z
 _atom_site_occupancy
  Y  Y0  1  0.98694192  0.75000000  0.70161977  1.0
  Y  Y1  1  0.48694192  0.75000000  0.79838023  1.0
  Y  Y2  1  0.01305808  0.25000000  0.29838023  1.0
  Y  Y3  1  0.51305808  0.25000000  0.20161977  1.0
  Ni  Ni4  1  0.70077928  0.75000000  0.41425852  1.0
  Ni  Ni5  1  0.20077928  0.75000000  0.08574148  1.0
  Ni  Ni6  1  0.29922072  0.25000000  0.58574148  1.0
  Ni  Ni7  1  0.79922072  0.25000000  0.91425852  1.0
  Sn  Sn8  1  0.81086159  0.75000000  0.08661604  1.0
  Sn  Sn9  1  0.31086159  0.75000000  0.41338396  1.0
  Sn  Sn10  1  0.18913841  0.25000000  0.91338396  1.0
  Sn  Sn11  1  0.68913841  0.25000000  0.58661604  1.0
