# generated using pymatgen
data_Ba2CoF6
_symmetry_space_group_name_H-M   'P 1'
_cell_length_a   8.67063356
_cell_length_b   8.67063356
_cell_length_c   8.67063356
_cell_angle_alpha   152.17471067
_cell_angle_beta   152.17471067
_cell_angle_gamma   39.75822159
_symmetry_Int_Tables_number   1
_chemical_formula_structural   Ba2CoF6
_chemical_formula_sum   'Ba2 Co1 F6'
_cell_volume   141.75955664
_cell_formula_units_Z   1
loop_
 _symmetry_equiv_pos_site_id
 _symmetry_equiv_pos_as_xyz
  1  'x, y, z'
loop_
 _atom_site_type_symbol
 _atom_site_label
 _atom_site_symmetry_multiplicity
 _atom_site_fract_x
 _atom_site_fract_y
 _atom_site_fract_z
 _atom_site_occupancy
  Ba  Ba0  1  0.65160795  0.65160795  1.00000000  1.0
  Ba  Ba1  1  0.34839205  0.34839205  0.00000000  1.0
  Co  Co2  1  0.00000000  0.00000000  0.00000000  1.0
  F  F3  1  0.87926828  0.87926828  1.00000000  1.0
  F  F4  1  0.12073172  0.12073172  0.00000000  1.0
  F  F5  1  0.25000000  0.75000000  0.50000000  1.0
  F  F6  1  0.75000000  0.25000000  0.50000000  1.0
  F  F7  1  0.50000000  0.00000000  0.50000000  1.0
  F  F8  1  0.00000000  0.50000000  0.50000000  1.0
