# generated using pymatgen
data_Ba2AlH7
_symmetry_space_group_name_H-M   'P 1'
_cell_length_a   8.78202958
_cell_length_b   8.78202958
_cell_length_c   8.57222155
_cell_angle_alpha   70.04660271
_cell_angle_beta   109.95339729
_cell_angle_gamma   108.39562474
_symmetry_Int_Tables_number   1
_chemical_formula_structural   Ba2AlH7
_chemical_formula_sum   'Ba8 Al4 H28'
_cell_volume   569.10550978
_cell_formula_units_Z   4
loop_
 _symmetry_equiv_pos_site_id
 _symmetry_equiv_pos_as_xyz
  1  'x, y, z'
loop_
 _atom_site_type_symbol
 _atom_site_label
 _atom_site_symmetry_multiplicity
 _atom_site_fract_x
 _atom_site_fract_y
 _atom_site_fract_z
 _atom_site_occupancy
  Ba  Ba0  1  1.74138014  -0.07124359  0.98269273  1.0
  Ba  Ba1  1  1.07124359  -0.74138014  0.48269273  1.0
  Ba  Ba2  1  0.92875641  0.74138014  0.51730727  1.0
  Ba  Ba3  1  0.25861986  0.07124359  0.01730727  1.0
  Ba  Ba4  1  0.56643118  0.28050385  0.47871947  1.0
  Ba  Ba5  1  0.71949615  0.43356882  0.97871947  1.0
  Ba  Ba6  1  1.28050385  -0.43356882  0.02128053  1.0
  Ba  Ba7  1  1.43356882  -0.28050385  0.52128053  1.0
  Al  Al8  1  0.68053574  0.03163291  0.30001125  1.0
  Al  Al9  1  0.96836709  0.31946426  0.80001125  1.0
  Al  Al10  1  1.03163291  -0.31946426  0.19998875  1.0
  Al  Al11  1  1.31946426  -0.03163291  0.69998875  1.0
  H  H12  1  0.87595586  0.03846450  0.28412352  1.0
  H  H13  1  0.96153550  0.12404414  0.78412352  1.0
  H  H14  1  1.03846450  -0.12404414  0.21587648  1.0
  H  H15  1  1.12404414  -0.03846450  0.71587648  1.0
  H  H16  1  1.61968590  -0.17727247  0.27791368  1.0
  H  H17  1  1.17727247  -0.61968590  0.77791368  1.0
  H  H18  1  0.82272753  0.61968590  0.22208632  1.0
  H  H19  1  0.38031410  0.17727247  0.72208632  1.0
  H  H20  1  0.75369656  0.23675170  0.31747032  1.0
  H  H21  1  0.76324830  0.24630344  0.81747032  1.0
  H  H22  1  1.23675170  -0.24630344  0.18252968  1.0
  H  H23  1  1.24630344  -0.23675170  0.68252968  1.0
  H  H24  1  0.60738645  0.10591615  0.07801020  1.0
  H  H25  1  0.89408385  0.39261355  0.57801020  1.0
  H  H26  1  1.10591615  -0.39261355  0.42198980  1.0
  H  H27  1  1.39261355  -0.10591615  0.92198980  1.0
  H  H28  1  0.48706048  0.01851125  0.32602317  1.0
  H  H29  1  0.98148875  0.51293952  0.82602317  1.0
  H  H30  1  1.01851125  -0.51293952  0.17397683  1.0
  H  H31  1  1.51293952  -0.01851125  0.67397683  1.0
  H  H32  1  0.25358291  0.05435123  0.47732394  1.0
  H  H33  1  0.94564877  0.74641709  0.97732394  1.0
  H  H34  1  1.05435123  -0.74641709  0.02267606  1.0
  H  H35  1  1.74641709  -0.05435123  0.52267606  1.0
  H  H36  1  1.33862072  -0.54602484  0.37474474  1.0
  H  H37  1  1.54602484  -0.33862072  0.87474474  1.0
  H  H38  1  0.45397516  0.33862072  0.12525526  1.0
  H  H39  1  0.66137928  0.54602484  0.62525526  1.0
