# generated using pymatgen
data_B5Mo2
_symmetry_space_group_name_H-M   'P 1'
_cell_length_a   7.34610962
_cell_length_b   7.34610962
_cell_length_c   7.34610962
_cell_angle_alpha   24.20422910
_cell_angle_beta   24.20422910
_cell_angle_gamma   24.20422910
_symmetry_Int_Tables_number   1
_chemical_formula_structural   B5Mo2
_chemical_formula_sum   'B5 Mo2'
_cell_volume   58.56759180
_cell_formula_units_Z   1
loop_
 _symmetry_equiv_pos_site_id
 _symmetry_equiv_pos_as_xyz
  1  'x, y, z'
loop_
 _atom_site_type_symbol
 _atom_site_label
 _atom_site_symmetry_multiplicity
 _atom_site_fract_x
 _atom_site_fract_y
 _atom_site_fract_z
 _atom_site_occupancy
  B  B0  1  0.00000000  -0.00000000  0.00000000  1.0
  B  B1  1  0.83137744  0.83137744  0.83137744  1.0
  B  B2  1  1.16862256  1.16862256  0.16862256  1.0
  B  B3  1  0.68462073  0.68462073  0.68462073  1.0
  B  B4  1  1.31537927  1.31537927  0.31537927  1.0
  Mo  Mo5  1  1.57573783  0.57573783  0.57573783  1.0
  Mo  Mo6  1  1.42426217  0.42426217  0.42426217  1.0
