# generated using pymatgen
data_NClO2
_symmetry_space_group_name_H-M   'P 1'
_cell_length_a   6.96026319
_cell_length_b   6.96026319
_cell_length_c   4.05237328
_cell_angle_alpha   90.00000000
_cell_angle_beta   90.00000000
_cell_angle_gamma   90.00000000
_symmetry_Int_Tables_number   1
_chemical_formula_structural   NClO2
_chemical_formula_sum   'N2 Cl2 O4'
_cell_volume   196.31829167
_cell_formula_units_Z   2
loop_
 _symmetry_equiv_pos_site_id
 _symmetry_equiv_pos_as_xyz
  1  'x, y, z'
loop_
 _atom_site_type_symbol
 _atom_site_label
 _atom_site_symmetry_multiplicity
 _atom_site_fract_x
 _atom_site_fract_y
 _atom_site_fract_z
 _atom_site_occupancy
  N  N0  1  0.50000000  0.50000000  -0.02128879  1.0
  N  N1  1  0.00000000  0.00000000  -0.02128879  1.0
  Cl  Cl2  1  0.50000000  0.00000000  0.29414878  1.0
  Cl  Cl3  1  0.00000000  0.50000000  0.29414878  1.0
  O  O4  1  0.12956820  0.37043180  0.48857001  1.0
  O  O5  1  0.87043180  0.62956820  0.48857001  1.0
  O  O6  1  0.37043180  0.87043180  0.48857001  1.0
  O  O7  1  0.62956820  0.12956820  0.48857001  1.0
