# generated using pymatgen
data_Ba5Lu8Ni4O21
_symmetry_space_group_name_H-M   'P 1'
_cell_length_a   10.04529051
_cell_length_b   10.04529051
_cell_length_c   10.04529051
_cell_angle_alpha   94.56511599
_cell_angle_beta   94.56511599
_cell_angle_gamma   147.22638147
_symmetry_Int_Tables_number   1
_chemical_formula_structural   Ba5Lu8Ni4O21
_chemical_formula_sum   'Ba5 Lu8 Ni4 O21'
_cell_volume   526.42033835
_cell_formula_units_Z   1
loop_
 _symmetry_equiv_pos_site_id
 _symmetry_equiv_pos_as_xyz
  1  'x, y, z'
loop_
 _atom_site_type_symbol
 _atom_site_label
 _atom_site_symmetry_multiplicity
 _atom_site_fract_x
 _atom_site_fract_y
 _atom_site_fract_z
 _atom_site_occupancy
  Ni  Ni0  1  0.95865910  0.75642957  0.71508867  1.0
  Ni  Ni1  1  0.75642957  0.04134090  0.79777047  1.0
  Ni  Ni2  1  1.04134090  1.24357043  1.28491133  1.0
  Ni  Ni3  1  0.24357043  0.95865910  1.20222953  1.0
  Lu  Lu4  1  0.75150237  0.83357964  1.58508201  1.0
  Lu  Lu5  1  0.83357964  1.24849763  1.08207727  1.0
  Lu  Lu6  1  0.24849763  0.16642036  0.41491799  1.0
  Lu  Lu7  1  1.16642036  0.75150237  0.91792273  1.0
  Lu  Lu8  1  0.58834551  0.64362906  1.23197457  1.0
  Lu  Lu9  1  0.64362906  1.41165449  1.05528355  1.0
  Lu  Lu10  1  0.41165449  0.35637094  0.76802543  1.0
  Lu  Lu11  1  1.35637094  0.58834551  0.94471645  1.0
  Ba  Ba12  1  0.86107161  0.54017395  0.40124556  1.0
  Ba  Ba13  1  0.54017395  0.13892839  0.67910235  1.0
  Ba  Ba14  1  1.13892839  1.45982605  1.59875444  1.0
  Ba  Ba15  1  0.45982605  0.86107161  1.32089765  1.0
  Ba  Ba16  1  -0.00000000  -0.00000000  -0.00000000  1.0
  O  O17  1  1.09904934  0.98808967  0.59408285  1.0
  O  O18  1  0.60599318  0.49503351  0.59408285  1.0
  O  O19  1  0.98808967  0.39400682  0.88904033  1.0
  O  O20  1  1.49503351  0.90095066  0.88904033  1.0
  O  O21  1  1.39400682  1.50496649  1.40591715  1.0
  O  O22  1  0.90095066  1.01191033  1.40591715  1.0
  O  O23  1  0.50496649  1.09904934  1.11095967  1.0
  O  O24  1  1.01191033  1.60599318  1.11095967  1.0
  O  O25  1  1.07297170  1.20326526  1.77201230  1.0
  O  O26  1  1.56874703  1.69904060  1.77201230  1.0
  O  O27  1  1.20326526  1.43125297  1.13029356  1.0
  O  O28  1  0.69904060  0.92702830  1.13029356  1.0
  O  O29  1  0.43125297  0.30095940  0.22798770  1.0
  O  O30  1  0.92702830  0.79673474  0.22798770  1.0
  O  O31  1  1.30095940  1.07297170  0.86970644  1.0
  O  O32  1  0.79673474  0.56874703  0.86970644  1.0
  O  O33  1  0.50000000  0.50000000  -0.00000000  1.0
  O  O34  1  0.63297165  0.96042645  1.59339810  1.0
  O  O35  1  0.96042645  1.36702835  1.32745479  1.0
  O  O36  1  0.36702835  0.03957355  0.40660190  1.0
  O  O37  1  1.03957355  0.63297165  0.67254521  1.0
