# generated using pymatgen
data_Na2Cu2P2O7F2
_symmetry_space_group_name_H-M   'P 1'
_cell_length_a   8.36096590
_cell_length_b   8.36096590
_cell_length_c   9.65792641
_cell_angle_alpha   80.27834157
_cell_angle_beta   99.72165843
_cell_angle_gamma   146.02731707
_symmetry_Int_Tables_number   1
_chemical_formula_structural   Na2Cu2P2O7F2
_chemical_formula_sum   'Na4 Cu4 P4 O14 F4'
_cell_volume   371.34190159
_cell_formula_units_Z   2
loop_
 _symmetry_equiv_pos_site_id
 _symmetry_equiv_pos_as_xyz
  1  'x, y, z'
loop_
 _atom_site_type_symbol
 _atom_site_label
 _atom_site_symmetry_multiplicity
 _atom_site_fract_x
 _atom_site_fract_y
 _atom_site_fract_z
 _atom_site_occupancy
  Na  Na0  1  0.28731502  -0.20516138  0.87177457  1.0
  Na  Na1  1  1.20516138  0.71268498  0.37177457  1.0
  Na  Na2  1  0.79483862  0.28731502  0.62822543  1.0
  Na  Na3  1  0.71268498  0.20516138  0.12822543  1.0
  Cu  Cu4  1  0.86097569  0.03178072  0.91105641  1.0
  Cu  Cu5  1  0.96821928  0.13902431  0.41105641  1.0
  Cu  Cu6  1  1.03178072  0.86097569  0.58894359  1.0
  Cu  Cu7  1  0.13902431  -0.03178072  0.08894359  1.0
  P  P8  1  0.50783507  -0.33491783  0.64736946  1.0
  P  P9  1  1.33491783  0.49216493  0.14736946  1.0
  P  P10  1  0.66508217  0.50783507  0.85263054  1.0
  P  P11  1  0.49216493  0.33491783  0.35263054  1.0
  O  O12  1  0.75971388  -0.17464920  0.55984270  1.0
  O  O13  1  1.17464920  0.24028612  0.05984270  1.0
  O  O14  1  0.82535080  0.75971388  0.94015730  1.0
  O  O15  1  0.24028612  0.17464920  0.44015730  1.0
  O  O16  1  0.60986064  -0.12900299  0.74320581  1.0
  O  O17  1  1.12900299  0.39013936  0.24320581  1.0
  O  O18  1  0.87099701  0.60986064  0.75679419  1.0
  O  O19  1  0.39013936  0.12900299  0.25679419  1.0
  O  O20  1  0.49827601  0.23691456  0.93843992  1.0
  O  O21  1  0.76308544  0.50172399  0.43843992  1.0
  O  O22  1  1.23691456  0.49827601  0.56156008  1.0
  O  O23  1  0.50172399  -0.23691456  0.06156008  1.0
  O  O24  1  0.43350161  0.43350161  0.75000000  1.0
  O  O25  1  0.56649839  0.56649839  0.25000000  1.0
  F  F26  1  0.29975455  -0.09285814  0.60878891  1.0
  F  F27  1  1.09285814  0.70024545  0.10878891  1.0
  F  F28  1  0.90714186  0.29975455  0.89121109  1.0
  F  F29  1  0.70024545  0.09285814  0.39121109  1.0
