# generated using pymatgen
data_Sr5Sb3
_symmetry_space_group_name_H-M   'P 1'
_cell_length_a   13.59873071
_cell_length_b   10.08872941
_cell_length_c   8.78035864
_cell_angle_alpha   90.00000000
_cell_angle_beta   90.00000000
_cell_angle_gamma   90.00000000
_symmetry_Int_Tables_number   1
_chemical_formula_structural   Sr5Sb3
_chemical_formula_sum   'Sr20 Sb12'
_cell_volume   1204.61177298
_cell_formula_units_Z   4
loop_
 _symmetry_equiv_pos_site_id
 _symmetry_equiv_pos_as_xyz
  1  'x, y, z'
loop_
 _atom_site_type_symbol
 _atom_site_label
 _atom_site_symmetry_multiplicity
 _atom_site_fract_x
 _atom_site_fract_y
 _atom_site_fract_z
 _atom_site_occupancy
  Sr  Sr0  1  0.91373808  0.46229022  0.18412232  1.0
  Sr  Sr1  1  0.91373808  0.03770978  0.18412232  1.0
  Sr  Sr2  1  0.41373808  0.46229022  0.31587768  1.0
  Sr  Sr3  1  0.41373808  0.03770978  0.31587768  1.0
  Sr  Sr4  1  0.08626192  0.96229022  0.81587768  1.0
  Sr  Sr5  1  0.08626192  0.53770978  0.81587768  1.0
  Sr  Sr6  1  0.58626192  0.96229022  0.68412232  1.0
  Sr  Sr7  1  0.58626192  0.53770978  0.68412232  1.0
  Sr  Sr8  1  0.99747845  0.25000000  0.53589021  1.0
  Sr  Sr9  1  0.49747845  0.25000000  0.96410979  1.0
  Sr  Sr10  1  0.00252155  0.75000000  0.46410979  1.0
  Sr  Sr11  1  0.50252155  0.75000000  0.03589021  1.0
  Sr  Sr12  1  0.77650194  0.25000000  0.81790659  1.0
  Sr  Sr13  1  0.27650194  0.25000000  0.68209341  1.0
  Sr  Sr14  1  0.22349806  0.75000000  0.18209341  1.0
  Sr  Sr15  1  0.72349806  0.75000000  0.31790659  1.0
  Sr  Sr16  1  0.70005974  0.25000000  0.34083446  1.0
  Sr  Sr17  1  0.20005974  0.25000000  0.15916554  1.0
  Sr  Sr18  1  0.29994026  0.75000000  0.65916554  1.0
  Sr  Sr19  1  0.79994026  0.75000000  0.84083446  1.0
  Sb  Sb20  1  0.67294135  0.49192539  0.05229603  1.0
  Sb  Sb21  1  0.67294135  0.00807461  0.05229603  1.0
  Sb  Sb22  1  0.17294135  0.49192539  0.44770397  1.0
  Sb  Sb23  1  0.17294135  0.00807461  0.44770397  1.0
  Sb  Sb24  1  0.32705865  0.99192539  0.94770397  1.0
  Sb  Sb25  1  0.32705865  0.50807461  0.94770397  1.0
  Sb  Sb26  1  0.82705865  0.99192539  0.55229603  1.0
  Sb  Sb27  1  0.82705865  0.50807461  0.55229603  1.0
  Sb  Sb28  1  0.51241388  0.25000000  0.57345476  1.0
  Sb  Sb29  1  0.01241388  0.25000000  0.92654524  1.0
  Sb  Sb30  1  0.48758612  0.75000000  0.42654524  1.0
  Sb  Sb31  1  0.98758612  0.75000000  0.07345476  1.0
