# generated using pymatgen
data_K2Mo(SO)2
_symmetry_space_group_name_H-M   'P 1'
_cell_length_a   6.59745673
_cell_length_b   8.30593876
_cell_length_c   14.06223084
_cell_angle_alpha   90.00000000
_cell_angle_beta   113.94433724
_cell_angle_gamma   90.00000000
_symmetry_Int_Tables_number   1
_chemical_formula_structural   K2Mo(SO)2
_chemical_formula_sum   'K8 Mo4 S8 O8'
_cell_volume   704.26687846
_cell_formula_units_Z   4
loop_
 _symmetry_equiv_pos_site_id
 _symmetry_equiv_pos_as_xyz
  1  'x, y, z'
loop_
 _atom_site_type_symbol
 _atom_site_label
 _atom_site_symmetry_multiplicity
 _atom_site_fract_x
 _atom_site_fract_y
 _atom_site_fract_z
 _atom_site_occupancy
  K  K0  1  0.83947596  0.01287345  0.20419603  1.0
  K  K1  1  0.83947596  0.48712655  0.70419603  1.0
  K  K2  1  0.16052404  0.51287345  0.29580397  1.0
  K  K3  1  0.16052404  0.98712655  0.79580397  1.0
  K  K4  1  0.67692666  0.81641421  0.45067407  1.0
  K  K5  1  0.67692666  0.68358579  0.95067407  1.0
  K  K6  1  0.32307334  0.31641421  0.04932593  1.0
  K  K7  1  0.32307334  0.18358579  0.54932593  1.0
  Mo  Mo8  1  0.72886978  0.29619718  0.41644993  1.0
  Mo  Mo9  1  0.72886978  0.20380282  0.91644993  1.0
  Mo  Mo10  1  0.27113022  0.79619718  0.08355007  1.0
  Mo  Mo11  1  0.27113022  0.70380282  0.58355007  1.0
  S  S12  1  0.84589014  0.33040034  0.07097043  1.0
  S  S13  1  0.84589014  0.16959966  0.57097043  1.0
  S  S14  1  0.15410986  0.83040034  0.42902957  1.0
  S  S15  1  0.15410986  0.66959966  0.92902957  1.0
  S  S16  1  0.44315223  0.16019669  0.30226348  1.0
  S  S17  1  0.44315223  0.33980331  0.80226348  1.0
  S  S18  1  0.55684777  0.66019669  0.19773652  1.0
  S  S19  1  0.55684777  0.83980331  0.69773652  1.0
  O  O20  1  0.94693788  0.29966525  0.37493528  1.0
  O  O21  1  0.94693788  0.20033475  0.87493528  1.0
  O  O22  1  0.05306212  0.79966525  0.12506472  1.0
  O  O23  1  0.05306212  0.70033475  0.62506472  1.0
  O  O24  1  0.64013472  0.48968702  0.42976969  1.0
  O  O25  1  0.64013472  0.01031298  0.92976969  1.0
  O  O26  1  0.35986528  0.98968702  0.07023031  1.0
  O  O27  1  0.35986528  0.51031298  0.57023031  1.0
