# generated using pymatgen
data_Na2Ca3Si3O10
_symmetry_space_group_name_H-M   'P 1'
_cell_length_a   8.67065327
_cell_length_b   8.67065327
_cell_length_c   11.42616654
_cell_angle_alpha   86.51129343
_cell_angle_beta   93.48870657
_cell_angle_gamma   145.15374652
_symmetry_Int_Tables_number   1
_chemical_formula_structural   Na2Ca3Si3O10
_chemical_formula_sum   'Na4 Ca6 Si6 O20'
_cell_volume   489.82541719
_cell_formula_units_Z   2
loop_
 _symmetry_equiv_pos_site_id
 _symmetry_equiv_pos_as_xyz
  1  'x, y, z'
loop_
 _atom_site_type_symbol
 _atom_site_label
 _atom_site_symmetry_multiplicity
 _atom_site_fract_x
 _atom_site_fract_y
 _atom_site_fract_z
 _atom_site_occupancy
  Na  Na0  1  0.31484813  0.22369210  0.96557516  1.0
  Na  Na1  1  0.77630790  0.68515187  0.46557516  1.0
  Na  Na2  1  1.22369210  0.31484813  0.53442484  1.0
  Na  Na3  1  0.68515187  -0.22369210  0.03442484  1.0
  Ca  Ca4  1  0.41972826  0.11250957  0.70689936  1.0
  Ca  Ca5  1  0.88749043  0.58027174  0.20689936  1.0
  Ca  Ca6  1  1.11250957  0.41972826  0.79310064  1.0
  Ca  Ca7  1  0.58027174  -0.11250957  0.29310064  1.0
  Ca  Ca8  1  0.50000000  0.00000000  -0.00000000  1.0
  Ca  Ca9  1  1.00000000  0.50000000  0.50000000  1.0
  Si  Si10  1  0.65977995  -0.03684837  0.60342453  1.0
  Si  Si11  1  1.03684837  0.34022005  0.10342453  1.0
  Si  Si12  1  0.96315163  0.65977995  0.89657547  1.0
  Si  Si13  1  0.34022005  0.03684837  0.39657547  1.0
  Si  Si14  1  0.70217873  0.70217873  0.75000000  1.0
  Si  Si15  1  0.29782127  0.29782127  0.25000000  1.0
  O  O16  1  0.49054572  -0.42303826  0.84821932  1.0
  O  O17  1  1.42303826  0.50945428  0.34821932  1.0
  O  O18  1  0.57696174  0.49054572  0.65178068  1.0
  O  O19  1  0.50945428  0.42303826  0.15178068  1.0
  O  O20  1  0.84463630  -0.02038199  0.68541030  1.0
  O  O21  1  1.02038199  0.15536370  0.18541030  1.0
  O  O22  1  0.97961801  0.84463630  0.81458970  1.0
  O  O23  1  0.15536370  0.02038199  0.31458970  1.0
  O  O24  1  0.79528909  0.08096187  0.47345335  1.0
  O  O25  1  0.91903813  0.20471091  0.97345335  1.0
  O  O26  1  1.08096187  0.79528909  0.02654665  1.0
  O  O27  1  0.20471091  -0.08096187  0.52654665  1.0
  O  O28  1  0.73867451  0.19121505  0.66299057  1.0
  O  O29  1  0.80878495  0.26132549  0.16299057  1.0
  O  O30  1  1.19121505  0.73867451  0.83700943  1.0
  O  O31  1  0.26132549  -0.19121505  0.33700943  1.0
  O  O32  1  0.65603150  0.34285335  0.89073367  1.0
  O  O33  1  0.65714665  0.34396850  0.39073367  1.0
  O  O34  1  0.34285335  -0.34396850  0.60926633  1.0
  O  O35  1  1.34396850  0.65714665  0.10926633  1.0
