# generated using pymatgen
data_Zr3InF15
_symmetry_space_group_name_H-M   'P 1'
_cell_length_a   8.02347708
_cell_length_b   8.02347708
_cell_length_c   8.02347708
_cell_angle_alpha   99.99090195
_cell_angle_beta   99.99090195
_cell_angle_gamma   99.99090195
_symmetry_Int_Tables_number   1
_chemical_formula_structural   Zr3InF15
_chemical_formula_sum   'Zr6 In2 F30'
_cell_volume   489.81259993
_cell_formula_units_Z   2
loop_
 _symmetry_equiv_pos_site_id
 _symmetry_equiv_pos_as_xyz
  1  'x, y, z'
loop_
 _atom_site_type_symbol
 _atom_site_label
 _atom_site_symmetry_multiplicity
 _atom_site_fract_x
 _atom_site_fract_y
 _atom_site_fract_z
 _atom_site_occupancy
  Zr  Zr0  1  0.67951426  1.25000000  -0.17951426  1.0
  Zr  Zr1  1  1.17951426  0.32048574  -0.25000000  1.0
  Zr  Zr2  1  0.75000000  0.17951426  0.32048574  1.0
  Zr  Zr3  1  1.25000000  0.82048574  -0.32048574  1.0
  Zr  Zr4  1  1.32048574  -0.25000000  0.17951426  1.0
  Zr  Zr5  1  0.82048574  0.67951426  0.25000000  1.0
  In  In6  1  0.25000000  0.25000000  0.25000000  1.0
  In  In7  1  0.75000000  0.75000000  0.75000000  1.0
  F  F8  1  1.17531447  0.55010396  -0.34747009  1.0
  F  F9  1  0.67531447  0.15252991  0.05010396  1.0
  F  F10  1  0.84747009  0.94989604  0.32468553  1.0
  F  F11  1  1.34747009  -0.17531447  0.44989604  1.0
  F  F12  1  1.44989604  0.34747009  -0.17531447  1.0
  F  F13  1  0.94989604  1.32468553  -0.15252991  1.0
  F  F14  1  0.82468553  0.44989604  0.34747009  1.0
  F  F15  1  1.32468553  0.84747009  -0.05010396  1.0
  F  F16  1  0.65252991  1.17531447  -0.44989604  1.0
  F  F17  1  1.15252991  0.05010396  -0.32468553  1.0
  F  F18  1  1.05010396  -0.32468553  0.15252991  1.0
  F  F19  1  0.55010396  0.65252991  0.17531447  1.0
  F  F20  1  0.96276209  0.25000000  0.53723791  1.0
  F  F21  1  0.46276209  1.03723791  -0.25000000  1.0
  F  F22  1  0.75000000  0.46276209  0.03723791  1.0
  F  F23  1  1.25000000  0.53723791  -0.03723791  1.0
  F  F24  1  1.03723791  0.75000000  -0.53723791  1.0
  F  F25  1  1.53723791  -0.03723791  0.25000000  1.0
  F  F26  1  1.28185378  -0.47924238  0.28277510  1.0
  F  F27  1  0.78185378  0.78277510  0.02075762  1.0
  F  F28  1  1.21722490  -0.02075762  0.21814622  1.0
  F  F29  1  0.71722490  0.71814622  0.47924238  1.0
  F  F30  1  1.47924238  0.71722490  -0.28185378  1.0
  F  F31  1  0.97924238  0.21814622  0.21722490  1.0
  F  F32  1  0.71814622  1.47924238  -0.28277510  1.0
  F  F33  1  1.21814622  0.21722490  -0.02075762  1.0
  F  F34  1  1.28277510  0.28185378  -0.47924238  1.0
  F  F35  1  0.78277510  1.02075762  -0.21814622  1.0
  F  F36  1  1.02075762  0.78185378  -0.21722490  1.0
  F  F37  1  0.52075762  0.28277510  0.28185378  1.0
