# generated using pymatgen
data_SrSi
_symmetry_space_group_name_H-M   'P 1'
_cell_length_a   6.17760446
_cell_length_b   6.17760446
_cell_length_c   4.04570275
_cell_angle_alpha   90.00000000
_cell_angle_beta   90.00000000
_cell_angle_gamma   134.11551114
_symmetry_Int_Tables_number   1
_chemical_formula_structural   SrSi
_chemical_formula_sum   'Sr2 Si2'
_cell_volume   110.84625640
_cell_formula_units_Z   2
loop_
 _symmetry_equiv_pos_site_id
 _symmetry_equiv_pos_as_xyz
  1  'x, y, z'
loop_
 _atom_site_type_symbol
 _atom_site_label
 _atom_site_symmetry_multiplicity
 _atom_site_fract_x
 _atom_site_fract_y
 _atom_site_fract_z
 _atom_site_occupancy
  Sr  Sr0  1  0.36087492  0.63912508  0.75000000  1.0
  Sr  Sr1  1  -0.36087492  0.36087492  0.25000000  1.0
  Si  Si2  1  0.06399084  0.93600916  0.75000000  1.0
  Si  Si3  1  -0.06399084  0.06399084  0.25000000  1.0
