# generated using pymatgen
data_Ca3Ga5
_symmetry_space_group_name_H-M   'P 1'
_cell_length_a   5.84924315
_cell_length_b   5.84924315
_cell_length_c   15.05478705
_cell_angle_alpha   90.00000000
_cell_angle_beta   90.00000000
_cell_angle_gamma   135.11034375
_symmetry_Int_Tables_number   1
_chemical_formula_structural   Ca3Ga5
_chemical_formula_sum   'Ca6 Ga10'
_cell_volume   363.51385225
_cell_formula_units_Z   2
loop_
 _symmetry_equiv_pos_site_id
 _symmetry_equiv_pos_as_xyz
  1  'x, y, z'
loop_
 _atom_site_type_symbol
 _atom_site_label
 _atom_site_symmetry_multiplicity
 _atom_site_fract_x
 _atom_site_fract_y
 _atom_site_fract_z
 _atom_site_occupancy
  Ca  Ca0  1  0.08803437  0.91196563  0.89031747  1.0
  Ca  Ca1  1  0.08803437  0.91196563  0.60968253  1.0
  Ca  Ca2  1  -0.08803437  0.08803437  0.39031747  1.0
  Ca  Ca3  1  -0.08803437  0.08803437  0.10968253  1.0
  Ca  Ca4  1  0.36856069  0.63143931  0.75000000  1.0
  Ca  Ca5  1  -0.36856069  0.36856069  0.25000000  1.0
  Ga  Ga6  1  0.20840123  0.79159877  0.39998871  1.0
  Ga  Ga7  1  0.20840123  0.79159877  0.10001129  1.0
  Ga  Ga8  1  -0.20840123  0.20840123  0.89998871  1.0
  Ga  Ga9  1  -0.20840123  0.20840123  0.60001129  1.0
  Ga  Ga10  1  0.38407400  0.61592600  0.96616397  1.0
  Ga  Ga11  1  0.38407400  0.61592600  0.53383603  1.0
  Ga  Ga12  1  -0.38407400  0.38407400  0.46616397  1.0
  Ga  Ga13  1  -0.38407400  0.38407400  0.03383603  1.0
  Ga  Ga14  1  -0.33905569  0.33905569  0.75000000  1.0
  Ga  Ga15  1  0.33905569  0.66094431  0.25000000  1.0
