# generated using pymatgen
data_Na2HSNO3
_symmetry_space_group_name_H-M   'P 1'
_cell_length_a   8.23150355
_cell_length_b   17.10296400
_cell_length_c   5.94042562
_cell_angle_alpha   90.00000000
_cell_angle_beta   90.00000000
_cell_angle_gamma   90.00000000
_symmetry_Int_Tables_number   1
_chemical_formula_structural   Na2HSNO3
_chemical_formula_sum   'Na16 H8 S8 N8 O24'
_cell_volume   836.31158659
_cell_formula_units_Z   8
loop_
 _symmetry_equiv_pos_site_id
 _symmetry_equiv_pos_as_xyz
  1  'x, y, z'
loop_
 _atom_site_type_symbol
 _atom_site_label
 _atom_site_symmetry_multiplicity
 _atom_site_fract_x
 _atom_site_fract_y
 _atom_site_fract_z
 _atom_site_occupancy
  Na  Na0  1  0.10743862  0.82969532  0.12891468  1.0
  Na  Na1  1  0.39256138  0.67030468  0.12891468  1.0
  Na  Na2  1  0.60743862  0.17030468  0.37108532  1.0
  Na  Na3  1  0.89256138  0.32969532  0.37108532  1.0
  Na  Na4  1  0.89256138  0.17030468  0.87108532  1.0
  Na  Na5  1  0.60743862  0.32969532  0.87108532  1.0
  Na  Na6  1  0.39256138  0.82969532  0.62891468  1.0
  Na  Na7  1  0.10743862  0.67030468  0.62891468  1.0
  Na  Na8  1  0.69009903  0.97131878  0.65553884  1.0
  Na  Na9  1  0.80990097  0.52868122  0.65553884  1.0
  Na  Na10  1  0.19009903  0.02868122  0.84446116  1.0
  Na  Na11  1  0.30990097  0.47131878  0.84446116  1.0
  Na  Na12  1  0.30990097  0.02868122  0.34446116  1.0
  Na  Na13  1  0.19009903  0.47131878  0.34446116  1.0
  Na  Na14  1  0.80990097  0.97131878  0.15553884  1.0
  Na  Na15  1  0.69009903  0.52868122  0.15553884  1.0
  H  H16  1  0.82926558  0.83026131  0.47122650  1.0
  H  H17  1  0.67073442  0.66973869  0.47122650  1.0
  H  H18  1  0.32926558  0.16973869  0.02877350  1.0
  H  H19  1  0.17073442  0.33026131  0.02877350  1.0
  H  H20  1  0.17073442  0.16973869  0.52877350  1.0
  H  H21  1  0.32926558  0.33026131  0.52877350  1.0
  H  H22  1  0.67073442  0.83026131  0.97122650  1.0
  H  H23  1  0.82926558  0.66973869  0.97122650  1.0
  S  S24  1  0.03309711  0.88198203  0.63553653  1.0
  S  S25  1  0.46690289  0.61801797  0.63553653  1.0
  S  S26  1  0.53309711  0.11801797  0.86446347  1.0
  S  S27  1  0.96690289  0.38198203  0.86446347  1.0
  S  S28  1  0.96690289  0.11801797  0.36446347  1.0
  S  S29  1  0.53309711  0.38198203  0.36446347  1.0
  S  S30  1  0.46690289  0.88198203  0.13553653  1.0
  S  S31  1  0.03309711  0.61801797  0.13553653  1.0
  N  N32  1  0.91293713  0.87222577  0.42952859  1.0
  N  N33  1  0.58706287  0.62777422  0.42952859  1.0
  N  N34  1  0.41293713  0.12777423  0.07047141  1.0
  N  N35  1  0.08706287  0.37222578  0.07047141  1.0
  N  N36  1  0.08706287  0.12777423  0.57047141  1.0
  N  N37  1  0.41293713  0.37222578  0.57047141  1.0
  N  N38  1  0.58706287  0.87222577  0.92952859  1.0
  N  N39  1  0.91293713  0.62777422  0.92952859  1.0
  O  O40  1  0.95803922  0.92572503  0.83057172  1.0
  O  O41  1  0.54196078  0.57427497  0.83057172  1.0
  O  O42  1  0.45803922  0.07427497  0.66942828  1.0
  O  O43  1  0.04196078  0.42572503  0.66942828  1.0
  O  O44  1  0.04196078  0.07427497  0.16942828  1.0
  O  O45  1  0.45803922  0.42572503  0.16942828  1.0
  O  O46  1  0.54196078  0.92572503  0.33057172  1.0
  O  O47  1  0.95803922  0.57427497  0.33057172  1.0
  O  O48  1  0.09313582  0.80471935  0.72580707  1.0
  O  O49  1  0.40686418  0.69528065  0.72580707  1.0
  O  O50  1  0.59313582  0.19528065  0.77419293  1.0
  O  O51  1  0.90686418  0.30471935  0.77419293  1.0
  O  O52  1  0.90686418  0.19528065  0.27419293  1.0
  O  O53  1  0.59313582  0.30471935  0.27419293  1.0
  O  O54  1  0.40686418  0.80471935  0.22580707  1.0
  O  O55  1  0.09313582  0.69528065  0.22580707  1.0
  O  O56  1  0.17515798  0.92775126  0.54954794  1.0
  O  O57  1  0.32484202  0.57224874  0.54954794  1.0
  O  O58  1  0.67515798  0.07224874  0.95045206  1.0
  O  O59  1  0.82484202  0.42775126  0.95045206  1.0
  O  O60  1  0.82484202  0.07224874  0.45045206  1.0
  O  O61  1  0.67515798  0.42775126  0.45045206  1.0
  O  O62  1  0.32484202  0.92775126  0.04954794  1.0
  O  O63  1  0.17515798  0.57224874  0.04954794  1.0
