# generated using pymatgen
data_LiFeP2(HO3)2
_symmetry_space_group_name_H-M   'P 1'
_cell_length_a   9.14710382
_cell_length_b   9.14710382
_cell_length_c   9.14710382
_cell_angle_alpha   108.08164774
_cell_angle_beta   108.08164774
_cell_angle_gamma   112.28761059
_symmetry_Int_Tables_number   1
_chemical_formula_structural   LiFeP2(HO3)2
_chemical_formula_sum   'Li4 Fe4 P8 H8 O24'
_cell_volume   588.08076092
_cell_formula_units_Z   4
loop_
 _symmetry_equiv_pos_site_id
 _symmetry_equiv_pos_as_xyz
  1  'x, y, z'
loop_
 _atom_site_type_symbol
 _atom_site_label
 _atom_site_symmetry_multiplicity
 _atom_site_fract_x
 _atom_site_fract_y
 _atom_site_fract_z
 _atom_site_occupancy
  Li  Li0  1  0.87500000  1.06379497  0.68879497  1.0
  Li  Li1  1  1.81379497  1.12500000  1.18879497  1.0
  Li  Li2  1  0.93620503  1.62500000  0.81120503  1.0
  Li  Li3  1  1.37500000  1.18620503  1.31120503  1.0
  Fe  Fe4  1  0.87500000  0.34582829  0.97082829  1.0
  Fe  Fe5  1  1.09582829  1.12500000  0.47082829  1.0
  Fe  Fe6  1  0.65417171  0.62500000  0.52917171  1.0
  Fe  Fe7  1  1.37500000  0.90417171  1.02917171  1.0
  P  P8  1  1.09376078  0.89592442  0.69300518  1.0
  P  P9  1  0.65623922  0.84924441  0.30216364  1.0
  P  P10  1  0.64592442  1.34376078  1.19300518  1.0
  P  P11  1  1.10407558  1.79708076  1.19783636  1.0
  P  P12  1  0.54708076  0.35407558  0.69783636  1.0
  P  P13  1  1.20291924  1.40075559  1.30699482  1.0
  P  P14  1  1.59924441  0.90623922  0.80216364  1.0
  P  P15  1  1.15075559  1.45291924  0.80699482  1.0
  H  H16  1  1.08740666  0.77651012  0.54660907  1.0
  H  H17  1  0.66259334  0.70920242  0.18910347  1.0
  H  H18  1  0.52651012  1.33740666  1.04660907  1.0
  H  H19  1  1.22348988  1.77009895  1.31089653  1.0
  H  H20  1  0.52009895  0.47348988  0.81089653  1.0
  H  H21  1  1.22990105  1.54079758  1.45339093  1.0
  H  H22  1  1.45920242  0.91259334  0.68910347  1.0
  H  H23  1  1.29079758  1.47990105  0.95339093  1.0
  O  O24  1  1.16664833  1.36807811  0.64309220  1.0
  O  O25  1  1.58335167  1.72644386  1.70142978  1.0
  O  O26  1  1.11807811  1.41664833  1.14309220  1.0
  O  O27  1  0.63192189  0.27501408  0.79857022  1.0
  O  O28  1  1.02501408  0.88192189  0.29857022  1.0
  O  O29  1  0.72498592  0.52355614  0.35690780  1.0
  O  O30  1  1.47644386  0.83335167  1.20142978  1.0
  O  O31  1  1.27355614  0.97498592  0.85690780  1.0
  O  O32  1  1.07974935  1.04621207  0.65568396  1.0
  O  O33  1  0.67025065  0.82593461  0.46646273  1.0
  O  O34  1  0.79621207  1.32974935  1.15568396  1.0
  O  O35  1  0.95378793  1.60947188  1.03353727  1.0
  O  O36  1  0.35947188  0.20378793  0.53353727  1.0
  O  O37  1  0.39052812  0.42406539  0.34431604  1.0
  O  O38  1  0.57593461  0.92025065  0.96646273  1.0
  O  O39  1  1.17406539  1.64052812  0.84431604  1.0
  O  O40  1  0.92907494  0.78842603  0.71234823  1.0
  O  O41  1  0.82092506  1.03327329  0.35935109  1.0
  O  O42  1  1.53842603  1.17907494  1.21234823  1.0
  O  O43  1  1.21157397  0.92392220  1.14064891  1.0
  O  O44  1  1.67392220  1.46157397  1.64064891  1.0
  O  O45  1  0.07607780  0.21672671  0.28765177  1.0
  O  O46  1  1.78327329  1.07092506  0.85935109  1.0
  O  O47  1  0.96672671  1.32607780  0.78765177  1.0
