# generated using pymatgen
data_BaVCdF7
_symmetry_space_group_name_H-M   'P 1'
_cell_length_a   7.56040362
_cell_length_b   7.56040362
_cell_length_c   15.36754850
_cell_angle_alpha   88.43240008
_cell_angle_beta   91.56759992
_cell_angle_gamma   137.38086984
_symmetry_Int_Tables_number   1
_chemical_formula_structural   BaVCdF7
_chemical_formula_sum   'Ba4 V4 Cd4 F28'
_cell_volume   594.53027426
_cell_formula_units_Z   4
loop_
 _symmetry_equiv_pos_site_id
 _symmetry_equiv_pos_as_xyz
  1  'x, y, z'
loop_
 _atom_site_type_symbol
 _atom_site_label
 _atom_site_symmetry_multiplicity
 _atom_site_fract_x
 _atom_site_fract_y
 _atom_site_fract_z
 _atom_site_occupancy
  Ba  Ba0  1  0.64945623  0.27344131  0.62688840  1.0
  Ba  Ba1  1  0.72655869  0.35054377  0.12688840  1.0
  Ba  Ba2  1  1.27344131  0.64945623  0.87311160  1.0
  Ba  Ba3  1  0.35054377  -0.27344131  0.37311160  1.0
  V  V4  1  0.38756380  -0.36296518  0.62458501  1.0
  V  V5  1  1.36296517  0.61243620  0.12458501  1.0
  V  V6  1  0.63703483  0.38756380  0.87541499  1.0
  V  V7  1  0.61243620  0.36296517  0.37541499  1.0
  Cd  Cd8  1  0.95896578  0.95896578  0.75000000  1.0
  Cd  Cd9  1  0.04103422  0.04103422  0.25000000  1.0
  Cd  Cd10  1  0.00000000  0.00000000  0.00000000  1.0
  Cd  Cd11  1  -0.00000000  0.00000000  0.50000000  1.0
  F  F12  1  0.61879322  -0.37562329  0.84622233  1.0
  F  F13  1  1.37562329  0.38120678  0.34622233  1.0
  F  F14  1  0.62437671  0.61879322  0.65377767  1.0
  F  F15  1  0.38120678  0.37562329  0.15377767  1.0
  F  F16  1  0.83389499  -0.04817491  0.37193140  1.0
  F  F17  1  1.04817491  0.16610501  0.87193140  1.0
  F  F18  1  0.95182509  0.83389499  0.12806860  1.0
  F  F19  1  0.16610501  0.04817491  0.62806860  1.0
  F  F20  1  0.65747830  -0.06230484  0.54749837  1.0
  F  F21  1  1.06230484  0.34252170  0.04749837  1.0
  F  F22  1  0.93769516  0.65747830  0.95250163  1.0
  F  F23  1  0.34252170  0.06230484  0.45250163  1.0
  F  F24  1  0.55733981  -0.11270475  0.72373969  1.0
  F  F25  1  1.11270475  0.44266019  0.22373969  1.0
  F  F26  1  0.88729525  0.55733981  0.77626031  1.0
  F  F27  1  0.44266019  0.11270475  0.27626031  1.0
  F  F28  1  0.68640294  0.18065469  0.90372086  1.0
  F  F29  1  0.81934531  0.31359706  0.40372086  1.0
  F  F30  1  1.18065469  0.68640294  0.59627914  1.0
  F  F31  1  0.31359706  -0.18065469  0.09627914  1.0
  F  F32  1  0.35977325  0.11792466  0.79615205  1.0
  F  F33  1  0.88207534  0.64022675  0.29615205  1.0
  F  F34  1  1.11792466  0.35977325  0.70384795  1.0
  F  F35  1  0.64022675  -0.11792466  0.20384795  1.0
  F  F36  1  0.42554814  0.24479513  0.98351386  1.0
  F  F37  1  0.75520487  0.57445186  0.48351386  1.0
  F  F38  1  1.24479513  0.42554814  0.51648614  1.0
  F  F39  1  0.57445186  -0.24479513  0.01648614  1.0
