# generated using pymatgen
data_Ta2Fe
_symmetry_space_group_name_H-M   'P 1'
_cell_length_a   4.86937422
_cell_length_b   4.86937422
_cell_length_c   9.56971765
_cell_angle_alpha   90.00000000
_cell_angle_beta   90.00000000
_cell_angle_gamma   120.00000000
_symmetry_Int_Tables_number   1
_chemical_formula_structural   Ta2Fe
_chemical_formula_sum   'Ta8 Fe4'
_cell_volume   196.50611085
_cell_formula_units_Z   4
loop_
 _symmetry_equiv_pos_site_id
 _symmetry_equiv_pos_as_xyz
  1  'x, y, z'
loop_
 _atom_site_type_symbol
 _atom_site_label
 _atom_site_symmetry_multiplicity
 _atom_site_fract_x
 _atom_site_fract_y
 _atom_site_fract_z
 _atom_site_occupancy
  Ta  Ta0  1  0.00000000  0.00000000  0.50000000  1.0
  Ta  Ta1  1  0.00000000  0.00000000  0.00000000  1.0
  Ta  Ta2  1  0.65726838  0.65726838  0.75000000  1.0
  Ta  Ta3  1  0.34273162  0.00000000  0.75000000  1.0
  Ta  Ta4  1  0.00000000  0.34273162  0.75000000  1.0
  Ta  Ta5  1  0.34273162  0.34273162  0.25000000  1.0
  Ta  Ta6  1  0.65726838  0.00000000  0.25000000  1.0
  Ta  Ta7  1  0.00000000  0.65726838  0.25000000  1.0
  Fe  Fe8  1  0.66666667  0.33333333  0.50000000  1.0
  Fe  Fe9  1  0.66666667  0.33333333  0.00000000  1.0
  Fe  Fe10  1  0.33333333  0.66666667  0.50000000  1.0
  Fe  Fe11  1  0.33333333  0.66666667  0.00000000  1.0
