# generated using pymatgen
data_NaTi2Ga5O12
_symmetry_space_group_name_H-M   'P 1'
_cell_length_a   9.47215850
_cell_length_b   15.85116778
_cell_length_c   3.02366515
_cell_angle_alpha   90.00000000
_cell_angle_beta   90.00000000
_cell_angle_gamma   90.00000000
_symmetry_Int_Tables_number   1
_chemical_formula_structural   NaTi2Ga5O12
_chemical_formula_sum   'Na2 Ti4 Ga10 O24'
_cell_volume   453.98751890
_cell_formula_units_Z   2
loop_
 _symmetry_equiv_pos_site_id
 _symmetry_equiv_pos_as_xyz
  1  'x, y, z'
loop_
 _atom_site_type_symbol
 _atom_site_label
 _atom_site_symmetry_multiplicity
 _atom_site_fract_x
 _atom_site_fract_y
 _atom_site_fract_z
 _atom_site_occupancy
  Na  Na0  1  0.50000000  0.00000000  0.50000000  1.0
  Na  Na1  1  0.00000000  0.50000000  0.50000000  1.0
  Ti  Ti2  1  0.72744330  0.35647100  0.50000000  1.0
  Ti  Ti3  1  0.27255670  0.64352900  0.50000000  1.0
  Ti  Ti4  1  0.22744330  0.14352900  0.50000000  1.0
  Ti  Ti5  1  0.77255670  0.85647100  0.50000000  1.0
  Ga  Ga6  1  0.50000000  0.50000000  0.00000000  1.0
  Ga  Ga7  1  0.00000000  0.00000000  0.00000000  1.0
  Ga  Ga8  1  0.50682028  0.19916073  0.00000000  1.0
  Ga  Ga9  1  0.49317972  0.80083927  0.00000000  1.0
  Ga  Ga10  1  0.00682028  0.30083927  0.00000000  1.0
  Ga  Ga11  1  0.99317972  0.69916073  0.00000000  1.0
  Ga  Ga12  1  0.80269346  0.14657081  0.50000000  1.0
  Ga  Ga13  1  0.19730654  0.85342919  0.50000000  1.0
  Ga  Ga14  1  0.30269346  0.35342919  0.50000000  1.0
  Ga  Ga15  1  0.69730654  0.64657081  0.50000000  1.0
  O  O16  1  0.60406609  0.44489199  0.50000000  1.0
  O  O17  1  0.39593391  0.55510801  0.50000000  1.0
  O  O18  1  0.10406609  0.05510801  0.50000000  1.0
  O  O19  1  0.89593391  0.94489199  0.50000000  1.0
  O  O20  1  0.85342175  0.39534471  0.00000000  1.0
  O  O21  1  0.14657825  0.60465529  0.00000000  1.0
  O  O22  1  0.35342175  0.10465529  0.00000000  1.0
  O  O23  1  0.64657825  0.89534471  0.00000000  1.0
  O  O24  1  0.64107252  0.29504585  0.00000000  1.0
  O  O25  1  0.35892748  0.70495415  0.00000000  1.0
  O  O26  1  0.14107252  0.20495415  0.00000000  1.0
  O  O27  1  0.85892748  0.79504585  0.00000000  1.0
  O  O28  1  0.88572611  0.25450688  0.50000000  1.0
  O  O29  1  0.11427389  0.74549312  0.50000000  1.0
  O  O30  1  0.38572611  0.24549312  0.50000000  1.0
  O  O31  1  0.61427389  0.75450688  0.50000000  1.0
  O  O32  1  0.60520847  0.14239402  0.50000000  1.0
  O  O33  1  0.39479153  0.85760598  0.50000000  1.0
  O  O34  1  0.10520847  0.35760598  0.50000000  1.0
  O  O35  1  0.89479153  0.64239402  0.50000000  1.0
  O  O36  1  0.85855531  0.09025144  0.00000000  1.0
  O  O37  1  0.14144469  0.90974856  0.00000000  1.0
  O  O38  1  0.35855531  0.40974856  0.00000000  1.0
  O  O39  1  0.64144469  0.59025144  0.00000000  1.0
