# generated using pymatgen
data_IN2
_symmetry_space_group_name_H-M   'P 1'
_cell_length_a   8.88680558
_cell_length_b   8.88680558
_cell_length_c   8.88680558
_cell_angle_alpha   148.48511525
_cell_angle_beta   148.48511525
_cell_angle_gamma   45.16974553
_symmetry_Int_Tables_number   1
_chemical_formula_structural   IN2
_chemical_formula_sum   'I2 N4'
_cell_volume   191.15885521
_cell_formula_units_Z   2
loop_
 _symmetry_equiv_pos_site_id
 _symmetry_equiv_pos_as_xyz
  1  'x, y, z'
loop_
 _atom_site_type_symbol
 _atom_site_label
 _atom_site_symmetry_multiplicity
 _atom_site_fract_x
 _atom_site_fract_y
 _atom_site_fract_z
 _atom_site_occupancy
  I  I0  1  0.75000000  0.75000000  1.00000000  1.0
  I  I1  1  0.25000000  0.25000000  -0.00000000  1.0
  N  N2  1  0.41926182  0.91926182  1.33852365  1.0
  N  N3  1  0.08073818  0.41926182  0.50000000  1.0
  N  N4  1  0.91926182  0.58073818  1.50000000  1.0
  N  N5  1  0.58073818  0.08073818  0.66147635  1.0
