# generated using pymatgen
data_V3H4NO7
_symmetry_space_group_name_H-M   'P 1'
_cell_length_a   8.30953757
_cell_length_b   8.30953757
_cell_length_c   12.54524014
_cell_angle_alpha   54.68749174
_cell_angle_beta   125.31250826
_cell_angle_gamma   154.03576706
_symmetry_Int_Tables_number   1
_chemical_formula_structural   V3H4NO7
_chemical_formula_sum   'V6 H8 N2 O14'
_cell_volume   305.31269095
_cell_formula_units_Z   2
loop_
 _symmetry_equiv_pos_site_id
 _symmetry_equiv_pos_as_xyz
  1  'x, y, z'
loop_
 _atom_site_type_symbol
 _atom_site_label
 _atom_site_symmetry_multiplicity
 _atom_site_fract_x
 _atom_site_fract_y
 _atom_site_fract_z
 _atom_site_occupancy
  V  V0  1  0.93815771  -0.93815771  0.82177114  1.0
  V  V1  1  0.06184229  -0.06184229  0.17822886  1.0
  V  V2  1  0.79304470  0.20695530  0.94503860  1.0
  V  V3  1  1.20695530  -0.20695530  0.05496140  1.0
  V  V4  1  0.55791421  0.44208579  0.77457636  1.0
  V  V5  1  1.44208579  -0.44208579  0.22542364  1.0
  H  H6  1  1.66126847  -0.10216700  0.48584426  1.0
  H  H7  1  1.10216700  -0.66126847  0.48584426  1.0
  H  H8  1  0.89783300  0.66126847  0.51415574  1.0
  H  H9  1  0.33873153  0.10216700  0.51415574  1.0
  H  H10  1  0.83552159  -0.83552159  0.34153646  1.0
  H  H11  1  0.16447841  -0.16447841  0.65846354  1.0
  H  H12  1  0.76745762  -0.76745762  0.40255862  1.0
  H  H13  1  0.23254238  -0.23254238  0.59744138  1.0
  N  N14  1  0.84023227  -0.84023227  0.42681802  1.0
  N  N15  1  0.15976773  -0.15976773  0.57318198  1.0
  O  O16  1  0.93270999  -0.93270999  0.17306242  1.0
  O  O17  1  0.06729001  -0.06729001  0.82693758  1.0
  O  O18  1  0.89018888  0.10981112  0.92001606  1.0
  O  O19  1  1.10981112  -0.10981112  0.07998394  1.0
  O  O20  1  0.83620780  -0.83620780  0.66988920  1.0
  O  O21  1  0.16379220  -0.16379220  0.33011080  1.0
  O  O22  1  0.68188952  0.31811048  0.78566353  1.0
  O  O23  1  1.31811048  -0.31811048  0.21433647  1.0
  O  O24  1  1.47391825  -0.47391825  0.61276920  1.0
  O  O25  1  0.52608175  0.47391825  0.38723080  1.0
  O  O26  1  1.47625274  -0.47625274  0.84168817  1.0
  O  O27  1  0.52374726  0.47625274  0.15831183  1.0
  O  O28  1  0.29857407  -0.29857407  0.99204661  1.0
  O  O29  1  0.70142593  -0.70142593  0.00795339  1.0
