# generated using pymatgen
data_Rb2Mo(OF2)2
_symmetry_space_group_name_H-M   'P 1'
_cell_length_a   7.97141282
_cell_length_b   7.97141282
_cell_length_c   7.25019726
_cell_angle_alpha   90.00000000
_cell_angle_beta   90.00000000
_cell_angle_gamma   134.93820237
_symmetry_Int_Tables_number   1
_chemical_formula_structural   Rb2Mo(OF2)2
_chemical_formula_sum   'Rb4 Mo2 O4 F8'
_cell_volume   326.11692597
_cell_formula_units_Z   2
loop_
 _symmetry_equiv_pos_site_id
 _symmetry_equiv_pos_as_xyz
  1  'x, y, z'
loop_
 _atom_site_type_symbol
 _atom_site_label
 _atom_site_symmetry_multiplicity
 _atom_site_fract_x
 _atom_site_fract_y
 _atom_site_fract_z
 _atom_site_occupancy
  Rb  Rb0  1  -0.77165410  0.77165410  1.00409413  1.0
  Rb  Rb1  1  -0.22834590  1.22834590  0.50409413  1.0
  Rb  Rb2  1  -0.55313904  0.55313904  0.50547531  1.0
  Rb  Rb3  1  -0.44686096  1.44686096  0.00547531  1.0
  Mo  Mo4  1  -0.88254629  0.88254629  0.51464679  1.0
  Mo  Mo5  1  -0.11745371  1.11745371  1.01464679  1.0
  O  O6  1  -0.34094852  0.89865994  0.16476322  1.0
  O  O7  1  -0.10134006  1.65905148  0.66476322  1.0
  O  O8  1  0.10134006  1.34094852  0.16476322  1.0
  O  O9  1  -0.65905148  1.10134006  0.66476322  1.0
  F  F10  1  -0.65851355  1.09489942  0.29558911  1.0
  F  F11  1  0.09489942  1.34148645  0.79558911  1.0
  F  F12  1  -0.09489942  1.65851355  0.29558911  1.0
  F  F13  1  -0.34148645  0.90510058  0.79558911  1.0
  F  F14  1  -0.98879074  0.98879074  0.97081116  1.0
  F  F15  1  -0.01120926  1.01120926  0.47081116  1.0
  F  F16  1  -0.74949177  0.74949177  0.47826794  1.0
  F  F17  1  -0.25050823  1.25050823  0.97826794  1.0
