# generated using pymatgen
data_BaSiO3
_symmetry_space_group_name_H-M   'P 1'
_cell_length_a   5.50353724
_cell_length_b   5.50353724
_cell_length_c   13.25580357
_cell_angle_alpha   90.00000000
_cell_angle_beta   90.00000000
_cell_angle_gamma   120.00000000
_symmetry_Int_Tables_number   1
_chemical_formula_structural   BaSiO3
_chemical_formula_sum   'Ba6 Si6 O18'
_cell_volume   347.71266581
_cell_formula_units_Z   6
loop_
 _symmetry_equiv_pos_site_id
 _symmetry_equiv_pos_as_xyz
  1  'x, y, z'
loop_
 _atom_site_type_symbol
 _atom_site_label
 _atom_site_symmetry_multiplicity
 _atom_site_fract_x
 _atom_site_fract_y
 _atom_site_fract_z
 _atom_site_occupancy
  Ba  Ba0  1  0.33333333  0.66666667  0.40481198  1.0
  Ba  Ba1  1  0.33333333  0.66666667  0.09518802  1.0
  Ba  Ba2  1  0.66666667  0.33333333  0.90481198  1.0
  Ba  Ba3  1  0.66666667  0.33333333  0.59518802  1.0
  Ba  Ba4  1  0.00000000  0.00000000  0.25000000  1.0
  Ba  Ba5  1  -0.00000000  -0.00000000  0.75000000  1.0
  Si  Si6  1  0.33333333  0.66666667  0.84386307  1.0
  Si  Si7  1  0.33333333  0.66666667  0.65613693  1.0
  Si  Si8  1  0.66666667  0.33333333  0.34386307  1.0
  Si  Si9  1  0.66666667  0.33333333  0.15613693  1.0
  Si  Si10  1  0.00000000  -0.00000000  0.50000000  1.0
  Si  Si11  1  0.00000000  -0.00000000  -0.00000000  1.0
  O  O12  1  0.16654528  0.83345472  0.91992921  1.0
  O  O13  1  0.16654528  0.83345472  0.58007079  1.0
  O  O14  1  0.16654528  0.33309057  0.91992921  1.0
  O  O15  1  0.16654528  0.33309057  0.58007079  1.0
  O  O16  1  0.83345472  0.16654528  0.41992921  1.0
  O  O17  1  0.83345472  0.16654528  0.08007079  1.0
  O  O18  1  0.83345472  0.66690943  0.41992921  1.0
  O  O19  1  0.83345472  0.66690943  0.08007079  1.0
  O  O20  1  0.66690943  0.83345472  0.91992921  1.0
  O  O21  1  0.66690943  0.83345472  0.58007079  1.0
  O  O22  1  0.33309057  0.16654528  0.41992921  1.0
  O  O23  1  0.33309057  0.16654528  0.08007079  1.0
  O  O24  1  0.52441390  0.47558610  0.25000000  1.0
  O  O25  1  0.52441390  0.04882780  0.25000000  1.0
  O  O26  1  0.47558610  0.52441390  0.75000000  1.0
  O  O27  1  0.47558610  0.95117220  0.75000000  1.0
  O  O28  1  0.95117220  0.47558610  0.25000000  1.0
  O  O29  1  0.04882780  0.52441390  0.75000000  1.0
