# generated using pymatgen
data_SiB2Mo5
_symmetry_space_group_name_H-M   'P 1'
_cell_length_a   7.01003207
_cell_length_b   7.01003207
_cell_length_c   7.01003207
_cell_angle_alpha   128.92980269
_cell_angle_beta   128.92980269
_cell_angle_gamma   75.12355042
_symmetry_Int_Tables_number   1
_chemical_formula_structural   SiB2Mo5
_chemical_formula_sum   'Si2 B4 Mo10'
_cell_volume   202.95993906
_cell_formula_units_Z   2
loop_
 _symmetry_equiv_pos_site_id
 _symmetry_equiv_pos_as_xyz
  1  'x, y, z'
loop_
 _atom_site_type_symbol
 _atom_site_label
 _atom_site_symmetry_multiplicity
 _atom_site_fract_x
 _atom_site_fract_y
 _atom_site_fract_z
 _atom_site_occupancy
  Si  Si0  1  0.75000000  0.75000000  1.00000000  1.0
  Si  Si1  1  0.25000000  0.25000000  0.00000000  1.0
  B  B2  1  0.87877892  0.37877892  1.25755785  1.0
  B  B3  1  0.62122108  0.87877892  1.50000000  1.0
  B  B4  1  0.37877892  0.12122108  0.50000000  1.0
  B  B5  1  0.12122108  0.62122108  0.74244215  1.0
  Mo  Mo6  1  1.19676120  0.69676120  1.17175635  1.0
  Mo  Mo7  1  0.47499515  0.97499515  1.17175635  1.0
  Mo  Mo8  1  1.02500485  1.19676120  1.50000000  1.0
  Mo  Mo9  1  0.30323880  0.47499515  0.50000000  1.0
  Mo  Mo10  1  0.69676120  0.52500485  0.50000000  1.0
  Mo  Mo11  1  0.97499515  0.80323880  1.50000000  1.0
  Mo  Mo12  1  0.52500485  1.02500485  0.82824365  1.0
  Mo  Mo13  1  0.80323880  0.30323880  0.82824365  1.0
  Mo  Mo14  1  0.00000000  0.00000000  0.00000000  1.0
  Mo  Mo15  1  0.50000000  0.50000000  1.00000000  1.0
