# generated using pymatgen
data_Nb5AlSn2
_symmetry_space_group_name_H-M   'P 1'
_cell_length_a   8.01297204
_cell_length_b   8.01297204
_cell_length_c   8.01297204
_cell_angle_alpha   96.03726594
_cell_angle_beta   96.03726594
_cell_angle_gamma   142.15276105
_symmetry_Int_Tables_number   1
_chemical_formula_structural   Nb5AlSn2
_chemical_formula_sum   'Nb10 Al2 Sn4'
_cell_volume   298.61093501
_cell_formula_units_Z   2
loop_
 _symmetry_equiv_pos_site_id
 _symmetry_equiv_pos_as_xyz
  1  'x, y, z'
loop_
 _atom_site_type_symbol
 _atom_site_label
 _atom_site_symmetry_multiplicity
 _atom_site_fract_x
 _atom_site_fract_y
 _atom_site_fract_z
 _atom_site_occupancy
  Nb  Nb0  1  0.28242671  0.42867401  0.71110072  1.0
  Nb  Nb1  1  1.21757329  0.92867401  1.14624730  1.0
  Nb  Nb2  1  0.92867401  0.78242671  1.71110072  1.0
  Nb  Nb3  1  0.57132599  1.28242671  0.85375270  1.0
  Nb  Nb4  1  0.78242671  1.07132599  0.85375270  1.0
  Nb  Nb5  1  0.71757329  0.57132599  1.28889928  1.0
  Nb  Nb6  1  1.42867401  0.71757329  1.14624730  1.0
  Nb  Nb7  1  0.07132599  0.21757329  0.28889928  1.0
  Nb  Nb8  1  0.75000000  1.25000000  0.50000000  1.0
  Nb  Nb9  1  0.25000000  0.75000000  0.50000000  1.0
  Al  Al10  1  0.25000000  0.25000000  -0.00000000  1.0
  Al  Al11  1  0.75000000  0.75000000  -0.00000000  1.0
  Sn  Sn12  1  0.83159273  0.33159273  1.16318545  1.0
  Sn  Sn13  1  0.66840727  0.83159273  0.50000000  1.0
  Sn  Sn14  1  1.33159273  1.16840727  1.50000000  1.0
  Sn  Sn15  1  0.16840727  0.66840727  0.83681455  1.0
