# generated using pymatgen
data_KCaI3
_symmetry_space_group_name_H-M   'P 1'
_cell_length_a   8.07307816
_cell_length_b   8.07307816
_cell_length_c   11.74617275
_cell_angle_alpha   90.00000000
_cell_angle_beta   90.00000000
_cell_angle_gamma   146.81404179
_symmetry_Int_Tables_number   1
_chemical_formula_structural   KCaI3
_chemical_formula_sum   'K2 Ca2 I6'
_cell_volume   419.03111831
_cell_formula_units_Z   2
loop_
 _symmetry_equiv_pos_site_id
 _symmetry_equiv_pos_as_xyz
  1  'x, y, z'
loop_
 _atom_site_type_symbol
 _atom_site_label
 _atom_site_symmetry_multiplicity
 _atom_site_fract_x
 _atom_site_fract_y
 _atom_site_fract_z
 _atom_site_occupancy
  K  K0  1  -0.25360275  0.25360275  0.75000000  1.0
  K  K1  1  0.25360275  0.74639725  0.25000000  1.0
  Ca  Ca2  1  0.00000000  0.00000000  0.00000000  1.0
  Ca  Ca3  1  0.00000000  0.00000000  0.50000000  1.0
  I  I4  1  0.36596341  0.63403659  0.94356896  1.0
  I  I5  1  0.36596341  0.63403659  0.55643104  1.0
  I  I6  1  -0.36596341  0.36596341  0.44356896  1.0
  I  I7  1  -0.36596341  0.36596341  0.05643104  1.0
  I  I8  1  0.07277569  0.92722431  0.75000000  1.0
  I  I9  1  -0.07277569  0.07277569  0.25000000  1.0
