# generated using pymatgen
data_Rb2Cd3Te4
_symmetry_space_group_name_H-M   'P 1'
_cell_length_a   10.76880058
_cell_length_b   10.76880058
_cell_length_c   13.21855936
_cell_angle_alpha   72.55387891
_cell_angle_beta   107.44612109
_cell_angle_gamma   86.87146017
_symmetry_Int_Tables_number   1
_chemical_formula_structural   Rb2Cd3Te4
_chemical_formula_sum   'Rb8 Cd12 Te16'
_cell_volume   1377.44355680
_cell_formula_units_Z   4
loop_
 _symmetry_equiv_pos_site_id
 _symmetry_equiv_pos_as_xyz
  1  'x, y, z'
loop_
 _atom_site_type_symbol
 _atom_site_label
 _atom_site_symmetry_multiplicity
 _atom_site_fract_x
 _atom_site_fract_y
 _atom_site_fract_z
 _atom_site_occupancy
  Rb  Rb0  1  1.49596168  0.49596168  0.25000000  1.0
  Rb  Rb1  1  0.50403832  -0.49596168  0.75000000  1.0
  Rb  Rb2  1  0.00000000  -0.00000000  0.50000000  1.0
  Rb  Rb3  1  -0.00000000  0.00000000  -0.00000000  1.0
  Rb  Rb4  1  1.75253065  0.24352899  0.13864711  1.0
  Rb  Rb5  1  0.75647101  -0.75253065  0.63864711  1.0
  Rb  Rb6  1  1.24352899  0.75253065  0.36135289  1.0
  Rb  Rb7  1  0.24746935  -0.24352899  0.86135289  1.0
  Cd  Cd8  1  1.35104561  0.12326280  0.41126185  1.0
  Cd  Cd9  1  0.87673720  -0.35104561  0.91126185  1.0
  Cd  Cd10  1  1.12326280  0.35104561  0.08873815  1.0
  Cd  Cd11  1  0.64895439  -0.12326280  0.58873815  1.0
  Cd  Cd12  1  0.62154613  -0.14246231  0.04357535  1.0
  Cd  Cd13  1  1.14246231  0.37845387  0.54357535  1.0
  Cd  Cd14  1  0.85753769  -0.37845387  0.45642465  1.0
  Cd  Cd15  1  1.37845387  0.14246231  0.95642465  1.0
  Cd  Cd16  1  0.59085152  -0.11075619  0.29966426  1.0
  Cd  Cd17  1  1.11075619  0.40914848  0.79966426  1.0
  Cd  Cd18  1  0.88924381  -0.40914848  0.20033574  1.0
  Cd  Cd19  1  1.40914848  0.11075619  0.70033574  1.0
  Te  Te20  1  0.38415507  -0.11428724  0.10607110  1.0
  Te  Te21  1  1.11428724  0.61584493  0.60607110  1.0
  Te  Te22  1  0.88571276  -0.61584493  0.39392890  1.0
  Te  Te23  1  1.61584493  0.11428724  0.89392890  1.0
  Te  Te24  1  1.60618155  0.10650234  0.37874609  1.0
  Te  Te25  1  0.89349766  -0.60618155  0.87874609  1.0
  Te  Te26  1  1.10650234  0.60618155  0.12125391  1.0
  Te  Te27  1  0.39381845  -0.10650234  0.62125391  1.0
  Te  Te28  1  1.38234627  0.34041512  0.50348268  1.0
  Te  Te29  1  0.65958488  -0.38234627  1.00348268  1.0
  Te  Te30  1  1.34041512  0.38234627  -0.00348268  1.0
  Te  Te31  1  0.61765373  -0.34041512  0.49651732  1.0
  Te  Te32  1  0.84252179  -0.15747821  0.25000000  1.0
  Te  Te33  1  1.15747821  0.15747821  0.75000000  1.0
  Te  Te34  1  1.11675133  0.11675133  0.25000000  1.0
  Te  Te35  1  0.88324867  -0.11675133  0.75000000  1.0
