# generated using pymatgen
data_TbSiRh
_symmetry_space_group_name_H-M   'P 1'
_cell_length_a   6.96047075
_cell_length_b   4.25997281
_cell_length_c   7.33280947
_cell_angle_alpha   90.00000000
_cell_angle_beta   90.00000000
_cell_angle_gamma   90.00000000
_symmetry_Int_Tables_number   1
_chemical_formula_structural   TbSiRh
_chemical_formula_sum   'Tb4 Si4 Rh4'
_cell_volume   217.42818483
_cell_formula_units_Z   4
loop_
 _symmetry_equiv_pos_site_id
 _symmetry_equiv_pos_as_xyz
  1  'x, y, z'
loop_
 _atom_site_type_symbol
 _atom_site_label
 _atom_site_symmetry_multiplicity
 _atom_site_fract_x
 _atom_site_fract_y
 _atom_site_fract_z
 _atom_site_occupancy
  Tb  Tb0  1  1.00211035  0.75000000  0.68705717  1.0
  Tb  Tb1  1  0.50211035  0.75000000  0.81294283  1.0
  Tb  Tb2  1  -0.00211035  0.25000000  0.31294283  1.0
  Tb  Tb3  1  0.49788965  0.25000000  0.18705717  1.0
  Si  Si4  1  0.70182670  0.75000000  0.39508511  1.0
  Si  Si5  1  0.20182670  0.75000000  0.10491489  1.0
  Si  Si6  1  0.29817330  0.25000000  0.60491489  1.0
  Si  Si7  1  0.79817330  0.25000000  0.89508511  1.0
  Rh  Rh8  1  0.84741100  0.75000000  0.07040152  1.0
  Rh  Rh9  1  0.34741100  0.75000000  0.42959848  1.0
  Rh  Rh10  1  0.15258900  0.25000000  0.92959848  1.0
  Rh  Rh11  1  0.65258900  0.25000000  0.57040152  1.0
