# generated using pymatgen
data_ZrIr
_symmetry_space_group_name_H-M   'P 1'
_cell_length_a   4.41845726
_cell_length_b   4.41957336
_cell_length_c   3.65555435
_cell_angle_alpha   90.00000000
_cell_angle_beta   90.00436905
_cell_angle_gamma   90.00000000
_symmetry_Int_Tables_number   1
_chemical_formula_structural   ZrIr
_chemical_formula_sum   'Zr2 Ir2'
_cell_volume   71.38455373
_cell_formula_units_Z   2
loop_
 _symmetry_equiv_pos_site_id
 _symmetry_equiv_pos_as_xyz
  1  'x, y, z'
loop_
 _atom_site_type_symbol
 _atom_site_label
 _atom_site_symmetry_multiplicity
 _atom_site_fract_x
 _atom_site_fract_y
 _atom_site_fract_z
 _atom_site_occupancy
  Zr  Zr0  1  0.24999550  0.25000000  0.49995603  1.0
  Zr  Zr1  1  0.75000450  0.75000000  0.50004397  1.0
  Ir  Ir2  1  0.24999762  0.75000000  -0.00003659  1.0
  Ir  Ir3  1  0.75000238  0.25000000  1.00003659  1.0
