# generated using pymatgen
data_K2SrCu(NO2)6
_symmetry_space_group_name_H-M   'P 1'
_cell_length_a   7.69011600
_cell_length_b   7.67614641
_cell_length_c   7.48307743
_cell_angle_alpha   60.95112168
_cell_angle_beta   60.76427899
_cell_angle_gamma   58.28459933
_symmetry_Int_Tables_number   1
_chemical_formula_structural   K2SrCu(NO2)6
_chemical_formula_sum   'K2 Sr1 Cu1 N6 O12'
_cell_volume   311.93526769
_cell_formula_units_Z   1
loop_
 _symmetry_equiv_pos_site_id
 _symmetry_equiv_pos_as_xyz
  1  'x, y, z'
loop_
 _atom_site_type_symbol
 _atom_site_label
 _atom_site_symmetry_multiplicity
 _atom_site_fract_x
 _atom_site_fract_y
 _atom_site_fract_z
 _atom_site_occupancy
  Sr  Sr0  1  -0.50000000  0.50000000  0.50000000  1.0
  N  N1  1  0.21390480  0.21390480  -0.21390480  1.0
  N  N2  1  -0.21390480  0.78609520  0.21390480  1.0
  N  N3  1  -0.19575936  0.19575936  0.80424064  1.0
  N  N4  1  0.19575936  -0.19575936  1.19575936  1.0
  N  N5  1  -0.80409455  0.80409455  0.80409455  1.0
  N  N6  1  -0.19590545  0.19590545  0.19590545  1.0
  O  O7  1  -0.15499505  0.15499505  0.64166441  1.0
  O  O8  1  -0.35833559  0.35833559  0.84500495  1.0
  O  O9  1  0.35833559  -0.35833559  1.15499505  1.0
  O  O10  1  0.15499505  -0.15499505  1.35833559  1.0
  O  O11  1  1.17293208  -0.62500580  0.62500580  1.0
  O  O12  1  0.62500580  -0.17293208  1.17293208  1.0
  O  O13  1  0.37499420  0.17293208  -0.17293208  1.0
  O  O14  1  -0.17293208  0.62500580  0.37499420  1.0
  O  O15  1  -0.64656605  0.83929234  0.64656605  1.0
  O  O16  1  0.16070766  0.64656605  -0.16070766  1.0
  O  O17  1  -0.16070766  0.35343395  0.16070766  1.0
  O  O18  1  -0.35343395  1.16070766  0.35343395  1.0
  K  K19  1  0.25000000  0.25000000  0.25000000  1.0
  K  K20  1  0.75000000  -0.25000000  0.75000000  1.0
  Cu  Cu21  1  -0.00000000  -0.00000000  0.00000000  1.0
