# generated using pymatgen
data_PdSO4
_symmetry_space_group_name_H-M   'P 1'
_cell_length_a   4.93862513
_cell_length_b   4.93862513
_cell_length_c   7.72669200
_cell_angle_alpha   81.38542894
_cell_angle_beta   98.61457106
_cell_angle_gamma   96.82348995
_symmetry_Int_Tables_number   1
_chemical_formula_structural   PdSO4
_chemical_formula_sum   'Pd2 S2 O8'
_cell_volume   183.32851890
_cell_formula_units_Z   2
loop_
 _symmetry_equiv_pos_site_id
 _symmetry_equiv_pos_as_xyz
  1  'x, y, z'
loop_
 _atom_site_type_symbol
 _atom_site_label
 _atom_site_symmetry_multiplicity
 _atom_site_fract_x
 _atom_site_fract_y
 _atom_site_fract_z
 _atom_site_occupancy
  Pd  Pd0  1  1.50000000  0.00000000  0.50000000  1.0
  Pd  Pd1  1  1.00000000  -0.50000000  0.00000000  1.0
  S  S2  1  0.92796695  -0.07203305  0.25000000  1.0
  S  S3  1  1.07203305  0.07203305  0.75000000  1.0
  O  O4  1  0.78304158  -0.18780693  0.40664811  1.0
  O  O5  1  1.18780693  0.21695842  0.90664811  1.0
  O  O6  1  0.81219307  -0.21695842  0.09335189  1.0
  O  O7  1  1.21695842  0.18780693  0.59335189  1.0
  O  O8  1  0.22651516  -0.12101975  0.29286350  1.0
  O  O9  1  1.12101975  0.77348484  0.79286350  1.0
  O  O10  1  0.87898025  -0.77348484  0.20713650  1.0
  O  O11  1  1.77348484  0.12101975  0.70713650  1.0
