# generated using pymatgen
data_Li8PtO6
_symmetry_space_group_name_H-M   'P 1'
_cell_length_a   5.94686477
_cell_length_b   5.94686477
_cell_length_c   5.94686477
_cell_angle_alpha   54.54201303
_cell_angle_beta   54.54201303
_cell_angle_gamma   54.54201303
_symmetry_Int_Tables_number   1
_chemical_formula_structural   Li8PtO6
_chemical_formula_sum   'Li8 Pt1 O6'
_cell_volume   129.79327223
_cell_formula_units_Z   1
loop_
 _symmetry_equiv_pos_site_id
 _symmetry_equiv_pos_as_xyz
  1  'x, y, z'
loop_
 _atom_site_type_symbol
 _atom_site_label
 _atom_site_symmetry_multiplicity
 _atom_site_fract_x
 _atom_site_fract_y
 _atom_site_fract_z
 _atom_site_occupancy
  Li  Li0  1  0.23280956  0.90204180  -0.48584874  1.0
  Li  Li1  1  0.48584874  -0.23280956  0.09795820  1.0
  Li  Li2  1  1.09795820  -0.51415126  -0.23280956  1.0
  Li  Li3  1  0.76719044  0.09795820  -0.51415126  1.0
  Li  Li4  1  0.51415126  0.23280956  -0.09795820  1.0
  Li  Li5  1  0.90204180  0.51415126  -0.76719044  1.0
  Li  Li6  1  0.34374609  0.34374609  -0.65625391  1.0
  Li  Li7  1  0.65625391  0.65625391  -0.34374609  1.0
  Pt  Pt8  1  0.00000000  0.00000000  0.00000000  1.0
  O  O9  1  0.09385914  0.76356672  -0.61626017  1.0
  O  O10  1  0.61626017  -0.09385914  0.23643328  1.0
  O  O11  1  1.23643328  -0.38373983  -0.09385914  1.0
  O  O12  1  0.90614086  0.23643328  -0.38373983  1.0
  O  O13  1  0.38373983  0.09385914  -0.23643328  1.0
  O  O14  1  0.76356672  0.38373983  -0.90614086  1.0
