# generated using pymatgen
data_Mn3BO5
_symmetry_space_group_name_H-M   'P 1'
_cell_length_a   9.51052733
_cell_length_b   12.73264006
_cell_length_c   3.14336367
_cell_angle_alpha   90.00000000
_cell_angle_beta   90.00000000
_cell_angle_gamma   90.00000000
_symmetry_Int_Tables_number   1
_chemical_formula_structural   Mn3BO5
_chemical_formula_sum   'Mn12 B4 O20'
_cell_volume   380.64286111
_cell_formula_units_Z   4
loop_
 _symmetry_equiv_pos_site_id
 _symmetry_equiv_pos_as_xyz
  1  'x, y, z'
loop_
 _atom_site_type_symbol
 _atom_site_label
 _atom_site_symmetry_multiplicity
 _atom_site_fract_x
 _atom_site_fract_y
 _atom_site_fract_z
 _atom_site_occupancy
  Mn  Mn0  1  0.49071352  0.72143106  0.50000000  1.0
  Mn  Mn1  1  0.99071352  0.77856894  0.50000000  1.0
  Mn  Mn2  1  0.50928648  0.27856894  0.50000000  1.0
  Mn  Mn3  1  0.00928648  0.22143106  0.50000000  1.0
  Mn  Mn4  1  0.25914565  0.88168883  0.00000000  1.0
  Mn  Mn5  1  0.75914565  0.61831117  -0.00000000  1.0
  Mn  Mn6  1  0.74085435  0.11831117  0.00000000  1.0
  Mn  Mn7  1  0.24085435  0.38168883  -0.00000000  1.0
  Mn  Mn8  1  0.50000000  0.00000000  0.50000000  1.0
  Mn  Mn9  1  0.00000000  0.50000000  0.50000000  1.0
  Mn  Mn10  1  0.50000000  0.50000000  0.00000000  1.0
  Mn  Mn11  1  0.00000000  0.00000000  0.00000000  1.0
  B  B12  1  0.21765615  0.64116555  0.00000000  1.0
  B  B13  1  0.71765615  0.85883445  -0.00000000  1.0
  B  B14  1  0.78234385  0.35883445  0.00000000  1.0
  B  B15  1  0.28234385  0.14116555  -0.00000000  1.0
  O  O16  1  0.39659188  0.86267482  0.50000000  1.0
  O  O17  1  0.89659188  0.63732518  0.50000000  1.0
  O  O18  1  0.60340812  0.13732518  0.50000000  1.0
  O  O19  1  0.10340812  0.36267482  0.50000000  1.0
  O  O20  1  0.10753598  0.92007263  0.50000000  1.0
  O  O21  1  0.60753598  0.57992737  0.50000000  1.0
  O  O22  1  0.89246402  0.07992737  0.50000000  1.0
  O  O23  1  0.39246402  0.42007263  0.50000000  1.0
  O  O24  1  0.36394394  0.64498879  -0.00000000  1.0
  O  O25  1  0.86394394  0.85501121  0.00000000  1.0
  O  O26  1  0.63605606  0.35501121  -0.00000000  1.0
  O  O27  1  0.13605606  0.14498879  0.00000000  1.0
  O  O28  1  0.14262351  0.73481114  -0.00000000  1.0
  O  O29  1  0.64262351  0.76518886  -0.00000000  1.0
  O  O30  1  0.85737649  0.26518886  -0.00000000  1.0
  O  O31  1  0.35737649  0.23481114  -0.00000000  1.0
  O  O32  1  0.14665676  0.54581450  0.00000000  1.0
  O  O33  1  0.64665676  0.95418550  -0.00000000  1.0
  O  O34  1  0.85334324  0.45418550  0.00000000  1.0
  O  O35  1  0.35334324  0.04581450  0.00000000  1.0
