# generated using pymatgen
data_Sr6YGa(BO3)6
_symmetry_space_group_name_H-M   'P 1'
_cell_length_a   7.75033444
_cell_length_b   7.75033444
_cell_length_c   7.75033444
_cell_angle_alpha   105.37309170
_cell_angle_beta   105.37309170
_cell_angle_gamma   105.37309170
_symmetry_Int_Tables_number   1
_chemical_formula_structural   Sr6YGa(BO3)6
_chemical_formula_sum   'Sr6 Y1 Ga1 B6 O18'
_cell_volume   403.68328568
_cell_formula_units_Z   1
loop_
 _symmetry_equiv_pos_site_id
 _symmetry_equiv_pos_as_xyz
  1  'x, y, z'
loop_
 _atom_site_type_symbol
 _atom_site_label
 _atom_site_symmetry_multiplicity
 _atom_site_fract_x
 _atom_site_fract_y
 _atom_site_fract_z
 _atom_site_occupancy
  Sr  Sr0  1  0.76770491  0.66362943  0.15146376  1.0
  Sr  Sr1  1  1.33637057  -0.15146376  0.23229509  1.0
  Sr  Sr2  1  0.84853624  0.23229509  0.33637057  1.0
  Sr  Sr3  1  1.23229509  0.33637057  -0.15146376  1.0
  Sr  Sr4  1  0.66362943  1.15146376  -0.23229509  1.0
  Sr  Sr5  1  1.15146376  0.76770491  -0.33637057  1.0
  Y  Y6  1  0.50000000  0.50000000  0.50000000  1.0
  Ga  Ga7  1  0.00000000  0.00000000  0.00000000  1.0
  B  B8  1  1.55007737  0.79580644  -0.11994987  1.0
  B  B9  1  1.20419356  0.11994987  -0.55007737  1.0
  B  B10  1  1.11994987  -0.55007737  0.20419356  1.0
  B  B11  1  0.44992263  0.20419356  0.11994987  1.0
  B  B12  1  0.79580644  0.88005013  0.55007737  1.0
  B  B13  1  0.88005013  1.55007737  -0.20419356  1.0
  O  O14  1  0.73125391  0.92989665  0.00338642  1.0
  O  O15  1  1.07010335  -0.00338642  -0.73125391  1.0
  O  O16  1  0.99661358  -0.73125391  0.07010335  1.0
  O  O17  1  0.26874609  0.07010335  -0.00338642  1.0
  O  O18  1  0.92989665  1.00338642  -0.26874609  1.0
  O  O19  1  1.00338642  0.73125391  -0.07010335  1.0
  O  O20  1  1.48744353  0.77500557  -0.31275054  1.0
  O  O21  1  1.22499443  0.31275054  -0.48744353  1.0
  O  O22  1  1.31275054  -0.48744353  0.22499443  1.0
  O  O23  1  0.51255647  0.22499443  0.31275054  1.0
  O  O24  1  0.77500557  0.68724946  0.48744353  1.0
  O  O25  1  0.68724946  1.48744353  -0.22499443  1.0
  O  O26  1  0.56717166  0.30453454  0.04707634  1.0
  O  O27  1  0.69546546  0.95292366  0.43282834  1.0
  O  O28  1  0.95292366  1.43282834  -0.30453454  1.0
  O  O29  1  1.43282834  0.69546546  -0.04707634  1.0
  O  O30  1  1.30453454  0.04707634  -0.43282834  1.0
  O  O31  1  1.04707634  -0.43282834  0.30453454  1.0
