# generated using pymatgen
data_Nb2ZnO6
_symmetry_space_group_name_H-M   'P 1'
_cell_length_a   14.33639319
_cell_length_b   5.81857359
_cell_length_c   5.05624198
_cell_angle_alpha   90.00000000
_cell_angle_beta   90.00000000
_cell_angle_gamma   90.00000000
_symmetry_Int_Tables_number   1
_chemical_formula_structural   Nb2ZnO6
_chemical_formula_sum   'Nb8 Zn4 O24'
_cell_volume   421.77835105
_cell_formula_units_Z   4
loop_
 _symmetry_equiv_pos_site_id
 _symmetry_equiv_pos_as_xyz
  1  'x, y, z'
loop_
 _atom_site_type_symbol
 _atom_site_label
 _atom_site_symmetry_multiplicity
 _atom_site_fract_x
 _atom_site_fract_y
 _atom_site_fract_z
 _atom_site_occupancy
  Nb  Nb0  1  0.66045656  0.68221295  0.74452533  1.0
  Nb  Nb1  1  0.66045656  0.31778705  0.24452533  1.0
  Nb  Nb2  1  0.16045656  0.18221295  0.75547467  1.0
  Nb  Nb3  1  0.16045656  0.81778705  0.25547467  1.0
  Nb  Nb4  1  0.33954344  0.68221295  0.75547467  1.0
  Nb  Nb5  1  0.33954344  0.31778705  0.25547467  1.0
  Nb  Nb6  1  0.83954344  0.18221295  0.74452533  1.0
  Nb  Nb7  1  0.83954344  0.81778705  0.24452533  1.0
  Zn  Zn8  1  0.00000000  0.67239933  0.75000000  1.0
  Zn  Zn9  1  0.00000000  0.32760067  0.25000000  1.0
  Zn  Zn10  1  0.50000000  0.17239933  0.75000000  1.0
  Zn  Zn11  1  0.50000000  0.82760067  0.25000000  1.0
  O  O12  1  0.90307716  0.89557105  0.56781235  1.0
  O  O13  1  0.90307716  0.10442895  0.06781235  1.0
  O  O14  1  0.40307716  0.39557105  0.93218765  1.0
  O  O15  1  0.40307716  0.60442895  0.43218765  1.0
  O  O16  1  0.09692284  0.89557105  0.93218765  1.0
  O  O17  1  0.09692284  0.10442895  0.43218765  1.0
  O  O18  1  0.59692284  0.39557105  0.56781235  1.0
  O  O19  1  0.59692284  0.60442895  0.06781235  1.0
  O  O20  1  0.75512854  0.87408219  0.91596111  1.0
  O  O21  1  0.75512854  0.12591781  0.41596111  1.0
  O  O22  1  0.25512854  0.37408219  0.58403889  1.0
  O  O23  1  0.25512854  0.62591781  0.08403889  1.0
  O  O24  1  0.24487146  0.87408219  0.58403889  1.0
  O  O25  1  0.24487146  0.12591781  0.08403889  1.0
  O  O26  1  0.74487146  0.37408219  0.91596111  1.0
  O  O27  1  0.74487146  0.62591781  0.41596111  1.0
  O  O28  1  0.57953362  0.87980333  0.58556356  1.0
  O  O29  1  0.57953362  0.12019667  0.08556356  1.0
  O  O30  1  0.07953362  0.37980333  0.91443644  1.0
  O  O31  1  0.07953362  0.62019667  0.41443644  1.0
  O  O32  1  0.42046638  0.87980333  0.91443644  1.0
  O  O33  1  0.42046638  0.12019667  0.41443644  1.0
  O  O34  1  0.92046638  0.37980333  0.58556356  1.0
  O  O35  1  0.92046638  0.62019667  0.08556356  1.0
