# generated using pymatgen
data_RbHg4(CN)4
_symmetry_space_group_name_H-M   'P 1'
_cell_length_a   11.51811277
_cell_length_b   11.51811277
_cell_length_c   11.51811277
_cell_angle_alpha   60.00000000
_cell_angle_beta   60.00000000
_cell_angle_gamma   60.00000000
_symmetry_Int_Tables_number   1
_chemical_formula_structural   RbHg4(CN)4
_chemical_formula_sum   'Rb2 Hg8 C8 N8'
_cell_volume   1080.51047251
_cell_formula_units_Z   2
loop_
 _symmetry_equiv_pos_site_id
 _symmetry_equiv_pos_as_xyz
  1  'x, y, z'
loop_
 _atom_site_type_symbol
 _atom_site_label
 _atom_site_symmetry_multiplicity
 _atom_site_fract_x
 _atom_site_fract_y
 _atom_site_fract_z
 _atom_site_occupancy
  Rb  Rb0  1  0.50000000  0.50000000  -0.50000000  1.0
  Rb  Rb1  1  0.75000000  -0.25000000  0.75000000  1.0
  Hg  Hg2  1  -0.06280264  0.93719736  0.18840791  1.0
  Hg  Hg3  1  0.93719736  -0.81159209  0.93719736  1.0
  Hg  Hg4  1  0.31280264  0.31280264  0.31280264  1.0
  Hg  Hg5  1  0.06159209  0.31280264  0.31280264  1.0
  Hg  Hg6  1  -0.81159209  0.93719736  0.93719736  1.0
  Hg  Hg7  1  0.93719736  -0.06280264  0.93719736  1.0
  Hg  Hg8  1  0.31280264  0.06159209  0.31280264  1.0
  Hg  Hg9  1  0.31280264  0.31280264  0.06159209  1.0
  C  C10  1  0.86594149  -0.13405851  0.40217552  1.0
  C  C11  1  0.86594149  -0.59782448  0.86594149  1.0
  C  C12  1  0.38405851  0.38405851  0.38405851  1.0
  C  C13  1  -0.15217552  0.38405851  0.38405851  1.0
  C  C14  1  0.40217552  -0.13405851  0.86594149  1.0
  C  C15  1  0.86594149  -0.13405851  0.86594149  1.0
  C  C16  1  0.38405851  -0.15217552  0.38405851  1.0
  C  C17  1  0.38405851  0.38405851  -0.15217552  1.0
  N  N18  1  0.64456118  -0.35543882  1.06631646  1.0
  N  N19  1  0.64456118  0.06631646  0.64456118  1.0
  N  N20  1  0.60543882  -0.39456118  0.60543882  1.0
  N  N21  1  1.18368354  -0.39456118  0.60543882  1.0
  N  N22  1  1.06631646  -0.35543882  0.64456118  1.0
  N  N23  1  0.64456118  -0.35543882  0.64456118  1.0
  N  N24  1  0.60543882  0.18368354  0.60543882  1.0
  N  N25  1  0.60543882  -0.39456118  1.18368354  1.0
