# generated using pymatgen
data_NaScP2(HO4)2
_symmetry_space_group_name_H-M   'P 1'
_cell_length_a   9.79538148
_cell_length_b   9.79538148
_cell_length_c   9.22487714
_cell_angle_alpha   72.97264948
_cell_angle_beta   107.02735052
_cell_angle_gamma   65.24600655
_symmetry_Int_Tables_number   1
_chemical_formula_structural   NaScP2(HO4)2
_chemical_formula_sum   'Na4 Sc4 P8 H8 O32'
_cell_volume   674.88168568
_cell_formula_units_Z   4
loop_
 _symmetry_equiv_pos_site_id
 _symmetry_equiv_pos_as_xyz
  1  'x, y, z'
loop_
 _atom_site_type_symbol
 _atom_site_label
 _atom_site_symmetry_multiplicity
 _atom_site_fract_x
 _atom_site_fract_y
 _atom_site_fract_z
 _atom_site_occupancy
  Na  Na0  1  1.21264604  0.13651053  0.63225800  1.0
  Na  Na1  1  0.86348947  0.78735396  0.13225800  1.0
  Na  Na2  1  1.41006210  0.21579821  0.20294165  1.0
  Na  Na3  1  0.78420179  0.58993790  0.70294165  1.0
  Sc  Sc4  1  0.86159981  0.86882021  0.49468208  1.0
  Sc  Sc5  1  1.13117979  0.13840019  -0.00531792  1.0
  Sc  Sc6  1  1.36080074  0.41383965  0.46439771  1.0
  Sc  Sc7  1  1.58616035  -0.36080074  0.96439771  1.0
  P  P8  1  1.17952248  0.43824118  0.74278348  1.0
  P  P9  1  1.56175882  -0.17952248  0.24278348  1.0
  P  P10  1  1.58187764  -0.03032019  0.67504436  1.0
  P  P11  1  1.03032019  0.41812236  0.17504436  1.0
  P  P12  1  1.66388508  0.30495223  0.32777869  1.0
  P  P13  1  0.69504776  0.33611492  0.82777869  1.0
  P  P14  1  1.15863951  -0.15651337  0.34761772  1.0
  P  P15  1  1.15651337  0.84136049  0.84761772  1.0
  H  H16  1  0.87929844  0.13625378  0.58399031  1.0
  H  H17  1  1.86374622  0.12070156  0.08399031  1.0
  H  H18  1  1.66486974  0.10302809  0.78993406  1.0
  H  H19  1  0.89697191  0.33513026  0.28993406  1.0
  H  H20  1  1.32715363  0.51851548  0.88650265  1.0
  H  H21  1  1.48148452  -0.32715363  0.38650265  1.0
  H  H22  1  1.34550954  -0.22094430  0.59610482  1.0
  H  H23  1  1.22094430  0.65449046  0.09610482  1.0
  O  O24  1  0.68355968  0.41182056  0.18445607  1.0
  O  O25  1  1.58817944  0.31644032  0.68445607  1.0
  O  O26  1  1.23664730  0.43656506  0.60518931  1.0
  O  O27  1  1.56343494  -0.23664730  0.10518931  1.0
  O  O28  1  1.01250246  0.83370348  0.36891496  1.0
  O  O29  1  1.16629652  -0.01250246  0.86891496  1.0
  O  O30  1  1.08199578  -0.00279575  0.17117026  1.0
  O  O31  1  1.00279575  0.91800422  0.67117026  1.0
  O  O32  1  1.48194519  0.40602535  0.30638661  1.0
  O  O33  1  0.59397465  0.51805481  0.80638661  1.0
  O  O34  1  1.16981149  0.28130355  0.81206696  1.0
  O  O35  1  1.71869645  -0.16981149  0.31206696  1.0
  O  O36  1  1.70105076  0.13313240  0.33362975  1.0
  O  O37  1  0.86686760  0.29894924  0.83362975  1.0
  O  O38  1  1.43207487  0.15557756  0.53662871  1.0
  O  O39  1  0.84442244  0.56792513  0.03662871  1.0
  O  O40  1  1.00903720  0.60702569  0.67284611  1.0
  O  O41  1  1.39297431  -0.00903720  0.17284611  1.0
  O  O42  1  0.80652483  0.26228810  0.50347010  1.0
  O  O43  1  1.73771190  0.19347517  1.00347010  1.0
  O  O44  1  1.69587357  -0.11980398  0.60511951  1.0
  O  O45  1  1.11980398  0.30412643  0.10511951  1.0
  O  O46  1  1.69397594  -0.01724167  0.83146563  1.0
  O  O47  1  1.01724167  0.30602406  0.33146563  1.0
  O  O48  1  1.32238804  0.41494035  0.90691660  1.0
  O  O49  1  1.58505965  -0.32238804  0.40691660  1.0
  O  O50  1  1.29657647  0.67243014  0.37032285  1.0
  O  O51  1  1.32756986  -0.29657647  0.87032285  1.0
  O  O52  1  1.25148801  -0.11681564  0.48841528  1.0
  O  O53  1  1.11681564  0.74851199  0.98841528  1.0
  O  O54  1  1.51553229  -0.13540806  0.75174574  1.0
  O  O55  1  1.13540806  0.48446771  0.25174574  1.0
