# generated using pymatgen
data_Sb2C4O5F12
_symmetry_space_group_name_H-M   'P 1'
_cell_length_a   9.71265731
_cell_length_b   9.71265731
_cell_length_c   10.25305767
_cell_angle_alpha   68.57028780
_cell_angle_beta   111.42971220
_cell_angle_gamma   83.78138039
_symmetry_Int_Tables_number   1
_chemical_formula_structural   Sb2C4O5F12
_chemical_formula_sum   'Sb4 C8 O10 F24'
_cell_volume   804.82075243
_cell_formula_units_Z   2
loop_
 _symmetry_equiv_pos_site_id
 _symmetry_equiv_pos_as_xyz
  1  'x, y, z'
loop_
 _atom_site_type_symbol
 _atom_site_label
 _atom_site_symmetry_multiplicity
 _atom_site_fract_x
 _atom_site_fract_y
 _atom_site_fract_z
 _atom_site_occupancy
  Sb  Sb0  1  1.32910207  0.29192269  0.43346223  1.0
  Sb  Sb1  1  1.29192269  0.32910207  0.06653777  1.0
  Sb  Sb2  1  0.67089793  -0.29192269  0.56653777  1.0
  Sb  Sb3  1  0.70807731  -0.32910207  0.93346223  1.0
  C  C4  1  1.60466585  0.25711582  0.34690297  1.0
  C  C5  1  1.25711582  0.60466585  0.15309703  1.0
  C  C6  1  0.39533415  -0.25711582  0.65309703  1.0
  C  C7  1  0.74288418  -0.60466585  0.84690297  1.0
  C  C8  1  0.78494707  -0.78348372  0.41568353  1.0
  C  C9  1  0.21651628  -0.21505293  0.08431647  1.0
  C  C10  1  1.21505293  0.78348372  0.58431647  1.0
  C  C11  1  1.78348372  0.21505293  0.91568353  1.0
  O  O12  1  1.55334064  0.27116887  0.43984572  1.0
  O  O13  1  1.27116887  0.55334064  0.06015428  1.0
  O  O14  1  0.44665936  -0.27116887  0.56015428  1.0
  O  O15  1  0.72883113  -0.55334064  0.93984572  1.0
  O  O16  1  1.27409662  0.53394744  0.29099424  1.0
  O  O17  1  1.53394744  0.27409662  0.20900576  1.0
  O  O18  1  0.72590338  -0.53394744  0.70900576  1.0
  O  O19  1  0.46605256  -0.27409662  0.79099424  1.0
  O  O20  1  1.25330904  0.25330904  0.25000000  1.0
  O  O21  1  0.74669096  -0.25330904  0.75000000  1.0
  F  F22  1  1.39934613  0.07843698  0.57339247  1.0
  F  F23  1  1.07843698  0.39934613  0.92660753  1.0
  F  F24  1  0.60065387  -0.07843698  0.42660753  1.0
  F  F25  1  0.92156302  -0.39934613  0.07339247  1.0
  F  F26  1  1.13470346  0.32554709  0.43577364  1.0
  F  F27  1  1.32554709  0.13470346  0.06422636  1.0
  F  F28  1  0.86529654  -0.32554709  0.56422636  1.0
  F  F29  1  0.67445291  -0.13470346  0.93577364  1.0
  F  F30  1  1.42044988  0.35106013  0.59543121  1.0
  F  F31  1  1.35106013  0.42044988  0.90456879  1.0
  F  F32  1  0.57955012  -0.35106013  0.40456879  1.0
  F  F33  1  0.64893987  -0.42044988  0.09543121  1.0
  F  F34  1  0.83051615  -0.66863609  0.44798293  1.0
  F  F35  1  0.33136391  -0.16948385  0.05201707  1.0
  F  F36  1  1.16948385  0.66863609  0.55201707  1.0
  F  F37  1  1.66863609  0.16948385  0.94798293  1.0
  F  F38  1  1.84697760  0.08435170  0.54900657  1.0
  F  F39  1  1.08435170  0.84697760  0.95099343  1.0
  F  F40  1  0.15302240  -0.08435170  0.45099343  1.0
  F  F41  1  0.91564830  -0.84697760  0.04900657  1.0
  F  F42  1  0.83409591  -0.80126862  0.31480302  1.0
  F  F43  1  0.19873138  -0.16590409  0.18519698  1.0
  F  F44  1  1.16590409  0.80126862  0.68519698  1.0
  F  F45  1  1.80126862  0.16590409  0.81480302  1.0
