# generated using pymatgen
data_P3N5
_symmetry_space_group_name_H-M   'P 1'
_cell_length_a   7.03989945
_cell_length_b   7.03989945
_cell_length_c   7.03989945
_cell_angle_alpha   158.43276806
_cell_angle_beta   43.45301644
_cell_angle_gamma   142.74524081
_symmetry_Int_Tables_number   1
_chemical_formula_structural   P3N5
_chemical_formula_sum   'P3 N5'
_cell_volume   77.47886598
_cell_formula_units_Z   1
loop_
 _symmetry_equiv_pos_site_id
 _symmetry_equiv_pos_as_xyz
  1  'x, y, z'
loop_
 _atom_site_type_symbol
 _atom_site_label
 _atom_site_symmetry_multiplicity
 _atom_site_fract_x
 _atom_site_fract_y
 _atom_site_fract_z
 _atom_site_occupancy
  P  P0  1  0.19798601  0.69798601  0.50000000  1.0
  P  P1  1  1.35474628  0.53754250  0.81720379  1.0
  P  P2  1  0.72033871  0.53754250  1.18279621  1.0
  N  N3  1  0.98696302  0.26059966  0.72636336  1.0
  N  N4  1  1.53423629  1.26059966  1.27363664  1.0
  N  N5  1  1.52245068  0.91863146  0.60381922  1.0
  N  N6  1  1.31481223  0.91863146  1.39618078  1.0
  N  N7  1  0.00116678  0.00116678  -0.00000000  1.0
