# generated using pymatgen
data_LiMoO2
_symmetry_space_group_name_H-M   'P 1'
_cell_length_a   5.54099487
_cell_length_b   5.54099487
_cell_length_c   5.03258323
_cell_angle_alpha   80.56389597
_cell_angle_beta   99.43610403
_cell_angle_gamma   150.62548637
_symmetry_Int_Tables_number   1
_chemical_formula_structural   LiMoO2
_chemical_formula_sum   'Li2 Mo2 O4'
_cell_volume   74.69487555
_cell_formula_units_Z   2
loop_
 _symmetry_equiv_pos_site_id
 _symmetry_equiv_pos_as_xyz
  1  'x, y, z'
loop_
 _atom_site_type_symbol
 _atom_site_label
 _atom_site_symmetry_multiplicity
 _atom_site_fract_x
 _atom_site_fract_y
 _atom_site_fract_z
 _atom_site_occupancy
  Li  Li0  1  0.50000000  0.50000000  0.50000000  1.0
  Li  Li1  1  0.00000000  0.00000000  0.00000000  1.0
  Mo  Mo2  1  0.74776189  -0.74776189  0.28240781  1.0
  Mo  Mo3  1  1.25223811  -0.25223811  0.71759219  1.0
  O  O4  1  0.88740323  -0.88740323  0.62814250  1.0
  O  O5  1  1.11259677  -0.11259677  0.37185750  1.0
  O  O6  1  0.63646161  -0.63646161  0.88422972  1.0
  O  O7  1  1.36353839  -0.36353839  0.11577028  1.0
