# generated using pymatgen
data_Ti2Ni
_symmetry_space_group_name_H-M   'P 1'
_cell_length_a   7.98329615
_cell_length_b   7.98329615
_cell_length_c   7.98329615
_cell_angle_alpha   60.00000000
_cell_angle_beta   60.00000000
_cell_angle_gamma   60.00000000
_symmetry_Int_Tables_number   1
_chemical_formula_structural   Ti2Ni
_chemical_formula_sum   'Ti16 Ni8'
_cell_volume   359.77561392
_cell_formula_units_Z   8
loop_
 _symmetry_equiv_pos_site_id
 _symmetry_equiv_pos_as_xyz
  1  'x, y, z'
loop_
 _atom_site_type_symbol
 _atom_site_label
 _atom_site_symmetry_multiplicity
 _atom_site_fract_x
 _atom_site_fract_y
 _atom_site_fract_z
 _atom_site_occupancy
  Ti  Ti0  1  1.12500000  0.62500000  0.62500000  1.0
  Ti  Ti1  1  0.62500000  1.12500000  -0.37500000  1.0
  Ti  Ti2  1  -0.37500000  0.62500000  1.12500000  1.0
  Ti  Ti3  1  -0.37500000  0.62500000  0.62500000  1.0
  Ti  Ti4  1  0.18703614  1.18703614  -0.18703614  1.0
  Ti  Ti5  1  0.81296386  0.81296386  -0.81296386  1.0
  Ti  Ti6  1  0.18703614  -0.18703614  0.18703614  1.0
  Ti  Ti7  1  0.81296386  -0.81296386  0.81296386  1.0
  Ti  Ti8  1  -0.18703614  0.18703614  0.18703614  1.0
  Ti  Ti9  1  -0.81296386  0.81296386  0.81296386  1.0
  Ti  Ti10  1  0.06296386  0.06296386  0.43703614  1.0
  Ti  Ti11  1  0.43703614  1.43703614  0.06296386  1.0
  Ti  Ti12  1  0.06296386  1.43703614  0.06296386  1.0
  Ti  Ti13  1  0.43703614  1.06296386  0.43703614  1.0
  Ti  Ti14  1  0.43703614  1.06296386  0.06296386  1.0
  Ti  Ti15  1  0.06296386  1.43703614  0.43703614  1.0
  Ni  Ni16  1  -0.23127980  0.41042660  0.41042660  1.0
  Ni  Ni17  1  0.41042660  -0.23127980  0.41042660  1.0
  Ni  Ni18  1  0.41042660  1.41042660  -0.23127980  1.0
  Ni  Ni19  1  0.41042660  1.41042660  0.41042660  1.0
  Ni  Ni20  1  0.48127980  0.83957340  -0.16042660  1.0
  Ni  Ni21  1  0.83957340  0.48127980  0.83957340  1.0
  Ni  Ni22  1  0.83957340  0.83957340  -0.51872020  1.0
  Ni  Ni23  1  0.83957340  0.83957340  0.83957340  1.0
