# generated using pymatgen
data_Ti20(CoB2)3
_symmetry_space_group_name_H-M   'P 1'
_cell_length_a   8.32504564
_cell_length_b   8.32504564
_cell_length_c   8.32504564
_cell_angle_alpha   60.00000000
_cell_angle_beta   60.00000000
_cell_angle_gamma   60.00000000
_symmetry_Int_Tables_number   1
_chemical_formula_structural   Ti20(CoB2)3
_chemical_formula_sum   'Ti20 Co3 B6'
_cell_volume   407.98563418
_cell_formula_units_Z   1
loop_
 _symmetry_equiv_pos_site_id
 _symmetry_equiv_pos_as_xyz
  1  'x, y, z'
loop_
 _atom_site_type_symbol
 _atom_site_label
 _atom_site_symmetry_multiplicity
 _atom_site_fract_x
 _atom_site_fract_y
 _atom_site_fract_z
 _atom_site_occupancy
  Ti  Ti0  1  1.66700605  -0.00000000  0.00000000  1.0
  Ti  Ti1  1  1.00000000  0.33299395  -0.33299395  1.0
  Ti  Ti2  1  1.00000000  0.66700605  -0.66700605  1.0
  Ti  Ti3  1  1.33299395  -0.00000000  0.00000000  1.0
  Ti  Ti4  1  -0.00000000  1.66700605  0.00000000  1.0
  Ti  Ti5  1  0.33299395  1.00000000  -0.33299395  1.0
  Ti  Ti6  1  0.00000000  0.00000000  0.66700605  1.0
  Ti  Ti7  1  0.33299395  -0.33299395  1.00000000  1.0
  Ti  Ti8  1  0.66700605  1.00000000  -0.66700605  1.0
  Ti  Ti9  1  -0.00000000  1.33299395  0.00000000  1.0
  Ti  Ti10  1  0.66700605  -0.66700605  1.00000000  1.0
  Ti  Ti11  1  0.00000000  0.00000000  0.33299395  1.0
  Ti  Ti12  1  0.62491951  0.62491951  -0.37508049  1.0
  Ti  Ti13  1  0.37508049  1.37508049  -0.12524148  1.0
  Ti  Ti14  1  1.37508049  -0.12524148  0.37508049  1.0
  Ti  Ti15  1  1.12524148  0.62491951  0.62491951  1.0
  Ti  Ti16  1  -0.12524148  1.37508049  0.37508049  1.0
  Ti  Ti17  1  0.62491951  1.12524148  -0.37508049  1.0
  Ti  Ti18  1  0.62491951  0.62491951  1.12524148  1.0
  Ti  Ti19  1  1.37508049  0.37508049  0.37508049  1.0
  Co  Co20  1  0.75000000  0.75000000  -0.25000000  1.0
  Co  Co21  1  1.25000000  0.25000000  0.25000000  1.0
  Co  Co22  1  -0.00000000  -0.00000000  0.00000000  1.0
  B  B23  1  -0.71998359  0.71998359  0.71998359  1.0
  B  B24  1  -0.28001641  0.28001641  0.71998359  1.0
  B  B25  1  0.71998359  0.71998359  -0.71998359  1.0
  B  B26  1  0.28001641  1.28001641  -0.28001641  1.0
  B  B27  1  0.28001641  -0.28001641  1.28001641  1.0
  B  B28  1  -0.28001641  0.28001641  0.28001641  1.0
