# generated using pymatgen
data_WXeOF6
_symmetry_space_group_name_H-M   'P 1'
_cell_length_a   5.94588036
_cell_length_b   11.12081860
_cell_length_c   11.99074073
_cell_angle_alpha   90.00000000
_cell_angle_beta   94.11127394
_cell_angle_gamma   90.00000000
_symmetry_Int_Tables_number   1
_chemical_formula_structural   WXeOF6
_chemical_formula_sum   'W4 Xe4 O4 F24'
_cell_volume   790.82414933
_cell_formula_units_Z   4
loop_
 _symmetry_equiv_pos_site_id
 _symmetry_equiv_pos_as_xyz
  1  'x, y, z'
loop_
 _atom_site_type_symbol
 _atom_site_label
 _atom_site_symmetry_multiplicity
 _atom_site_fract_x
 _atom_site_fract_y
 _atom_site_fract_z
 _atom_site_occupancy
  W  W0  1  0.91081306  0.98938599  0.73836772  1.0
  W  W1  1  0.91081306  0.51061401  0.23836772  1.0
  W  W2  1  0.08918694  0.48938599  0.76163228  1.0
  W  W3  1  0.08918694  0.01061401  0.26163228  1.0
  Xe  Xe4  1  0.46339121  0.72454853  0.96883687  1.0
  Xe  Xe5  1  0.46339121  0.77545147  0.46883687  1.0
  Xe  Xe6  1  0.53660879  0.22454853  0.53116313  1.0
  Xe  Xe7  1  0.53660879  0.27545147  0.03116313  1.0
  O  O8  1  0.93861031  0.43177415  0.64791124  1.0
  O  O9  1  0.93861031  0.06822585  0.14791124  1.0
  O  O10  1  0.06138969  0.93177415  0.85208876  1.0
  O  O11  1  0.06138969  0.56822585  0.35208876  1.0
  F  F12  1  0.99086374  0.88123200  0.62697576  1.0
  F  F13  1  0.99086374  0.61876800  0.12697576  1.0
  F  F14  1  0.00913626  0.38123200  0.87302424  1.0
  F  F15  1  0.00913626  0.11876800  0.37302424  1.0
  F  F16  1  0.87788326  0.59858316  0.81335607  1.0
  F  F17  1  0.87788326  0.90141684  0.31335607  1.0
  F  F18  1  0.12211674  0.09858316  0.68664393  1.0
  F  F19  1  0.12211674  0.40141684  0.18664393  1.0
  F  F20  1  0.62794719  0.62634231  0.51819543  1.0
  F  F21  1  0.62794719  0.87365769  0.01819543  1.0
  F  F22  1  0.37205281  0.12634231  0.98180457  1.0
  F  F23  1  0.37205281  0.37365769  0.48180457  1.0
  F  F24  1  0.64024425  0.90169807  0.74473295  1.0
  F  F25  1  0.64024425  0.59830193  0.24473295  1.0
  F  F26  1  0.35975575  0.40169807  0.75526705  1.0
  F  F27  1  0.35975575  0.09830193  0.25526705  1.0
  F  F28  1  0.29399226  0.56172942  0.91895747  1.0
  F  F29  1  0.29399226  0.93827058  0.41895747  1.0
  F  F30  1  0.70600774  0.06172942  0.58104253  1.0
  F  F31  1  0.70600774  0.43827058  0.08104253  1.0
  F  F32  1  0.23362653  0.62098166  0.69849309  1.0
  F  F33  1  0.23362653  0.87901834  0.19849309  1.0
  F  F34  1  0.76637347  0.12098166  0.80150691  1.0
  F  F35  1  0.76637347  0.37901834  0.30150691  1.0
