# generated using pymatgen
data_Y3CuGeS7
_symmetry_space_group_name_H-M   'P 1'
_cell_length_a   9.86187390
_cell_length_b   9.86187390
_cell_length_c   5.86641530
_cell_angle_alpha   90.00000000
_cell_angle_beta   90.00000000
_cell_angle_gamma   120.00000000
_symmetry_Int_Tables_number   1
_chemical_formula_structural   Y3CuGeS7
_chemical_formula_sum   'Y6 Cu2 Ge2 S14'
_cell_volume   494.10850208
_cell_formula_units_Z   2
loop_
 _symmetry_equiv_pos_site_id
 _symmetry_equiv_pos_as_xyz
  1  'x, y, z'
loop_
 _atom_site_type_symbol
 _atom_site_label
 _atom_site_symmetry_multiplicity
 _atom_site_fract_x
 _atom_site_fract_y
 _atom_site_fract_z
 _atom_site_occupancy
  Y  Y0  1  0.22275965  0.86502829  0.06194782  1.0
  Y  Y1  1  0.86502829  0.64226864  0.56194782  1.0
  Y  Y2  1  0.64226864  0.77724035  0.06194782  1.0
  Y  Y3  1  0.13497171  0.35773136  0.06194782  1.0
  Y  Y4  1  0.77724035  0.13497171  0.56194782  1.0
  Y  Y5  1  0.35773136  0.22275965  0.56194782  1.0
  Cu  Cu6  1  0.00000000  0.00000000  -0.00449444  1.0
  Cu  Cu7  1  0.00000000  0.00000000  0.49550556  1.0
  Ge  Ge8  1  0.33333333  0.66666667  0.64250825  1.0
  Ge  Ge9  1  0.66666667  0.33333333  0.14250825  1.0
  S  S10  1  0.89871389  0.74041897  0.01727038  1.0
  S  S11  1  0.74041897  0.84170508  0.51727038  1.0
  S  S12  1  0.84170508  0.10128611  0.01727038  1.0
  S  S13  1  0.25958103  0.15829492  0.01727038  1.0
  S  S14  1  0.10128611  0.25958103  0.51727038  1.0
  S  S15  1  0.15829492  0.89871389  0.51727038  1.0
  S  S16  1  0.57751962  0.47994060  0.30519297  1.0
  S  S17  1  0.47994060  0.90242098  0.80519297  1.0
  S  S18  1  0.90242098  0.42248038  0.30519297  1.0
  S  S19  1  0.52005940  0.09757902  0.30519297  1.0
  S  S20  1  0.42248038  0.52005940  0.80519297  1.0
  S  S21  1  0.09757902  0.57751962  0.80519297  1.0
  S  S22  1  0.33333333  0.66666667  0.26515267  1.0
  S  S23  1  0.66666667  0.33333333  0.76515267  1.0
