# generated using pymatgen
data_Na6Be8O11
_symmetry_space_group_name_H-M   'P 1'
_cell_length_a   5.31326634
_cell_length_b   8.38741899
_cell_length_c   6.45085775
_cell_angle_alpha   102.69511643
_cell_angle_beta   103.57906666
_cell_angle_gamma   95.59460409
_symmetry_Int_Tables_number   1
_chemical_formula_structural   Na6Be8O11
_chemical_formula_sum   'Na6 Be8 O11'
_cell_volume   269.22217928
_cell_formula_units_Z   1
loop_
 _symmetry_equiv_pos_site_id
 _symmetry_equiv_pos_as_xyz
  1  'x, y, z'
loop_
 _atom_site_type_symbol
 _atom_site_label
 _atom_site_symmetry_multiplicity
 _atom_site_fract_x
 _atom_site_fract_y
 _atom_site_fract_z
 _atom_site_occupancy
  Na  Na0  1  -0.72224477  -0.49890978  -0.38671163  1.0
  Na  Na1  1  -0.27775523  -0.50109022  -0.61328837  1.0
  Na  Na2  1  -0.71267943  -0.29894634  -0.77773077  1.0
  Na  Na3  1  -0.28732057  -0.70105366  -0.22226923  1.0
  Na  Na4  1  -0.46422872  -0.93113892  -0.73982495  1.0
  Na  Na5  1  -0.53577128  -0.06886108  -0.26017505  1.0
  Be  Be6  1  -0.97973255  -0.94970282  -0.13804107  1.0
  Be  Be7  1  -0.02026745  -0.05029718  -0.86195893  1.0
  Be  Be8  1  -0.97205602  -0.75429844  -0.73989706  1.0
  Be  Be9  1  -0.02794398  -0.24570156  -0.26010294  1.0
  Be  Be10  1  -0.94866477  -0.86380530  -0.43096578  1.0
  Be  Be11  1  -0.05133523  -0.13619470  -0.56903422  1.0
  Be  Be12  1  -0.67362901  -0.64962577  -0.97814976  1.0
  Be  Be13  1  -0.32637099  -0.35037423  -0.02185024  1.0
  O  O14  1  -0.92268344  -0.27778939  -0.47111379  1.0
  O  O15  1  -0.07731656  -0.72221061  -0.52888621  1.0
  O  O16  1  -0.83139144  -0.98730882  -0.60924061  1.0
  O  O17  1  -0.16860856  -0.01269118  -0.39075939  1.0
  O  O18  1  -0.76752382  -0.80820241  -0.17239178  1.0
  O  O19  1  -0.23247618  -0.19179759  -0.82760822  1.0
  O  O20  1  -0.73594064  -0.63668697  -0.75365987  1.0
  O  O21  1  -0.26405936  -0.36331303  -0.24634013  1.0
  O  O22  1  -0.13785206  -0.89143961  -0.95233564  1.0
  O  O23  1  -0.86214794  -0.10856039  -0.04766436  1.0
  O  O24  1  -0.50000000  -0.50000000  0.00000000  1.0
