# generated using pymatgen
data_Cs3ZnH5
_symmetry_space_group_name_H-M   'P 1'
_cell_length_a   8.53287213
_cell_length_b   8.53287213
_cell_length_c   8.53287213
_cell_angle_alpha   121.33153881
_cell_angle_beta   121.33153881
_cell_angle_gamma   87.70877572
_symmetry_Int_Tables_number   1
_chemical_formula_structural   Cs3ZnH5
_chemical_formula_sum   'Cs6 Zn2 H10'
_cell_volume   430.09440520
_cell_formula_units_Z   2
loop_
 _symmetry_equiv_pos_site_id
 _symmetry_equiv_pos_as_xyz
  1  'x, y, z'
loop_
 _atom_site_type_symbol
 _atom_site_label
 _atom_site_symmetry_multiplicity
 _atom_site_fract_x
 _atom_site_fract_y
 _atom_site_fract_z
 _atom_site_occupancy
  Cs  Cs0  1  0.82159981  0.32159981  1.14319961  1.0
  Cs  Cs1  1  0.67840019  0.82159981  1.50000000  1.0
  Cs  Cs2  1  0.32159981  0.17840019  0.50000000  1.0
  Cs  Cs3  1  0.17840019  0.67840019  0.85680039  1.0
  Cs  Cs4  1  0.75000000  0.75000000  1.00000000  1.0
  Cs  Cs5  1  0.25000000  0.25000000  0.00000000  1.0
  Zn  Zn6  1  0.25000000  0.75000000  0.50000000  1.0
  Zn  Zn7  1  0.75000000  0.25000000  0.50000000  1.0
  H  H8  1  1.21646429  0.71646429  1.27163358  1.0
  H  H9  1  0.55516929  1.05516929  1.27163358  1.0
  H  H10  1  0.94483071  1.21646429  1.50000000  1.0
  H  H11  1  0.28353571  0.55516929  0.50000000  1.0
  H  H12  1  0.71646429  0.44483071  0.50000000  1.0
  H  H13  1  1.05516929  0.78353571  1.50000000  1.0
  H  H14  1  0.44483071  0.94483071  0.72836642  1.0
  H  H15  1  0.78353571  0.28353571  0.72836642  1.0
  H  H16  1  0.00000000  0.00000000  0.00000000  1.0
  H  H17  1  0.50000000  0.50000000  1.00000000  1.0
