# generated using pymatgen
data_LiCeF5
_symmetry_space_group_name_H-M   'P 1'
_cell_length_a   11.13505621
_cell_length_b   11.13505621
_cell_length_c   11.13505621
_cell_angle_alpha   95.18523827
_cell_angle_beta   95.18523827
_cell_angle_gamma   145.00958703
_symmetry_Int_Tables_number   1
_chemical_formula_structural   LiCeF5
_chemical_formula_sum   'Li8 Ce8 F40'
_cell_volume   755.08474984
_cell_formula_units_Z   8
loop_
 _symmetry_equiv_pos_site_id
 _symmetry_equiv_pos_as_xyz
  1  'x, y, z'
loop_
 _atom_site_type_symbol
 _atom_site_label
 _atom_site_symmetry_multiplicity
 _atom_site_fract_x
 _atom_site_fract_y
 _atom_site_fract_z
 _atom_site_occupancy
  Li  Li0  1  0.54610885  0.71992914  1.00458113  1.0
  Li  Li1  1  0.71534801  0.54152772  0.99541887  1.0
  Li  Li2  1  1.03465199  0.70847228  0.50458113  1.0
  Li  Li3  1  1.20389115  1.53007086  1.49541887  1.0
  Li  Li4  1  0.45847228  0.45389115  0.17382029  1.0
  Li  Li5  1  1.28007086  1.28465199  1.82617971  1.0
  Li  Li6  1  1.46992914  0.96534801  0.67382029  1.0
  Li  Li7  1  1.29152772  1.79610885  1.32617971  1.0
  Ce  Ce8  1  0.70805471  0.94926288  1.37303223  1.0
  Ce  Ce9  1  0.57623065  0.33502248  0.62696777  1.0
  Ce  Ce10  1  1.17376935  0.91497752  0.87303223  1.0
  Ce  Ce11  1  1.04194529  1.30073712  1.12696777  1.0
  Ce  Ce12  1  0.66497752  1.29194529  1.24120817  1.0
  Ce  Ce13  1  1.05073712  0.42376935  0.75879183  1.0
  Ce  Ce14  1  1.69926288  1.82623065  1.74120817  1.0
  Ce  Ce15  1  1.08502248  0.95805471  0.25879183  1.0
  F  F16  1  1.48111131  1.61261891  1.29858942  1.0
  F  F17  1  1.31402949  1.18252189  0.70141058  1.0
  F  F18  1  1.43597051  1.06747811  0.79858942  1.0
  F  F19  1  1.26888869  1.63738109  1.20141058  1.0
  F  F20  1  0.81747811  1.51888869  1.13150760  1.0
  F  F21  1  1.38738109  0.68597051  0.86849240  1.0
  F  F22  1  1.36261891  1.56402949  1.63150760  1.0
  F  F23  1  0.93252189  0.73111131  0.36849240  1.0
  F  F24  1  0.94405016  0.99606727  1.36638290  1.0
  F  F25  1  0.62968436  0.57766725  0.63361710  1.0
  F  F26  1  1.12031564  0.67233275  0.86638290  1.0
  F  F27  1  0.80594984  1.25393273  1.13361710  1.0
  F  F28  1  0.42233275  1.05594984  1.05201711  1.0
  F  F29  1  1.00393273  0.37031564  0.94798289  1.0
  F  F30  1  0.74606727  0.87968436  1.55201711  1.0
  F  F31  1  0.32766725  0.19405016  0.44798289  1.0
  F  F32  1  1.44014879  1.80036886  1.45208477  1.0
  F  F33  1  1.34828410  0.98806403  0.54791523  1.0
  F  F34  1  1.40171590  1.26193597  0.95208477  1.0
  F  F35  1  1.30985121  1.44963114  1.04791523  1.0
  F  F36  1  1.01193597  1.55985121  1.36022007  1.0
  F  F37  1  1.19963114  0.65171590  0.63977993  1.0
  F  F38  1  1.55036886  1.59828410  1.86022007  1.0
  F  F39  1  0.73806403  0.69014879  0.13977993  1.0
  F  F40  1  0.70757970  0.93783310  1.16524507  1.0
  F  F41  1  0.77258803  0.54233462  0.83475493  1.0
  F  F42  1  0.97741197  0.70766538  0.66524507  1.0
  F  F43  1  1.04242030  1.31216690  1.33475493  1.0
  F  F44  1  0.45766538  0.29242030  0.23025341  1.0
  F  F45  1  1.06216690  1.22741197  1.76974659  1.0
  F  F46  1  1.68783310  1.02258803  0.73025341  1.0
  F  F47  1  1.29233462  1.95757970  1.26974659  1.0
  F  F48  1  0.92510830  1.24425515  1.54342402  1.0
  F  F49  1  0.70083113  0.38168428  0.45657598  1.0
  F  F50  1  1.04916887  1.86831572  1.04342402  1.0
  F  F51  1  1.82489170  1.00574485  0.95657598  1.0
  F  F52  1  0.61831572  1.07489170  1.31914685  1.0
  F  F53  1  0.75574485  0.29916887  0.68085315  1.0
  F  F54  1  0.99425515  0.95083113  0.81914685  1.0
  F  F55  1  1.13168428  1.17510830  1.18085315  1.0
