# generated using pymatgen
data_KPH2SO3
_symmetry_space_group_name_H-M   'P 1'
_cell_length_a   4.60489427
_cell_length_b   4.60489427
_cell_length_c   6.08328426
_cell_angle_alpha   75.83145464
_cell_angle_beta   104.16854536
_cell_angle_gamma   92.71349049
_symmetry_Int_Tables_number   1
_chemical_formula_structural   KPH2SO3
_chemical_formula_sum   'K1 P1 H2 S1 O3'
_cell_volume   121.25670828
_cell_formula_units_Z   1
loop_
 _symmetry_equiv_pos_site_id
 _symmetry_equiv_pos_as_xyz
  1  'x, y, z'
loop_
 _atom_site_type_symbol
 _atom_site_label
 _atom_site_symmetry_multiplicity
 _atom_site_fract_x
 _atom_site_fract_y
 _atom_site_fract_z
 _atom_site_occupancy
  K  K0  1  0.72909783  0.27090217  0.51984645  1.0
  P  P1  1  1.23231703  -0.23231703  0.01416515  1.0
  H  H2  1  1.09880765  -0.71782264  0.09401981  1.0
  H  H3  1  1.71782264  -0.09880765  0.09401981  1.0
  S  S4  1  1.26791450  -0.26791450  0.70264572  1.0
  O  O5  1  1.15101884  -0.54238510  0.17405520  1.0
  O  O6  1  1.54238510  -0.15101884  0.17405520  1.0
  O  O7  1  -0.00286360  0.00286360  0.00539266  1.0
