# generated using pymatgen
data_Ni(PO3)2
_symmetry_space_group_name_H-M   'P 1'
_cell_length_a   7.21143017
_cell_length_b   7.21143017
_cell_length_c   9.98020136
_cell_angle_alpha   67.31984671
_cell_angle_beta   112.68015329
_cell_angle_gamma   109.48459143
_symmetry_Int_Tables_number   1
_chemical_formula_structural   Ni(PO3)2
_chemical_formula_sum   'Ni4 P8 O24'
_cell_volume   431.30698883
_cell_formula_units_Z   4
loop_
 _symmetry_equiv_pos_site_id
 _symmetry_equiv_pos_as_xyz
  1  'x, y, z'
loop_
 _atom_site_type_symbol
 _atom_site_label
 _atom_site_symmetry_multiplicity
 _atom_site_fract_x
 _atom_site_fract_y
 _atom_site_fract_z
 _atom_site_occupancy
  Ni  Ni0  1  1.44477310  0.44477310  0.75000000  1.0
  Ni  Ni1  1  0.55522690  0.55522690  0.25000000  1.0
  Ni  Ni2  1  1.50000000  -0.00000000  0.00000000  1.0
  Ni  Ni3  1  1.00000000  0.50000000  0.50000000  1.0
  P  P4  1  0.81228293  0.20615789  0.80372094  1.0
  P  P5  1  0.79384211  0.18771707  0.30372094  1.0
  P  P6  1  1.20615789  0.81228293  0.69627906  1.0
  P  P7  1  0.18771707  -0.20615789  0.19627906  1.0
  P  P8  1  1.75108719  -0.23127098  0.52360428  1.0
  P  P9  1  1.23127098  -0.75108719  0.02360428  1.0
  P  P10  1  0.76872902  -0.24891281  0.97639572  1.0
  P  P11  1  1.24891281  0.23127098  0.47639572  1.0
  O  O12  1  0.58379010  -0.34939252  0.59490371  1.0
  O  O13  1  1.34939252  -0.58379010  0.09490371  1.0
  O  O14  1  0.65060748  -0.41620990  0.90509629  1.0
  O  O15  1  0.41620990  0.34939252  0.40509629  1.0
  O  O16  1  1.61800419  0.21704615  0.82572962  1.0
  O  O17  1  0.78295385  0.38199581  0.32572962  1.0
  O  O18  1  1.21704615  0.61800419  0.67427038  1.0
  O  O19  1  1.38199581  -0.21704615  0.17427038  1.0
  O  O20  1  0.81367920  -0.03350059  0.84702898  1.0
  O  O21  1  1.03350059  0.18632080  0.34702898  1.0
  O  O22  1  0.96649941  0.81367920  0.65297102  1.0
  O  O23  1  0.18632080  0.03350059  0.15297102  1.0
  O  O24  1  1.30999923  0.20944279  0.91634167  1.0
  O  O25  1  0.79055721  0.69000077  0.41634167  1.0
  O  O26  1  1.20944279  0.30999923  0.58365833  1.0
  O  O27  1  1.69000077  -0.20944279  0.08365833  1.0
  O  O28  1  0.31072741  -0.15820808  0.84955511  1.0
  O  O29  1  1.15820808  0.68927259  0.34955511  1.0
  O  O30  1  0.84179192  0.31072741  0.65044489  1.0
  O  O31  1  0.68927259  0.15820808  0.15044489  1.0
  O  O32  1  0.70982680  -0.00186310  0.43427554  1.0
  O  O33  1  1.00186310  0.29017320  0.93427554  1.0
  O  O34  1  0.99813690  0.70982680  0.06572446  1.0
  O  O35  1  0.29017320  0.00186310  0.56572446  1.0
