# generated using pymatgen
data_PtSO4
_symmetry_space_group_name_H-M   'P 1'
_cell_length_a   6.98253901
_cell_length_b   6.98253901
_cell_length_c   6.98253901
_cell_angle_alpha   145.67621520
_cell_angle_beta   88.85248193
_cell_angle_gamma   101.19579393
_symmetry_Int_Tables_number   1
_chemical_formula_structural   PtSO4
_chemical_formula_sum   'Pt2 S2 O8'
_cell_volume   182.14974378
_cell_formula_units_Z   2
loop_
 _symmetry_equiv_pos_site_id
 _symmetry_equiv_pos_as_xyz
  1  'x, y, z'
loop_
 _atom_site_type_symbol
 _atom_site_label
 _atom_site_symmetry_multiplicity
 _atom_site_fract_x
 _atom_site_fract_y
 _atom_site_fract_z
 _atom_site_occupancy
  Pt  Pt0  1  0.50000000  0.50000000  1.00000000  1.0
  Pt  Pt1  1  0.00000000  0.00000000  0.00000000  1.0
  S  S2  1  0.75000000  0.25000000  0.50000000  1.0
  S  S3  1  1.25000000  0.75000000  0.50000000  1.0
  O  O4  1  1.43765095  1.63939989  1.38684526  1.0
  O  O5  1  1.25255463  1.05080569  0.61315474  1.0
  O  O6  1  1.24744537  0.86060011  0.79825106  1.0
  O  O7  1  1.06234905  1.44919431  1.20174894  1.0
  O  O8  1  0.56234905  0.36060011  0.61315474  1.0
  O  O9  1  0.74744537  0.94919431  1.38684526  1.0
  O  O10  1  0.75255463  1.13939989  1.20174894  1.0
  O  O11  1  0.93765095  0.55080569  0.79825106  1.0
