# generated using pymatgen
data_K2Cr2PbO8
_symmetry_space_group_name_H-M   'P 1'
_cell_length_a   7.78484086
_cell_length_b   7.78484086
_cell_length_c   7.78484086
_cell_angle_alpha   43.90231031
_cell_angle_beta   43.90231031
_cell_angle_gamma   43.90231031
_symmetry_Int_Tables_number   1
_chemical_formula_structural   K2Cr2PbO8
_chemical_formula_sum   'K2 Cr2 Pb1 O8'
_cell_volume   206.00751533
_cell_formula_units_Z   1
loop_
 _symmetry_equiv_pos_site_id
 _symmetry_equiv_pos_as_xyz
  1  'x, y, z'
loop_
 _atom_site_type_symbol
 _atom_site_label
 _atom_site_symmetry_multiplicity
 _atom_site_fract_x
 _atom_site_fract_y
 _atom_site_fract_z
 _atom_site_occupancy
  K  K0  1  0.80216386  0.80216386  0.80216386  1.0
  K  K1  1  1.19783614  1.19783614  0.19783614  1.0
  Cr  Cr2  1  1.60067207  0.60067207  0.60067207  1.0
  Cr  Cr3  1  1.39932793  0.39932793  0.39932793  1.0
  Pb  Pb4  1  0.00000000  0.00000000  0.00000000  1.0
  O  O5  1  1.26794144  0.26794144  0.73808162  1.0
  O  O6  1  1.26794144  0.73808162  0.26794144  1.0
  O  O7  1  1.26191838  0.73205856  0.73205856  1.0
  O  O8  1  1.73205856  0.26191838  0.73205856  1.0
  O  O9  1  1.73205856  0.73205856  0.26191838  1.0
  O  O10  1  1.73808162  0.26794144  0.26794144  1.0
  O  O11  1  0.67790958  0.67790958  0.67790958  1.0
  O  O12  1  1.32209042  1.32209042  0.32209042  1.0
