# generated using pymatgen
data_Be3Cd4Si3SO12
_symmetry_space_group_name_H-M   'P 1'
_cell_length_a   8.54938473
_cell_length_b   8.54938473
_cell_length_c   8.54938473
_cell_angle_alpha   90.00000000
_cell_angle_beta   90.00000000
_cell_angle_gamma   90.00000000
_symmetry_Int_Tables_number   1
_chemical_formula_structural   Be3Cd4Si3SO12
_chemical_formula_sum   'Be6 Cd8 Si6 S2 O24'
_cell_volume   624.89145198
_cell_formula_units_Z   2
loop_
 _symmetry_equiv_pos_site_id
 _symmetry_equiv_pos_as_xyz
  1  'x, y, z'
loop_
 _atom_site_type_symbol
 _atom_site_label
 _atom_site_symmetry_multiplicity
 _atom_site_fract_x
 _atom_site_fract_y
 _atom_site_fract_z
 _atom_site_occupancy
  Be  Be0  1  0.25000000  0.00000000  0.50000000  1.0
  Be  Be1  1  0.75000000  0.00000000  0.50000000  1.0
  Be  Be2  1  0.50000000  0.25000000  0.00000000  1.0
  Be  Be3  1  0.50000000  0.75000000  0.00000000  1.0
  Be  Be4  1  0.00000000  0.50000000  0.25000000  1.0
  Be  Be5  1  0.00000000  0.50000000  0.75000000  1.0
  Cd  Cd6  1  0.32975208  0.32975208  0.67024792  1.0
  Cd  Cd7  1  0.32975208  0.67024792  0.32975208  1.0
  Cd  Cd8  1  0.82975208  0.82975208  0.17024792  1.0
  Cd  Cd9  1  0.82975208  0.17024792  0.82975208  1.0
  Cd  Cd10  1  0.67024792  0.32975208  0.32975208  1.0
  Cd  Cd11  1  0.67024792  0.67024792  0.67024792  1.0
  Cd  Cd12  1  0.17024792  0.82975208  0.82975208  1.0
  Cd  Cd13  1  0.17024792  0.17024792  0.17024792  1.0
  Si  Si14  1  0.25000000  0.50000000  0.00000000  1.0
  Si  Si15  1  0.75000000  0.50000000  0.00000000  1.0
  Si  Si16  1  0.00000000  0.25000000  0.50000000  1.0
  Si  Si17  1  0.00000000  0.75000000  0.50000000  1.0
  Si  Si18  1  0.50000000  0.00000000  0.25000000  1.0
  Si  Si19  1  0.50000000  0.00000000  0.75000000  1.0
  S  S20  1  0.50000000  0.50000000  0.50000000  1.0
  S  S21  1  0.00000000  0.00000000  0.00000000  1.0
  O  O22  1  0.35611204  0.07156095  0.64373996  1.0
  O  O23  1  0.35611204  0.92843905  0.35626004  1.0
  O  O24  1  0.85611204  0.85626004  0.42843905  1.0
  O  O25  1  0.85611204  0.14373996  0.57156095  1.0
  O  O26  1  0.35626004  0.35611204  0.92843905  1.0
  O  O27  1  0.35626004  0.64388796  0.07156095  1.0
  O  O28  1  0.85626004  0.57156095  0.14388796  1.0
  O  O29  1  0.85626004  0.42843905  0.85611204  1.0
  O  O30  1  0.07156095  0.35626004  0.64388796  1.0
  O  O31  1  0.07156095  0.64373996  0.35611204  1.0
  O  O32  1  0.57156095  0.85611204  0.14373996  1.0
  O  O33  1  0.57156095  0.14388796  0.85626004  1.0
  O  O34  1  0.64388796  0.07156095  0.35626004  1.0
  O  O35  1  0.64388796  0.92843905  0.64373996  1.0
  O  O36  1  0.14388796  0.85626004  0.57156095  1.0
  O  O37  1  0.14388796  0.14373996  0.42843905  1.0
  O  O38  1  0.64373996  0.35611204  0.07156095  1.0
  O  O39  1  0.64373996  0.64388796  0.92843905  1.0
  O  O40  1  0.14373996  0.57156095  0.85611204  1.0
  O  O41  1  0.14373996  0.42843905  0.14388796  1.0
  O  O42  1  0.92843905  0.35626004  0.35611204  1.0
  O  O43  1  0.92843905  0.64373996  0.64388796  1.0
  O  O44  1  0.42843905  0.85611204  0.85626004  1.0
  O  O45  1  0.42843905  0.14388796  0.14373996  1.0
