# generated using pymatgen
data_Hg2ClO
_symmetry_space_group_name_H-M   'P 1'
_cell_length_a   6.85055156
_cell_length_b   6.85055156
_cell_length_c   9.74394763
_cell_angle_alpha   75.73532012
_cell_angle_beta   104.26467988
_cell_angle_gamma   127.43308437
_symmetry_Int_Tables_number   1
_chemical_formula_structural   Hg2ClO
_chemical_formula_sum   'Hg8 Cl4 O4'
_cell_volume   349.13195378
_cell_formula_units_Z   4
loop_
 _symmetry_equiv_pos_site_id
 _symmetry_equiv_pos_as_xyz
  1  'x, y, z'
loop_
 _atom_site_type_symbol
 _atom_site_label
 _atom_site_symmetry_multiplicity
 _atom_site_fract_x
 _atom_site_fract_y
 _atom_site_fract_z
 _atom_site_occupancy
  Hg  Hg0  1  0.35947431  0.25692705  0.89509350  1.0
  Hg  Hg1  1  0.74307295  0.64052569  0.39509350  1.0
  Hg  Hg2  1  1.25692705  0.35947431  0.60490650  1.0
  Hg  Hg3  1  0.64052569  -0.25692705  0.10490650  1.0
  Hg  Hg4  1  0.90765941  0.90765941  0.75000000  1.0
  Hg  Hg5  1  0.09234059  0.09234059  0.25000000  1.0
  Hg  Hg6  1  0.50000000  0.00000000  0.50000000  1.0
  Hg  Hg7  1  1.00000000  0.50000000  -0.00000000  1.0
  Cl  Cl8  1  0.60919720  -0.01365482  0.86049325  1.0
  Cl  Cl9  1  1.01365482  0.39080280  0.36049325  1.0
  Cl  Cl10  1  0.98634518  0.60919720  0.63950675  1.0
  Cl  Cl11  1  0.39080280  0.01365482  0.13950675  1.0
  O  O12  1  0.59529478  -0.24291077  0.56150747  1.0
  O  O13  1  1.24291077  0.40470522  0.06150747  1.0
  O  O14  1  0.75708923  0.59529478  0.93849253  1.0
  O  O15  1  0.40470522  0.24291077  0.43849253  1.0
