# generated using pymatgen
data_H10C3IN
_symmetry_space_group_name_H-M   'P 1'
_cell_length_a   5.69408783
_cell_length_b   8.68063480
_cell_length_c   7.35713751
_cell_angle_alpha   90.00000000
_cell_angle_beta   106.51509937
_cell_angle_gamma   90.00000000
_symmetry_Int_Tables_number   1
_chemical_formula_structural   H10C3IN
_chemical_formula_sum   'H20 C6 I2 N2'
_cell_volume   348.64831164
_cell_formula_units_Z   2
loop_
 _symmetry_equiv_pos_site_id
 _symmetry_equiv_pos_as_xyz
  1  'x, y, z'
loop_
 _atom_site_type_symbol
 _atom_site_label
 _atom_site_symmetry_multiplicity
 _atom_site_fract_x
 _atom_site_fract_y
 _atom_site_fract_z
 _atom_site_occupancy
  H  H0  1  0.59068094  0.75000000  0.49700950  1.0
  H  H1  1  0.40931906  0.25000000  0.50299050  1.0
  H  H2  1  0.83501748  0.85369762  0.66019503  1.0
  H  H3  1  0.16498252  0.35369762  0.33980497  1.0
  H  H4  1  0.16498252  0.14630238  0.33980497  1.0
  H  H5  1  0.83501748  0.64630238  0.66019503  1.0
  H  H6  1  0.71185904  0.75000000  0.91729934  1.0
  H  H7  1  0.28814096  0.25000000  0.08270066  1.0
  H  H8  1  0.29546672  0.89430799  0.62690014  1.0
  H  H9  1  0.70453328  0.39430799  0.37309986  1.0
  H  H10  1  0.70453328  0.10569201  0.37309986  1.0
  H  H11  1  0.29546672  0.60569201  0.62690014  1.0
  H  H12  1  0.33286885  0.88827176  0.87771888  1.0
  H  H13  1  0.66713115  0.38827176  0.12228112  1.0
  H  H14  1  0.66713115  0.11172824  0.12228112  1.0
  H  H15  1  0.33286885  0.61172824  0.87771888  1.0
  H  H16  1  0.54917745  0.99291410  0.78713413  1.0
  H  H17  1  0.45082255  0.49291410  0.21286587  1.0
  H  H18  1  0.45082255  0.00708590  0.21286587  1.0
  H  H19  1  0.54917745  0.50708590  0.78713413  1.0
  C  C20  1  0.72084626  0.75000000  0.63916383  1.0
  C  C21  1  0.27915374  0.25000000  0.36083617  1.0
  C  C22  1  0.42848783  0.89206469  0.76788249  1.0
  C  C23  1  0.57151217  0.39206469  0.23211751  1.0
  C  C24  1  0.57151217  0.10793531  0.23211751  1.0
  C  C25  1  0.42848783  0.60793531  0.76788249  1.0
  I  I26  1  0.05082533  0.75000000  0.20557139  1.0
  I  I27  1  0.94917467  0.25000000  0.79442861  1.0
  N  N28  1  0.58037289  0.75000000  0.78231849  1.0
  N  N29  1  0.41962711  0.25000000  0.21768151  1.0
