# generated using pymatgen
data_ScGeRu
_symmetry_space_group_name_H-M   'P 1'
_cell_length_a   6.98194410
_cell_length_b   6.98194410
_cell_length_c   3.48682773
_cell_angle_alpha   90.00000000
_cell_angle_beta   90.00000000
_cell_angle_gamma   120.00000000
_symmetry_Int_Tables_number   1
_chemical_formula_structural   ScGeRu
_chemical_formula_sum   'Sc3 Ge3 Ru3'
_cell_volume   147.20204965
_cell_formula_units_Z   3
loop_
 _symmetry_equiv_pos_site_id
 _symmetry_equiv_pos_as_xyz
  1  'x, y, z'
loop_
 _atom_site_type_symbol
 _atom_site_label
 _atom_site_symmetry_multiplicity
 _atom_site_fract_x
 _atom_site_fract_y
 _atom_site_fract_z
 _atom_site_occupancy
  Sc  Sc0  1  0.40123699  0.40123699  0.00000000  1.0
  Sc  Sc1  1  0.00000000  0.59876301  0.00000000  1.0
  Sc  Sc2  1  0.59876301  0.00000000  0.00000000  1.0
  Ge  Ge3  1  0.33333333  0.66666667  0.50000000  1.0
  Ge  Ge4  1  0.66666667  0.33333333  0.50000000  1.0
  Ge  Ge5  1  0.00000000  0.00000000  0.00000000  1.0
  Ru  Ru6  1  0.74717712  0.74717712  0.50000000  1.0
  Ru  Ru7  1  0.00000000  0.25282288  0.50000000  1.0
  Ru  Ru8  1  0.25282288  0.00000000  0.50000000  1.0
