# generated using pymatgen
data_WI3O
_symmetry_space_group_name_H-M   'P 1'
_cell_length_a   13.15839502
_cell_length_b   13.15839502
_cell_length_c   3.81164217
_cell_angle_alpha   90.00000000
_cell_angle_beta   90.00000000
_cell_angle_gamma   90.00000000
_symmetry_Int_Tables_number   1
_chemical_formula_structural   WI3O
_chemical_formula_sum   'W4 I12 O4'
_cell_volume   659.96053073
_cell_formula_units_Z   4
loop_
 _symmetry_equiv_pos_site_id
 _symmetry_equiv_pos_as_xyz
  1  'x, y, z'
loop_
 _atom_site_type_symbol
 _atom_site_label
 _atom_site_symmetry_multiplicity
 _atom_site_fract_x
 _atom_site_fract_y
 _atom_site_fract_z
 _atom_site_occupancy
  W  W0  1  0.08459619  0.08459619  0.50000000  1.0
  W  W1  1  0.58459619  0.41540381  0.00000000  1.0
  W  W2  1  0.91540381  0.91540381  0.50000000  1.0
  W  W3  1  0.41540381  0.58459619  0.00000000  1.0
  I  I4  1  0.29464587  0.09601378  0.50000000  1.0
  I  I5  1  0.79464587  0.40398622  0.00000000  1.0
  I  I6  1  0.90398622  0.70535413  0.50000000  1.0
  I  I7  1  0.40398622  0.79464587  0.00000000  1.0
  I  I8  1  0.70535413  0.90398622  0.50000000  1.0
  I  I9  1  0.20535413  0.59601378  0.00000000  1.0
  I  I10  1  0.09601378  0.29464587  0.50000000  1.0
  I  I11  1  0.59601378  0.20535413  0.00000000  1.0
  I  I12  1  0.12073935  0.87926065  0.50000000  1.0
  I  I13  1  0.62073935  0.62073935  0.00000000  1.0
  I  I14  1  0.87926065  0.12073935  0.50000000  1.0
  I  I15  1  0.37926065  0.37926065  0.00000000  1.0
  O  O16  1  0.41800872  0.58199128  0.50000000  1.0
  O  O17  1  0.91800872  0.91800872  0.00000000  1.0
  O  O18  1  0.58199128  0.41800872  0.50000000  1.0
  O  O19  1  0.08199128  0.08199128  0.00000000  1.0
