# generated using pymatgen
data_Ba2Mg(GeIr)4
_symmetry_space_group_name_H-M   'P 1'
_cell_length_a   6.65177324
_cell_length_b   6.65177324
_cell_length_c   11.68488577
_cell_angle_alpha   90.00000000
_cell_angle_beta   90.00000000
_cell_angle_gamma   65.40622087
_symmetry_Int_Tables_number   1
_chemical_formula_structural   Ba2Mg(GeIr)4
_chemical_formula_sum   'Ba4 Mg2 Ge8 Ir8'
_cell_volume   470.10795775
_cell_formula_units_Z   2
loop_
 _symmetry_equiv_pos_site_id
 _symmetry_equiv_pos_as_xyz
  1  'x, y, z'
loop_
 _atom_site_type_symbol
 _atom_site_label
 _atom_site_symmetry_multiplicity
 _atom_site_fract_x
 _atom_site_fract_y
 _atom_site_fract_z
 _atom_site_occupancy
  Ba  Ba0  1  0.79618475  0.79618475  0.00000000  1.0
  Ba  Ba1  1  0.79618475  0.79618475  0.50000000  1.0
  Ba  Ba2  1  0.20381525  0.20381525  0.00000000  1.0
  Ba  Ba3  1  0.20381525  0.20381525  0.50000000  1.0
  Mg  Mg4  1  -0.01894633  1.01894633  0.75000000  1.0
  Mg  Mg5  1  0.01894633  0.98105367  0.25000000  1.0
  Ge  Ge6  1  0.47886209  0.89244592  0.75000000  1.0
  Ge  Ge7  1  -0.10755408  1.47886209  0.25000000  1.0
  Ge  Ge8  1  -0.47886209  1.10755408  0.25000000  1.0
  Ge  Ge9  1  0.10755408  0.52113791  0.75000000  1.0
  Ge  Ge10  1  -0.33427921  1.33427921  0.92302603  1.0
  Ge  Ge11  1  0.33427921  0.66572079  0.07697397  1.0
  Ge  Ge12  1  -0.33427921  1.33427921  0.57697397  1.0
  Ge  Ge13  1  0.33427921  0.66572079  0.42302603  1.0
  Ir  Ir14  1  -0.49562331  1.24098640  0.75000000  1.0
  Ir  Ir15  1  0.24098640  0.50437669  0.25000000  1.0
  Ir  Ir16  1  0.49562331  0.75901360  0.25000000  1.0
  Ir  Ir17  1  -0.24098640  1.49562331  0.75000000  1.0
  Ir  Ir18  1  0.32126185  0.67873815  0.87023519  1.0
  Ir  Ir19  1  -0.32126185  1.32126185  0.12976481  1.0
  Ir  Ir20  1  0.32126185  0.67873815  0.62976481  1.0
  Ir  Ir21  1  -0.32126185  1.32126185  0.37023519  1.0
