# generated using pymatgen
data_CaTi4(PO4)6
_symmetry_space_group_name_H-M   'P 1'
_cell_length_a   8.87178424
_cell_length_b   8.87178424
_cell_length_c   8.87178424
_cell_angle_alpha   57.78991479
_cell_angle_beta   57.78991479
_cell_angle_gamma   57.78991479
_symmetry_Int_Tables_number   1
_chemical_formula_structural   CaTi4(PO4)6
_chemical_formula_sum   'Ca1 Ti4 P6 O24'
_cell_volume   468.70199637
_cell_formula_units_Z   1
loop_
 _symmetry_equiv_pos_site_id
 _symmetry_equiv_pos_as_xyz
  1  'x, y, z'
loop_
 _atom_site_type_symbol
 _atom_site_label
 _atom_site_symmetry_multiplicity
 _atom_site_fract_x
 _atom_site_fract_y
 _atom_site_fract_z
 _atom_site_occupancy
  Ca  Ca0  1  -0.00000000  -0.00000000  0.00000000  1.0
  Ti  Ti1  1  0.14852706  0.14852706  0.14852706  1.0
  Ti  Ti2  1  0.85147294  -0.14852706  -0.14852706  1.0
  Ti  Ti3  1  0.36021840  0.36021840  -0.63978160  1.0
  Ti  Ti4  1  0.63978160  0.63978160  -0.36021840  1.0
  O  O5  1  0.19668346  1.00487225  -0.62218864  1.0
  O  O6  1  0.62218864  -0.19668346  -0.00487225  1.0
  O  O7  1  0.99512775  -0.37781136  -0.19668346  1.0
  O  O8  1  0.80331654  -0.00487225  -0.37781136  1.0
  O  O9  1  0.37781136  0.19668346  0.00487225  1.0
  O  O10  1  1.00487225  0.37781136  -0.80331654  1.0
  O  O11  1  0.26508378  -0.08846909  0.08132639  1.0
  O  O12  1  0.91867361  -0.26508378  0.08846909  1.0
  O  O13  1  1.08846909  -0.08132639  -0.26508378  1.0
  O  O14  1  0.73491622  0.08846909  -0.08132639  1.0
  O  O15  1  1.08132639  -0.73491622  -0.08846909  1.0
  O  O16  1  0.91153091  0.08132639  -0.73491622  1.0
  O  O17  1  0.56344608  0.19870531  -0.53936668  1.0
  O  O18  1  0.53936668  0.43655392  -0.19870531  1.0
  O  O19  1  0.80129469  0.53936668  -0.56344608  1.0
  O  O20  1  0.43655392  0.80129469  -0.46063332  1.0
  O  O21  1  0.46063332  0.56344608  -0.80129469  1.0
  O  O22  1  0.19870531  0.46063332  -0.43655392  1.0
  O  O23  1  0.51452557  0.25577468  0.15115805  1.0
  O  O24  1  0.84884195  -0.51452557  -0.25577468  1.0
  O  O25  1  0.74422532  -0.15115805  -0.51452557  1.0
  O  O26  1  0.48547443  -0.25577468  -0.15115805  1.0
  O  O27  1  1.15115805  -0.48547443  0.25577468  1.0
  O  O28  1  1.25577468  0.15115805  -0.48547443  1.0
  P  P29  1  0.53998391  0.24706742  -0.02999527  1.0
  P  P30  1  1.02999527  -0.53998391  -0.24706742  1.0
  P  P31  1  0.75293258  0.02999527  -0.53998391  1.0
  P  P32  1  0.46001609  -0.24706742  0.02999527  1.0
  P  P33  1  0.97000473  -0.46001609  0.24706742  1.0
  P  P34  1  0.24706742  0.97000473  -0.46001609  1.0
