# generated using pymatgen
data_TlAgS
_symmetry_space_group_name_H-M   'P 1'
_cell_length_a   9.14485238
_cell_length_b   4.37468291
_cell_length_c   7.55781681
_cell_angle_alpha   90.00000000
_cell_angle_beta   90.00000000
_cell_angle_gamma   90.00000000
_symmetry_Int_Tables_number   1
_chemical_formula_structural   TlAgS
_chemical_formula_sum   'Tl4 Ag4 S4'
_cell_volume   302.35673026
_cell_formula_units_Z   4
loop_
 _symmetry_equiv_pos_site_id
 _symmetry_equiv_pos_as_xyz
  1  'x, y, z'
loop_
 _atom_site_type_symbol
 _atom_site_label
 _atom_site_symmetry_multiplicity
 _atom_site_fract_x
 _atom_site_fract_y
 _atom_site_fract_z
 _atom_site_occupancy
  Tl  Tl0  1  0.50053182  0.75000000  0.24753979  1.0
  Tl  Tl1  1  1.00053182  0.75000000  0.25246021  1.0
  Tl  Tl2  1  0.49946818  0.25000000  0.75246021  1.0
  Tl  Tl3  1  -0.00053182  0.25000000  0.74753979  1.0
  Ag  Ag4  1  0.24723338  0.75000000  0.91721329  1.0
  Ag  Ag5  1  0.74723338  0.75000000  0.58278671  1.0
  Ag  Ag6  1  0.75276662  0.25000000  0.08278671  1.0
  Ag  Ag7  1  0.25276662  0.25000000  0.41721329  1.0
  S  S8  1  0.26099279  0.75000000  0.58355521  1.0
  S  S9  1  0.76099279  0.75000000  0.91644479  1.0
  S  S10  1  0.73900721  0.25000000  0.41644479  1.0
  S  S11  1  0.23900721  0.25000000  0.08355521  1.0
