# generated using pymatgen
data_Sr3MnN3
_symmetry_space_group_name_H-M   'P 1'
_cell_length_a   7.73212539
_cell_length_b   7.73212539
_cell_length_c   5.24291990
_cell_angle_alpha   90.00000000
_cell_angle_beta   90.00000000
_cell_angle_gamma   120.00000000
_symmetry_Int_Tables_number   1
_chemical_formula_structural   Sr3MnN3
_chemical_formula_sum   'Sr6 Mn2 N6'
_cell_volume   271.45736620
_cell_formula_units_Z   2
loop_
 _symmetry_equiv_pos_site_id
 _symmetry_equiv_pos_as_xyz
  1  'x, y, z'
loop_
 _atom_site_type_symbol
 _atom_site_label
 _atom_site_symmetry_multiplicity
 _atom_site_fract_x
 _atom_site_fract_y
 _atom_site_fract_z
 _atom_site_occupancy
  Sr  Sr0  1  0.91522194  0.63948015  0.25000000  1.0
  Sr  Sr1  1  0.63948015  0.72425821  0.75000000  1.0
  Sr  Sr2  1  0.72425821  0.08477806  0.25000000  1.0
  Sr  Sr3  1  0.36051985  0.27574179  0.25000000  1.0
  Sr  Sr4  1  0.08477806  0.36051985  0.75000000  1.0
  Sr  Sr5  1  0.27574179  0.91522194  0.75000000  1.0
  Mn  Mn6  1  0.33333333  0.66666667  0.25000000  1.0
  Mn  Mn7  1  0.66666667  0.33333333  0.75000000  1.0
  N  N8  1  0.31129525  0.87851062  0.25000000  1.0
  N  N9  1  0.87851062  0.56721537  0.75000000  1.0
  N  N10  1  0.56721537  0.68870475  0.25000000  1.0
  N  N11  1  0.12148938  0.43278463  0.25000000  1.0
  N  N12  1  0.68870475  0.12148938  0.75000000  1.0
  N  N13  1  0.43278463  0.31129525  0.75000000  1.0
