# generated using pymatgen
data_K2Na4Co2O5
_symmetry_space_group_name_H-M   'P 1'
_cell_length_a   6.40142448
_cell_length_b   6.40142448
_cell_length_c   10.35711629
_cell_angle_alpha   90.00000000
_cell_angle_beta   90.00000000
_cell_angle_gamma   90.00000000
_symmetry_Int_Tables_number   1
_chemical_formula_structural   K2Na4Co2O5
_chemical_formula_sum   'K4 Na8 Co4 O10'
_cell_volume   424.41634981
_cell_formula_units_Z   2
loop_
 _symmetry_equiv_pos_site_id
 _symmetry_equiv_pos_as_xyz
  1  'x, y, z'
loop_
 _atom_site_type_symbol
 _atom_site_label
 _atom_site_symmetry_multiplicity
 _atom_site_fract_x
 _atom_site_fract_y
 _atom_site_fract_z
 _atom_site_occupancy
  K  K0  1  0.20114341  0.20114341  0.50000000  1.0
  K  K1  1  0.70114341  0.29885659  0.00000000  1.0
  K  K2  1  0.79885659  0.79885659  0.50000000  1.0
  K  K3  1  0.29885659  0.70114341  0.00000000  1.0
  Na  Na4  1  0.50000000  0.50000000  0.27928334  1.0
  Na  Na5  1  0.50000000  0.50000000  0.72071666  1.0
  Na  Na6  1  0.00000000  0.00000000  0.77928334  1.0
  Na  Na7  1  0.00000000  0.00000000  0.22071666  1.0
  Na  Na8  1  0.50000000  0.00000000  0.25000000  1.0
  Na  Na9  1  0.50000000  0.00000000  0.75000000  1.0
  Na  Na10  1  0.00000000  0.50000000  0.75000000  1.0
  Na  Na11  1  0.00000000  0.50000000  0.25000000  1.0
  Co  Co12  1  0.28409421  0.71590579  0.50000000  1.0
  Co  Co13  1  0.78409421  0.78409421  0.00000000  1.0
  Co  Co14  1  0.71590579  0.28409421  0.50000000  1.0
  Co  Co15  1  0.21590579  0.21590579  0.00000000  1.0
  O  O16  1  0.21790510  0.78209490  0.33662509  1.0
  O  O17  1  0.21790510  0.78209490  0.66337491  1.0
  O  O18  1  0.71790510  0.71790510  0.83662509  1.0
  O  O19  1  0.71790510  0.71790510  0.16337491  1.0
  O  O20  1  0.78209490  0.21790510  0.33662509  1.0
  O  O21  1  0.78209490  0.21790510  0.66337491  1.0
  O  O22  1  0.28209490  0.28209490  0.83662509  1.0
  O  O23  1  0.28209490  0.28209490  0.16337491  1.0
  O  O24  1  0.50000000  0.50000000  0.50000000  1.0
  O  O25  1  0.00000000  0.00000000  0.00000000  1.0
