# generated using pymatgen
data_ZnAu2(CN)4
_symmetry_space_group_name_H-M   'P 1'
_cell_length_a   8.33699704
_cell_length_b   8.33699704
_cell_length_c   7.64544638
_cell_angle_alpha   90.00000000
_cell_angle_beta   90.00000000
_cell_angle_gamma   90.00000000
_symmetry_Int_Tables_number   1
_chemical_formula_structural   ZnAu2(CN)4
_chemical_formula_sum   'Zn2 Au4 C8 N8'
_cell_volume   531.40072332
_cell_formula_units_Z   2
loop_
 _symmetry_equiv_pos_site_id
 _symmetry_equiv_pos_as_xyz
  1  'x, y, z'
loop_
 _atom_site_type_symbol
 _atom_site_label
 _atom_site_symmetry_multiplicity
 _atom_site_fract_x
 _atom_site_fract_y
 _atom_site_fract_z
 _atom_site_occupancy
  Zn  Zn0  1  0.50000000  0.50000000  0.00000000  1.0
  Zn  Zn1  1  0.00000000  0.00000000  0.00000000  1.0
  Au  Au2  1  0.86208492  0.36208492  0.50000000  1.0
  Au  Au3  1  0.63791508  0.86208492  0.50000000  1.0
  Au  Au4  1  0.13791508  0.63791508  0.50000000  1.0
  Au  Au5  1  0.36208492  0.13791508  0.50000000  1.0
  C  C6  1  0.43649239  0.24227172  0.28349021  1.0
  C  C7  1  0.06350761  0.74227172  0.28349021  1.0
  C  C8  1  0.75772828  0.43649239  0.71650979  1.0
  C  C9  1  0.74227172  0.93649239  0.71650979  1.0
  C  C10  1  0.56350761  0.75772828  0.28349021  1.0
  C  C11  1  0.93649239  0.25772828  0.28349021  1.0
  C  C12  1  0.24227172  0.56350761  0.71650979  1.0
  C  C13  1  0.25772828  0.06350761  0.71650979  1.0
  N  N14  1  0.46872288  0.31801691  0.16017525  1.0
  N  N15  1  0.03127712  0.81801691  0.16017525  1.0
  N  N16  1  0.68198309  0.46872288  0.83982475  1.0
  N  N17  1  0.81801691  0.96872288  0.83982475  1.0
  N  N18  1  0.53127712  0.68198309  0.16017525  1.0
  N  N19  1  0.96872288  0.18198309  0.16017525  1.0
  N  N20  1  0.31801691  0.53127712  0.83982475  1.0
  N  N21  1  0.18198309  0.03127712  0.83982475  1.0
