# generated using pymatgen
data_CoSbS
_symmetry_space_group_name_H-M   'P 1'
_cell_length_a   3.63944482
_cell_length_b   4.86280994
_cell_length_c   5.83695757
_cell_angle_alpha   90.00000000
_cell_angle_beta   90.00000000
_cell_angle_gamma   90.00000000
_symmetry_Int_Tables_number   1
_chemical_formula_structural   CoSbS
_chemical_formula_sum   'Co2 Sb2 S2'
_cell_volume   103.30205742
_cell_formula_units_Z   2
loop_
 _symmetry_equiv_pos_site_id
 _symmetry_equiv_pos_as_xyz
  1  'x, y, z'
loop_
 _atom_site_type_symbol
 _atom_site_label
 _atom_site_symmetry_multiplicity
 _atom_site_fract_x
 _atom_site_fract_y
 _atom_site_fract_z
 _atom_site_occupancy
  Co  Co0  1  0.50000000  0.78442194  0.13465566  1.0
  Co  Co1  1  0.00000000  0.21557806  0.63465566  1.0
  Sb  Sb2  1  0.50000000  0.53518692  0.76154566  1.0
  Sb  Sb3  1  0.00000000  0.46481308  0.26154566  1.0
  S  S4  1  0.50000000  0.95933025  0.49719868  1.0
  S  S5  1  0.00000000  0.04066975  -0.00280132  1.0
