# generated using pymatgen
data_Tb4CoB13
_symmetry_space_group_name_H-M   'P 1'
_cell_length_a   7.27918431
_cell_length_b   7.27918431
_cell_length_c   6.89025751
_cell_angle_alpha   90.00000000
_cell_angle_beta   90.00000000
_cell_angle_gamma   90.00000000
_symmetry_Int_Tables_number   1
_chemical_formula_structural   Tb4CoB13
_chemical_formula_sum   'Tb8 Co2 B26'
_cell_volume   365.09079638
_cell_formula_units_Z   2
loop_
 _symmetry_equiv_pos_site_id
 _symmetry_equiv_pos_as_xyz
  1  'x, y, z'
loop_
 _atom_site_type_symbol
 _atom_site_label
 _atom_site_symmetry_multiplicity
 _atom_site_fract_x
 _atom_site_fract_y
 _atom_site_fract_z
 _atom_site_occupancy
  Co  Co0  1  0.50000000  0.50000000  0.00000000  1.0
  Co  Co1  1  0.00000000  0.00000000  0.50000000  1.0
  Tb  Tb2  1  0.31909334  0.81414960  0.50000000  1.0
  Tb  Tb3  1  0.81909334  0.68585040  0.00000000  1.0
  Tb  Tb4  1  0.18585040  0.31909334  0.50000000  1.0
  Tb  Tb5  1  0.68585040  0.18090666  -0.00000000  1.0
  Tb  Tb6  1  0.68090666  0.18585040  0.50000000  1.0
  Tb  Tb7  1  0.18090666  0.31414960  -0.00000000  1.0
  Tb  Tb8  1  0.81414960  0.68090666  0.50000000  1.0
  Tb  Tb9  1  0.31414960  0.81909334  0.00000000  1.0
  B  B10  1  0.32945535  0.53953489  0.25217993  1.0
  B  B11  1  0.32945535  0.53953489  0.74782007  1.0
  B  B12  1  0.82945535  0.96046511  0.75217993  1.0
  B  B13  1  0.82945535  0.96046511  0.24782007  1.0
  B  B14  1  0.46046511  0.32945535  0.25217993  1.0
  B  B15  1  0.46046511  0.32945535  0.74782007  1.0
  B  B16  1  0.96046511  0.17054465  0.75217993  1.0
  B  B17  1  0.96046511  0.17054465  0.24782007  1.0
  B  B18  1  0.67054465  0.46046511  0.25217993  1.0
  B  B19  1  0.67054465  0.46046511  0.74782007  1.0
  B  B20  1  0.17054465  0.03953489  0.75217993  1.0
  B  B21  1  0.17054465  0.03953489  0.24782007  1.0
  B  B22  1  0.53953489  0.67054465  0.25217993  1.0
  B  B23  1  0.53953489  0.67054465  0.74782007  1.0
  B  B24  1  0.03953489  0.82945535  0.75217993  1.0
  B  B25  1  0.03953489  0.82945535  0.24782007  1.0
  B  B26  1  0.40898121  0.09101879  0.25000000  1.0
  B  B27  1  0.40898121  0.09101879  0.75000000  1.0
  B  B28  1  0.90898121  0.40898121  0.75000000  1.0
  B  B29  1  0.90898121  0.40898121  0.25000000  1.0
  B  B30  1  0.59101879  0.90898121  0.25000000  1.0
  B  B31  1  0.59101879  0.90898121  0.75000000  1.0
  B  B32  1  0.09101879  0.59101879  0.75000000  1.0
  B  B33  1  0.09101879  0.59101879  0.25000000  1.0
  B  B34  1  0.50000000  0.50000000  0.50000000  1.0
  B  B35  1  0.00000000  0.00000000  0.00000000  1.0
