# generated using pymatgen
data_HfGaPt
_symmetry_space_group_name_H-M   'P 1'
_cell_length_a   7.18390780
_cell_length_b   7.18390780
_cell_length_c   7.05433919
_cell_angle_alpha   90.00000000
_cell_angle_beta   90.00000000
_cell_angle_gamma   120.00000000
_symmetry_Int_Tables_number   1
_chemical_formula_structural   HfGaPt
_chemical_formula_sum   'Hf6 Ga6 Pt6'
_cell_volume   315.28874637
_cell_formula_units_Z   6
loop_
 _symmetry_equiv_pos_site_id
 _symmetry_equiv_pos_as_xyz
  1  'x, y, z'
loop_
 _atom_site_type_symbol
 _atom_site_label
 _atom_site_symmetry_multiplicity
 _atom_site_fract_x
 _atom_site_fract_y
 _atom_site_fract_z
 _atom_site_occupancy
  Hf  Hf0  1  0.97637380  0.59178711  0.25000000  1.0
  Hf  Hf1  1  0.59178711  0.97637380  0.75000000  1.0
  Hf  Hf2  1  0.61541331  0.02362620  0.25000000  1.0
  Hf  Hf3  1  0.40821289  0.38458669  0.25000000  1.0
  Hf  Hf4  1  0.02362620  0.61541331  0.75000000  1.0
  Hf  Hf5  1  0.38458669  0.40821289  0.75000000  1.0
  Ga  Ga6  1  0.73157653  0.73157653  0.50000000  1.0
  Ga  Ga7  1  0.73157653  0.73157653  0.00000000  1.0
  Ga  Ga8  1  0.00000000  0.26842347  0.50000000  1.0
  Ga  Ga9  1  0.00000000  0.26842347  0.00000000  1.0
  Ga  Ga10  1  0.26842347  0.00000000  0.50000000  1.0
  Ga  Ga11  1  0.26842347  0.00000000  0.00000000  1.0
  Pt  Pt12  1  0.33333333  0.66666667  0.46726354  1.0
  Pt  Pt13  1  0.33333333  0.66666667  0.03273646  1.0
  Pt  Pt14  1  0.66666667  0.33333333  0.96726354  1.0
  Pt  Pt15  1  0.66666667  0.33333333  0.53273646  1.0
  Pt  Pt16  1  0.00000000  0.00000000  0.25000000  1.0
  Pt  Pt17  1  0.00000000  0.00000000  0.75000000  1.0
