# generated using pymatgen
data_Lu3O2F5
_symmetry_space_group_name_H-M   'P 1'
_cell_length_a   5.59025515
_cell_length_b   17.19563098
_cell_length_c   5.32711103
_cell_angle_alpha   90.00000000
_cell_angle_beta   90.00000000
_cell_angle_gamma   90.00000000
_symmetry_Int_Tables_number   1
_chemical_formula_structural   Lu3O2F5
_chemical_formula_sum   'Lu12 O8 F20'
_cell_volume   512.08434119
_cell_formula_units_Z   4
loop_
 _symmetry_equiv_pos_site_id
 _symmetry_equiv_pos_as_xyz
  1  'x, y, z'
loop_
 _atom_site_type_symbol
 _atom_site_label
 _atom_site_symmetry_multiplicity
 _atom_site_fract_x
 _atom_site_fract_y
 _atom_site_fract_z
 _atom_site_occupancy
  Lu  Lu0  1  0.23194446  0.75000000  0.54523943  1.0
  Lu  Lu1  1  0.73194446  0.75000000  0.95476057  1.0
  Lu  Lu2  1  0.76805554  0.25000000  0.45476057  1.0
  Lu  Lu3  1  0.26805554  0.25000000  0.04523943  1.0
  Lu  Lu4  1  0.16965595  0.90245085  0.95956404  1.0
  Lu  Lu5  1  0.16965595  0.59754915  0.95956404  1.0
  Lu  Lu6  1  0.66965595  0.90245085  0.54043596  1.0
  Lu  Lu7  1  0.66965595  0.59754915  0.54043596  1.0
  Lu  Lu8  1  0.83034405  0.40245085  0.04043596  1.0
  Lu  Lu9  1  0.83034405  0.09754915  0.04043596  1.0
  Lu  Lu10  1  0.33034405  0.40245085  0.45956404  1.0
  Lu  Lu11  1  0.33034405  0.09754915  0.45956404  1.0
  O  O12  1  0.45709900  0.83106657  0.79553091  1.0
  O  O13  1  0.45709900  0.66893343  0.79553091  1.0
  O  O14  1  0.95709900  0.83106657  0.70446909  1.0
  O  O15  1  0.95709900  0.66893343  0.70446909  1.0
  O  O16  1  0.54290100  0.33106657  0.20446909  1.0
  O  O17  1  0.54290100  0.16893343  0.20446909  1.0
  O  O18  1  0.04290100  0.33106657  0.29553091  1.0
  O  O19  1  0.04290100  0.16893343  0.29553091  1.0
  F  F20  1  0.16543536  0.37522219  0.82185232  1.0
  F  F21  1  0.16543536  0.12477781  0.82185232  1.0
  F  F22  1  0.66543536  0.37522219  0.67814768  1.0
  F  F23  1  0.66543536  0.12477781  0.67814768  1.0
  F  F24  1  0.83456464  0.87522219  0.17814768  1.0
  F  F25  1  0.83456464  0.62477781  0.17814768  1.0
  F  F26  1  0.33456464  0.87522219  0.32185232  1.0
  F  F27  1  0.33456464  0.62477781  0.32185232  1.0
  F  F28  1  0.37760859  0.98485311  0.71151248  1.0
  F  F29  1  0.37760859  0.51514689  0.71151248  1.0
  F  F30  1  0.87760859  0.98485311  0.78848752  1.0
  F  F31  1  0.87760859  0.51514689  0.78848752  1.0
  F  F32  1  0.62239141  0.48485311  0.28848752  1.0
  F  F33  1  0.62239141  0.01514689  0.28848752  1.0
  F  F34  1  0.12239141  0.48485311  0.21151248  1.0
  F  F35  1  0.12239141  0.01514689  0.21151248  1.0
  F  F36  1  0.10240956  0.75000000  0.14715021  1.0
  F  F37  1  0.60240956  0.75000000  0.35284979  1.0
  F  F38  1  0.89759044  0.25000000  0.85284979  1.0
  F  F39  1  0.39759044  0.25000000  0.64715021  1.0
