# generated using pymatgen
data_Fe2P3(HO3)3
_symmetry_space_group_name_H-M   'P 1'
_cell_length_a   8.27470409
_cell_length_b   8.27470409
_cell_length_c   7.50052241
_cell_angle_alpha   90.00000000
_cell_angle_beta   90.00000000
_cell_angle_gamma   120.00000000
_symmetry_Int_Tables_number   1
_chemical_formula_structural   Fe2P3(HO3)3
_chemical_formula_sum   'Fe4 P6 H6 O18'
_cell_volume   444.76140079
_cell_formula_units_Z   2
loop_
 _symmetry_equiv_pos_site_id
 _symmetry_equiv_pos_as_xyz
  1  'x, y, z'
loop_
 _atom_site_type_symbol
 _atom_site_label
 _atom_site_symmetry_multiplicity
 _atom_site_fract_x
 _atom_site_fract_y
 _atom_site_fract_z
 _atom_site_occupancy
  Fe  Fe0  1  0.33333333  0.66666667  0.45432499  1.0
  Fe  Fe1  1  0.33333333  0.66666667  0.04567501  1.0
  Fe  Fe2  1  0.66666667  0.33333333  0.95432499  1.0
  Fe  Fe3  1  0.66666667  0.33333333  0.54567501  1.0
  P  P4  1  0.68513499  0.63984035  0.25000000  1.0
  P  P5  1  0.63984035  0.95470536  0.75000000  1.0
  P  P6  1  0.95470536  0.31486501  0.25000000  1.0
  P  P7  1  0.36015965  0.04529464  0.25000000  1.0
  P  P8  1  0.31486501  0.36015965  0.75000000  1.0
  P  P9  1  0.04529464  0.68513499  0.75000000  1.0
  H  H10  1  0.16809109  0.98593462  0.25000000  1.0
  H  H11  1  0.98593462  0.81784353  0.75000000  1.0
  H  H12  1  0.81784353  0.83190891  0.25000000  1.0
  H  H13  1  0.01406538  0.18215647  0.25000000  1.0
  H  H14  1  0.83190891  0.01406538  0.75000000  1.0
  H  H15  1  0.18215647  0.16809109  0.75000000  1.0
  O  O16  1  0.72088532  0.56055576  0.42189866  1.0
  O  O17  1  0.72088532  0.56055576  0.07810134  1.0
  O  O18  1  0.56055576  0.83967044  0.92189866  1.0
  O  O19  1  0.56055576  0.83967044  0.57810134  1.0
  O  O20  1  0.83967044  0.27911468  0.42189866  1.0
  O  O21  1  0.83967044  0.27911468  0.07810134  1.0
  O  O22  1  0.43944424  0.16032956  0.42189866  1.0
  O  O23  1  0.43944424  0.16032956  0.07810134  1.0
  O  O24  1  0.27911468  0.43944424  0.92189866  1.0
  O  O25  1  0.27911468  0.43944424  0.57810134  1.0
  O  O26  1  0.16032956  0.72088532  0.92189866  1.0
  O  O27  1  0.16032956  0.72088532  0.57810134  1.0
  O  O28  1  0.37997130  0.86796420  0.25000000  1.0
  O  O29  1  0.86796420  0.48799290  0.75000000  1.0
  O  O30  1  0.48799290  0.62002870  0.25000000  1.0
  O  O31  1  0.13203580  0.51200710  0.25000000  1.0
  O  O32  1  0.62002870  0.13203580  0.75000000  1.0
  O  O33  1  0.51200710  0.37997130  0.75000000  1.0
