# generated using pymatgen
data_Zn2SiO4
_symmetry_space_group_name_H-M   'P 1'
_cell_length_a   7.77546676
_cell_length_b   7.77546676
_cell_length_c   7.77546676
_cell_angle_alpha   136.20028386
_cell_angle_beta   83.21746435
_cell_angle_gamma   113.34942536
_symmetry_Int_Tables_number   1
_chemical_formula_structural   Zn2SiO4
_chemical_formula_sum   'Zn8 Si4 O16'
_cell_volume   288.09714754
_cell_formula_units_Z   4
loop_
 _symmetry_equiv_pos_site_id
 _symmetry_equiv_pos_as_xyz
  1  'x, y, z'
loop_
 _atom_site_type_symbol
 _atom_site_label
 _atom_site_symmetry_multiplicity
 _atom_site_fract_x
 _atom_site_fract_y
 _atom_site_fract_z
 _atom_site_occupancy
  Zn  Zn0  1  0.50000000  1.00000000  0.50000000  1.0
  Zn  Zn1  1  0.00000000  0.00000000  0.00000000  1.0
  Zn  Zn2  1  0.78133257  1.03133257  0.75000000  1.0
  Zn  Zn3  1  1.21866743  0.96866743  1.25000000  1.0
  Zn  Zn4  1  0.37540587  0.50000000  0.37540587  1.0
  Zn  Zn5  1  1.62459413  1.00000000  1.12459413  1.0
  Zn  Zn6  1  0.37540587  1.00000000  0.87540587  1.0
  Zn  Zn7  1  1.62459413  1.50000000  1.62459413  1.0
  Si  Si8  1  1.00402950  0.38327220  0.62075730  1.0
  Si  Si9  1  0.99597050  0.61672780  0.37924270  1.0
  Si  Si10  1  0.73748510  0.61672780  0.12075730  1.0
  Si  Si11  1  1.26251490  0.38327220  0.87924270  1.0
  O  O12  1  0.53731534  0.78731534  0.75000000  1.0
  O  O13  1  1.46268466  1.21268466  1.25000000  1.0
  O  O14  1  1.03650068  0.28650068  0.75000000  1.0
  O  O15  1  0.96349932  0.71349932  0.25000000  1.0
  O  O16  1  1.24561532  0.25796899  0.98764633  1.0
  O  O17  1  0.75438468  0.74203101  0.01235367  1.0
  O  O18  1  1.22967735  0.74203101  1.48764633  1.0
  O  O19  1  0.77032265  1.25796899  0.51235367  1.0
  O  O20  1  0.63155552  0.74513530  0.35941362  1.0
  O  O21  1  1.36844448  0.72785810  1.11357978  1.0
  O  O22  1  1.11427831  0.72785810  0.85941362  1.0
  O  O23  1  0.88572169  0.74513530  0.61357978  1.0
  O  O24  1  1.36844448  1.25486470  1.64058638  1.0
  O  O25  1  0.63155552  1.27214190  0.88642022  1.0
  O  O26  1  0.88572169  1.27214190  1.14058638  1.0
  O  O27  1  1.11427831  1.25486470  1.38642022  1.0
