# generated using pymatgen
data_Rb9O2
_symmetry_space_group_name_H-M   'P 1'
_cell_length_a   8.40601799
_cell_length_b   14.02536328
_cell_length_c   11.75336408
_cell_angle_alpha   90.00000000
_cell_angle_beta   104.46097751
_cell_angle_gamma   90.00000000
_symmetry_Int_Tables_number   1
_chemical_formula_structural   Rb9O2
_chemical_formula_sum   'Rb18 O4'
_cell_volume   1341.79015986
_cell_formula_units_Z   2
loop_
 _symmetry_equiv_pos_site_id
 _symmetry_equiv_pos_as_xyz
  1  'x, y, z'
loop_
 _atom_site_type_symbol
 _atom_site_label
 _atom_site_symmetry_multiplicity
 _atom_site_fract_x
 _atom_site_fract_y
 _atom_site_fract_z
 _atom_site_occupancy
  Rb  Rb0  1  0.94022226  0.37889402  0.68355547  1.0
  Rb  Rb1  1  0.94022226  0.12110598  0.68355547  1.0
  Rb  Rb2  1  0.05977774  0.87889402  0.31644453  1.0
  Rb  Rb3  1  0.05977774  0.62110598  0.31644453  1.0
  Rb  Rb4  1  0.73084025  0.39159096  0.96149676  1.0
  Rb  Rb5  1  0.73084025  0.10840904  0.96149676  1.0
  Rb  Rb6  1  0.26915975  0.89159096  0.03850324  1.0
  Rb  Rb7  1  0.26915975  0.60840904  0.03850324  1.0
  Rb  Rb8  1  0.60671166  0.39103708  0.36439955  1.0
  Rb  Rb9  1  0.60671166  0.10896292  0.36439955  1.0
  Rb  Rb10  1  0.39328834  0.89103708  0.63560045  1.0
  Rb  Rb11  1  0.39328834  0.60896292  0.63560045  1.0
  Rb  Rb12  1  0.56280795  0.25000000  0.65695980  1.0
  Rb  Rb13  1  0.43719205  0.75000000  0.34304020  1.0
  Rb  Rb14  1  0.15428653  0.25000000  0.99470730  1.0
  Rb  Rb15  1  0.84571347  0.75000000  0.00529270  1.0
  Rb  Rb16  1  0.02539786  0.25000000  0.39291286  1.0
  Rb  Rb17  1  0.97460214  0.75000000  0.60708714  1.0
  O  O18  1  0.84805239  0.25000000  0.84499881  1.0
  O  O19  1  0.15194761  0.75000000  0.15500119  1.0
  O  O20  1  0.77661773  0.25000000  0.50377644  1.0
  O  O21  1  0.22338227  0.75000000  0.49622356  1.0
