# generated using pymatgen
data_FeNiPO5
_symmetry_space_group_name_H-M   'P 1'
_cell_length_a   7.30760561
_cell_length_b   6.45594793
_cell_length_c   7.61689702
_cell_angle_alpha   90.00000000
_cell_angle_beta   90.00000000
_cell_angle_gamma   90.00000000
_symmetry_Int_Tables_number   1
_chemical_formula_structural   FeNiPO5
_chemical_formula_sum   'Fe4 Ni4 P4 O20'
_cell_volume   359.34632117
_cell_formula_units_Z   4
loop_
 _symmetry_equiv_pos_site_id
 _symmetry_equiv_pos_as_xyz
  1  'x, y, z'
loop_
 _atom_site_type_symbol
 _atom_site_label
 _atom_site_symmetry_multiplicity
 _atom_site_fract_x
 _atom_site_fract_y
 _atom_site_fract_z
 _atom_site_occupancy
  Fe  Fe0  1  0.86134862  0.75000000  0.70319084  1.0
  Fe  Fe1  1  0.36134862  0.75000000  0.79680916  1.0
  Fe  Fe2  1  0.13865138  0.25000000  0.29680916  1.0
  Fe  Fe3  1  0.63865138  0.25000000  0.20319084  1.0
  Ni  Ni4  1  0.00000000  0.00000000  0.00000000  1.0
  Ni  Ni5  1  0.00000000  0.50000000  0.00000000  1.0
  Ni  Ni6  1  0.50000000  0.00000000  0.50000000  1.0
  Ni  Ni7  1  0.50000000  0.50000000  0.50000000  1.0
  P  P8  1  0.63403201  0.75000000  0.14605527  1.0
  P  P9  1  0.13403201  0.75000000  0.35394473  1.0
  P  P10  1  0.36596799  0.25000000  0.85394473  1.0
  P  P11  1  0.86596799  0.25000000  0.64605527  1.0
  O  O12  1  0.63317068  0.94464944  0.26696261  1.0
  O  O13  1  0.63317068  0.55535056  0.26696261  1.0
  O  O14  1  0.13317068  0.94464944  0.23303739  1.0
  O  O15  1  0.13317068  0.55535056  0.23303739  1.0
  O  O16  1  0.36682932  0.44464944  0.73303739  1.0
  O  O17  1  0.36682932  0.05535056  0.73303739  1.0
  O  O18  1  0.86682932  0.44464944  0.76696261  1.0
  O  O19  1  0.86682932  0.05535056  0.76696261  1.0
  O  O20  1  0.96431505  0.75000000  0.47397724  1.0
  O  O21  1  0.46431505  0.75000000  0.02602276  1.0
  O  O22  1  0.03568495  0.25000000  0.52602276  1.0
  O  O23  1  0.53568495  0.25000000  0.97397724  1.0
  O  O24  1  0.81301777  0.75000000  0.03378448  1.0
  O  O25  1  0.31301777  0.75000000  0.46621552  1.0
  O  O26  1  0.18698223  0.25000000  0.96621552  1.0
  O  O27  1  0.68698223  0.25000000  0.53378448  1.0
  O  O28  1  0.60314653  0.75000000  0.64390497  1.0
  O  O29  1  0.10314653  0.75000000  0.85609503  1.0
  O  O30  1  0.39685347  0.25000000  0.35609503  1.0
  O  O31  1  0.89685347  0.25000000  0.14390497  1.0
