# generated using pymatgen
data_LiLa6RuI12
_symmetry_space_group_name_H-M   'P 1'
_cell_length_a   10.18195567
_cell_length_b   10.18195567
_cell_length_c   10.18195567
_cell_angle_alpha   107.66459725
_cell_angle_beta   107.66459725
_cell_angle_gamma   107.66459725
_symmetry_Int_Tables_number   1
_chemical_formula_structural   LiLa6RuI12
_chemical_formula_sum   'Li1 La6 Ru1 I12'
_cell_volume   862.66833442
_cell_formula_units_Z   1
loop_
 _symmetry_equiv_pos_site_id
 _symmetry_equiv_pos_as_xyz
  1  'x, y, z'
loop_
 _atom_site_type_symbol
 _atom_site_label
 _atom_site_symmetry_multiplicity
 _atom_site_fract_x
 _atom_site_fract_y
 _atom_site_fract_z
 _atom_site_occupancy
  Li  Li0  1  0.50000000  0.50000000  0.50000000  1.0
  La  La1  1  1.68817228  0.89068889  -0.03421106  1.0
  La  La2  1  1.10931111  0.03421106  -0.68817228  1.0
  La  La3  1  1.03421106  -0.68817228  0.10931111  1.0
  La  La4  1  0.31182772  0.10931111  0.03421106  1.0
  La  La5  1  0.89068889  0.96578894  0.68817228  1.0
  La  La6  1  0.96578894  1.68817228  -0.10931111  1.0
  Ru  Ru7  1  0.00000000  0.00000000  0.00000000  1.0
  I  I8  1  1.61163879  0.53253735  -0.17150866  1.0
  I  I9  1  0.46746265  1.17150866  -0.61163879  1.0
  I  I10  1  1.17150866  0.38836121  -0.53253735  1.0
  I  I11  1  0.38836121  0.46746265  0.17150866  1.0
  I  I12  1  1.53253735  -0.17150866  0.61163879  1.0
  I  I13  1  0.82849134  0.61163879  0.53253735  1.0
  I  I14  1  0.68253024  0.22328286  0.07159388  1.0
  I  I15  1  0.77671714  0.92840612  0.31746976  1.0
  I  I16  1  0.92840612  1.31746976  -0.22328286  1.0
  I  I17  1  1.31746976  0.77671714  -0.07159388  1.0
  I  I18  1  1.22328286  0.07159388  -0.31746976  1.0
  I  I19  1  1.07159388  -0.31746976  0.22328286  1.0
