# generated using pymatgen
data_Nb3Se5Cl7
_symmetry_space_group_name_H-M   'P 1'
_cell_length_a   8.74855778
_cell_length_b   12.71324978
_cell_length_c   8.50500242
_cell_angle_alpha   90.00000000
_cell_angle_beta   109.32926670
_cell_angle_gamma   90.00000000
_symmetry_Int_Tables_number   1
_chemical_formula_structural   Nb3Se5Cl7
_chemical_formula_sum   'Nb6 Se10 Cl14'
_cell_volume   892.62726244
_cell_formula_units_Z   2
loop_
 _symmetry_equiv_pos_site_id
 _symmetry_equiv_pos_as_xyz
  1  'x, y, z'
loop_
 _atom_site_type_symbol
 _atom_site_label
 _atom_site_symmetry_multiplicity
 _atom_site_fract_x
 _atom_site_fract_y
 _atom_site_fract_z
 _atom_site_occupancy
  Nb  Nb0  1  0.52720672  0.38987588  0.55898609  1.0
  Nb  Nb1  1  0.52720672  0.11012412  0.55898609  1.0
  Nb  Nb2  1  0.47279328  0.88987588  0.44101391  1.0
  Nb  Nb3  1  0.47279328  0.61012412  0.44101391  1.0
  Nb  Nb4  1  0.89573239  0.25000000  0.96265931  1.0
  Nb  Nb5  1  0.10426761  0.75000000  0.03734069  1.0
  Se  Se6  1  0.75940332  0.96840643  0.60821389  1.0
  Se  Se7  1  0.75940332  0.53159357  0.60821389  1.0
  Se  Se8  1  0.24059668  0.46840643  0.39178611  1.0
  Se  Se9  1  0.24059668  0.03159357  0.39178611  1.0
  Se  Se10  1  0.64428121  0.47316202  0.33725872  1.0
  Se  Se11  1  0.64428121  0.02683798  0.33725872  1.0
  Se  Se12  1  0.35571879  0.97316202  0.66274128  1.0
  Se  Se13  1  0.35571879  0.52683798  0.66274128  1.0
  Se  Se14  1  0.93104095  0.25000000  0.24152102  1.0
  Se  Se15  1  0.06895905  0.75000000  0.75847898  1.0
  Cl  Cl16  1  0.66736097  0.38366668  0.88645635  1.0
  Cl  Cl17  1  0.66736097  0.11633332  0.88645635  1.0
  Cl  Cl18  1  0.33263903  0.88366668  0.11354365  1.0
  Cl  Cl19  1  0.33263903  0.61633332  0.11354365  1.0
  Cl  Cl20  1  0.06792697  0.38182722  0.93262761  1.0
  Cl  Cl21  1  0.06792697  0.11817278  0.93262761  1.0
  Cl  Cl22  1  0.93207303  0.88182722  0.06737239  1.0
  Cl  Cl23  1  0.93207303  0.61817278  0.06737239  1.0
  Cl  Cl24  1  0.76146211  0.25000000  0.60953696  1.0
  Cl  Cl25  1  0.23853789  0.75000000  0.39046304  1.0
  Cl  Cl26  1  0.43456141  0.25000000  0.32284140  1.0
  Cl  Cl27  1  0.56543859  0.75000000  0.67715860  1.0
  Cl  Cl28  1  0.36520627  0.25000000  0.65495382  1.0
  Cl  Cl29  1  0.63479373  0.75000000  0.34504618  1.0
