# generated using pymatgen
data_Ta3As
_symmetry_space_group_name_H-M   'P 1'
_cell_length_a   10.47694533
_cell_length_b   10.47694533
_cell_length_c   5.25502784
_cell_angle_alpha   90.00000000
_cell_angle_beta   90.00000000
_cell_angle_gamma   90.00000000
_symmetry_Int_Tables_number   1
_chemical_formula_structural   Ta3As
_chemical_formula_sum   'Ta24 As8'
_cell_volume   576.82540075
_cell_formula_units_Z   8
loop_
 _symmetry_equiv_pos_site_id
 _symmetry_equiv_pos_as_xyz
  1  'x, y, z'
loop_
 _atom_site_type_symbol
 _atom_site_label
 _atom_site_symmetry_multiplicity
 _atom_site_fract_x
 _atom_site_fract_y
 _atom_site_fract_z
 _atom_site_occupancy
  Ta  Ta0  1  0.39976395  0.33460292  1.15384289  1.0
  Ta  Ta1  1  0.89976395  0.83460292  0.34615711  1.0
  Ta  Ta2  1  0.33460292  0.60023605  -0.15384289  1.0
  Ta  Ta3  1  0.83460292  0.10023605  0.65384289  1.0
  Ta  Ta4  1  0.60023605  0.66539708  1.15384289  1.0
  Ta  Ta5  1  0.10023605  0.16539708  0.34615711  1.0
  Ta  Ta6  1  0.66539708  0.39976395  -0.15384289  1.0
  Ta  Ta7  1  0.16539708  0.89976395  0.65384289  1.0
  Ta  Ta8  1  0.36151855  0.78325588  0.39381991  1.0
  Ta  Ta9  1  0.86151855  0.28325588  0.10618009  1.0
  Ta  Ta10  1  0.78325588  0.63848145  0.60618009  1.0
  Ta  Ta11  1  0.28325588  0.13848145  0.89381991  1.0
  Ta  Ta12  1  0.63848145  0.21674412  0.39381991  1.0
  Ta  Ta13  1  0.13848145  0.71674412  0.10618009  1.0
  Ta  Ta14  1  0.21674412  0.36151855  0.60618009  1.0
  Ta  Ta15  1  0.71674412  0.86151855  0.89381991  1.0
  Ta  Ta16  1  1.10961162  0.42570718  0.09191304  1.0
  Ta  Ta17  1  0.60961162  0.92570718  0.40808696  1.0
  Ta  Ta18  1  0.42570718  -0.10961162  0.90808696  1.0
  Ta  Ta19  1  0.92570718  0.39038838  0.59191304  1.0
  Ta  Ta20  1  -0.10961162  0.57429282  0.09191304  1.0
  Ta  Ta21  1  0.39038838  0.07429282  0.40808696  1.0
  Ta  Ta22  1  0.57429282  1.10961162  0.90808696  1.0
  Ta  Ta23  1  0.07429282  0.60961162  0.59191304  1.0
  As  As24  1  0.44986920  0.29843128  0.66547116  1.0
  As  As25  1  0.94986920  0.79843128  -0.16547116  1.0
  As  As26  1  0.29843128  0.55013080  0.33452884  1.0
  As  As27  1  0.79843128  0.05013080  1.16547116  1.0
  As  As28  1  0.55013080  0.70156872  0.66547116  1.0
  As  As29  1  0.05013080  0.20156872  -0.16547116  1.0
  As  As30  1  0.70156872  0.44986920  0.33452884  1.0
  As  As31  1  0.20156872  0.94986920  1.16547116  1.0
