# generated using pymatgen
data_Lu11In9Ni4
_symmetry_space_group_name_H-M   'P 1'
_cell_length_a   12.84674856
_cell_length_b   12.84674856
_cell_length_c   3.56682826
_cell_angle_alpha   90.00000000
_cell_angle_beta   90.00000000
_cell_angle_gamma   112.76660259
_symmetry_Int_Tables_number   1
_chemical_formula_structural   Lu11In9Ni4
_chemical_formula_sum   'Lu11 In9 Ni4'
_cell_volume   542.80198829
_cell_formula_units_Z   1
loop_
 _symmetry_equiv_pos_site_id
 _symmetry_equiv_pos_as_xyz
  1  'x, y, z'
loop_
 _atom_site_type_symbol
 _atom_site_label
 _atom_site_symmetry_multiplicity
 _atom_site_fract_x
 _atom_site_fract_y
 _atom_site_fract_z
 _atom_site_occupancy
  Lu  Lu0  1  -0.08086380  1.58268725  0.00000000  1.0
  Lu  Lu1  1  0.58268725  0.91913620  0.00000000  1.0
  Lu  Lu2  1  -0.58268725  1.08086380  0.00000000  1.0
  Lu  Lu3  1  0.08086380  0.41731275  0.00000000  1.0
  Lu  Lu4  1  0.15915691  0.84084309  0.00000000  1.0
  Lu  Lu5  1  -0.15915691  1.15915691  0.00000000  1.0
  Lu  Lu6  1  0.37442597  0.62557403  0.00000000  1.0
  Lu  Lu7  1  -0.37442597  1.37442597  0.00000000  1.0
  Lu  Lu8  1  0.68764046  0.68764046  0.00000000  1.0
  Lu  Lu9  1  0.31235954  0.31235954  0.00000000  1.0
  Lu  Lu10  1  0.00000000  0.00000000  0.00000000  1.0
  In  In11  1  0.15524206  0.63217257  0.50000000  1.0
  In  In12  1  -0.36782743  1.15524206  0.50000000  1.0
  In  In13  1  0.36782743  0.84475794  0.50000000  1.0
  In  In14  1  -0.15524206  1.36782743  0.50000000  1.0
  In  In15  1  -0.07523197  1.78103889  0.50000000  1.0
  In  In16  1  0.78103889  0.92476803  0.50000000  1.0
  In  In17  1  -0.78103889  1.07523197  0.50000000  1.0
  In  In18  1  0.07523197  0.21896111  0.50000000  1.0
  In  In19  1  0.50000000  0.50000000  0.50000000  1.0
  Ni  Ni20  1  -0.24888644  1.55004955  0.50000000  1.0
  Ni  Ni21  1  0.55004955  0.75111356  0.50000000  1.0
  Ni  Ni22  1  -0.55004955  1.24888644  0.50000000  1.0
  Ni  Ni23  1  0.24888644  0.44995045  0.50000000  1.0
