# generated using pymatgen
data_In3SnI5
_symmetry_space_group_name_H-M   'P 1'
_cell_length_a   9.27123452
_cell_length_b   9.07072640
_cell_length_c   17.77070899
_cell_angle_alpha   90.00000000
_cell_angle_beta   100.54920830
_cell_angle_gamma   90.00000000
_symmetry_Int_Tables_number   1
_chemical_formula_structural   In3SnI5
_chemical_formula_sum   'In12 Sn4 I20'
_cell_volume   1469.20100432
_cell_formula_units_Z   4
loop_
 _symmetry_equiv_pos_site_id
 _symmetry_equiv_pos_as_xyz
  1  'x, y, z'
loop_
 _atom_site_type_symbol
 _atom_site_label
 _atom_site_symmetry_multiplicity
 _atom_site_fract_x
 _atom_site_fract_y
 _atom_site_fract_z
 _atom_site_occupancy
  In  In0  1  0.89018052  0.31522816  0.75801354  1.0
  In  In1  1  0.89018052  0.18477184  0.25801354  1.0
  In  In2  1  0.10981948  0.81522816  0.74198646  1.0
  In  In3  1  0.10981948  0.68477184  0.24198646  1.0
  In  In4  1  0.73278776  0.95312810  0.52060461  1.0
  In  In5  1  0.73278776  0.54687190  0.02060461  1.0
  In  In6  1  0.26721224  0.45312810  0.97939539  1.0
  In  In7  1  0.26721224  0.04687190  0.47939539  1.0
  In  In8  1  0.60289423  0.59653938  0.74895795  1.0
  In  In9  1  0.60289423  0.90346062  0.24895795  1.0
  In  In10  1  0.39710577  0.09653938  0.75104205  1.0
  In  In11  1  0.39710577  0.40346062  0.25104205  1.0
  Sn  Sn12  1  0.80160077  0.95540045  0.90994960  1.0
  Sn  Sn13  1  0.80160077  0.54459955  0.40994960  1.0
  Sn  Sn14  1  0.19839923  0.45540045  0.59005040  1.0
  Sn  Sn15  1  0.19839923  0.04459955  0.09005040  1.0
  I  I16  1  0.95172294  0.63953428  0.89353830  1.0
  I  I17  1  0.95172294  0.86046572  0.39353830  1.0
  I  I18  1  0.04827706  0.13953428  0.60646170  1.0
  I  I19  1  0.04827706  0.36046572  0.10646170  1.0
  I  I20  1  0.88538880  0.61586530  0.60152658  1.0
  I  I21  1  0.88538880  0.88413470  0.10152658  1.0
  I  I22  1  0.11461120  0.11586530  0.89847342  1.0
  I  I23  1  0.11461120  0.38413470  0.39847342  1.0
  I  I24  1  0.74908676  0.95670839  0.73416397  1.0
  I  I25  1  0.74908676  0.54329161  0.23416397  1.0
  I  I26  1  0.25091324  0.45670839  0.76583603  1.0
  I  I27  1  0.25091324  0.04329161  0.26583603  1.0
  I  I28  1  0.50410945  0.78619749  0.89326972  1.0
  I  I29  1  0.50410945  0.71380251  0.39326972  1.0
  I  I30  1  0.49589055  0.28619749  0.60673028  1.0
  I  I31  1  0.49589055  0.21380251  0.10673028  1.0
  I  I32  1  0.35788895  0.76941729  0.61323976  1.0
  I  I33  1  0.35788895  0.73058271  0.11323976  1.0
  I  I34  1  0.64211105  0.26941729  0.88676024  1.0
  I  I35  1  0.64211105  0.23058271  0.38676024  1.0
