# generated using pymatgen
data_Nb6Si6Ni
_symmetry_space_group_name_H-M   'P 1'
_cell_length_a   9.14117930
_cell_length_b   9.14117930
_cell_length_c   9.14117930
_cell_angle_alpha   31.85905443
_cell_angle_beta   31.85905443
_cell_angle_gamma   31.85905443
_symmetry_Int_Tables_number   1
_chemical_formula_structural   Nb6Si6Ni
_chemical_formula_sum   'Nb6 Si6 Ni1'
_cell_volume   189.04079805
_cell_formula_units_Z   1
loop_
 _symmetry_equiv_pos_site_id
 _symmetry_equiv_pos_as_xyz
  1  'x, y, z'
loop_
 _atom_site_type_symbol
 _atom_site_label
 _atom_site_symmetry_multiplicity
 _atom_site_fract_x
 _atom_site_fract_y
 _atom_site_fract_z
 _atom_site_occupancy
  Nb  Nb0  1  0.64952901  0.64952901  -0.35047099  1.0
  Nb  Nb1  1  0.35047099  0.35047099  -0.64952901  1.0
  Nb  Nb2  1  0.83676373  -0.16323627  -0.16323627  1.0
  Nb  Nb3  1  0.16323627  0.16323627  0.16323627  1.0
  Nb  Nb4  1  0.54885301  0.54885301  -0.45114699  1.0
  Nb  Nb5  1  0.45114699  0.45114699  -0.54885301  1.0
  Si  Si6  1  0.41142895  -0.09306212  -0.09306212  1.0
  Si  Si7  1  0.90693788  -0.09306212  -0.58857105  1.0
  Si  Si8  1  0.90693788  -0.58857105  -0.09306212  1.0
  Si  Si9  1  0.58857105  0.09306212  0.09306212  1.0
  Si  Si10  1  1.09306212  0.09306212  -0.41142895  1.0
  Si  Si11  1  1.09306212  -0.41142895  0.09306212  1.0
  Ni  Ni12  1  0.00000000  0.00000000  0.00000000  1.0
