# generated using pymatgen
data_Ca3OsO6
_symmetry_space_group_name_H-M   'P 1'
_cell_length_a   5.56472085
_cell_length_b   5.83783977
_cell_length_c   9.78430163
_cell_angle_alpha   90.00000000
_cell_angle_beta   124.73946834
_cell_angle_gamma   90.00000000
_symmetry_Int_Tables_number   1
_chemical_formula_structural   Ca3OsO6
_chemical_formula_sum   'Ca6 Os2 O12'
_cell_volume   261.19568379
_cell_formula_units_Z   2
loop_
 _symmetry_equiv_pos_site_id
 _symmetry_equiv_pos_as_xyz
  1  'x, y, z'
loop_
 _atom_site_type_symbol
 _atom_site_label
 _atom_site_symmetry_multiplicity
 _atom_site_fract_x
 _atom_site_fract_y
 _atom_site_fract_z
 _atom_site_occupancy
  Ca  Ca0  1  0.72709896  0.05904005  0.24497790  1.0
  Ca  Ca1  1  0.72709896  0.44095995  0.74497790  1.0
  Ca  Ca2  1  0.27290104  0.55904005  0.25502210  1.0
  Ca  Ca3  1  0.27290104  0.94095995  0.75502210  1.0
  Ca  Ca4  1  0.50000000  0.50000000  -0.00000000  1.0
  Ca  Ca5  1  0.50000000  0.00000000  0.50000000  1.0
  Os  Os6  1  0.00000000  0.50000000  0.50000000  1.0
  Os  Os7  1  0.00000000  0.00000000  0.00000000  1.0
  O  O8  1  0.88994724  0.44879695  0.27497577  1.0
  O  O9  1  0.88994724  0.05120305  0.77497577  1.0
  O  O10  1  0.11005276  0.94879695  0.22502423  1.0
  O  O11  1  0.11005276  0.55120305  0.72502423  1.0
  O  O12  1  0.76126426  0.77553850  0.42999715  1.0
  O  O13  1  0.76126426  0.72446150  0.92999715  1.0
  O  O14  1  0.23873574  0.27553850  0.07000285  1.0
  O  O15  1  0.23873574  0.22446150  0.57000285  1.0
  O  O16  1  0.66431519  0.32121476  0.44673431  1.0
  O  O17  1  0.66431519  0.17878524  0.94673431  1.0
  O  O18  1  0.33568481  0.82121476  0.05326569  1.0
  O  O19  1  0.33568481  0.67878524  0.55326569  1.0
