# generated using pymatgen
data_Ca5Cr3O13
_symmetry_space_group_name_H-M   'P 1'
_cell_length_a   9.92176864
_cell_length_b   9.92176864
_cell_length_c   6.91054442
_cell_angle_alpha   90.00000000
_cell_angle_beta   90.00000000
_cell_angle_gamma   120.00000000
_symmetry_Int_Tables_number   1
_chemical_formula_structural   Ca5Cr3O13
_chemical_formula_sum   'Ca10 Cr6 O26'
_cell_volume   589.14349423
_cell_formula_units_Z   2
loop_
 _symmetry_equiv_pos_site_id
 _symmetry_equiv_pos_as_xyz
  1  'x, y, z'
loop_
 _atom_site_type_symbol
 _atom_site_label
 _atom_site_symmetry_multiplicity
 _atom_site_fract_x
 _atom_site_fract_y
 _atom_site_fract_z
 _atom_site_occupancy
  Ca  Ca0  1  0.98295334  0.77312506  0.25000000  1.0
  Ca  Ca1  1  0.77312506  0.79017171  0.75000000  1.0
  Ca  Ca2  1  0.79017171  0.01704666  0.25000000  1.0
  Ca  Ca3  1  0.22687494  0.20982829  0.25000000  1.0
  Ca  Ca4  1  0.01704666  0.22687494  0.75000000  1.0
  Ca  Ca5  1  0.20982829  0.98295334  0.75000000  1.0
  Ca  Ca6  1  0.33333333  0.66666667  0.49832813  1.0
  Ca  Ca7  1  0.33333333  0.66666667  1.00167187  1.0
  Ca  Ca8  1  0.66666667  0.33333333  -0.00167187  1.0
  Ca  Ca9  1  0.66666667  0.33333333  0.50167187  1.0
  Cr  Cr10  1  0.62138454  0.58992094  0.25000000  1.0
  Cr  Cr11  1  0.58992094  0.96853640  0.75000000  1.0
  Cr  Cr12  1  0.96853640  0.37861546  0.25000000  1.0
  Cr  Cr13  1  0.41007906  0.03146360  0.25000000  1.0
  Cr  Cr14  1  0.37861546  0.41007906  0.75000000  1.0
  Cr  Cr15  1  0.03146360  0.62138454  0.75000000  1.0
  O  O16  1  0.73922046  0.65502981  0.44484068  1.0
  O  O17  1  0.73922046  0.65502981  0.05515932  1.0
  O  O18  1  0.65502981  0.91580935  0.94484068  1.0
  O  O19  1  0.65502981  0.91580935  0.55515932  1.0
  O  O20  1  0.91580935  0.26077954  0.44484068  1.0
  O  O21  1  0.91580935  0.26077954  0.05515932  1.0
  O  O22  1  0.34497019  0.08419065  0.44484068  1.0
  O  O23  1  0.34497019  0.08419065  0.05515932  1.0
  O  O24  1  0.26077954  0.34497019  0.94484068  1.0
  O  O25  1  0.26077954  0.34497019  0.55515932  1.0
  O  O26  1  0.08419065  0.73922046  0.94484068  1.0
  O  O27  1  0.08419065  0.73922046  0.55515932  1.0
  O  O28  1  0.34799209  0.84013810  0.25000000  1.0
  O  O29  1  0.84013810  0.49214600  0.75000000  1.0
  O  O30  1  0.49214600  0.65200791  0.25000000  1.0
  O  O31  1  0.15986190  0.50785400  0.25000000  1.0
  O  O32  1  0.65200791  0.15986190  0.75000000  1.0
  O  O33  1  0.50785400  0.34799209  0.75000000  1.0
  O  O34  1  0.53085099  0.39213952  0.25000000  1.0
  O  O35  1  0.39213952  0.86128853  0.75000000  1.0
  O  O36  1  0.86128853  0.46914901  0.25000000  1.0
  O  O37  1  0.60786048  0.13871147  0.25000000  1.0
  O  O38  1  0.46914901  0.60786048  0.75000000  1.0
  O  O39  1  0.13871147  0.53085099  0.75000000  1.0
  O  O40  1  0.00000000  0.00000000  0.25000000  1.0
  O  O41  1  0.00000000  0.00000000  0.75000000  1.0
