# generated using pymatgen
data_Zn3As2
_symmetry_space_group_name_H-M   'P 1'
_cell_length_a   10.33423918
_cell_length_b   10.33423918
_cell_length_c   10.33423918
_cell_angle_alpha   109.47122063
_cell_angle_beta   109.47122063
_cell_angle_gamma   109.47122063
_symmetry_Int_Tables_number   1
_chemical_formula_structural   Zn3As2
_chemical_formula_sum   'Zn24 As16'
_cell_volume   849.59830076
_cell_formula_units_Z   8
loop_
 _symmetry_equiv_pos_site_id
 _symmetry_equiv_pos_as_xyz
  1  'x, y, z'
loop_
 _atom_site_type_symbol
 _atom_site_label
 _atom_site_symmetry_multiplicity
 _atom_site_fract_x
 _atom_site_fract_y
 _atom_site_fract_z
 _atom_site_occupancy
  Zn  Zn0  1  1.02487750  0.49167078  0.75333828  1.0
  Zn  Zn1  1  1.26166750  1.00832922  1.03320672  1.0
  Zn  Zn2  1  1.47512250  1.22846078  1.46679328  1.0
  Zn  Zn3  1  1.23833250  1.27153922  1.74666172  1.0
  Zn  Zn4  1  1.27153922  0.74666172  1.23833250  1.0
  Zn  Zn5  1  1.22846078  1.46679328  1.47512250  1.0
  Zn  Zn6  1  1.00832922  1.03320672  1.26166750  1.0
  Zn  Zn7  1  1.49167078  0.75333828  1.02487750  1.0
  Zn  Zn8  1  1.03320672  1.26166750  1.00832922  1.0
  Zn  Zn9  1  0.75333828  1.02487750  0.49167078  1.0
  Zn  Zn10  1  1.74666172  1.23833250  1.27153922  1.0
  Zn  Zn11  1  1.46679328  1.47512250  1.22846078  1.0
  Zn  Zn12  1  0.97512250  1.50832922  1.24666172  1.0
  Zn  Zn13  1  0.73833250  0.99167078  0.96679328  1.0
  Zn  Zn14  1  0.52487750  0.77153922  0.53320672  1.0
  Zn  Zn15  1  0.76166750  0.72846078  0.25333828  1.0
  Zn  Zn16  1  0.72846078  1.25333828  0.76166750  1.0
  Zn  Zn17  1  0.77153922  0.53320672  0.52487750  1.0
  Zn  Zn18  1  0.99167078  0.96679328  0.73833250  1.0
  Zn  Zn19  1  0.50832922  1.24666172  0.97512250  1.0
  Zn  Zn20  1  0.96679328  0.73833250  0.99167078  1.0
  Zn  Zn21  1  1.24666172  0.97512250  1.50832922  1.0
  Zn  Zn22  1  0.25333828  0.76166750  0.72846078  1.0
  Zn  Zn23  1  0.53320672  0.52487750  0.77153922  1.0
  As  As24  1  0.00000000  0.50000000  0.50000000  1.0
  As  As25  1  1.00000000  1.00000000  1.00000000  1.0
  As  As26  1  0.50000000  1.00000000  0.50000000  1.0
  As  As27  1  0.50000000  0.50000000  -0.00000000  1.0
  As  As28  1  0.74172659  0.75000000  0.49172659  1.0
  As  As29  1  0.75827341  0.25000000  1.00827341  1.0
  As  As30  1  0.25000000  1.00827341  0.75827341  1.0
  As  As31  1  0.75000000  1.49172659  0.74172659  1.0
  As  As32  1  0.49172659  0.74172659  0.75000000  1.0
  As  As33  1  1.00827341  0.75827341  1.25000000  1.0
  As  As34  1  1.25827341  1.25000000  1.50827341  1.0
  As  As35  1  0.24172659  0.75000000  0.99172659  1.0
  As  As36  1  0.75000000  0.99172659  0.24172659  1.0
  As  As37  1  0.25000000  0.50827341  0.25827341  1.0
  As  As38  1  1.50827341  1.25827341  1.25000000  1.0
  As  As39  1  0.99172659  1.24172659  0.75000000  1.0
