# generated using pymatgen
data_La4Mg
_symmetry_space_group_name_H-M   'P 1'
_cell_length_a   8.27660710
_cell_length_b   8.27660710
_cell_length_c   8.27660710
_cell_angle_alpha   60.00000000
_cell_angle_beta   60.00000000
_cell_angle_gamma   60.00000000
_symmetry_Int_Tables_number   1
_chemical_formula_structural   La4Mg
_chemical_formula_sum   'La8 Mg2'
_cell_volume   400.90550512
_cell_formula_units_Z   2
loop_
 _symmetry_equiv_pos_site_id
 _symmetry_equiv_pos_as_xyz
  1  'x, y, z'
loop_
 _atom_site_type_symbol
 _atom_site_label
 _atom_site_symmetry_multiplicity
 _atom_site_fract_x
 _atom_site_fract_y
 _atom_site_fract_z
 _atom_site_occupancy
  La  La0  1  -0.10312445  0.89687555  0.30937335  1.0
  La  La1  1  0.89687555  -0.69062665  0.89687555  1.0
  La  La2  1  0.35312445  0.35312445  0.35312445  1.0
  La  La3  1  -0.05937335  0.35312445  0.35312445  1.0
  La  La4  1  -0.69062665  0.89687555  0.89687555  1.0
  La  La5  1  0.89687555  -0.10312445  0.89687555  1.0
  La  La6  1  0.35312445  -0.05937335  0.35312445  1.0
  La  La7  1  0.35312445  0.35312445  -0.05937335  1.0
  Mg  Mg8  1  0.50000000  0.50000000  -0.50000000  1.0
  Mg  Mg9  1  0.75000000  -0.25000000  0.75000000  1.0
