# generated using pymatgen
data_BN
_symmetry_space_group_name_H-M   'P 1'
_cell_length_a   6.66203087
_cell_length_b   6.66203087
_cell_length_c   4.39132679
_cell_angle_alpha   89.31439200
_cell_angle_beta   90.68560800
_cell_angle_gamma   158.29859686
_symmetry_Int_Tables_number   1
_chemical_formula_structural   BN
_chemical_formula_sum   'B4 N4'
_cell_volume   72.06226383
_cell_formula_units_Z   4
loop_
 _symmetry_equiv_pos_site_id
 _symmetry_equiv_pos_as_xyz
  1  'x, y, z'
loop_
 _atom_site_type_symbol
 _atom_site_label
 _atom_site_symmetry_multiplicity
 _atom_site_fract_x
 _atom_site_fract_y
 _atom_site_fract_z
 _atom_site_occupancy
  B  B0  1  -0.00005108  0.00005108  0.00126197  1.0
  B  B1  1  0.79996405  0.20003595  0.57174307  1.0
  B  B2  1  0.13427030  -0.13427030  0.62006851  1.0
  B  B3  1  0.46842905  -0.46842905  0.50153265  1.0
  N  N4  1  0.01925787  -0.01925787  0.65719055  1.0
  N  N5  1  0.49384938  -0.49384938  0.15689744  1.0
  N  N6  1  0.35306754  -0.35306754  0.55521828  1.0
  N  N7  1  0.68771289  0.31228711  0.60748754  1.0
