# generated using pymatgen
data_Cs2V2(OF2)3
_symmetry_space_group_name_H-M   'P 1'
_cell_length_a   11.56821505
_cell_length_b   11.56821505
_cell_length_c   7.17657264
_cell_angle_alpha   81.08518161
_cell_angle_beta   98.91481839
_cell_angle_gamma   41.33974145
_symmetry_Int_Tables_number   1
_chemical_formula_structural   Cs2V2(OF2)3
_chemical_formula_sum   'Cs4 V4 O6 F12'
_cell_volume   569.96083413
_cell_formula_units_Z   2
loop_
 _symmetry_equiv_pos_site_id
 _symmetry_equiv_pos_as_xyz
  1  'x, y, z'
loop_
 _atom_site_type_symbol
 _atom_site_label
 _atom_site_symmetry_multiplicity
 _atom_site_fract_x
 _atom_site_fract_y
 _atom_site_fract_z
 _atom_site_occupancy
  O  O0  1  0.87978378  -0.14928029  0.59224777  1.0
  O  O1  1  0.14928029  0.12021622  0.09224777  1.0
  O  O2  1  0.62153184  -0.02098337  0.87356966  1.0
  O  O3  1  1.02098337  -0.62153184  0.37356966  1.0
  O  O4  1  0.61695139  0.32951678  0.70165694  1.0
  O  O5  1  0.67048322  -0.61695139  0.20165694  1.0
  Cs  Cs6  1  0.74539991  -0.35999314  0.94635812  1.0
  Cs  Cs7  1  0.35999314  0.25460009  0.44635812  1.0
  Cs  Cs8  1  1.00830878  -0.83451066  0.61718538  1.0
  Cs  Cs9  1  0.83451066  -0.00830878  0.11718538  1.0
  F  F10  1  0.56777156  -0.41069959  0.49963615  1.0
  F  F11  1  0.41069959  0.43222844  -0.00036385  1.0
  F  F12  1  1.12485279  -0.20935722  0.86516803  1.0
  F  F13  1  0.20935722  -0.12485279  0.36516803  1.0
  F  F14  1  1.05704356  -0.37100354  -0.00691222  1.0
  F  F15  1  0.37100354  -0.05704356  0.49308778  1.0
  F  F16  1  1.21360966  -0.34958602  0.57937791  1.0
  F  F17  1  0.34958602  -0.21360966  0.07937791  1.0
  F  F18  1  1.17759623  -0.53383379  0.73701399  1.0
  F  F19  1  0.53383379  -0.17759623  0.23701399  1.0
  F  F20  1  1.36430490  -0.43592858  0.29986740  1.0
  F  F21  1  0.43592858  -0.36430490  0.79986740  1.0
  V  V22  1  1.43984061  -0.44279545  0.57418167  1.0
  V  V23  1  0.44279545  -0.43984061  0.07418167  1.0
  V  V24  1  1.09393959  -0.33361053  0.76734919  1.0
  V  V25  1  0.33361053  -0.09393959  0.26734919  1.0
