# generated using pymatgen
data_KV(CuS2)2
_symmetry_space_group_name_H-M   'P 1'
_cell_length_a   9.49117213
_cell_length_b   9.49117213
_cell_length_c   7.47535999
_cell_angle_alpha   90.00000000
_cell_angle_beta   90.00000000
_cell_angle_gamma   33.14340377
_symmetry_Int_Tables_number   1
_chemical_formula_structural   KV(CuS2)2
_chemical_formula_sum   'K2 V2 Cu4 S8'
_cell_volume   368.17119530
_cell_formula_units_Z   2
loop_
 _symmetry_equiv_pos_site_id
 _symmetry_equiv_pos_as_xyz
  1  'x, y, z'
loop_
 _atom_site_type_symbol
 _atom_site_label
 _atom_site_symmetry_multiplicity
 _atom_site_fract_x
 _atom_site_fract_y
 _atom_site_fract_z
 _atom_site_occupancy
  K  K0  1  0.55621080  1.07804863  0.25000000  1.0
  K  K1  1  -0.07804863  1.44378920  0.75000000  1.0
  V  V2  1  0.08477216  1.13150394  0.25000000  1.0
  V  V3  1  0.86849606  0.91522784  0.75000000  1.0
  Cu  Cu4  1  0.58284633  0.63010090  0.25000000  1.0
  Cu  Cu5  1  0.36989910  1.41715367  0.75000000  1.0
  Cu  Cu6  1  -0.00770114  0.00770114  0.50000000  1.0
  Cu  Cu7  1  -0.00770114  0.00770114  0.00000000  1.0
  S  S8  1  0.10246222  1.68151407  0.50980418  1.0
  S  S9  1  0.31848593  0.89753778  0.00980418  1.0
  S  S10  1  0.31848593  0.89753778  0.49019582  1.0
  S  S11  1  0.10246222  1.68151407  0.99019582  1.0
  S  S12  1  -0.25024408  1.26441344  0.25000000  1.0
  S  S13  1  0.73558656  1.25024408  0.75000000  1.0
  S  S14  1  -0.05281488  1.46219744  0.25000000  1.0
  S  S15  1  0.53780256  1.05281488  0.75000000  1.0
