# generated using pymatgen
data_La3NiW(SO2)3
_symmetry_space_group_name_H-M   'P 1'
_cell_length_a   9.45788167
_cell_length_b   9.45788167
_cell_length_c   5.54569717
_cell_angle_alpha   90.00000000
_cell_angle_beta   90.00000000
_cell_angle_gamma   120.00000000
_symmetry_Int_Tables_number   1
_chemical_formula_structural   La3NiW(SO2)3
_chemical_formula_sum   'La6 Ni2 W2 S6 O12'
_cell_volume   429.61015152
_cell_formula_units_Z   2
loop_
 _symmetry_equiv_pos_site_id
 _symmetry_equiv_pos_as_xyz
  1  'x, y, z'
loop_
 _atom_site_type_symbol
 _atom_site_label
 _atom_site_symmetry_multiplicity
 _atom_site_fract_x
 _atom_site_fract_y
 _atom_site_fract_z
 _atom_site_occupancy
  La  La0  1  0.68464947  0.59538715  0.25000000  1.0
  La  La1  1  0.59538715  0.91073768  0.75000000  1.0
  La  La2  1  0.91073768  0.31535053  0.25000000  1.0
  La  La3  1  0.40461285  0.08926232  0.25000000  1.0
  La  La4  1  0.31535053  0.40461285  0.75000000  1.0
  La  La5  1  0.08926232  0.68464947  0.75000000  1.0
  Ni  Ni6  1  0.00000000  0.00000000  0.50000000  1.0
  Ni  Ni7  1  0.00000000  0.00000000  0.00000000  1.0
  W  W8  1  0.33333333  0.66666667  0.25000000  1.0
  W  W9  1  0.66666667  0.33333333  0.75000000  1.0
  S  S10  1  0.04507976  0.82721224  0.25000000  1.0
  S  S11  1  0.82721224  0.78213248  0.75000000  1.0
  S  S12  1  0.78213248  0.95492024  0.25000000  1.0
  S  S13  1  0.17278776  0.21786752  0.25000000  1.0
  S  S14  1  0.95492024  0.17278776  0.75000000  1.0
  S  S15  1  0.21786752  0.04507976  0.75000000  1.0
  O  O16  1  0.36448880  0.83800953  0.47538314  1.0
  O  O17  1  0.36448880  0.83800953  0.02461686  1.0
  O  O18  1  0.83800953  0.47352073  0.97538314  1.0
  O  O19  1  0.83800953  0.47352073  0.52461686  1.0
  O  O20  1  0.47352073  0.63551120  0.47538314  1.0
  O  O21  1  0.47352073  0.63551120  0.02461686  1.0
  O  O22  1  0.16199047  0.52647927  0.47538314  1.0
  O  O23  1  0.16199047  0.52647927  0.02461686  1.0
  O  O24  1  0.63551120  0.16199047  0.97538314  1.0
  O  O25  1  0.63551120  0.16199047  0.52461686  1.0
  O  O26  1  0.52647927  0.36448880  0.97538314  1.0
  O  O27  1  0.52647927  0.36448880  0.52461686  1.0
