# generated using pymatgen
data_Rb2SnF6
_symmetry_space_group_name_H-M   'P 1'
_cell_length_a   6.19965973
_cell_length_b   6.19965973
_cell_length_c   4.96880137
_cell_angle_alpha   90.00000000
_cell_angle_beta   90.00000000
_cell_angle_gamma   120.00000000
_symmetry_Int_Tables_number   1
_chemical_formula_structural   Rb2SnF6
_chemical_formula_sum   'Rb2 Sn1 F6'
_cell_volume   165.39332381
_cell_formula_units_Z   1
loop_
 _symmetry_equiv_pos_site_id
 _symmetry_equiv_pos_as_xyz
  1  'x, y, z'
loop_
 _atom_site_type_symbol
 _atom_site_label
 _atom_site_symmetry_multiplicity
 _atom_site_fract_x
 _atom_site_fract_y
 _atom_site_fract_z
 _atom_site_occupancy
  Rb  Rb0  1  0.33333333  0.66666667  0.30462652  1.0
  Rb  Rb1  1  0.66666667  0.33333333  0.69537348  1.0
  Sn  Sn2  1  -0.00000000  -0.00000000  -0.00000000  1.0
  F  F3  1  0.31235607  0.15617803  0.22241702  1.0
  F  F4  1  0.15617803  0.31235607  0.77758298  1.0
  F  F5  1  0.15617803  0.84382197  0.77758298  1.0
  F  F6  1  0.84382197  0.15617803  0.22241702  1.0
  F  F7  1  0.84382197  0.68764393  0.22241702  1.0
  F  F8  1  0.68764393  0.84382197  0.77758298  1.0
