# generated using pymatgen
data_B4C
_symmetry_space_group_name_H-M   'P 1'
_cell_length_a   6.77419407
_cell_length_b   6.77419407
_cell_length_c   6.77419407
_cell_angle_alpha   60.35829353
_cell_angle_beta   60.35829353
_cell_angle_gamma   60.35829353
_symmetry_Int_Tables_number   1
_chemical_formula_structural   B4C
_chemical_formula_sum   'B12 C3'
_cell_volume   221.59686475
_cell_formula_units_Z   3
loop_
 _symmetry_equiv_pos_site_id
 _symmetry_equiv_pos_as_xyz
  1  'x, y, z'
loop_
 _atom_site_type_symbol
 _atom_site_label
 _atom_site_symmetry_multiplicity
 _atom_site_fract_x
 _atom_site_fract_y
 _atom_site_fract_z
 _atom_site_occupancy
  B  B0  1  0.34675515  1.10428115  -0.65324485  1.0
  B  B1  1  0.34675515  0.34675515  0.10428115  1.0
  B  B2  1  1.10428115  0.34675515  -0.65324485  1.0
  B  B3  1  0.65324485  -0.10428115  -0.34675515  1.0
  B  B4  1  0.65324485  -0.34675515  -0.10428115  1.0
  B  B5  1  0.89571885  -0.34675515  -0.34675515  1.0
  B  B6  1  0.49990109  0.12846376  -0.50009891  1.0
  B  B7  1  0.49990109  -0.50009891  0.12846376  1.0
  B  B8  1  1.12846376  -0.50009891  -0.50009891  1.0
  B  B9  1  0.50009891  0.87153624  -0.49990109  1.0
  B  B10  1  0.50009891  0.50009891  -0.12846376  1.0
  B  B11  1  0.87153624  0.50009891  -0.49990109  1.0
  C  C12  1  0.41707976  0.41707976  -0.58292024  1.0
  C  C13  1  0.58292024  0.58292024  -0.41707976  1.0
  C  C14  1  0.50000000  0.50000000  -0.50000000  1.0
