# generated using pymatgen
data_Sr2Ge
_symmetry_space_group_name_H-M   'P 1'
_cell_length_a   8.16449344
_cell_length_b   5.18158744
_cell_length_c   9.68029235
_cell_angle_alpha   90.00000000
_cell_angle_beta   90.00000000
_cell_angle_gamma   90.00000000
_symmetry_Int_Tables_number   1
_chemical_formula_structural   Sr2Ge
_chemical_formula_sum   'Sr8 Ge4'
_cell_volume   409.52512257
_cell_formula_units_Z   4
loop_
 _symmetry_equiv_pos_site_id
 _symmetry_equiv_pos_as_xyz
  1  'x, y, z'
loop_
 _atom_site_type_symbol
 _atom_site_label
 _atom_site_symmetry_multiplicity
 _atom_site_fract_x
 _atom_site_fract_y
 _atom_site_fract_z
 _atom_site_occupancy
  Sr  Sr0  1  0.98141336  0.75000000  0.67429623  1.0
  Sr  Sr1  1  0.48141336  0.75000000  0.82570377  1.0
  Sr  Sr2  1  0.01858664  0.25000000  0.32570377  1.0
  Sr  Sr3  1  0.51858664  0.25000000  0.17429623  1.0
  Sr  Sr4  1  0.84828992  0.75000000  0.07805929  1.0
  Sr  Sr5  1  0.34828992  0.75000000  0.42194071  1.0
  Sr  Sr6  1  0.15171008  0.25000000  0.92194071  1.0
  Sr  Sr7  1  0.65171008  0.25000000  0.57805929  1.0
  Ge  Ge8  1  0.74815923  0.75000000  0.39765943  1.0
  Ge  Ge9  1  0.24815923  0.75000000  0.10234057  1.0
  Ge  Ge10  1  0.25184077  0.25000000  0.60234057  1.0
  Ge  Ge11  1  0.75184077  0.25000000  0.89765943  1.0
