# generated using pymatgen
data_Mg2Xe
_symmetry_space_group_name_H-M   'P 1'
_cell_length_a   8.73690135
_cell_length_b   8.73690135
_cell_length_c   8.73690135
_cell_angle_alpha   151.71310867
_cell_angle_beta   151.71310867
_cell_angle_gamma   40.43240785
_symmetry_Int_Tables_number   1
_chemical_formula_structural   Mg2Xe
_chemical_formula_sum   'Mg2 Xe1'
_cell_volume   149.46658607
_cell_formula_units_Z   1
loop_
 _symmetry_equiv_pos_site_id
 _symmetry_equiv_pos_as_xyz
  1  'x, y, z'
loop_
 _atom_site_type_symbol
 _atom_site_label
 _atom_site_symmetry_multiplicity
 _atom_site_fract_x
 _atom_site_fract_y
 _atom_site_fract_z
 _atom_site_occupancy
  Mg  Mg0  1  0.24819471  0.24819471  0.00000000  1.0
  Mg  Mg1  1  0.75180529  0.75180529  1.00000000  1.0
  Xe  Xe2  1  0.00000000  0.00000000  0.00000000  1.0
