# generated using pymatgen
data_NaS2
_symmetry_space_group_name_H-M   'P 1'
_cell_length_a   9.11491048
_cell_length_b   9.11491048
_cell_length_c   9.11491048
_cell_angle_alpha   115.60046034
_cell_angle_beta   115.60046034
_cell_angle_gamma   97.80569283
_symmetry_Int_Tables_number   1
_chemical_formula_structural   NaS2
_chemical_formula_sum   'Na8 S16'
_cell_volume   565.39642354
_cell_formula_units_Z   8
loop_
 _symmetry_equiv_pos_site_id
 _symmetry_equiv_pos_as_xyz
  1  'x, y, z'
loop_
 _atom_site_type_symbol
 _atom_site_label
 _atom_site_symmetry_multiplicity
 _atom_site_fract_x
 _atom_site_fract_y
 _atom_site_fract_z
 _atom_site_occupancy
  Na  Na0  1  0.87500000  0.85367062  0.47867062  1.0
  Na  Na1  1  1.60367062  1.12500000  0.97867062  1.0
  Na  Na2  1  1.14632938  0.62500000  1.02132938  1.0
  Na  Na3  1  0.37500000  0.39632938  0.52132938  1.0
  Na  Na4  1  0.17115512  0.17115512  0.00000000  1.0
  Na  Na5  1  0.57884488  1.07884488  0.50000000  1.0
  Na  Na6  1  0.92115512  1.42115512  0.50000000  1.0
  Na  Na7  1  0.82884488  0.82884488  0.00000000  1.0
  S  S8  1  1.04361871  1.26326563  0.71526463  1.0
  S  S9  1  1.70638129  1.92164592  1.71964692  1.0
  S  S10  1  1.01326563  1.29361871  1.21526463  1.0
  S  S11  1  0.73673437  0.45199900  0.78035308  1.0
  S  S12  1  1.20199900  0.98673437  0.28035308  1.0
  S  S13  1  0.54800100  0.32835408  0.28473537  1.0
  S  S14  1  1.67164592  0.95638129  1.21964692  1.0
  S  S15  1  1.07835408  0.79800100  0.78473537  1.0
  S  S16  1  1.27879144  1.25035546  0.73475014  1.0
  S  S17  1  1.47120856  1.70595871  1.47156403  1.0
  S  S18  1  1.00035546  1.52879144  1.23475014  1.0
  S  S19  1  0.74964454  1.48439468  1.02843597  1.0
  S  S20  1  1.23439468  0.99964454  0.52843597  1.0
  S  S21  1  0.51560532  0.54404129  0.26524986  1.0
  S  S22  1  0.45595871  0.72120856  0.97156403  1.0
  S  S23  1  1.29404129  0.76560532  0.76524986  1.0
