# generated using pymatgen
data_Zr6Al2Ni
_symmetry_space_group_name_H-M   'P 1'
_cell_length_a   7.93358197
_cell_length_b   7.93358197
_cell_length_c   3.35575497
_cell_angle_alpha   90.00000000
_cell_angle_beta   90.00000000
_cell_angle_gamma   120.00000000
_symmetry_Int_Tables_number   1
_chemical_formula_structural   Zr6Al2Ni
_chemical_formula_sum   'Zr6 Al2 Ni1'
_cell_volume   182.91928708
_cell_formula_units_Z   1
loop_
 _symmetry_equiv_pos_site_id
 _symmetry_equiv_pos_as_xyz
  1  'x, y, z'
loop_
 _atom_site_type_symbol
 _atom_site_label
 _atom_site_symmetry_multiplicity
 _atom_site_fract_x
 _atom_site_fract_y
 _atom_site_fract_z
 _atom_site_occupancy
  Zr  Zr0  1  0.74538608  0.74538608  0.50000000  1.0
  Zr  Zr1  1  0.00000000  0.25461392  0.50000000  1.0
  Zr  Zr2  1  0.25461392  0.00000000  0.50000000  1.0
  Zr  Zr3  1  0.40234897  0.40234897  0.00000000  1.0
  Zr  Zr4  1  0.00000000  0.59765103  0.00000000  1.0
  Zr  Zr5  1  0.59765103  0.00000000  0.00000000  1.0
  Al  Al6  1  0.33333333  0.66666667  0.50000000  1.0
  Al  Al7  1  0.66666667  0.33333333  0.50000000  1.0
  Ni  Ni8  1  0.00000000  0.00000000  0.00000000  1.0
