# generated using pymatgen
data_Nb3As
_symmetry_space_group_name_H-M   'P 1'
_cell_length_a   10.34105252
_cell_length_b   10.34105252
_cell_length_c   5.22462686
_cell_angle_alpha   90.00000000
_cell_angle_beta   90.00000000
_cell_angle_gamma   90.00000000
_symmetry_Int_Tables_number   1
_chemical_formula_structural   Nb3As
_chemical_formula_sum   'Nb24 As8'
_cell_volume   558.70784198
_cell_formula_units_Z   8
loop_
 _symmetry_equiv_pos_site_id
 _symmetry_equiv_pos_as_xyz
  1  'x, y, z'
loop_
 _atom_site_type_symbol
 _atom_site_label
 _atom_site_symmetry_multiplicity
 _atom_site_fract_x
 _atom_site_fract_y
 _atom_site_fract_z
 _atom_site_occupancy
  Nb  Nb0  1  0.59292085  0.91523992  0.51943237  1.0
  Nb  Nb1  1  0.40707915  0.08476008  0.51943237  1.0
  Nb  Nb2  1  0.41523992  0.90707915  0.01943237  1.0
  Nb  Nb3  1  0.58476008  0.09292085  0.01943237  1.0
  Nb  Nb4  1  0.90707915  0.58476008  0.98056763  1.0
  Nb  Nb5  1  0.09292085  0.41523992  0.98056763  1.0
  Nb  Nb6  1  0.08476008  0.59292085  0.48056763  1.0
  Nb  Nb7  1  0.91523992  0.40707915  0.48056763  1.0
  Nb  Nb8  1  0.99045786  0.85069396  0.73390172  1.0
  Nb  Nb9  1  0.00954214  0.14930604  0.73390172  1.0
  Nb  Nb10  1  0.35069396  0.50954214  0.23390172  1.0
  Nb  Nb11  1  0.64930604  0.49045786  0.23390172  1.0
  Nb  Nb12  1  0.50954214  0.64930604  0.76609828  1.0
  Nb  Nb13  1  0.49045786  0.35069396  0.76609828  1.0
  Nb  Nb14  1  0.14930604  0.99045786  0.26609828  1.0
  Nb  Nb15  1  0.85069396  0.00954214  0.26609828  1.0
  Nb  Nb16  1  0.71281352  0.80414619  0.00819069  1.0
  Nb  Nb17  1  0.28718648  0.19585381  0.00819069  1.0
  Nb  Nb18  1  0.30414619  0.78718648  0.50819069  1.0
  Nb  Nb19  1  0.69585381  0.21281352  0.50819069  1.0
  Nb  Nb20  1  0.78718648  0.69585381  0.49180931  1.0
  Nb  Nb21  1  0.21281352  0.30414619  0.49180931  1.0
  Nb  Nb22  1  0.19585381  0.71281352  0.99180931  1.0
  Nb  Nb23  1  0.80414619  0.28718648  0.99180931  1.0
  As  As24  1  0.98171405  0.79341670  0.23264156  1.0
  As  As25  1  0.01828595  0.20658330  0.23264156  1.0
  As  As26  1  0.29341670  0.51828595  0.73264156  1.0
  As  As27  1  0.70658330  0.48171405  0.73264156  1.0
  As  As28  1  0.51828595  0.70658330  0.26735844  1.0
  As  As29  1  0.48171405  0.29341670  0.26735844  1.0
  As  As30  1  0.20658330  0.98171405  0.76735844  1.0
  As  As31  1  0.79341670  0.01828595  0.76735844  1.0
