# generated using pymatgen
data_Ba2MnSi2ClO7
_symmetry_space_group_name_H-M   'P 1'
_cell_length_a   8.56840352
_cell_length_b   8.56840352
_cell_length_c   5.50665723
_cell_angle_alpha   90.00000000
_cell_angle_beta   90.00000000
_cell_angle_gamma   90.00000000
_symmetry_Int_Tables_number   1
_chemical_formula_structural   Ba2MnSi2ClO7
_chemical_formula_sum   'Ba4 Mn2 Si4 Cl2 O14'
_cell_volume   404.28522196
_cell_formula_units_Z   2
loop_
 _symmetry_equiv_pos_site_id
 _symmetry_equiv_pos_as_xyz
  1  'x, y, z'
loop_
 _atom_site_type_symbol
 _atom_site_label
 _atom_site_symmetry_multiplicity
 _atom_site_fract_x
 _atom_site_fract_y
 _atom_site_fract_z
 _atom_site_occupancy
  Ba  Ba0  1  0.82915217  0.67084783  0.37909150  1.0
  Ba  Ba1  1  0.32915217  0.82915217  0.37909150  1.0
  Ba  Ba2  1  0.17084783  0.32915217  0.37909150  1.0
  Ba  Ba3  1  0.67084783  0.17084783  0.37909150  1.0
  Mn  Mn4  1  0.50000000  0.50000000  -0.00334078  1.0
  Mn  Mn5  1  0.00000000  0.00000000  -0.00334078  1.0
  Si  Si6  1  0.37007981  0.12992019  0.90113387  1.0
  Si  Si7  1  0.87007981  0.37007981  0.90113387  1.0
  Si  Si8  1  0.62992019  0.87007981  0.90113387  1.0
  Si  Si9  1  0.12992019  0.62992019  0.90113387  1.0
  Cl  Cl10  1  0.50000000  0.50000000  0.53210097  1.0
  Cl  Cl11  1  0.00000000  0.00000000  0.53210097  1.0
  O  O12  1  0.29368713  0.57973543  0.03725369  1.0
  O  O13  1  0.79368713  0.92026457  0.03725369  1.0
  O  O14  1  0.42026457  0.29368713  0.03725369  1.0
  O  O15  1  0.92026457  0.20631287  0.03725369  1.0
  O  O16  1  0.70631287  0.42026457  0.03725369  1.0
  O  O17  1  0.20631287  0.07973543  0.03725369  1.0
  O  O18  1  0.57973543  0.70631287  0.03725369  1.0
  O  O19  1  0.07973543  0.79368713  0.03725369  1.0
  O  O20  1  0.37038566  0.12961435  0.60922640  1.0
  O  O21  1  0.87038565  0.37038566  0.60922640  1.0
  O  O22  1  0.62961434  0.87038565  0.60922640  1.0
  O  O23  1  0.12961435  0.62961434  0.60922640  1.0
  O  O24  1  0.00000000  0.50000000  0.01212148  1.0
  O  O25  1  0.50000000  0.00000000  0.01212148  1.0
