# generated using pymatgen
data_ZnS
_symmetry_space_group_name_H-M   'P 1'
_cell_length_a   3.85013338
_cell_length_b   3.85013338
_cell_length_c   56.64389581
_cell_angle_alpha   90.00000000
_cell_angle_beta   90.00000000
_cell_angle_gamma   120.00000000
_symmetry_Int_Tables_number   1
_chemical_formula_structural   ZnS
_chemical_formula_sum   'Zn18 S18'
_cell_volume   727.16889933
_cell_formula_units_Z   18
loop_
 _symmetry_equiv_pos_site_id
 _symmetry_equiv_pos_as_xyz
  1  'x, y, z'
loop_
 _atom_site_type_symbol
 _atom_site_label
 _atom_site_symmetry_multiplicity
 _atom_site_fract_x
 _atom_site_fract_y
 _atom_site_fract_z
 _atom_site_occupancy
  Zn  Zn0  1  0.00000000  0.00000000  0.05554845  1.0
  Zn  Zn1  1  0.00000000  0.00000000  0.22221739  1.0
  Zn  Zn2  1  0.00000000  0.00000000  0.44443949  1.0
  Zn  Zn3  1  0.00000000  0.00000000  0.61106605  1.0
  Zn  Zn4  1  0.00000000  0.00000000  0.72225864  1.0
  Zn  Zn5  1  0.00000000  0.00000000  0.88887558  1.0
  Zn  Zn6  1  0.66666667  0.33333333  0.16667305  1.0
  Zn  Zn7  1  0.66666667  0.33333333  0.33332586  1.0
  Zn  Zn8  1  0.66666667  0.33333333  0.49998848  1.0
  Zn  Zn9  1  0.66666667  0.33333333  0.66666634  1.0
  Zn  Zn10  1  0.66666667  0.33333333  0.83328432  1.0
  Zn  Zn11  1  0.66666667  0.33333333  0.94445918  1.0
  Zn  Zn12  1  0.33333333  0.66666667  -0.00004633  1.0
  Zn  Zn13  1  0.33333333  0.66666667  0.11114471  1.0
  Zn  Zn14  1  0.33333333  0.66666667  0.27773299  1.0
  Zn  Zn15  1  0.33333333  0.66666667  0.38891302  1.0
  Zn  Zn16  1  0.33333333  0.66666667  0.55553954  1.0
  Zn  Zn17  1  0.33333333  0.66666667  0.77777612  1.0
  S  S18  1  0.00000000  0.00000000  0.01384286  1.0
  S  S19  1  0.00000000  0.00000000  0.18057100  1.0
  S  S20  1  0.00000000  0.00000000  0.40279646  1.0
  S  S21  1  0.00000000  0.00000000  0.56943432  1.0
  S  S22  1  0.00000000  0.00000000  0.68062557  1.0
  S  S23  1  0.00000000  0.00000000  0.84717204  1.0
  S  S24  1  0.66666667  0.33333333  0.12502938  1.0
  S  S25  1  0.66666667  0.33333333  0.29162172  1.0
  S  S26  1  0.66666667  0.33333333  0.45833751  1.0
  S  S27  1  0.66666667  0.33333333  0.62495914  1.0
  S  S28  1  0.66666667  0.33333333  0.79166033  1.0
  S  S29  1  0.66666667  0.33333333  0.90283018  1.0
  S  S30  1  0.33333333  0.66666667  0.06950891  1.0
  S  S31  1  0.33333333  0.66666667  0.23610532  1.0
  S  S32  1  0.33333333  0.66666667  0.34728128  1.0
  S  S33  1  0.33333333  0.66666667  0.51388925  1.0
  S  S34  1  0.33333333  0.66666667  0.73613892  1.0
  S  S35  1  0.33333333  0.66666667  0.95833296  1.0
