# generated using pymatgen
data_Ag3Te(PO7)2
_symmetry_space_group_name_H-M   'P 1'
_cell_length_a   7.85560669
_cell_length_b   7.85560669
_cell_length_c   10.10218995
_cell_angle_alpha   90.00000000
_cell_angle_beta   90.00000000
_cell_angle_gamma   120.00000000
_symmetry_Int_Tables_number   1
_chemical_formula_structural   Ag3Te(PO7)2
_chemical_formula_sum   'Ag6 Te2 P4 O28'
_cell_volume   539.89042441
_cell_formula_units_Z   2
loop_
 _symmetry_equiv_pos_site_id
 _symmetry_equiv_pos_as_xyz
  1  'x, y, z'
loop_
 _atom_site_type_symbol
 _atom_site_label
 _atom_site_symmetry_multiplicity
 _atom_site_fract_x
 _atom_site_fract_y
 _atom_site_fract_z
 _atom_site_occupancy
  Ag  Ag0  1  0.52374520  0.47625480  0.25000000  1.0
  Ag  Ag1  1  0.52374520  0.04749040  0.25000000  1.0
  Ag  Ag2  1  0.47625480  0.52374520  0.75000000  1.0
  Ag  Ag3  1  0.47625480  0.95250960  0.75000000  1.0
  Ag  Ag4  1  0.95250960  0.47625480  0.25000000  1.0
  Ag  Ag5  1  0.04749040  0.52374520  0.75000000  1.0
  Te  Te6  1  -0.00000000  -0.00000000  0.25000000  1.0
  Te  Te7  1  0.00000000  0.00000000  0.75000000  1.0
  P  P8  1  0.33333333  0.66666667  0.04450492  1.0
  P  P9  1  0.33333333  0.66666667  0.45549508  1.0
  P  P10  1  0.66666667  0.33333333  0.95549508  1.0
  P  P11  1  0.66666667  0.33333333  0.54450492  1.0
  O  O12  1  0.34822652  0.86064036  0.09232834  1.0
  O  O13  1  0.34822652  0.48758616  0.40767166  1.0
  O  O14  1  0.86064036  0.34822652  0.90767166  1.0
  O  O15  1  0.86064036  0.51241384  0.59232834  1.0
  O  O16  1  0.51241384  0.86064036  0.40767166  1.0
  O  O17  1  0.51241384  0.65177348  0.09232834  1.0
  O  O18  1  0.13935964  0.65177348  0.40767166  1.0
  O  O19  1  0.13935964  0.48758616  0.09232834  1.0
  O  O20  1  0.65177348  0.51241384  0.90767166  1.0
  O  O21  1  0.65177348  0.13935964  0.59232834  1.0
  O  O22  1  0.48758616  0.34822652  0.59232834  1.0
  O  O23  1  0.48758616  0.13935964  0.90767166  1.0
  O  O24  1  0.96137282  0.76007415  0.15329846  1.0
  O  O25  1  0.96137282  0.20129867  0.34670154  1.0
  O  O26  1  0.76007415  0.96137282  0.84670154  1.0
  O  O27  1  0.76007415  0.79870133  0.65329846  1.0
  O  O28  1  0.79870133  0.76007415  0.34670154  1.0
  O  O29  1  0.79870133  0.03862718  0.15329846  1.0
  O  O30  1  0.23992585  0.03862718  0.34670154  1.0
  O  O31  1  0.23992585  0.20129867  0.15329846  1.0
  O  O32  1  0.03862718  0.79870133  0.84670154  1.0
  O  O33  1  0.03862718  0.23992585  0.65329846  1.0
  O  O34  1  0.20129867  0.96137282  0.65329846  1.0
  O  O35  1  0.20129867  0.23992585  0.84670154  1.0
  O  O36  1  0.33333333  0.66666667  0.61348570  1.0
  O  O37  1  0.33333333  0.66666667  0.88651430  1.0
  O  O38  1  0.66666667  0.33333333  0.38651430  1.0
  O  O39  1  0.66666667  0.33333333  0.11348570  1.0
