# generated using pymatgen
data_FeNi2BO5
_symmetry_space_group_name_H-M   'P 1'
_cell_length_a   9.28247209
_cell_length_b   12.04520752
_cell_length_c   2.95115093
_cell_angle_alpha   90.00000000
_cell_angle_beta   90.00000000
_cell_angle_gamma   90.00000000
_symmetry_Int_Tables_number   1
_chemical_formula_structural   FeNi2BO5
_chemical_formula_sum   'Fe4 Ni8 B4 O20'
_cell_volume   329.96612782
_cell_formula_units_Z   4
loop_
 _symmetry_equiv_pos_site_id
 _symmetry_equiv_pos_as_xyz
  1  'x, y, z'
loop_
 _atom_site_type_symbol
 _atom_site_label
 _atom_site_symmetry_multiplicity
 _atom_site_fract_x
 _atom_site_fract_y
 _atom_site_fract_z
 _atom_site_occupancy
  Fe  Fe0  1  0.25431180  0.88834526  0.00000000  1.0
  Fe  Fe1  1  0.75431180  0.61165474  0.00000000  1.0
  Fe  Fe2  1  0.74568820  0.11165474  0.00000000  1.0
  Fe  Fe3  1  0.24568820  0.38834526  0.00000000  1.0
  Ni  Ni4  1  0.49704644  0.72265393  0.50000000  1.0
  Ni  Ni5  1  -0.00295356  0.77734607  0.50000000  1.0
  Ni  Ni6  1  0.50295356  0.27734607  0.50000000  1.0
  Ni  Ni7  1  1.00295356  0.22265393  0.50000000  1.0
  Ni  Ni8  1  0.50000000  0.00000000  0.50000000  1.0
  Ni  Ni9  1  0.00000000  0.50000000  0.50000000  1.0
  Ni  Ni10  1  0.50000000  0.50000000  0.00000000  1.0
  Ni  Ni11  1  0.00000000  0.00000000  0.00000000  1.0
  B  B12  1  0.23068587  0.63915439  0.00000000  1.0
  B  B13  1  0.73068587  0.86084561  0.00000000  1.0
  B  B14  1  0.76931413  0.36084561  0.00000000  1.0
  B  B15  1  0.26931413  0.13915439  0.00000000  1.0
  O  O16  1  0.38384859  0.85977973  0.50000000  1.0
  O  O17  1  0.88384859  0.64022027  0.50000000  1.0
  O  O18  1  0.61615141  0.14022027  0.50000000  1.0
  O  O19  1  0.11615141  0.35977973  0.50000000  1.0
  O  O20  1  0.11714130  0.91682652  0.50000000  1.0
  O  O21  1  0.61714130  0.58317348  0.50000000  1.0
  O  O22  1  0.88285870  0.08317348  0.50000000  1.0
  O  O23  1  0.38285870  0.41682652  0.50000000  1.0
  O  O24  1  0.37930817  0.64006798  0.00000000  1.0
  O  O25  1  0.87930817  0.85993202  0.00000000  1.0
  O  O26  1  0.62069183  0.35993202  0.00000000  1.0
  O  O27  1  0.12069183  0.14006798  0.00000000  1.0
  O  O28  1  0.15627599  0.73876813  0.00000000  1.0
  O  O29  1  0.65627599  0.76123187  0.00000000  1.0
  O  O30  1  0.84372401  0.26123187  0.00000000  1.0
  O  O31  1  0.34372401  0.23876813  0.00000000  1.0
  O  O32  1  0.15556525  0.53927831  0.00000000  1.0
  O  O33  1  0.65556525  0.96072169  0.00000000  1.0
  O  O34  1  0.84443475  0.46072169  0.00000000  1.0
  O  O35  1  0.34443475  0.03927831  0.00000000  1.0
