# generated using pymatgen
data_Lu3Ru2
_symmetry_space_group_name_H-M   'P 1'
_cell_length_a   7.46971088
_cell_length_b   7.46971088
_cell_length_c   4.63339764
_cell_angle_alpha   90.00000000
_cell_angle_beta   90.00000000
_cell_angle_gamma   120.00000000
_symmetry_Int_Tables_number   1
_chemical_formula_structural   Lu3Ru2
_chemical_formula_sum   'Lu6 Ru4'
_cell_volume   223.89159470
_cell_formula_units_Z   2
loop_
 _symmetry_equiv_pos_site_id
 _symmetry_equiv_pos_as_xyz
  1  'x, y, z'
loop_
 _atom_site_type_symbol
 _atom_site_label
 _atom_site_symmetry_multiplicity
 _atom_site_fract_x
 _atom_site_fract_y
 _atom_site_fract_z
 _atom_site_occupancy
  Lu  Lu0  1  0.69448629  0.61299222  0.25000000  1.0
  Lu  Lu1  1  0.61299222  0.91850594  0.75000000  1.0
  Lu  Lu2  1  0.91850594  0.30551371  0.25000000  1.0
  Lu  Lu3  1  0.38700778  0.08149406  0.25000000  1.0
  Lu  Lu4  1  0.30551371  0.38700778  0.75000000  1.0
  Lu  Lu5  1  0.08149406  0.69448629  0.75000000  1.0
  Ru  Ru6  1  0.33333333  0.66666667  0.25000000  1.0
  Ru  Ru7  1  0.66666667  0.33333333  0.75000000  1.0
  Ru  Ru8  1  -0.00000000  -0.00000000  0.50000000  1.0
  Ru  Ru9  1  0.00000000  0.00000000  -0.00000000  1.0
