# generated using pymatgen
data_KN
_symmetry_space_group_name_H-M   'P 1'
_cell_length_a   4.11169219
_cell_length_b   4.09335302
_cell_length_c   5.79793204
_cell_angle_alpha   90.00000000
_cell_angle_beta   90.07989487
_cell_angle_gamma   90.00000000
_symmetry_Int_Tables_number   1
_chemical_formula_structural   KN
_chemical_formula_sum   'K2 N2'
_cell_volume   97.58262425
_cell_formula_units_Z   2
loop_
 _symmetry_equiv_pos_site_id
 _symmetry_equiv_pos_as_xyz
  1  'x, y, z'
loop_
 _atom_site_type_symbol
 _atom_site_label
 _atom_site_symmetry_multiplicity
 _atom_site_fract_x
 _atom_site_fract_y
 _atom_site_fract_z
 _atom_site_occupancy
  K  K0  1  0.75019969  0.25000000  0.24991479  1.0
  K  K1  1  0.24980031  0.75000000  0.75008521  1.0
  N  N2  1  0.75018235  0.25000000  0.75013283  1.0
  N  N3  1  0.24981765  0.75000000  0.24986717  1.0
