# generated using pymatgen
data_ZnCu2SiS4
_symmetry_space_group_name_H-M   'P 1'
_cell_length_a   7.38419457
_cell_length_b   6.46318941
_cell_length_c   6.16303522
_cell_angle_alpha   90.00000000
_cell_angle_beta   90.00000000
_cell_angle_gamma   90.00000000
_symmetry_Int_Tables_number   1
_chemical_formula_structural   ZnCu2SiS4
_chemical_formula_sum   'Zn2 Cu4 Si2 S8'
_cell_volume   294.13361794
_cell_formula_units_Z   2
loop_
 _symmetry_equiv_pos_site_id
 _symmetry_equiv_pos_as_xyz
  1  'x, y, z'
loop_
 _atom_site_type_symbol
 _atom_site_label
 _atom_site_symmetry_multiplicity
 _atom_site_fract_x
 _atom_site_fract_y
 _atom_site_fract_z
 _atom_site_occupancy
  Zn  Zn0  1  0.50000000  0.65095940  0.00502710  1.0
  Zn  Zn1  1  0.00000000  0.34904060  0.50502710  1.0
  Cu  Cu2  1  0.24810318  0.17267542  0.01398514  1.0
  Cu  Cu3  1  0.74810318  0.82732458  0.51398514  1.0
  Cu  Cu4  1  0.75189682  0.17267542  0.01398514  1.0
  Cu  Cu5  1  0.25189682  0.82732458  0.51398514  1.0
  Si  Si6  1  0.50000000  0.32954958  0.50390573  1.0
  Si  Si7  1  0.00000000  0.67045042  0.00390573  1.0
  S  S8  1  0.50000000  0.31845031  0.85523252  1.0
  S  S9  1  0.00000000  0.68154969  0.35523252  1.0
  S  S10  1  0.26321644  0.16546597  0.38560475  1.0
  S  S11  1  0.76321644  0.83453403  0.88560475  1.0
  S  S12  1  0.73678356  0.16546597  0.38560475  1.0
  S  S13  1  0.23678356  0.83453403  0.88560475  1.0
  S  S14  1  0.50000000  0.64490383  0.38915486  1.0
  S  S15  1  0.00000000  0.35509617  0.88915486  1.0
