# generated using pymatgen
data_TaSe3
_symmetry_space_group_name_H-M   'P 1'
_cell_length_a   10.61356314
_cell_length_b   3.50714865
_cell_length_c   15.93633662
_cell_angle_alpha   90.00000000
_cell_angle_beta   110.12695007
_cell_angle_gamma   90.00000000
_symmetry_Int_Tables_number   1
_chemical_formula_structural   TaSe3
_chemical_formula_sum   'Ta6 Se18'
_cell_volume   556.97826669
_cell_formula_units_Z   6
loop_
 _symmetry_equiv_pos_site_id
 _symmetry_equiv_pos_as_xyz
  1  'x, y, z'
loop_
 _atom_site_type_symbol
 _atom_site_label
 _atom_site_symmetry_multiplicity
 _atom_site_fract_x
 _atom_site_fract_y
 _atom_site_fract_z
 _atom_site_occupancy
  Ta  Ta0  1  0.37855959  0.25000000  0.70936276  1.0
  Ta  Ta1  1  0.62144041  0.75000000  0.29063724  1.0
  Ta  Ta2  1  0.34255508  0.25000000  0.03828865  1.0
  Ta  Ta3  1  0.65744492  0.75000000  0.96171135  1.0
  Ta  Ta4  1  0.03142407  0.25000000  0.38386974  1.0
  Ta  Ta5  1  0.96857593  0.75000000  0.61613026  1.0
  Se  Se6  1  0.94442680  0.25000000  0.73405636  1.0
  Se  Se7  1  0.05557320  0.75000000  0.26594364  1.0
  Se  Se8  1  0.82021696  0.25000000  0.92501465  1.0
  Se  Se9  1  0.17978304  0.75000000  0.07498535  1.0
  Se  Se10  1  0.81686317  0.25000000  0.07613017  1.0
  Se  Se11  1  0.18313683  0.75000000  0.92386983  1.0
  Se  Se12  1  0.78010570  0.25000000  0.25118373  1.0
  Se  Se13  1  0.21989430  0.75000000  0.74881627  1.0
  Se  Se14  1  0.76653432  0.25000000  0.57899192  1.0
  Se  Se15  1  0.23346568  0.75000000  0.42100808  1.0
  Se  Se16  1  0.59569783  0.25000000  0.40791144  1.0
  Se  Se17  1  0.40430217  0.75000000  0.59208856  1.0
  Se  Se18  1  0.45943282  0.25000000  0.90747359  1.0
  Se  Se19  1  0.54056718  0.75000000  0.09252641  1.0
  Se  Se20  1  0.42252845  0.25000000  0.22117864  1.0
  Se  Se21  1  0.57747155  0.75000000  0.77882136  1.0
  Se  Se22  1  0.11940044  0.25000000  0.56823734  1.0
  Se  Se23  1  0.88059956  0.75000000  0.43176266  1.0
