# generated using pymatgen
data_CuBClO4
_symmetry_space_group_name_H-M   'P 1'
_cell_length_a   5.59420027
_cell_length_b   5.59420027
_cell_length_c   5.73705381
_cell_angle_alpha   90.00000000
_cell_angle_beta   90.00000000
_cell_angle_gamma   90.00000000
_symmetry_Int_Tables_number   1
_chemical_formula_structural   CuBClO4
_chemical_formula_sum   'Cu2 B2 Cl2 O8'
_cell_volume   179.54153875
_cell_formula_units_Z   2
loop_
 _symmetry_equiv_pos_site_id
 _symmetry_equiv_pos_as_xyz
  1  'x, y, z'
loop_
 _atom_site_type_symbol
 _atom_site_label
 _atom_site_symmetry_multiplicity
 _atom_site_fract_x
 _atom_site_fract_y
 _atom_site_fract_z
 _atom_site_occupancy
  Cu  Cu0  1  -0.00000000  0.50000000  0.65680221  1.0
  Cu  Cu1  1  0.50000000  0.00000000  0.34319779  1.0
  B  B2  1  0.50000000  0.50000000  0.50000000  1.0
  B  B3  1  0.00000000  0.00000000  0.50000000  1.0
  Cl  Cl4  1  -0.00000000  0.50000000  0.16863592  1.0
  Cl  Cl5  1  0.50000000  0.00000000  0.83136408  1.0
  O  O6  1  0.09307458  0.18203360  0.65930040  1.0
  O  O7  1  0.90692542  0.81796640  0.65930040  1.0
  O  O8  1  0.59307458  0.68203360  0.34069960  1.0
  O  O9  1  0.40692542  0.31796640  0.34069960  1.0
  O  O10  1  0.18203360  0.90692542  0.34069960  1.0
  O  O11  1  0.81796640  0.09307458  0.34069960  1.0
  O  O12  1  0.68203360  0.40692542  0.65930040  1.0
  O  O13  1  0.31796640  0.59307458  0.65930040  1.0
