# generated using pymatgen
data_InBF4
_symmetry_space_group_name_H-M   'P 1'
_cell_length_a   9.26174042
_cell_length_b   5.83445279
_cell_length_c   7.49132444
_cell_angle_alpha   90.00000000
_cell_angle_beta   90.00000000
_cell_angle_gamma   90.00000000
_symmetry_Int_Tables_number   1
_chemical_formula_structural   InBF4
_chemical_formula_sum   'In4 B4 F16'
_cell_volume   404.81010122
_cell_formula_units_Z   4
loop_
 _symmetry_equiv_pos_site_id
 _symmetry_equiv_pos_as_xyz
  1  'x, y, z'
loop_
 _atom_site_type_symbol
 _atom_site_label
 _atom_site_symmetry_multiplicity
 _atom_site_fract_x
 _atom_site_fract_y
 _atom_site_fract_z
 _atom_site_occupancy
  In  In0  1  0.31152660  0.75000000  0.16682999  1.0
  In  In1  1  0.81152660  0.75000000  0.33317001  1.0
  In  In2  1  0.68847340  0.25000000  0.83317001  1.0
  In  In3  1  0.18847340  0.25000000  0.66682999  1.0
  B  B4  1  0.43747911  0.75000000  0.68663188  1.0
  B  B5  1  0.93747911  0.75000000  0.81336812  1.0
  B  B6  1  0.56252089  0.25000000  0.31336812  1.0
  B  B7  1  0.06252089  0.25000000  0.18663188  1.0
  F  F8  1  0.42090372  0.94868392  0.79623374  1.0
  F  F9  1  0.42090372  0.55131608  0.79623374  1.0
  F  F10  1  0.92090372  0.94868392  0.70376626  1.0
  F  F11  1  0.92090372  0.55131608  0.70376626  1.0
  F  F12  1  0.57909628  0.44868392  0.20376626  1.0
  F  F13  1  0.57909628  0.05131608  0.20376626  1.0
  F  F14  1  0.07909628  0.44868392  0.29623374  1.0
  F  F15  1  0.07909628  0.05131608  0.29623374  1.0
  F  F16  1  0.32807112  0.75000000  0.55444265  1.0
  F  F17  1  0.82807112  0.75000000  0.94555735  1.0
  F  F18  1  0.67192888  0.25000000  0.44555735  1.0
  F  F19  1  0.17192888  0.25000000  0.05444265  1.0
  F  F20  1  0.07549679  0.75000000  0.89109823  1.0
  F  F21  1  0.57549679  0.75000000  0.60890177  1.0
  F  F22  1  0.92450321  0.25000000  0.10890177  1.0
  F  F23  1  0.42450321  0.25000000  0.39109823  1.0
