# generated using pymatgen
data_Na3Sc2(PO4)3
_symmetry_space_group_name_H-M   'P 1'
_cell_length_a   9.00210864
_cell_length_b   9.00210864
_cell_length_c   9.24294625
_cell_angle_alpha   61.58652505
_cell_angle_beta   118.41347495
_cell_angle_gamma   119.78162008
_symmetry_Int_Tables_number   1
_chemical_formula_structural   Na3Sc2(PO4)3
_chemical_formula_sum   'Na6 Sc4 P6 O24'
_cell_volume   542.92082973
_cell_formula_units_Z   2
loop_
 _symmetry_equiv_pos_site_id
 _symmetry_equiv_pos_as_xyz
  1  'x, y, z'
loop_
 _atom_site_type_symbol
 _atom_site_label
 _atom_site_symmetry_multiplicity
 _atom_site_fract_x
 _atom_site_fract_y
 _atom_site_fract_z
 _atom_site_occupancy
  Na  Na0  1  1.51637079  0.33330143  0.93958199  1.0
  Na  Na1  1  0.66669857  -0.51637079  0.43958199  1.0
  Na  Na2  1  1.08373770  0.62100778  0.20147316  1.0
  Na  Na3  1  0.37899222  -0.08373770  0.70147316  1.0
  Na  Na4  1  1.03825486  0.18376264  0.52822588  1.0
  Na  Na5  1  0.81623736  -0.03825486  0.02822588  1.0
  Sc  Sc6  1  0.77053957  -0.26502837  0.80979809  1.0
  Sc  Sc7  1  1.26502837  0.22946043  0.30979809  1.0
  Sc  Sc8  1  1.07161850  0.43428323  0.70762920  1.0
  Sc  Sc9  1  0.56571677  -0.07161850  0.20762920  1.0
  P  P10  1  0.95091770  -0.17004225  0.50096349  1.0
  P  P11  1  1.17004225  0.04908230  0.00096349  1.0
  P  P12  1  1.66801802  0.11207889  0.52112607  1.0
  P  P13  1  0.88792111  -0.66801802  0.02112607  1.0
  P  P14  1  1.37795534  0.53352076  0.51177292  1.0
  P  P15  1  0.46647924  -0.37795534  0.01177292  1.0
  O  O16  1  1.36230923  0.36029322  0.49713653  1.0
  O  O17  1  0.63970678  -0.36230923  -0.00286347  1.0
  O  O18  1  0.90764407  -0.16181718  0.64020235  1.0
  O  O19  1  1.16181718  0.09235593  0.14020235  1.0
  O  O20  1  1.00591948  0.87310065  0.97880225  1.0
  O  O21  1  0.12689935  -0.00591948  0.47880225  1.0
  O  O22  1  0.97871799  -0.34917752  0.55899801  1.0
  O  O23  1  1.34917752  0.02128201  0.05899801  1.0
  O  O24  1  0.85092995  -0.49448817  0.96794570  1.0
  O  O25  1  1.49448817  0.14907005  0.46794570  1.0
  O  O26  1  0.83468727  -0.71370994  0.54538769  1.0
  O  O27  1  1.71370994  0.16531273  0.04538769  1.0
  O  O28  1  0.93495822  -0.66891021  0.88094687  1.0
  O  O29  1  1.66891021  0.06504178  0.38094687  1.0
  O  O30  1  1.19562171  0.50274769  0.52113176  1.0
  O  O31  1  0.49725231  -0.19562171  0.02113176  1.0
  O  O32  1  0.67849617  -0.04582682  0.69636808  1.0
  O  O33  1  1.04582682  0.32150383  0.19636808  1.0
  O  O34  1  1.30561867  0.59154875  0.84570607  1.0
  O  O35  1  0.40845125  -0.30561867  0.34570607  1.0
  O  O36  1  1.16041733  0.20872281  0.82846986  1.0
  O  O37  1  0.79127719  -0.16041733  0.32846986  1.0
  O  O38  1  1.42989758  0.46246274  0.17553403  1.0
  O  O39  1  0.53753726  -0.42989758  0.67553403  1.0
