# generated using pymatgen
data_RbCaAs
_symmetry_space_group_name_H-M   'P 1'
_cell_length_a   5.17880934
_cell_length_b   5.17880934
_cell_length_c   7.99702254
_cell_angle_alpha   90.00000000
_cell_angle_beta   90.00000000
_cell_angle_gamma   90.00000000
_symmetry_Int_Tables_number   1
_chemical_formula_structural   RbCaAs
_chemical_formula_sum   'Rb2 Ca2 As2'
_cell_volume   214.48067335
_cell_formula_units_Z   2
loop_
 _symmetry_equiv_pos_site_id
 _symmetry_equiv_pos_as_xyz
  1  'x, y, z'
loop_
 _atom_site_type_symbol
 _atom_site_label
 _atom_site_symmetry_multiplicity
 _atom_site_fract_x
 _atom_site_fract_y
 _atom_site_fract_z
 _atom_site_occupancy
  Rb  Rb0  1  0.50000000  0.00000000  0.62680314  1.0
  Rb  Rb1  1  0.00000000  0.50000000  0.37319686  1.0
  Ca  Ca2  1  0.00000000  0.00000000  0.00000000  1.0
  Ca  Ca3  1  0.50000000  0.50000000  0.00000000  1.0
  As  As4  1  0.50000000  0.00000000  0.18444401  1.0
  As  As5  1  0.00000000  0.50000000  0.81555599  1.0
