# generated using pymatgen
data_Ti2Se
_symmetry_space_group_name_H-M   'P 1'
_cell_length_a   17.86303567
_cell_length_b   3.45976114
_cell_length_c   9.53326603
_cell_angle_alpha   90.00000000
_cell_angle_beta   90.00000000
_cell_angle_gamma   90.00000000
_symmetry_Int_Tables_number   1
_chemical_formula_structural   Ti2Se
_chemical_formula_sum   'Ti24 Se12'
_cell_volume   589.17334948
_cell_formula_units_Z   12
loop_
 _symmetry_equiv_pos_site_id
 _symmetry_equiv_pos_as_xyz
  1  'x, y, z'
loop_
 _atom_site_type_symbol
 _atom_site_label
 _atom_site_symmetry_multiplicity
 _atom_site_fract_x
 _atom_site_fract_y
 _atom_site_fract_z
 _atom_site_occupancy
  Ti  Ti0  1  0.48687309  0.75000000  0.11102095  1.0
  Ti  Ti1  1  0.98687309  0.75000000  0.38897905  1.0
  Ti  Ti2  1  0.51312691  0.25000000  0.88897905  1.0
  Ti  Ti3  1  0.01312691  0.25000000  0.61102095  1.0
  Ti  Ti4  1  0.39340036  0.75000000  0.84827678  1.0
  Ti  Ti5  1  0.89340036  0.75000000  0.65172322  1.0
  Ti  Ti6  1  0.60659964  0.25000000  0.15172322  1.0
  Ti  Ti7  1  0.10659964  0.25000000  0.34827678  1.0
  Ti  Ti8  1  0.34076844  0.75000000  0.53867920  1.0
  Ti  Ti9  1  0.84076844  0.75000000  0.96132080  1.0
  Ti  Ti10  1  0.65923156  0.25000000  0.46132080  1.0
  Ti  Ti11  1  0.15923156  0.25000000  0.03867920  1.0
  Ti  Ti12  1  0.22793207  0.75000000  0.25166533  1.0
  Ti  Ti13  1  0.72793207  0.75000000  0.24833467  1.0
  Ti  Ti14  1  0.77206793  0.25000000  0.74833467  1.0
  Ti  Ti15  1  0.27206793  0.25000000  0.75166533  1.0
  Ti  Ti16  1  0.14610781  0.75000000  0.57980960  1.0
  Ti  Ti17  1  0.64610781  0.75000000  0.92019040  1.0
  Ti  Ti18  1  0.85389219  0.25000000  0.42019040  1.0
  Ti  Ti19  1  0.35389219  0.25000000  0.07980960  1.0
  Ti  Ti20  1  0.03139271  0.75000000  0.88669835  1.0
  Ti  Ti21  1  0.53139271  0.75000000  0.61330165  1.0
  Ti  Ti22  1  0.96860729  0.25000000  0.11330165  1.0
  Ti  Ti23  1  0.46860729  0.25000000  0.38669835  1.0
  Se  Se24  1  0.37190297  0.75000000  0.27947243  1.0
  Se  Se25  1  0.87190297  0.75000000  0.22052757  1.0
  Se  Se26  1  0.62809703  0.25000000  0.72052757  1.0
  Se  Se27  1  0.12809703  0.25000000  0.77947243  1.0
  Se  Se28  1  0.26115872  0.75000000  0.96575021  1.0
  Se  Se29  1  0.76115872  0.75000000  0.53424979  1.0
  Se  Se30  1  0.73884128  0.25000000  0.03424979  1.0
  Se  Se31  1  0.23884128  0.25000000  0.46575021  1.0
  Se  Se32  1  0.07482752  0.75000000  0.15933095  1.0
  Se  Se33  1  0.57482752  0.75000000  0.34066905  1.0
  Se  Se34  1  0.92517248  0.25000000  0.84066905  1.0
  Se  Se35  1  0.42517248  0.25000000  0.65933095  1.0
