# generated using pymatgen
data_FeCu2(CN)6
_symmetry_space_group_name_H-M   'P 1'
_cell_length_a   7.20436990
_cell_length_b   7.20436990
_cell_length_c   7.20436990
_cell_angle_alpha   60.00000000
_cell_angle_beta   60.00000000
_cell_angle_gamma   60.00000000
_symmetry_Int_Tables_number   1
_chemical_formula_structural   FeCu2(CN)6
_chemical_formula_sum   'Fe1 Cu2 C6 N6'
_cell_volume   264.40703829
_cell_formula_units_Z   1
loop_
 _symmetry_equiv_pos_site_id
 _symmetry_equiv_pos_as_xyz
  1  'x, y, z'
loop_
 _atom_site_type_symbol
 _atom_site_label
 _atom_site_symmetry_multiplicity
 _atom_site_fract_x
 _atom_site_fract_y
 _atom_site_fract_z
 _atom_site_occupancy
  Fe  Fe0  1  0.00000000  0.00000000  0.00000000  1.0
  C  C1  1  -0.81497147  0.81497147  0.81497147  1.0
  C  C2  1  -0.18502853  0.81497147  0.18502853  1.0
  C  C3  1  -0.18502853  0.18502853  0.81497147  1.0
  C  C4  1  0.18502853  1.18502853  -0.18502853  1.0
  C  C5  1  0.18502853  -0.18502853  0.18502853  1.0
  C  C6  1  -0.18502853  0.18502853  0.18502853  1.0
  Cu  Cu7  1  0.75000000  0.75000000  -0.25000000  1.0
  Cu  Cu8  1  -0.50000000  0.50000000  0.50000000  1.0
  N  N9  1  -0.69991932  0.69991932  0.69991932  1.0
  N  N10  1  -0.30008068  0.69991932  0.30008068  1.0
  N  N11  1  -0.30008068  0.30008068  0.69991932  1.0
  N  N12  1  0.30008068  1.30008068  -0.30008068  1.0
  N  N13  1  0.30008068  -0.30008068  0.30008068  1.0
  N  N14  1  -0.30008068  0.30008068  0.30008068  1.0
