# generated using pymatgen
data_SiO2
_symmetry_space_group_name_H-M   'P 1'
_cell_length_a   10.99117402
_cell_length_b   10.99117402
_cell_length_c   10.99117402
_cell_angle_alpha   99.87372016
_cell_angle_beta   99.87372016
_cell_angle_gamma   131.07493434
_symmetry_Int_Tables_number   1
_chemical_formula_structural   SiO2
_chemical_formula_sum   'Si16 O32'
_cell_volume   911.10815615
_cell_formula_units_Z   16
loop_
 _symmetry_equiv_pos_site_id
 _symmetry_equiv_pos_as_xyz
  1  'x, y, z'
loop_
 _atom_site_type_symbol
 _atom_site_label
 _atom_site_symmetry_multiplicity
 _atom_site_fract_x
 _atom_site_fract_y
 _atom_site_fract_z
 _atom_site_occupancy
  Si  Si0  1  0.58649184  0.92710717  0.86041752  1.0
  Si  Si1  1  1.06668965  0.72607432  1.13958248  1.0
  Si  Si2  1  1.08649184  1.22607432  0.65938467  1.0
  Si  Si3  1  1.56668965  1.42710717  1.34061533  1.0
  Si  Si4  1  1.72607432  1.58649184  1.65938467  1.0
  Si  Si5  1  0.92710717  1.06668965  0.34061533  1.0
  Si  Si6  1  0.42710717  1.08649184  0.86041752  1.0
  Si  Si7  1  1.22607432  0.56668965  1.13958248  1.0
  Si  Si8  1  1.41350816  1.07289283  1.13958248  1.0
  Si  Si9  1  0.93331035  1.27392568  0.86041752  1.0
  Si  Si10  1  0.91350816  0.77392568  1.34061533  1.0
  Si  Si11  1  0.43331035  0.57289283  0.65938467  1.0
  Si  Si12  1  0.27392568  0.41350816  0.34061533  1.0
  Si  Si13  1  1.07289283  0.93331035  1.65938467  1.0
  Si  Si14  1  1.57289283  0.91350816  1.13958248  1.0
  Si  Si15  1  0.77392568  1.43331035  0.86041752  1.0
  O  O16  1  1.60269271  0.89730729  1.00000000  1.0
  O  O17  1  0.89730729  0.60269271  1.00000000  1.0
  O  O18  1  1.10269271  1.10269271  0.70538542  1.0
  O  O19  1  0.39730729  0.39730729  0.29461457  1.0
  O  O20  1  0.60269271  0.60269271  0.70538542  1.0
  O  O21  1  0.89730729  0.89730729  0.29461457  1.0
  O  O22  1  1.39730729  1.10269271  1.00000000  1.0
  O  O23  1  1.10269271  0.39730729  1.00000000  1.0
  O  O24  1  1.52749424  1.02749424  1.16330897  1.0
  O  O25  1  0.86418526  1.36418526  0.83669103  1.0
  O  O26  1  1.02749424  0.86418526  1.50000000  1.0
  O  O27  1  0.36418526  0.52749424  0.50000000  1.0
  O  O28  1  0.47250576  0.97250576  0.83669103  1.0
  O  O29  1  1.13581474  0.63581474  1.16330897  1.0
  O  O30  1  0.97250576  1.13581474  0.50000000  1.0
  O  O31  1  1.63581474  1.47250576  1.50000000  1.0
  O  O32  1  1.21844191  0.91551855  1.13396046  1.0
  O  O33  1  0.78155809  1.08448145  0.86603954  1.0
  O  O34  1  0.71844191  0.58448145  1.30292336  1.0
  O  O35  1  0.28155809  0.41551855  0.69707664  1.0
  O  O36  1  0.08448145  0.21844191  0.30292336  1.0
  O  O37  1  0.91551855  0.78155809  1.69707664  1.0
  O  O38  1  1.41551855  0.71844191  1.13396046  1.0
  O  O39  1  0.58448145  1.28155809  0.86603954  1.0
  O  O40  1  1.01345691  0.75000000  1.26345691  1.0
  O  O41  1  0.48654309  0.75000000  0.73654309  1.0
  O  O42  1  1.51345691  1.25000000  1.26345691  1.0
  O  O43  1  0.98654309  1.25000000  0.73654309  1.0
  O  O44  1  0.75000000  1.01345691  0.26345691  1.0
  O  O45  1  0.75000000  1.48654309  0.73654309  1.0
  O  O46  1  0.25000000  0.51345691  0.26345691  1.0
  O  O47  1  0.25000000  0.98654309  0.73654309  1.0
