# generated using pymatgen
data_CuTeAs
_symmetry_space_group_name_H-M   'P 1'
_cell_length_a   12.45191293
_cell_length_b   4.27983844
_cell_length_c   5.77945333
_cell_angle_alpha   90.00000000
_cell_angle_beta   90.00000000
_cell_angle_gamma   90.00000000
_symmetry_Int_Tables_number   1
_chemical_formula_structural   CuTeAs
_chemical_formula_sum   'Cu4 Te4 As4'
_cell_volume   307.99964182
_cell_formula_units_Z   4
loop_
 _symmetry_equiv_pos_site_id
 _symmetry_equiv_pos_as_xyz
  1  'x, y, z'
loop_
 _atom_site_type_symbol
 _atom_site_label
 _atom_site_symmetry_multiplicity
 _atom_site_fract_x
 _atom_site_fract_y
 _atom_site_fract_z
 _atom_site_occupancy
  Cu  Cu0  1  0.33668438  0.75000000  0.61010026  1.0
  Cu  Cu1  1  0.83668438  0.75000000  0.88989974  1.0
  Cu  Cu2  1  0.66331562  0.25000000  0.38989974  1.0
  Cu  Cu3  1  0.16331562  0.25000000  0.11010026  1.0
  Te  Te4  1  0.16468709  0.75000000  0.86368235  1.0
  Te  Te5  1  0.66468709  0.75000000  0.63631765  1.0
  Te  Te6  1  0.83531291  0.25000000  0.13631765  1.0
  Te  Te7  1  0.33531291  0.25000000  0.36368235  1.0
  As  As8  1  0.48236170  0.75000000  0.87773557  1.0
  As  As9  1  0.98236170  0.75000000  0.62226443  1.0
  As  As10  1  0.51763830  0.25000000  0.12226443  1.0
  As  As11  1  0.01763830  0.25000000  0.37773557  1.0
