# generated using pymatgen
data_Ca2Mn3O8
_symmetry_space_group_name_H-M   'P 1'
_cell_length_a   6.27077536
_cell_length_b   6.27077536
_cell_length_c   4.97573111
_cell_angle_alpha   72.68474838
_cell_angle_beta   107.31525162
_cell_angle_gamma   124.06101881
_symmetry_Int_Tables_number   1
_chemical_formula_structural   Ca2Mn3O8
_chemical_formula_sum   'Ca2 Mn3 O8'
_cell_volume   152.61082387
_cell_formula_units_Z   1
loop_
 _symmetry_equiv_pos_site_id
 _symmetry_equiv_pos_as_xyz
  1  'x, y, z'
loop_
 _atom_site_type_symbol
 _atom_site_label
 _atom_site_symmetry_multiplicity
 _atom_site_fract_x
 _atom_site_fract_y
 _atom_site_fract_z
 _atom_site_occupancy
  Ca  Ca0  1  0.27583546  -0.27583546  0.83452284  1.0
  Ca  Ca1  1  0.72416454  0.27583546  0.16547716  1.0
  Mn  Mn2  1  0.74076153  0.74076153  0.50000000  1.0
  Mn  Mn3  1  0.25923847  0.25923847  0.50000000  1.0
  Mn  Mn4  1  0.00000000  0.00000000  0.00000000  1.0
  O  O5  1  0.32278224  0.12147945  0.89128948  1.0
  O  O6  1  0.87852055  0.67721776  0.89128948  1.0
  O  O7  1  1.12147945  0.32278224  0.10871052  1.0
  O  O8  1  0.67721776  -0.12147945  0.10871052  1.0
  O  O9  1  0.90348390  0.09651610  0.59781509  1.0
  O  O10  1  0.09651610  -0.09651610  0.40218491  1.0
  O  O11  1  0.60222502  0.39777498  0.45681140  1.0
  O  O12  1  0.39777498  -0.39777498  0.54318860  1.0
