# generated using pymatgen
data_BaCl2O7
_symmetry_space_group_name_H-M   'P 1'
_cell_length_a   7.42419320
_cell_length_b   7.42419320
_cell_length_c   8.70240383
_cell_angle_alpha   58.47355157
_cell_angle_beta   121.52644843
_cell_angle_gamma   113.03704548
_symmetry_Int_Tables_number   1
_chemical_formula_structural   BaCl2O7
_chemical_formula_sum   'Ba2 Cl4 O14'
_cell_volume   343.89695145
_cell_formula_units_Z   2
loop_
 _symmetry_equiv_pos_site_id
 _symmetry_equiv_pos_as_xyz
  1  'x, y, z'
loop_
 _atom_site_type_symbol
 _atom_site_label
 _atom_site_symmetry_multiplicity
 _atom_site_fract_x
 _atom_site_fract_y
 _atom_site_fract_z
 _atom_site_occupancy
  Ba  Ba0  1  1.33545125  0.33545125  0.75000000  1.0
  Ba  Ba1  1  0.66454875  0.66454875  0.25000000  1.0
  O  O2  1  0.39028848  -0.31897361  0.85453953  1.0
  O  O3  1  1.31897361  0.60971152  0.35453953  1.0
  O  O4  1  0.68102639  0.39028848  0.64546047  1.0
  O  O5  1  0.60971152  0.31897361  0.14546047  1.0
  O  O6  1  1.71040522  0.10495459  0.96302593  1.0
  O  O7  1  0.89504541  0.28959478  0.46302593  1.0
  O  O8  1  1.10495459  0.71040522  0.53697407  1.0
  O  O9  1  1.28959478  -0.10495459  0.03697407  1.0
  O  O10  1  1.26180816  0.02277843  0.61673883  1.0
  O  O11  1  0.97722157  0.73819184  0.11673883  1.0
  O  O12  1  1.02277843  0.26180816  0.88326117  1.0
  O  O13  1  1.73819184  -0.02277843  0.38326117  1.0
  O  O14  1  0.68038682  -0.31961318  0.75000000  1.0
  O  O15  1  0.31961318  0.31961318  0.25000000  1.0
  Cl  Cl16  1  0.78564292  -0.80906178  0.80123523  1.0
  Cl  Cl17  1  0.80906178  0.21435708  0.30123523  1.0
  Cl  Cl18  1  0.19093822  -0.21435708  0.69876477  1.0
  Cl  Cl19  1  0.21435708  -0.19093822  0.19876477  1.0
