# generated using pymatgen
data_NiH10(SeO5)2
_symmetry_space_group_name_H-M   'P 1'
_cell_length_a   8.27221557
_cell_length_b   8.27221557
_cell_length_c   11.06299578
_cell_angle_alpha   57.35614535
_cell_angle_beta   122.64385465
_cell_angle_gamma   125.12893284
_symmetry_Int_Tables_number   1
_chemical_formula_structural   NiH10(SeO5)2
_chemical_formula_sum   'Ni2 H20 Se4 O20'
_cell_volume   491.67336518
_cell_formula_units_Z   2
loop_
 _symmetry_equiv_pos_site_id
 _symmetry_equiv_pos_as_xyz
  1  'x, y, z'
loop_
 _atom_site_type_symbol
 _atom_site_label
 _atom_site_symmetry_multiplicity
 _atom_site_fract_x
 _atom_site_fract_y
 _atom_site_fract_z
 _atom_site_occupancy
  Ni  Ni0  1  0.95886479  0.95886479  0.75000000  1.0
  Ni  Ni1  1  0.04113521  0.04113521  0.25000000  1.0
  H  H2  1  1.55817220  -0.32056666  0.66637907  1.0
  H  H3  1  1.32056666  -0.55817220  0.16637907  1.0
  H  H4  1  0.67943334  0.55817220  0.83362093  1.0
  H  H5  1  0.44182780  0.32056666  0.33362093  1.0
  H  H6  1  0.39853323  -0.25479548  0.94482888  1.0
  H  H7  1  1.25479548  -0.39853323  0.44482888  1.0
  H  H8  1  0.74520452  0.39853323  0.55517112  1.0
  H  H9  1  1.60146677  0.25479548  0.05517112  1.0
  H  H10  1  0.57999270  -0.05555194  0.77652101  1.0
  H  H11  1  1.05555194  -0.57999270  0.27652101  1.0
  H  H12  1  0.94444806  0.57999270  0.72347899  1.0
  H  H13  1  1.42000730  0.05555194  0.22347899  1.0
  H  H14  1  0.70960227  0.25482883  0.97280585  1.0
  H  H15  1  0.74517117  0.29039773  0.47280585  1.0
  H  H16  1  1.25482883  -0.29039773  0.52719415  1.0
  H  H17  1  1.29039773  -0.25482883  0.02719415  1.0
  H  H18  1  0.36407962  0.23779177  0.83163051  1.0
  H  H19  1  0.76220823  0.63592038  0.33163051  1.0
  H  H20  1  1.23779177  -0.63592038  0.66836949  1.0
  H  H21  1  1.63592038  -0.23779177  0.16836949  1.0
  Se  Se22  1  1.74224170  0.00859976  0.38857979  1.0
  Se  Se23  1  0.99140024  0.25775830  0.88857979  1.0
  Se  Se24  1  1.00859976  -0.25775830  0.11142021  1.0
  Se  Se25  1  0.25775830  -0.00859976  0.61142021  1.0
  O  O26  1  0.83796956  0.05480495  0.81820935  1.0
  O  O27  1  0.94519505  -0.83796956  0.31820935  1.0
  O  O28  1  1.05480495  0.83796956  0.68179065  1.0
  O  O29  1  1.16203044  -0.05480495  0.18179065  1.0
  O  O30  1  1.81962010  0.10718017  0.52084596  1.0
  O  O31  1  0.89281983  -0.81962010  0.02084596  1.0
  O  O32  1  1.10718017  0.81962010  0.97915404  1.0
  O  O33  1  0.18037990  -0.10718017  0.47915404  1.0
  O  O34  1  0.42637060  -0.14446953  0.76801993  1.0
  O  O35  1  1.14446953  -0.42637060  0.26801993  1.0
  O  O36  1  0.85553047  0.42637060  0.73198007  1.0
  O  O37  1  1.57362940  0.14446953  0.23198007  1.0
  O  O38  1  0.61171658  0.30631619  0.95418086  1.0
  O  O39  1  0.69368381  0.38828342  0.45418086  1.0
  O  O40  1  1.30631619  -0.38828342  0.54581914  1.0
  O  O41  1  1.38828342  -0.30631619  0.04581914  1.0
  O  O42  1  0.69541752  0.69541752  0.75000000  1.0
  O  O43  1  0.30458248  0.30458248  0.25000000  1.0
  O  O44  1  0.22430489  0.22430489  0.75000000  1.0
  O  O45  1  0.77569511  0.77569511  0.25000000  1.0
