# generated using pymatgen
data_Y5Pt4
_symmetry_space_group_name_H-M   'P 1'
_cell_length_a   7.51986200
_cell_length_b   14.68416158
_cell_length_c   7.60371796
_cell_angle_alpha   90.00000000
_cell_angle_beta   90.00000000
_cell_angle_gamma   90.00000000
_symmetry_Int_Tables_number   1
_chemical_formula_structural   Y5Pt4
_chemical_formula_sum   'Y20 Pt16'
_cell_volume   839.62435003
_cell_formula_units_Z   4
loop_
 _symmetry_equiv_pos_site_id
 _symmetry_equiv_pos_as_xyz
  1  'x, y, z'
loop_
 _atom_site_type_symbol
 _atom_site_label
 _atom_site_symmetry_multiplicity
 _atom_site_fract_x
 _atom_site_fract_y
 _atom_site_fract_z
 _atom_site_occupancy
  Y  Y0  1  0.50271310  0.40655705  0.18049460  1.0
  Y  Y1  1  0.50271310  0.09344295  0.18049460  1.0
  Y  Y2  1  0.00271310  0.40655705  0.31950540  1.0
  Y  Y3  1  0.00271310  0.09344295  0.31950540  1.0
  Y  Y4  1  0.49728690  0.90655705  0.81950540  1.0
  Y  Y5  1  0.49728690  0.59344295  0.81950540  1.0
  Y  Y6  1  0.99728690  0.90655705  0.68049460  1.0
  Y  Y7  1  0.99728690  0.59344295  0.68049460  1.0
  Y  Y8  1  0.15711556  0.37781864  0.83309262  1.0
  Y  Y9  1  0.15711556  0.12218136  0.83309262  1.0
  Y  Y10  1  0.65711556  0.37781864  0.66690738  1.0
  Y  Y11  1  0.65711556  0.12218136  0.66690738  1.0
  Y  Y12  1  0.84288444  0.87781864  0.16690738  1.0
  Y  Y13  1  0.84288444  0.62218136  0.16690738  1.0
  Y  Y14  1  0.34288444  0.87781864  0.33309262  1.0
  Y  Y15  1  0.34288444  0.62218136  0.33309262  1.0
  Y  Y16  1  0.31939131  0.25000000  0.48800464  1.0
  Y  Y17  1  0.81939131  0.25000000  0.01199536  1.0
  Y  Y18  1  0.68060869  0.75000000  0.51199536  1.0
  Y  Y19  1  0.18060869  0.75000000  0.98800464  1.0
  Pt  Pt20  1  0.31738287  0.45812949  0.53221821  1.0
  Pt  Pt21  1  0.31738287  0.04187051  0.53221821  1.0
  Pt  Pt22  1  0.81738287  0.45812949  0.96778179  1.0
  Pt  Pt23  1  0.81738287  0.04187051  0.96778179  1.0
  Pt  Pt24  1  0.68261713  0.95812949  0.46778179  1.0
  Pt  Pt25  1  0.68261713  0.54187051  0.46778179  1.0
  Pt  Pt26  1  0.18261713  0.95812949  0.03221821  1.0
  Pt  Pt27  1  0.18261713  0.54187051  0.03221821  1.0
  Pt  Pt28  1  0.45371394  0.25000000  0.88710820  1.0
  Pt  Pt29  1  0.95371394  0.25000000  0.61289180  1.0
  Pt  Pt30  1  0.54628606  0.75000000  0.11289180  1.0
  Pt  Pt31  1  0.04628606  0.75000000  0.38710820  1.0
  Pt  Pt32  1  0.18674446  0.25000000  0.14116470  1.0
  Pt  Pt33  1  0.68674446  0.25000000  0.35883530  1.0
  Pt  Pt34  1  0.81325554  0.75000000  0.85883530  1.0
  Pt  Pt35  1  0.31325554  0.75000000  0.64116470  1.0
