# generated using pymatgen
data_Li3Al(BO3)2
_symmetry_space_group_name_H-M   'P 1'
_cell_length_a   6.34292886
_cell_length_b   4.90693022
_cell_length_c   8.02854390
_cell_angle_alpha   89.20681418
_cell_angle_beta   73.09105563
_cell_angle_gamma   89.11754053
_symmetry_Int_Tables_number   1
_chemical_formula_structural   Li3Al(BO3)2
_chemical_formula_sum   'Li6 Al2 B4 O12'
_cell_volume   239.04018701
_cell_formula_units_Z   2
loop_
 _symmetry_equiv_pos_site_id
 _symmetry_equiv_pos_as_xyz
  1  'x, y, z'
loop_
 _atom_site_type_symbol
 _atom_site_label
 _atom_site_symmetry_multiplicity
 _atom_site_fract_x
 _atom_site_fract_y
 _atom_site_fract_z
 _atom_site_occupancy
  Li  Li0  1  -0.23769643  -0.83016560  -0.61282648  1.0
  Li  Li1  1  -0.76230357  -0.16983440  -0.38717352  1.0
  Li  Li2  1  -0.52665823  -0.82649905  -0.25813413  1.0
  Li  Li3  1  -0.47334177  -0.17350095  -0.74186587  1.0
  Li  Li4  1  -0.39762992  -0.67904731  -0.92934334  1.0
  Li  Li5  1  -0.60237008  -0.32095269  -0.07065666  1.0
  Al  Al6  1  -0.94338027  -0.34982810  -0.72380159  1.0
  Al  Al7  1  -0.05661973  -0.65017190  -0.27619841  1.0
  B  B8  1  -0.82243858  -0.83516345  -0.90696939  1.0
  B  B9  1  -0.17756142  -0.16483655  -0.09303061  1.0
  B  B10  1  -0.67774418  -0.65894815  -0.57117355  1.0
  B  B11  1  -0.32225582  -0.34105185  -0.42882645  1.0
  O  O12  1  -0.50557508  -0.78933488  -0.68076447  1.0
  O  O13  1  -0.49442492  -0.21066512  -0.31923553  1.0
  O  O14  1  -0.79790160  -0.77591575  -0.41187078  1.0
  O  O15  1  -0.20209840  -0.22408425  -0.58812922  1.0
  O  O16  1  -0.98175072  -0.68798173  -0.78078781  1.0
  O  O17  1  -0.01824928  -0.31201827  -0.21921219  1.0
  O  O18  1  -0.74036267  -0.38854883  -0.60560150  1.0
  O  O19  1  -0.25963733  -0.61145117  -0.39439850  1.0
  O  O20  1  -0.34060394  -0.29099107  -0.97059396  1.0
  O  O21  1  -0.65939606  -0.70900893  -0.02940604  1.0
  O  O22  1  -0.83375332  -0.11976938  -0.89506279  1.0
  O  O23  1  -0.16624668  -0.88023062  -0.10493721  1.0
