# generated using pymatgen
data_Ca3CoPtO6
_symmetry_space_group_name_H-M   'P 1'
_cell_length_a   6.48765349
_cell_length_b   6.48765349
_cell_length_c   6.48765349
_cell_angle_alpha   90.54687504
_cell_angle_beta   90.54687504
_cell_angle_gamma   90.54687504
_symmetry_Int_Tables_number   1
_chemical_formula_structural   Ca3CoPtO6
_chemical_formula_sum   'Ca6 Co2 Pt2 O12'
_cell_volume   273.02549658
_cell_formula_units_Z   2
loop_
 _symmetry_equiv_pos_site_id
 _symmetry_equiv_pos_as_xyz
  1  'x, y, z'
loop_
 _atom_site_type_symbol
 _atom_site_label
 _atom_site_symmetry_multiplicity
 _atom_site_fract_x
 _atom_site_fract_y
 _atom_site_fract_z
 _atom_site_occupancy
  Ca  Ca0  1  0.89002148  1.25000000  -0.39002148  1.0
  Ca  Ca1  1  1.39002148  0.10997852  -0.25000000  1.0
  Ca  Ca2  1  0.75000000  0.39002148  0.10997852  1.0
  Ca  Ca3  1  1.25000000  0.60997852  -0.10997852  1.0
  Ca  Ca4  1  1.10997852  -0.25000000  0.39002148  1.0
  Ca  Ca5  1  0.60997852  0.89002148  0.25000000  1.0
  Co  Co6  1  0.25000000  0.25000000  0.25000000  1.0
  Co  Co7  1  0.75000000  0.75000000  0.75000000  1.0
  Pt  Pt8  1  0.50000000  0.50000000  0.50000000  1.0
  Pt  Pt9  1  0.00000000  0.00000000  0.00000000  1.0
  O  O10  1  1.20405380  0.41145481  -0.45760779  1.0
  O  O11  1  0.70405380  1.04239221  -0.08854519  1.0
  O  O12  1  0.95760779  0.08854519  0.29594620  1.0
  O  O13  1  1.45760779  -0.20405380  0.58854519  1.0
  O  O14  1  1.58854519  0.45760779  -0.20405380  1.0
  O  O15  1  1.08854519  0.29594620  -0.04239221  1.0
  O  O16  1  0.79594620  0.58854519  0.45760779  1.0
  O  O17  1  1.29594620  -0.04239221  0.08854519  1.0
  O  O18  1  0.54239221  1.20405380  -0.58854519  1.0
  O  O19  1  1.04239221  0.91145481  -0.29594620  1.0
  O  O20  1  0.91145481  0.70405380  0.04239221  1.0
  O  O21  1  0.41145481  0.54239221  0.20405380  1.0
