# generated using pymatgen
data_K4ZnP2
_symmetry_space_group_name_H-M   'P 1'
_cell_length_a   9.36030906
_cell_length_b   9.36030906
_cell_length_c   9.36030906
_cell_angle_alpha   35.26006598
_cell_angle_beta   35.26006598
_cell_angle_gamma   35.26006598
_symmetry_Int_Tables_number   1
_chemical_formula_structural   K4ZnP2
_chemical_formula_sum   'K4 Zn1 P2'
_cell_volume   244.14265248
_cell_formula_units_Z   1
loop_
 _symmetry_equiv_pos_site_id
 _symmetry_equiv_pos_as_xyz
  1  'x, y, z'
loop_
 _atom_site_type_symbol
 _atom_site_label
 _atom_site_symmetry_multiplicity
 _atom_site_fract_x
 _atom_site_fract_y
 _atom_site_fract_z
 _atom_site_occupancy
  K  K0  1  0.79151972  0.79151972  0.79151972  1.0
  K  K1  1  1.20848028  1.20848028  0.20848028  1.0
  K  K2  1  1.61413549  0.61413549  0.61413549  1.0
  K  K3  1  1.38586451  0.38586451  0.38586451  1.0
  Zn  Zn4  1  -0.00000000  0.00000000  0.00000000  1.0
  P  P5  1  0.91549444  0.91549444  0.91549444  1.0
  P  P6  1  1.08450556  1.08450556  0.08450556  1.0
