# generated using pymatgen
data_BaGd2O4
_symmetry_space_group_name_H-M   'P 1'
_cell_length_a   10.58974858
_cell_length_b   3.53790895
_cell_length_c   12.35500996
_cell_angle_alpha   90.00000000
_cell_angle_beta   90.00000000
_cell_angle_gamma   90.00000000
_symmetry_Int_Tables_number   1
_chemical_formula_structural   BaGd2O4
_chemical_formula_sum   'Ba4 Gd8 O16'
_cell_volume   462.88744494
_cell_formula_units_Z   4
loop_
 _symmetry_equiv_pos_site_id
 _symmetry_equiv_pos_as_xyz
  1  'x, y, z'
loop_
 _atom_site_type_symbol
 _atom_site_label
 _atom_site_symmetry_multiplicity
 _atom_site_fract_x
 _atom_site_fract_y
 _atom_site_fract_z
 _atom_site_occupancy
  Ba  Ba0  1  0.75302516  0.75000000  0.64816154  1.0
  Ba  Ba1  1  0.25302516  0.75000000  0.85183846  1.0
  Ba  Ba2  1  0.24697484  0.25000000  0.35183846  1.0
  Ba  Ba3  1  0.74697484  0.25000000  0.14816154  1.0
  Gd  Gd4  1  0.92240630  0.75000000  0.38988708  1.0
  Gd  Gd5  1  0.42240630  0.75000000  0.11011292  1.0
  Gd  Gd6  1  0.07759370  0.25000000  0.61011292  1.0
  Gd  Gd7  1  0.57759370  0.25000000  0.88988708  1.0
  Gd  Gd8  1  0.42489021  0.75000000  0.61142904  1.0
  Gd  Gd9  1  0.92489021  0.75000000  0.88857096  1.0
  Gd  Gd10  1  0.57510979  0.25000000  0.38857096  1.0
  Gd  Gd11  1  0.07510979  0.25000000  0.11142904  1.0
  O  O12  1  0.92829884  0.75000000  0.07471168  1.0
  O  O13  1  0.42829884  0.75000000  0.42528832  1.0
  O  O14  1  0.07170116  0.25000000  0.92528832  1.0
  O  O15  1  0.57170116  0.25000000  0.57471168  1.0
  O  O16  1  0.70969524  0.75000000  0.33624014  1.0
  O  O17  1  0.20969524  0.75000000  0.16375986  1.0
  O  O18  1  0.29030476  0.25000000  0.66375986  1.0
  O  O19  1  0.79030476  0.25000000  0.83624014  1.0
  O  O20  1  0.61780313  0.75000000  0.01935713  1.0
  O  O21  1  0.11780313  0.75000000  0.48064287  1.0
  O  O22  1  0.38219687  0.25000000  0.98064287  1.0
  O  O23  1  0.88219687  0.25000000  0.51935713  1.0
  O  O24  1  0.51824790  0.75000000  0.78294858  1.0
  O  O25  1  0.01824790  0.75000000  0.71705142  1.0
  O  O26  1  0.48175210  0.25000000  0.21705142  1.0
  O  O27  1  0.98175210  0.25000000  0.28294858  1.0
