# generated using pymatgen
data_Fe3(PO5)2
_symmetry_space_group_name_H-M   'P 1'
_cell_length_a   7.47892600
_cell_length_b   7.34689057
_cell_length_c   7.48345807
_cell_angle_alpha   90.00000000
_cell_angle_beta   118.78760552
_cell_angle_gamma   90.00000000
_symmetry_Int_Tables_number   1
_chemical_formula_structural   Fe3(PO5)2
_chemical_formula_sum   'Fe6 P4 O20'
_cell_volume   360.37353893
_cell_formula_units_Z   2
loop_
 _symmetry_equiv_pos_site_id
 _symmetry_equiv_pos_as_xyz
  1  'x, y, z'
loop_
 _atom_site_type_symbol
 _atom_site_label
 _atom_site_symmetry_multiplicity
 _atom_site_fract_x
 _atom_site_fract_y
 _atom_site_fract_z
 _atom_site_occupancy
  Fe  Fe0  1  0.73858614  0.22094233  0.21884017  1.0
  Fe  Fe1  1  0.73858614  0.27905767  0.71884017  1.0
  Fe  Fe2  1  0.26141386  0.72094233  0.28115983  1.0
  Fe  Fe3  1  0.26141386  0.77905767  0.78115983  1.0
  Fe  Fe4  1  -0.00000000  0.50000000  0.50000000  1.0
  Fe  Fe5  1  0.00000000  0.00000000  0.00000000  1.0
  P  P6  1  0.74693572  0.87061036  0.50816425  1.0
  P  P7  1  0.74693572  0.62938964  1.00816425  1.0
  P  P8  1  0.25306428  0.37061036  -0.00816425  1.0
  P  P9  1  0.25306428  0.12938964  0.49183575  1.0
  O  O10  1  0.92780646  0.76744107  0.08689954  1.0
  O  O11  1  0.92780646  0.73255893  0.58689954  1.0
  O  O12  1  0.07219354  0.26744107  0.41310046  1.0
  O  O13  1  0.07219354  0.23255893  0.91310046  1.0
  O  O14  1  0.79030050  0.50686014  0.19633624  1.0
  O  O15  1  0.79030050  -0.00686014  0.69633624  1.0
  O  O16  1  0.20969950  1.00686014  0.30366376  1.0
  O  O17  1  0.20969950  0.49313986  0.80366376  1.0
  O  O18  1  0.80337636  0.35958595  0.51104076  1.0
  O  O19  1  0.80337636  0.14041405  1.01104076  1.0
  O  O20  1  0.19662364  0.85958595  -0.01104076  1.0
  O  O21  1  0.19662364  0.64041405  0.48895924  1.0
  O  O22  1  0.74134389  -0.00971531  0.33672445  1.0
  O  O23  1  0.74134389  0.50971531  0.83672445  1.0
  O  O24  1  0.25865611  0.49028469  0.16327555  1.0
  O  O25  1  0.25865611  1.00971531  0.66327555  1.0
  O  O26  1  0.45304325  0.26412148  0.06524443  1.0
  O  O27  1  0.45304325  0.23587852  0.56524443  1.0
  O  O28  1  0.54695675  0.76412148  0.43475557  1.0
  O  O29  1  0.54695675  0.73587852  0.93475557  1.0
