# generated using pymatgen
data_La3Ir
_symmetry_space_group_name_H-M   'P 1'
_cell_length_a   7.44474523
_cell_length_b   10.21789999
_cell_length_c   6.64501830
_cell_angle_alpha   90.00000000
_cell_angle_beta   90.00000000
_cell_angle_gamma   90.00000000
_symmetry_Int_Tables_number   1
_chemical_formula_structural   La3Ir
_chemical_formula_sum   'La12 Ir4'
_cell_volume   505.48429708
_cell_formula_units_Z   4
loop_
 _symmetry_equiv_pos_site_id
 _symmetry_equiv_pos_as_xyz
  1  'x, y, z'
loop_
 _atom_site_type_symbol
 _atom_site_label
 _atom_site_symmetry_multiplicity
 _atom_site_fract_x
 _atom_site_fract_y
 _atom_site_fract_z
 _atom_site_occupancy
  La  La0  1  0.46065664  0.75000000  0.15134152  1.0
  La  La1  1  0.96065664  0.75000000  0.34865848  1.0
  La  La2  1  0.53934336  0.25000000  0.84865848  1.0
  La  La3  1  0.03934336  0.25000000  0.65134152  1.0
  La  La4  1  0.32899198  0.93143150  0.67216304  1.0
  La  La5  1  0.32899198  0.56856850  0.67216304  1.0
  La  La6  1  0.82899198  0.93143150  0.82783696  1.0
  La  La7  1  0.82899198  0.56856850  0.82783696  1.0
  La  La8  1  0.67100802  0.43143150  0.32783696  1.0
  La  La9  1  0.67100802  0.06856850  0.32783696  1.0
  La  La10  1  0.17100802  0.43143150  0.17216304  1.0
  La  La11  1  0.17100802  0.06856850  0.17216304  1.0
  Ir  Ir12  1  0.12332932  0.75000000  0.93328885  1.0
  Ir  Ir13  1  0.62332932  0.75000000  0.56671115  1.0
  Ir  Ir14  1  0.87667068  0.25000000  0.06671115  1.0
  Ir  Ir15  1  0.37667068  0.25000000  0.43328885  1.0
