# generated using pymatgen
data_CaO2
_symmetry_space_group_name_H-M   'P 1'
_cell_length_a   8.06053411
_cell_length_b   3.76478411
_cell_length_c   6.71198345
_cell_angle_alpha   90.00000000
_cell_angle_beta   130.29764942
_cell_angle_gamma   90.00000000
_symmetry_Int_Tables_number   1
_chemical_formula_structural   CaO2
_chemical_formula_sum   'Ca4 O8'
_cell_volume   155.34797476
_cell_formula_units_Z   4
loop_
 _symmetry_equiv_pos_site_id
 _symmetry_equiv_pos_as_xyz
  1  'x, y, z'
loop_
 _atom_site_type_symbol
 _atom_site_label
 _atom_site_symmetry_multiplicity
 _atom_site_fract_x
 _atom_site_fract_y
 _atom_site_fract_z
 _atom_site_occupancy
  Ca  Ca0  1  0.24380837  -0.09218445  0.55816569  1.0
  Ca  Ca1  1  0.75619163  0.40781555  0.94183431  1.0
  Ca  Ca2  1  0.75619163  1.09218445  0.44183431  1.0
  Ca  Ca3  1  0.24380837  0.59218445  0.05816569  1.0
  O  O4  1  0.41005609  0.43850887  0.49914111  1.0
  O  O5  1  0.58994391  -0.06149113  1.00085889  1.0
  O  O6  1  0.58994391  0.56149113  0.50085889  1.0
  O  O7  1  0.41005609  1.06149113  -0.00085889  1.0
  O  O8  1  -0.00389064  0.61013961  0.58929401  1.0
  O  O9  1  1.00389064  0.11013961  0.91070599  1.0
  O  O10  1  1.00389064  0.38986039  0.41070599  1.0
  O  O11  1  -0.00389064  0.88986039  0.08929401  1.0
