# generated using pymatgen
data_Li8B7
_symmetry_space_group_name_H-M   'P 1'
_cell_length_a   3.98383715
_cell_length_b   3.98383715
_cell_length_c   11.03438860
_cell_angle_alpha   90.00000000
_cell_angle_beta   90.00000000
_cell_angle_gamma   120.00000000
_symmetry_Int_Tables_number   1
_chemical_formula_structural   Li8B7
_chemical_formula_sum   'Li8 B7'
_cell_volume   151.66384443
_cell_formula_units_Z   1
loop_
 _symmetry_equiv_pos_site_id
 _symmetry_equiv_pos_as_xyz
  1  'x, y, z'
loop_
 _atom_site_type_symbol
 _atom_site_label
 _atom_site_symmetry_multiplicity
 _atom_site_fract_x
 _atom_site_fract_y
 _atom_site_fract_z
 _atom_site_occupancy
  Li  Li0  1  0.66666667  0.33333333  0.87663279  1.0
  Li  Li1  1  0.66666667  0.33333333  0.12336721  1.0
  Li  Li2  1  0.66666667  0.33333333  0.62654240  1.0
  Li  Li3  1  0.66666667  0.33333333  0.37345760  1.0
  Li  Li4  1  0.33333333  0.66666667  0.75222752  1.0
  Li  Li5  1  0.33333333  0.66666667  0.24777248  1.0
  Li  Li6  1  0.33333333  0.66666667  0.50000000  1.0
  Li  Li7  1  0.33333333  0.66666667  0.00000000  1.0
  B  B8  1  0.00000000  0.00000000  0.85704529  1.0
  B  B9  1  0.00000000  0.00000000  0.14295471  1.0
  B  B10  1  0.00000000  0.00000000  0.71416767  1.0
  B  B11  1  0.00000000  0.00000000  0.28583233  1.0
  B  B12  1  0.00000000  0.00000000  0.57137687  1.0
  B  B13  1  0.00000000  0.00000000  0.42862313  1.0
  B  B14  1  0.00000000  0.00000000  0.00000000  1.0
