# generated using pymatgen
data_Cs2Bi2Pd
_symmetry_space_group_name_H-M   'P 1'
_cell_length_a   8.61602018
_cell_length_b   8.61602018
_cell_length_c   7.09456787
_cell_angle_alpha   90.00000000
_cell_angle_beta   90.00000000
_cell_angle_gamma   125.88294506
_symmetry_Int_Tables_number   1
_chemical_formula_structural   Cs2Bi2Pd
_chemical_formula_sum   'Cs4 Bi4 Pd2'
_cell_volume   426.71730595
_cell_formula_units_Z   2
loop_
 _symmetry_equiv_pos_site_id
 _symmetry_equiv_pos_as_xyz
  1  'x, y, z'
loop_
 _atom_site_type_symbol
 _atom_site_label
 _atom_site_symmetry_multiplicity
 _atom_site_fract_x
 _atom_site_fract_y
 _atom_site_fract_z
 _atom_site_occupancy
  Cs  Cs0  1  0.19376642  0.80623358  0.75000000  1.0
  Cs  Cs1  1  -0.19376642  0.19376642  0.25000000  1.0
  Cs  Cs2  1  -0.39583959  0.39583959  0.75000000  1.0
  Cs  Cs3  1  0.39583959  0.60416041  0.25000000  1.0
  Bi  Bi4  1  0.08983323  0.29051224  0.75000000  1.0
  Bi  Bi5  1  0.29051224  1.08983323  0.25000000  1.0
  Bi  Bi6  1  0.70948776  0.91016677  0.75000000  1.0
  Bi  Bi7  1  -0.08983323  0.70948776  0.25000000  1.0
  Pd  Pd8  1  0.00000000  0.00000000  0.00000000  1.0
  Pd  Pd9  1  0.00000000  0.00000000  0.50000000  1.0
