# generated using pymatgen
data_Na2W2O7
_symmetry_space_group_name_H-M   'P 1'
_cell_length_a   7.06664648
_cell_length_b   7.06664648
_cell_length_c   15.06823580
_cell_angle_alpha   90.00000000
_cell_angle_beta   90.00000000
_cell_angle_gamma   117.89308074
_symmetry_Int_Tables_number   1
_chemical_formula_structural   Na2W2O7
_chemical_formula_sum   'Na8 W8 O28'
_cell_volume   665.04956150
_cell_formula_units_Z   4
loop_
 _symmetry_equiv_pos_site_id
 _symmetry_equiv_pos_as_xyz
  1  'x, y, z'
loop_
 _atom_site_type_symbol
 _atom_site_label
 _atom_site_symmetry_multiplicity
 _atom_site_fract_x
 _atom_site_fract_y
 _atom_site_fract_z
 _atom_site_occupancy
  Na  Na0  1  -0.33026779  1.33026779  0.15359303  1.0
  Na  Na1  1  0.16973221  0.83026779  0.34640697  1.0
  Na  Na2  1  0.33026779  0.66973221  0.84640697  1.0
  Na  Na3  1  -0.16973221  1.16973221  0.65359303  1.0
  Na  Na4  1  0.25009913  1.25009913  0.50000000  1.0
  Na  Na5  1  -0.24990087  0.75009913  0.00000000  1.0
  Na  Na6  1  -0.25009913  0.74990087  0.50000000  1.0
  Na  Na7  1  0.24990087  1.24990087  0.00000000  1.0
  W  W8  1  -0.24675299  1.24675299  0.41376422  1.0
  W  W9  1  0.25324701  0.74675299  0.08623578  1.0
  W  W10  1  0.24675299  0.75324701  0.58623578  1.0
  W  W11  1  -0.25324701  1.25324701  0.91376422  1.0
  W  W12  1  -0.33766569  0.83766569  0.25000000  1.0
  W  W13  1  0.16233431  1.33766569  0.25000000  1.0
  W  W14  1  -0.16233431  0.66233431  0.75000000  1.0
  W  W15  1  0.33766569  1.16233431  0.75000000  1.0
  O  O16  1  -0.43535523  1.03026041  0.34404125  1.0
  O  O17  1  0.06464477  0.53026041  0.15595875  1.0
  O  O18  1  0.03026041  0.56464477  0.65595875  1.0
  O  O19  1  -0.46973959  1.06464477  0.84404125  1.0
  O  O20  1  -0.03026041  1.43535523  0.34404125  1.0
  O  O21  1  0.46973959  0.93535523  0.15595875  1.0
  O  O22  1  0.43535523  0.96973959  0.65595875  1.0
  O  O23  1  -0.06464477  1.46973959  0.84404125  1.0
  O  O24  1  0.20641741  1.19847038  0.33785074  1.0
  O  O25  1  -0.29358259  0.69847038  0.16214926  1.0
  O  O26  1  0.19847038  1.20641741  0.66214926  1.0
  O  O27  1  -0.30152962  0.70641741  0.83785074  1.0
  O  O28  1  -0.19847038  0.79358259  0.33785074  1.0
  O  O29  1  0.30152962  1.29358259  0.16214926  1.0
  O  O30  1  -0.20641741  0.80152962  0.66214926  1.0
  O  O31  1  0.29358259  1.30152962  0.83785074  1.0
  O  O32  1  -0.37598671  1.37598671  0.46834257  1.0
  O  O33  1  0.12401329  0.87598671  0.03165743  1.0
  O  O34  1  0.37598671  0.62401329  0.53165743  1.0
  O  O35  1  -0.12401329  1.12401329  0.96834257  1.0
  O  O36  1  -0.14076328  1.14076328  0.49649101  1.0
  O  O37  1  0.35923672  0.64076328  0.00350899  1.0
  O  O38  1  0.14076328  0.85923672  0.50350899  1.0
  O  O39  1  -0.35923672  1.35923672  0.99649101  1.0
  O  O40  1  -0.12485479  1.12485479  0.21944955  1.0
  O  O41  1  0.37514521  0.62485479  0.28055045  1.0
  O  O42  1  0.12485479  0.87514521  0.78055045  1.0
  O  O43  1  -0.37514521  1.37514521  0.71944955  1.0
