# generated using pymatgen
data_Rb2MgH8(CO5)2
_symmetry_space_group_name_H-M   'P 1'
_cell_length_a   7.22463963
_cell_length_b   6.49231667
_cell_length_c   12.40893137
_cell_angle_alpha   90.00000000
_cell_angle_beta   115.86828496
_cell_angle_gamma   90.00000000
_symmetry_Int_Tables_number   1
_chemical_formula_structural   Rb2MgH8(CO5)2
_chemical_formula_sum   'Rb4 Mg2 H16 C4 O20'
_cell_volume   523.71616351
_cell_formula_units_Z   2
loop_
 _symmetry_equiv_pos_site_id
 _symmetry_equiv_pos_as_xyz
  1  'x, y, z'
loop_
 _atom_site_type_symbol
 _atom_site_label
 _atom_site_symmetry_multiplicity
 _atom_site_fract_x
 _atom_site_fract_y
 _atom_site_fract_z
 _atom_site_occupancy
  Rb  Rb0  1  0.75534328  0.84578320  0.17520935  1.0
  Rb  Rb1  1  0.75534328  0.65421680  0.67520935  1.0
  Rb  Rb2  1  0.24465672  0.34578320  0.32479065  1.0
  Rb  Rb3  1  0.24465672  0.15421680  0.82479065  1.0
  Mg  Mg4  1  0.00000000  0.50000000  0.00000000  1.0
  Mg  Mg5  1  -0.00000000  0.00000000  0.50000000  1.0
  H  H6  1  0.79758940  0.34057704  0.13003240  1.0
  H  H7  1  0.79758940  0.15942296  0.63003240  1.0
  H  H8  1  0.20241060  0.84057704  0.36996760  1.0
  H  H9  1  0.20241060  0.65942296  0.86996760  1.0
  H  H10  1  0.79539693  0.20769315  0.01589086  1.0
  H  H11  1  0.79539693  0.29230685  0.51589086  1.0
  H  H12  1  0.20460307  0.70769315  0.48410914  1.0
  H  H13  1  0.20460307  0.79230685  0.98410914  1.0
  H  H14  1  0.70963229  0.67302786  0.41164342  1.0
  H  H15  1  0.70963229  0.82697214  0.91164342  1.0
  H  H16  1  0.29036771  0.17302786  0.08835658  1.0
  H  H17  1  0.29036771  0.32697214  0.58835658  1.0
  H  H18  1  0.57762120  0.87813376  0.37894051  1.0
  H  H19  1  0.57762120  0.62186624  0.87894051  1.0
  H  H20  1  0.42237880  0.37813376  0.12105949  1.0
  H  H21  1  0.42237880  0.12186624  0.62105949  1.0
  C  C22  1  0.74885952  0.34147305  0.31925248  1.0
  C  C23  1  0.74885952  0.15852695  0.81925248  1.0
  C  C24  1  0.25114048  0.84147305  0.18074752  1.0
  C  C25  1  0.25114048  0.65852695  0.68074752  1.0
  O  O26  1  0.88228544  0.29807774  0.08712655  1.0
  O  O27  1  0.88228544  0.20192226  0.58712655  1.0
  O  O28  1  0.11771456  0.79807774  0.41287345  1.0
  O  O29  1  0.11771456  0.70192226  0.91287345  1.0
  O  O30  1  0.87965967  0.19146791  0.35131597  1.0
  O  O31  1  0.87965967  0.30853209  0.85131597  1.0
  O  O32  1  0.12034033  0.69146791  0.14868403  1.0
  O  O33  1  0.12034033  0.80853209  0.64868403  1.0
  O  O34  1  0.71851090  0.82447743  0.42982232  1.0
  O  O35  1  0.71851090  0.67552257  0.92982232  1.0
  O  O36  1  0.28148910  0.32447743  0.07017768  1.0
  O  O37  1  0.28148910  0.17552257  0.57017768  1.0
  O  O38  1  0.68092915  0.41776644  0.21193427  1.0
  O  O39  1  0.68092915  0.08223356  0.71193427  1.0
  O  O40  1  0.31907085  0.91776644  0.28806573  1.0
  O  O41  1  0.31907085  0.58223356  0.78806573  1.0
  O  O42  1  0.68414533  0.41810023  0.39409047  1.0
  O  O43  1  0.68414533  0.08189977  0.89409047  1.0
  O  O44  1  0.31585467  0.91810023  0.10590953  1.0
  O  O45  1  0.31585467  0.58189977  0.60590953  1.0
