# generated using pymatgen
data_GeSb4Te7
_symmetry_space_group_name_H-M   'P 1'
_cell_length_a   4.32203422
_cell_length_b   4.32203422
_cell_length_c   24.29239226
_cell_angle_alpha   90.00000000
_cell_angle_beta   90.00000000
_cell_angle_gamma   120.00000000
_symmetry_Int_Tables_number   1
_chemical_formula_structural   GeSb4Te7
_chemical_formula_sum   'Ge1 Sb4 Te7'
_cell_volume   392.98621685
_cell_formula_units_Z   1
loop_
 _symmetry_equiv_pos_site_id
 _symmetry_equiv_pos_as_xyz
  1  'x, y, z'
loop_
 _atom_site_type_symbol
 _atom_site_label
 _atom_site_symmetry_multiplicity
 _atom_site_fract_x
 _atom_site_fract_y
 _atom_site_fract_z
 _atom_site_occupancy
  Ge  Ge0  1  0.00000000  0.00000000  0.50000000  1.0
  Sb  Sb1  1  0.33333333  0.66666667  0.34731175  1.0
  Sb  Sb2  1  0.66666667  0.33333333  0.65268825  1.0
  Sb  Sb3  1  0.33333333  0.66666667  0.08208074  1.0
  Sb  Sb4  1  0.66666667  0.33333333  0.91791926  1.0
  Te  Te5  1  0.33333333  0.66666667  0.56963400  1.0
  Te  Te6  1  0.66666667  0.33333333  0.43036600  1.0
  Te  Te7  1  0.33333333  0.66666667  0.84736059  1.0
  Te  Te8  1  0.66666667  0.33333333  0.15263941  1.0
  Te  Te9  1  0.00000000  0.00000000  0.27702828  1.0
  Te  Te10  1  0.00000000  0.00000000  0.72297172  1.0
  Te  Te11  1  0.00000000  0.00000000  0.00000000  1.0
