# generated using pymatgen
data_Ba2VP2O9
_symmetry_space_group_name_H-M   'P 1'
_cell_length_a   9.32523714
_cell_length_b   9.32523714
_cell_length_c   9.58383431
_cell_angle_alpha   71.05381394
_cell_angle_beta   108.94618606
_cell_angle_gamma   145.40153837
_symmetry_Int_Tables_number   1
_chemical_formula_structural   Ba2VP2O9
_chemical_formula_sum   'Ba4 V2 P4 O18'
_cell_volume   445.02549922
_cell_formula_units_Z   2
loop_
 _symmetry_equiv_pos_site_id
 _symmetry_equiv_pos_as_xyz
  1  'x, y, z'
loop_
 _atom_site_type_symbol
 _atom_site_label
 _atom_site_symmetry_multiplicity
 _atom_site_fract_x
 _atom_site_fract_y
 _atom_site_fract_z
 _atom_site_occupancy
  Ba  Ba0  1  0.37703843  -0.29560233  0.92164757  1.0
  Ba  Ba1  1  0.70439767  0.37703843  0.07835243  1.0
  Ba  Ba2  1  0.73704325  0.40984022  0.57821356  1.0
  Ba  Ba3  1  0.40984022  -0.26295675  0.42178644  1.0
  P  P4  1  0.95507803  0.21582502  0.67682741  1.0
  P  P5  1  0.21582502  -0.04492197  0.32317259  1.0
  P  P6  1  0.15901324  -0.10168594  0.82312457  1.0
  P  P7  1  0.89831406  0.15901324  0.17687543  1.0
  V  V8  1  -0.00765702  -0.00765702  0.00000000  1.0
  V  V9  1  0.12190220  0.12190220  0.50000000  1.0
  O  O10  1  1.09577857  0.20823769  0.81626650  1.0
  O  O11  1  0.20823769  0.09577857  0.18373350  1.0
  O  O12  1  0.96343001  0.16852964  0.53720719  1.0
  O  O13  1  0.16852964  -0.03656999  0.46279281  1.0
  O  O14  1  1.10848789  0.48900602  0.64878606  1.0
  O  O15  1  0.48900602  0.10848789  0.35121394  1.0
  O  O16  1  1.00538817  0.62503364  0.85120662  1.0
  O  O17  1  0.62503364  0.00538817  0.14879338  1.0
  O  O18  1  0.43904645  0.09806178  0.80831707  1.0
  O  O19  1  1.09806178  0.43904645  0.19168293  1.0
  O  O20  1  0.15095811  -0.05409429  0.96272940  1.0
  O  O21  1  0.94590571  0.15095811  0.03727060  1.0
  O  O22  1  1.01833460  0.90596782  0.68370185  1.0
  O  O23  1  0.90596782  0.01833460  0.31629815  1.0
  O  O24  1  0.67494674  0.01583412  0.69155938  1.0
  O  O25  1  1.01583412  0.67494674  0.30844062  1.0
  O  O26  1  0.69709126  0.69709126  0.00000000  1.0
  O  O27  1  0.41716669  0.41716669  0.50000000  1.0
