# generated using pymatgen
data_LiTiO2
_symmetry_space_group_name_H-M   'P 1'
_cell_length_a   9.89238903
_cell_length_b   2.85734484
_cell_length_c   5.11432935
_cell_angle_alpha   90.00000000
_cell_angle_beta   90.00000000
_cell_angle_gamma   90.00000000
_symmetry_Int_Tables_number   1
_chemical_formula_structural   LiTiO2
_chemical_formula_sum   'Li4 Ti4 O8'
_cell_volume   144.56146316
_cell_formula_units_Z   4
loop_
 _symmetry_equiv_pos_site_id
 _symmetry_equiv_pos_as_xyz
  1  'x, y, z'
loop_
 _atom_site_type_symbol
 _atom_site_label
 _atom_site_symmetry_multiplicity
 _atom_site_fract_x
 _atom_site_fract_y
 _atom_site_fract_z
 _atom_site_occupancy
  Li  Li0  1  0.39635550  0.75000000  0.57571280  1.0
  Li  Li1  1  0.89635550  0.75000000  0.92428720  1.0
  Li  Li2  1  0.60364450  0.25000000  0.42428720  1.0
  Li  Li3  1  0.10364450  0.25000000  0.07571280  1.0
  Ti  Ti4  1  0.12928554  0.75000000  0.56925579  1.0
  Ti  Ti5  1  0.62928554  0.75000000  0.93074421  1.0
  Ti  Ti6  1  0.87071446  0.25000000  0.43074421  1.0
  Ti  Ti7  1  0.37071446  0.25000000  0.06925579  1.0
  O  O8  1  0.25411383  0.75000000  0.88392516  1.0
  O  O9  1  0.75411383  0.75000000  0.61607484  1.0
  O  O10  1  0.74588617  0.25000000  0.11607484  1.0
  O  O11  1  0.24588617  0.25000000  0.38392516  1.0
  O  O12  1  0.49526954  0.75000000  0.23991971  1.0
  O  O13  1  0.99526954  0.75000000  0.26008029  1.0
  O  O14  1  0.50473046  0.25000000  0.76008029  1.0
  O  O15  1  0.00473046  0.25000000  0.73991971  1.0
