# generated using pymatgen
data_K3NaRe2O9
_symmetry_space_group_name_H-M   'P 1'
_cell_length_a   6.09358234
_cell_length_b   6.09358234
_cell_length_c   14.58757668
_cell_angle_alpha   90.00000000
_cell_angle_beta   90.00000000
_cell_angle_gamma   120.00000000
_symmetry_Int_Tables_number   1
_chemical_formula_structural   K3NaRe2O9
_chemical_formula_sum   'K6 Na2 Re4 O18'
_cell_volume   469.09321473
_cell_formula_units_Z   2
loop_
 _symmetry_equiv_pos_site_id
 _symmetry_equiv_pos_as_xyz
  1  'x, y, z'
loop_
 _atom_site_type_symbol
 _atom_site_label
 _atom_site_symmetry_multiplicity
 _atom_site_fract_x
 _atom_site_fract_y
 _atom_site_fract_z
 _atom_site_occupancy
  K  K0  1  0.33333333  0.66666667  0.38197618  1.0
  K  K1  1  0.33333333  0.66666667  0.11802382  1.0
  K  K2  1  0.66666667  0.33333333  0.88197618  1.0
  K  K3  1  0.66666667  0.33333333  0.61802382  1.0
  K  K4  1  0.00000000  0.00000000  0.25000000  1.0
  K  K5  1  0.00000000  0.00000000  0.75000000  1.0
  Na  Na6  1  0.00000000  0.00000000  0.50000000  1.0
  Na  Na7  1  0.00000000  0.00000000  0.00000000  1.0
  Re  Re8  1  0.33333333  0.66666667  0.84995277  1.0
  Re  Re9  1  0.33333333  0.66666667  0.65004723  1.0
  Re  Re10  1  0.66666667  0.33333333  0.34995277  1.0
  Re  Re11  1  0.66666667  0.33333333  0.15004723  1.0
  O  O12  1  0.18304071  0.81695929  0.90508932  1.0
  O  O13  1  0.18304071  0.81695929  0.59491068  1.0
  O  O14  1  0.18304071  0.36608141  0.90508932  1.0
  O  O15  1  0.18304071  0.36608141  0.59491068  1.0
  O  O16  1  0.81695929  0.18304071  0.40508932  1.0
  O  O17  1  0.81695929  0.18304071  0.09491068  1.0
  O  O18  1  0.81695929  0.63391859  0.40508932  1.0
  O  O19  1  0.81695929  0.63391859  0.09491068  1.0
  O  O20  1  0.63391859  0.81695929  0.90508932  1.0
  O  O21  1  0.63391859  0.81695929  0.59491068  1.0
  O  O22  1  0.36608141  0.18304071  0.40508932  1.0
  O  O23  1  0.36608141  0.18304071  0.09491068  1.0
  O  O24  1  0.53065946  0.46934054  0.25000000  1.0
  O  O25  1  0.53065946  0.06131891  0.25000000  1.0
  O  O26  1  0.46934054  0.53065946  0.75000000  1.0
  O  O27  1  0.46934054  0.93868109  0.75000000  1.0
  O  O28  1  0.93868109  0.46934054  0.25000000  1.0
  O  O29  1  0.06131891  0.53065946  0.75000000  1.0
