# generated using pymatgen
data_SrMgPb
_symmetry_space_group_name_H-M   'P 1'
_cell_length_a   8.28812114
_cell_length_b   4.95127454
_cell_length_c   9.07120408
_cell_angle_alpha   90.00000000
_cell_angle_beta   90.00000000
_cell_angle_gamma   90.00000000
_symmetry_Int_Tables_number   1
_chemical_formula_structural   SrMgPb
_chemical_formula_sum   'Sr4 Mg4 Pb4'
_cell_volume   372.25285339
_cell_formula_units_Z   4
loop_
 _symmetry_equiv_pos_site_id
 _symmetry_equiv_pos_as_xyz
  1  'x, y, z'
loop_
 _atom_site_type_symbol
 _atom_site_label
 _atom_site_symmetry_multiplicity
 _atom_site_fract_x
 _atom_site_fract_y
 _atom_site_fract_z
 _atom_site_occupancy
  Sr  Sr0  1  0.98723793  0.75000000  0.68851420  1.0
  Sr  Sr1  1  0.48723793  0.75000000  0.81148580  1.0
  Sr  Sr2  1  0.01276207  0.25000000  0.31148580  1.0
  Sr  Sr3  1  0.51276207  0.25000000  0.18851420  1.0
  Mg  Mg4  1  0.85383372  0.75000000  0.06523421  1.0
  Mg  Mg5  1  0.35383372  0.75000000  0.43476579  1.0
  Mg  Mg6  1  0.14616628  0.25000000  0.93476579  1.0
  Mg  Mg7  1  0.64616628  0.25000000  0.56523421  1.0
  Pb  Pb8  1  0.72525770  0.75000000  0.39014160  1.0
  Pb  Pb9  1  0.22525770  0.75000000  0.10985840  1.0
  Pb  Pb10  1  0.27474230  0.25000000  0.60985840  1.0
  Pb  Pb11  1  0.77474230  0.25000000  0.89014160  1.0
