# generated using pymatgen
data_YAsO4
_symmetry_space_group_name_H-M   'P 1'
_cell_length_a   5.99162805
_cell_length_b   5.99162805
_cell_length_c   5.99162805
_cell_angle_alpha   106.42640673
_cell_angle_beta   106.42640673
_cell_angle_gamma   115.74921269
_symmetry_Int_Tables_number   1
_chemical_formula_structural   YAsO4
_chemical_formula_sum   'Y2 As2 O8'
_cell_volume   164.07478568
_cell_formula_units_Z   2
loop_
 _symmetry_equiv_pos_site_id
 _symmetry_equiv_pos_as_xyz
  1  'x, y, z'
loop_
 _atom_site_type_symbol
 _atom_site_label
 _atom_site_symmetry_multiplicity
 _atom_site_fract_x
 _atom_site_fract_y
 _atom_site_fract_z
 _atom_site_occupancy
  Y  Y0  1  0.75000000  1.25000000  0.50000000  1.0
  Y  Y1  1  0.00000000  0.00000000  0.00000000  1.0
  As  As2  1  1.25000000  0.75000000  0.50000000  1.0
  As  As3  1  0.50000000  0.50000000  -0.00000000  1.0
  O  O4  1  1.07073764  0.75268349  0.68194585  1.0
  O  O5  1  1.07073764  1.38879178  1.31805415  1.0
  O  O6  1  0.67926236  0.86120822  0.18194585  1.0
  O  O7  1  0.67926236  0.49731651  0.81805415  1.0
  O  O8  1  1.24731651  0.92926236  0.31805415  1.0
  O  O9  1  1.61120822  0.92926236  0.68194585  1.0
  O  O10  1  1.13879178  1.32073764  0.81805415  1.0
  O  O11  1  0.50268349  0.32073764  0.18194585  1.0
