# generated using pymatgen
data_Mg2PHO5
_symmetry_space_group_name_H-M   'P 1'
_cell_length_a   8.35832524
_cell_length_b   6.19320975
_cell_length_c   7.45711630
_cell_angle_alpha   90.00000000
_cell_angle_beta   90.00000000
_cell_angle_gamma   90.00000000
_symmetry_Int_Tables_number   1
_chemical_formula_structural   Mg2PHO5
_chemical_formula_sum   'Mg8 P4 H4 O20'
_cell_volume   386.01659150
_cell_formula_units_Z   4
loop_
 _symmetry_equiv_pos_site_id
 _symmetry_equiv_pos_as_xyz
  1  'x, y, z'
loop_
 _atom_site_type_symbol
 _atom_site_label
 _atom_site_symmetry_multiplicity
 _atom_site_fract_x
 _atom_site_fract_y
 _atom_site_fract_z
 _atom_site_occupancy
  Mg  Mg0  1  0.32392364  0.75000000  0.07722484  1.0
  Mg  Mg1  1  0.82392364  0.75000000  0.42277516  1.0
  Mg  Mg2  1  0.67607636  0.25000000  0.92277516  1.0
  Mg  Mg3  1  0.17607636  0.25000000  0.57722484  1.0
  Mg  Mg4  1  0.50000000  0.00000000  0.50000000  1.0
  Mg  Mg5  1  0.50000000  0.50000000  0.50000000  1.0
  Mg  Mg6  1  0.00000000  0.00000000  0.00000000  1.0
  Mg  Mg7  1  0.00000000  0.50000000  0.00000000  1.0
  P  P8  1  0.17636161  0.75000000  0.66587332  1.0
  P  P9  1  0.67636161  0.75000000  0.83412668  1.0
  P  P10  1  0.82363839  0.25000000  0.33412668  1.0
  P  P11  1  0.32363839  0.25000000  0.16587332  1.0
  H  H12  1  0.05232734  0.75000000  0.26511832  1.0
  H  H13  1  0.55232734  0.75000000  0.23488168  1.0
  H  H14  1  0.94767266  0.25000000  0.73488168  1.0
  H  H15  1  0.44767266  0.25000000  0.76511832  1.0
  O  O16  1  0.27800133  0.95509169  0.62394751  1.0
  O  O17  1  0.27800133  0.54490831  0.62394751  1.0
  O  O18  1  0.77800133  0.95509169  0.87605249  1.0
  O  O19  1  0.77800133  0.54490831  0.87605249  1.0
  O  O20  1  0.72199867  0.45509169  0.37605249  1.0
  O  O21  1  0.72199867  0.04490831  0.37605249  1.0
  O  O22  1  0.22199867  0.45509169  0.12394751  1.0
  O  O23  1  0.22199867  0.04490831  0.12394751  1.0
  O  O24  1  0.45945579  0.75000000  0.31431311  1.0
  O  O25  1  0.95945579  0.75000000  0.18568689  1.0
  O  O26  1  0.54054421  0.25000000  0.68568689  1.0
  O  O27  1  0.04054421  0.25000000  0.81431311  1.0
  O  O28  1  0.13486588  0.75000000  0.87290144  1.0
  O  O29  1  0.63486588  0.75000000  0.62709856  1.0
  O  O30  1  0.86513412  0.25000000  0.12709856  1.0
  O  O31  1  0.36513412  0.25000000  0.37290144  1.0
  O  O32  1  0.02067360  0.75000000  0.55953348  1.0
  O  O33  1  0.52067360  0.75000000  0.94046652  1.0
  O  O34  1  0.97932640  0.25000000  0.44046652  1.0
  O  O35  1  0.47932640  0.25000000  0.05953348  1.0
