# generated using pymatgen
data_Rb2PtBr4O
_symmetry_space_group_name_H-M   'P 1'
_cell_length_a   14.43376564
_cell_length_b   10.47312773
_cell_length_c   7.46015313
_cell_angle_alpha   90.00000000
_cell_angle_beta   90.00000000
_cell_angle_gamma   90.00000000
_symmetry_Int_Tables_number   1
_chemical_formula_structural   Rb2PtBr4O
_chemical_formula_sum   'Rb8 Pt4 Br16 O4'
_cell_volume   1127.72651540
_cell_formula_units_Z   4
loop_
 _symmetry_equiv_pos_site_id
 _symmetry_equiv_pos_as_xyz
  1  'x, y, z'
loop_
 _atom_site_type_symbol
 _atom_site_label
 _atom_site_symmetry_multiplicity
 _atom_site_fract_x
 _atom_site_fract_y
 _atom_site_fract_z
 _atom_site_occupancy
  Rb  Rb0  1  0.64482047  0.46266745  0.30710791  1.0
  Rb  Rb1  1  0.64482047  0.03733255  0.30710791  1.0
  Rb  Rb2  1  0.14482047  0.46266745  0.19289209  1.0
  Rb  Rb3  1  0.14482047  0.03733255  0.19289209  1.0
  Rb  Rb4  1  0.35517953  0.96266745  0.69289209  1.0
  Rb  Rb5  1  0.35517953  0.53733255  0.69289209  1.0
  Rb  Rb6  1  0.85517953  0.96266745  0.80710791  1.0
  Rb  Rb7  1  0.85517953  0.53733255  0.80710791  1.0
  O  O8  1  0.75016468  0.25000000  0.18033274  1.0
  O  O9  1  0.25016468  0.25000000  0.31966726  1.0
  O  O10  1  0.24983532  0.75000000  0.81966726  1.0
  O  O11  1  0.74983532  0.75000000  0.68033274  1.0
  Br  Br12  1  0.88515909  0.48650141  0.30953514  1.0
  Br  Br13  1  0.88515909  0.01349859  0.30953514  1.0
  Br  Br14  1  0.38515909  0.48650141  0.19046486  1.0
  Br  Br15  1  0.38515909  0.01349859  0.19046486  1.0
  Br  Br16  1  0.11484091  0.98650141  0.69046486  1.0
  Br  Br17  1  0.11484091  0.51349859  0.69046486  1.0
  Br  Br18  1  0.61484091  0.98650141  0.80953514  1.0
  Br  Br19  1  0.61484091  0.51349859  0.80953514  1.0
  Br  Br20  1  0.79034545  0.25000000  0.59075365  1.0
  Br  Br21  1  0.29034545  0.25000000  0.90924635  1.0
  Br  Br22  1  0.20965455  0.75000000  0.40924635  1.0
  Br  Br23  1  0.70965455  0.75000000  0.09075365  1.0
  Br  Br24  1  0.46872094  0.25000000  0.47700735  1.0
  Br  Br25  1  0.96872094  0.25000000  1.02299265  1.0
  Br  Br26  1  0.53127906  0.75000000  0.52299265  1.0
  Br  Br27  1  0.03127906  0.75000000  -0.02299265  1.0
  Pt  Pt28  1  0.87122356  0.25000000  0.29846936  1.0
  Pt  Pt29  1  0.37122356  0.25000000  0.20153064  1.0
  Pt  Pt30  1  0.12877644  0.75000000  0.70153064  1.0
  Pt  Pt31  1  0.62877644  0.75000000  0.79846936  1.0
