# generated using pymatgen
data_RbH2OF
_symmetry_space_group_name_H-M   'P 1'
_cell_length_a   8.07390018
_cell_length_b   4.22041143
_cell_length_c   8.75429596
_cell_angle_alpha   90.00000000
_cell_angle_beta   90.00000000
_cell_angle_gamma   90.00000000
_symmetry_Int_Tables_number   1
_chemical_formula_structural   RbH2OF
_chemical_formula_sum   'Rb4 H8 O4 F4'
_cell_volume   298.30421569
_cell_formula_units_Z   4
loop_
 _symmetry_equiv_pos_site_id
 _symmetry_equiv_pos_as_xyz
  1  'x, y, z'
loop_
 _atom_site_type_symbol
 _atom_site_label
 _atom_site_symmetry_multiplicity
 _atom_site_fract_x
 _atom_site_fract_y
 _atom_site_fract_z
 _atom_site_occupancy
  Rb  Rb0  1  0.74031950  0.75000000  0.47021731  1.0
  Rb  Rb1  1  0.24031950  0.75000000  0.02978269  1.0
  Rb  Rb2  1  0.25968050  0.25000000  0.52978269  1.0
  Rb  Rb3  1  0.75968050  0.25000000  0.97021731  1.0
  H  H4  1  0.95832456  0.43866852  0.25116821  1.0
  H  H5  1  0.95832456  0.06133148  0.25116821  1.0
  H  H6  1  0.45832456  0.43866852  0.24883179  1.0
  H  H7  1  0.45832456  0.06133148  0.24883179  1.0
  H  H8  1  0.04167544  0.93866852  0.74883179  1.0
  H  H9  1  0.04167544  0.56133148  0.74883179  1.0
  H  H10  1  0.54167544  0.93866852  0.75116821  1.0
  H  H11  1  0.54167544  0.56133148  0.75116821  1.0
  O  O12  1  1.02072643  0.75000000  0.68235698  1.0
  O  O13  1  0.52072643  0.75000000  0.81764302  1.0
  O  O14  1  -0.02072643  0.25000000  0.31764302  1.0
  O  O15  1  0.47927357  0.25000000  0.18235698  1.0
  F  F16  1  0.91007646  0.75000000  0.15143547  1.0
  F  F17  1  0.41007646  0.75000000  0.34856453  1.0
  F  F18  1  0.08992354  0.25000000  0.84856453  1.0
  F  F19  1  0.58992354  0.25000000  0.65143547  1.0
