# generated using pymatgen
data_VInO4
_symmetry_space_group_name_H-M   'P 1'
_cell_length_a   7.07076826
_cell_length_b   7.07076826
_cell_length_c   7.13351518
_cell_angle_alpha   79.28439261
_cell_angle_beta   100.71560739
_cell_angle_gamma   95.00642250
_symmetry_Int_Tables_number   1
_chemical_formula_structural   VInO4
_chemical_formula_sum   'V4 In4 O16'
_cell_volume   343.80245918
_cell_formula_units_Z   4
loop_
 _symmetry_equiv_pos_site_id
 _symmetry_equiv_pos_as_xyz
  1  'x, y, z'
loop_
 _atom_site_type_symbol
 _atom_site_label
 _atom_site_symmetry_multiplicity
 _atom_site_fract_x
 _atom_site_fract_y
 _atom_site_fract_z
 _atom_site_occupancy
  V  V0  1  0.74676930  0.74676930  0.50000000  1.0
  V  V1  1  0.25323070  0.25323070  0.50000000  1.0
  V  V2  1  1.27466836  -0.27466836  0.90682426  1.0
  V  V3  1  0.72533164  0.27466836  0.09317574  1.0
  In  In4  1  0.78908428  0.21091572  0.63062221  1.0
  In  In5  1  1.21091572  -0.21091572  0.36937779  1.0
  In  In6  1  0.81250774  0.81250774  0.00000000  1.0
  In  In7  1  0.18749226  0.18749226  -0.00000000  1.0
  O  O8  1  1.79615365  -0.10802043  0.68598666  1.0
  O  O9  1  1.10802043  -0.79615365  0.68598666  1.0
  O  O10  1  0.89197957  0.79615365  0.31401334  1.0
  O  O11  1  0.20384635  0.10802043  0.31401334  1.0
  O  O12  1  1.50837383  -0.21298923  0.97524640  1.0
  O  O13  1  1.21298923  -0.50837383  0.97524640  1.0
  O  O14  1  0.78701077  0.50837383  0.02475360  1.0
  O  O15  1  0.49162617  0.21298923  0.02475360  1.0
  O  O16  1  0.48188018  0.21883863  0.60638590  1.0
  O  O17  1  0.78116137  0.51811982  0.60638590  1.0
  O  O18  1  1.21883863  -0.51811982  0.39361410  1.0
  O  O19  1  1.51811982  -0.21883863  0.39361410  1.0
  O  O20  1  0.85834308  0.14165692  0.96045396  1.0
  O  O21  1  1.14165692  -0.14165692  0.03954604  1.0
  O  O22  1  0.78975117  0.21024883  0.33485730  1.0
  O  O23  1  1.21024883  -0.21024883  0.66514270  1.0
