# generated using pymatgen
data_Bi2TeO6
_symmetry_space_group_name_H-M   'P 1'
_cell_length_a   8.95752701
_cell_length_b   8.95752701
_cell_length_c   5.50793422
_cell_angle_alpha   90.00000000
_cell_angle_beta   90.00000000
_cell_angle_gamma   144.13909065
_symmetry_Int_Tables_number   1
_chemical_formula_structural   Bi2TeO6
_chemical_formula_sum   'Bi4 Te2 O12'
_cell_volume   258.89810201
_cell_formula_units_Z   2
loop_
 _symmetry_equiv_pos_site_id
 _symmetry_equiv_pos_as_xyz
  1  'x, y, z'
loop_
 _atom_site_type_symbol
 _atom_site_label
 _atom_site_symmetry_multiplicity
 _atom_site_fract_x
 _atom_site_fract_y
 _atom_site_fract_z
 _atom_site_occupancy
  Bi  Bi0  1  0.17468523  0.82531477  0.51328520  1.0
  Bi  Bi1  1  -0.32531477  0.32531477  0.98671480  1.0
  Bi  Bi2  1  -0.17468523  0.17468523  0.48671480  1.0
  Bi  Bi3  1  0.32531477  0.67468523  0.01328520  1.0
  Te  Te4  1  0.00000000  0.00000000  0.00000000  1.0
  Te  Te5  1  0.50000000  0.50000000  0.50000000  1.0
  O  O6  1  0.11007613  0.88992387  0.90524412  1.0
  O  O7  1  -0.38992387  0.38992387  0.59475588  1.0
  O  O8  1  -0.11007613  0.11007613  0.09475588  1.0
  O  O9  1  0.38992387  0.61007613  0.40524412  1.0
  O  O10  1  -0.00099572  0.50099572  0.75000000  1.0
  O  O11  1  0.49900428  1.00099572  0.75000000  1.0
  O  O12  1  0.50099572  0.99900428  0.25000000  1.0
  O  O13  1  0.00099572  0.49900428  0.25000000  1.0
  O  O14  1  0.21208805  0.28791195  0.75000000  1.0
  O  O15  1  0.71208805  0.78791195  0.75000000  1.0
  O  O16  1  0.28791195  1.21208805  0.25000000  1.0
  O  O17  1  -0.21208805  0.71208805  0.25000000  1.0
