# generated using pymatgen
data_K2PtN3(ClO2)3
_symmetry_space_group_name_H-M   'P 1'
_cell_length_a   6.70996572
_cell_length_b   7.73896812
_cell_length_c   11.15130876
_cell_angle_alpha   90.00000000
_cell_angle_beta   100.18674450
_cell_angle_gamma   90.00000000
_symmetry_Int_Tables_number   1
_chemical_formula_structural   K2PtN3(ClO2)3
_chemical_formula_sum   'K4 Pt2 N6 Cl6 O12'
_cell_volume   569.93941091
_cell_formula_units_Z   2
loop_
 _symmetry_equiv_pos_site_id
 _symmetry_equiv_pos_as_xyz
  1  'x, y, z'
loop_
 _atom_site_type_symbol
 _atom_site_label
 _atom_site_symmetry_multiplicity
 _atom_site_fract_x
 _atom_site_fract_y
 _atom_site_fract_z
 _atom_site_occupancy
  K  K0  1  0.88080594  0.75000000  0.38692859  1.0
  K  K1  1  0.11919406  0.25000000  0.61307141  1.0
  K  K2  1  0.29329354  0.75000000  0.03452619  1.0
  K  K3  1  0.70670646  0.25000000  0.96547381  1.0
  Pt  Pt4  1  0.61212444  0.75000000  0.74718642  1.0
  Pt  Pt5  1  0.38787556  0.25000000  0.25281358  1.0
  N  N6  1  0.80342551  0.94310312  0.70298655  1.0
  N  N7  1  0.80342551  0.55689688  0.70298655  1.0
  N  N8  1  0.19657449  0.44310312  0.29701345  1.0
  N  N9  1  0.19657449  0.05689688  0.29701345  1.0
  N  N10  1  0.43577054  0.75000000  0.57135951  1.0
  N  N11  1  0.56422946  0.25000000  0.42864049  1.0
  Cl  Cl12  1  0.39567716  0.97028685  0.80397108  1.0
  Cl  Cl13  1  0.39567716  0.52971315  0.80397108  1.0
  Cl  Cl14  1  0.60432284  0.47028685  0.19602892  1.0
  Cl  Cl15  1  0.60432284  0.02971315  0.19602892  1.0
  Cl  Cl16  1  0.79459555  0.75000000  0.95239596  1.0
  Cl  Cl17  1  0.20540445  0.25000000  0.04760404  1.0
  O  O18  1  0.85359023  0.44107785  0.77760961  1.0
  O  O19  1  0.85359023  0.05892215  0.77760961  1.0
  O  O20  1  0.14640977  0.94107785  0.22239039  1.0
  O  O21  1  0.14640977  0.55892215  0.22239039  1.0
  O  O22  1  0.86223323  0.93636282  0.60475682  1.0
  O  O23  1  0.86223323  0.56363718  0.60475682  1.0
  O  O24  1  0.13776677  0.43636282  0.39524318  1.0
  O  O25  1  0.13776677  0.06363718  0.39524318  1.0
  O  O26  1  0.51708347  0.75000000  0.48091221  1.0
  O  O27  1  0.48291653  0.25000000  0.51908779  1.0
  O  O28  1  0.25214082  0.75000000  0.56722135  1.0
  O  O29  1  0.74785918  0.25000000  0.43277865  1.0
