# generated using pymatgen
data_Na3CrCl6
_symmetry_space_group_name_H-M   'P 1'
_cell_length_a   6.91519104
_cell_length_b   6.91519104
_cell_length_c   12.19719969
_cell_angle_alpha   90.00000000
_cell_angle_beta   90.00000000
_cell_angle_gamma   120.00000000
_symmetry_Int_Tables_number   1
_chemical_formula_structural   Na3CrCl6
_chemical_formula_sum   'Na6 Cr2 Cl12'
_cell_volume   505.12531042
_cell_formula_units_Z   2
loop_
 _symmetry_equiv_pos_site_id
 _symmetry_equiv_pos_as_xyz
  1  'x, y, z'
loop_
 _atom_site_type_symbol
 _atom_site_label
 _atom_site_symmetry_multiplicity
 _atom_site_fract_x
 _atom_site_fract_y
 _atom_site_fract_z
 _atom_site_occupancy
  Na  Na0  1  0.33333333  0.66666667  0.04276742  1.0
  Na  Na1  1  0.33333333  0.66666667  0.45723258  1.0
  Na  Na2  1  0.66666667  0.33333333  0.54276742  1.0
  Na  Na3  1  0.66666667  0.33333333  0.95723258  1.0
  Na  Na4  1  0.00000000  0.00000000  0.25000000  1.0
  Na  Na5  1  -0.00000000  -0.00000000  0.75000000  1.0
  Cr  Cr6  1  0.66666667  0.33333333  0.25000000  1.0
  Cr  Cr7  1  0.33333333  0.66666667  0.75000000  1.0
  Cl  Cl8  1  0.67627395  0.61634953  0.13585655  1.0
  Cl  Cl9  1  0.67627395  0.05992442  0.36414345  1.0
  Cl  Cl10  1  0.61634953  0.67627395  0.63585655  1.0
  Cl  Cl11  1  0.61634953  0.94007558  0.86414345  1.0
  Cl  Cl12  1  0.94007558  0.61634953  0.36414345  1.0
  Cl  Cl13  1  0.94007558  0.32372605  0.13585655  1.0
  Cl  Cl14  1  0.38365047  0.32372605  0.36414345  1.0
  Cl  Cl15  1  0.38365047  0.05992442  0.13585655  1.0
  Cl  Cl16  1  0.32372605  0.94007558  0.63585655  1.0
  Cl  Cl17  1  0.32372605  0.38365047  0.86414345  1.0
  Cl  Cl18  1  0.05992442  0.67627395  0.86414345  1.0
  Cl  Cl19  1  0.05992442  0.38365047  0.63585655  1.0
