# generated using pymatgen
data_K2H4Pd(N2O5)2
_symmetry_space_group_name_H-M   'P 1'
_cell_length_a   7.09865804
_cell_length_b   6.97112647
_cell_length_c   7.85590769
_cell_angle_alpha   119.12622412
_cell_angle_beta   116.28390634
_cell_angle_gamma   80.87783464
_symmetry_Int_Tables_number   1
_chemical_formula_structural   K2H4Pd(N2O5)2
_chemical_formula_sum   'K2 H4 Pd1 N4 O10'
_cell_volume   303.67858776
_cell_formula_units_Z   1
loop_
 _symmetry_equiv_pos_site_id
 _symmetry_equiv_pos_as_xyz
  1  'x, y, z'
loop_
 _atom_site_type_symbol
 _atom_site_label
 _atom_site_symmetry_multiplicity
 _atom_site_fract_x
 _atom_site_fract_y
 _atom_site_fract_z
 _atom_site_occupancy
  K  K0  1  -0.68669855  0.38728330  -0.36432973  1.0
  K  K1  1  -0.31330145  -0.38728330  -0.63567027  1.0
  H  H2  1  -0.83186250  -0.25818101  -0.55660787  1.0
  H  H3  1  -0.16813750  0.25818101  -0.44339213  1.0
  H  H4  1  -0.16735422  0.12362402  -0.66642284  1.0
  H  H5  1  -0.83264578  -0.12362402  -0.33357716  1.0
  Pd  Pd6  1  0.00000000  0.00000000  0.00000000  1.0
  N  N7  1  -0.78815365  -0.17563966  -0.86212629  1.0
  N  N8  1  -0.21184635  0.17563966  -0.13787371  1.0
  N  N9  1  -0.75437864  -0.81908725  -0.93795313  1.0
  N  N10  1  -0.24562136  0.81908725  -0.06204687  1.0
  O  O11  1  -0.88160094  -0.26810391  -0.46322361  1.0
  O  O12  1  -0.11839906  0.26810391  -0.53677639  1.0
  O  O13  1  -0.72392192  -0.34580910  -0.97140668  1.0
  O  O14  1  -0.27607808  0.34580910  -0.02859332  1.0
  O  O15  1  -0.72317542  -0.10664321  -0.66448385  1.0
  O  O16  1  -0.27682458  0.10664321  -0.33551615  1.0
  O  O17  1  -0.34638522  0.67319826  -0.24826800  1.0
  O  O18  1  -0.65361478  -0.67319826  -0.75173200  1.0
  O  O19  1  -0.29100754  -0.14410052  -0.91315033  1.0
  O  O20  1  -0.70899246  0.14410052  -0.08684967  1.0
