# generated using pymatgen
data_TbAl2Pt5
_symmetry_space_group_name_H-M   'P 1'
_cell_length_a   8.11881480
_cell_length_b   8.11881480
_cell_length_c   8.11881480
_cell_angle_alpha   150.57217254
_cell_angle_beta   150.57217254
_cell_angle_gamma   42.10215951
_symmetry_Int_Tables_number   1
_chemical_formula_structural   TbAl2Pt5
_chemical_formula_sum   'Tb1 Al2 Pt5'
_cell_volume   128.87946409
_cell_formula_units_Z   1
loop_
 _symmetry_equiv_pos_site_id
 _symmetry_equiv_pos_as_xyz
  1  'x, y, z'
loop_
 _atom_site_type_symbol
 _atom_site_label
 _atom_site_symmetry_multiplicity
 _atom_site_fract_x
 _atom_site_fract_y
 _atom_site_fract_z
 _atom_site_occupancy
  Tb  Tb0  1  0.00000000  0.00000000  0.00000000  1.0
  Al  Al1  1  0.74774862  0.74774862  1.00000000  1.0
  Al  Al2  1  0.25225138  0.25225138  -0.00000000  1.0
  Pt  Pt3  1  0.35572600  0.85572600  0.50000000  1.0
  Pt  Pt4  1  0.64427400  0.14427400  0.50000000  1.0
  Pt  Pt5  1  0.85572600  0.35572600  0.50000000  1.0
  Pt  Pt6  1  0.14427400  0.64427400  0.50000000  1.0
  Pt  Pt7  1  0.50000000  0.50000000  1.00000000  1.0
