# generated using pymatgen
data_KH2CN4O
_symmetry_space_group_name_H-M   'P 1'
_cell_length_a   4.01557325
_cell_length_b   11.30632366
_cell_length_c   9.94085593
_cell_angle_alpha   90.00000000
_cell_angle_beta   95.15000915
_cell_angle_gamma   90.00000000
_symmetry_Int_Tables_number   1
_chemical_formula_structural   KH2CN4O
_chemical_formula_sum   'K4 H8 C4 N16 O4'
_cell_volume   449.50651708
_cell_formula_units_Z   4
loop_
 _symmetry_equiv_pos_site_id
 _symmetry_equiv_pos_as_xyz
  1  'x, y, z'
loop_
 _atom_site_type_symbol
 _atom_site_label
 _atom_site_symmetry_multiplicity
 _atom_site_fract_x
 _atom_site_fract_y
 _atom_site_fract_z
 _atom_site_occupancy
  K  K0  1  0.24707914  0.09382628  0.33155509  1.0
  K  K1  1  0.24707914  0.40617372  0.83155509  1.0
  K  K2  1  0.75292086  0.59382628  0.16844491  1.0
  K  K3  1  0.75292086  0.90617372  0.66844491  1.0
  H  H4  1  0.92721622  0.84596334  0.39054612  1.0
  H  H5  1  0.92721622  0.65403666  0.89054612  1.0
  H  H6  1  0.07278378  0.34596334  0.10945388  1.0
  H  H7  1  0.07278378  0.15403666  0.60945388  1.0
  H  H8  1  0.65601519  0.89975584  0.28457825  1.0
  H  H9  1  0.65601519  0.60024416  0.78457825  1.0
  H  H10  1  0.34398481  0.39975584  0.21542175  1.0
  H  H11  1  0.34398481  0.10024416  0.71542175  1.0
  C  C12  1  0.57704153  0.44219805  0.49515105  1.0
  C  C13  1  0.57704153  0.05780195  0.99515105  1.0
  C  C14  1  0.42295847  0.94219805  0.00484895  1.0
  C  C15  1  0.42295847  0.55780195  0.50484895  1.0
  N  N16  1  0.83115168  0.21826752  0.04687771  1.0
  N  N17  1  0.83115168  0.28173248  0.54687771  1.0
  N  N18  1  0.16884832  0.71826752  0.45312229  1.0
  N  N19  1  0.16884832  0.78173248  0.95312229  1.0
  N  N20  1  0.75118066  0.28086166  0.41510515  1.0
  N  N21  1  0.75118066  0.21913834  0.91510515  1.0
  N  N22  1  0.24881934  0.78086166  0.08489485  1.0
  N  N23  1  0.24881934  0.71913834  0.58489485  1.0
  N  N24  1  0.72637841  0.11801211  0.10102555  1.0
  N  N25  1  0.72637841  0.38198789  0.60102555  1.0
  N  N26  1  0.27362159  0.61801211  0.39897445  1.0
  N  N27  1  0.27362159  0.88198789  0.89897445  1.0
  N  N28  1  0.58928888  0.38134333  0.37918605  1.0
  N  N29  1  0.58928888  0.11865667  0.87918605  1.0
  N  N30  1  0.41071112  0.88134333  0.12081395  1.0
  N  N31  1  0.41071112  0.61865667  0.62081395  1.0
  O  O32  1  0.78743850  0.91796314  0.37187466  1.0
  O  O33  1  0.78743850  0.58203686  0.87187466  1.0
  O  O34  1  0.21256150  0.41796314  0.12812534  1.0
  O  O35  1  0.21256150  0.08203686  0.62812534  1.0
