# generated using pymatgen
data_Sr7Sn(BO3)6
_symmetry_space_group_name_H-M   'P 1'
_cell_length_a   7.95659254
_cell_length_b   7.95659254
_cell_length_c   7.95659254
_cell_angle_alpha   105.77222278
_cell_angle_beta   105.77222278
_cell_angle_gamma   105.77222278
_symmetry_Int_Tables_number   1
_chemical_formula_structural   Sr7Sn(BO3)6
_chemical_formula_sum   'Sr7 Sn1 B6 O18'
_cell_volume   432.77744457
_cell_formula_units_Z   1
loop_
 _symmetry_equiv_pos_site_id
 _symmetry_equiv_pos_as_xyz
  1  'x, y, z'
loop_
 _atom_site_type_symbol
 _atom_site_label
 _atom_site_symmetry_multiplicity
 _atom_site_fract_x
 _atom_site_fract_y
 _atom_site_fract_z
 _atom_site_occupancy
  Sr  Sr0  1  0.76659809  0.65075434  0.15376887  1.0
  Sr  Sr1  1  1.34924566  -0.15376887  0.23340191  1.0
  Sr  Sr2  1  0.84623113  0.23340191  0.34924566  1.0
  Sr  Sr3  1  1.23340191  0.34924566  -0.15376887  1.0
  Sr  Sr4  1  0.65075434  1.15376887  -0.23340191  1.0
  Sr  Sr5  1  1.15376887  0.76659809  -0.34924566  1.0
  Sr  Sr6  1  0.50000000  0.50000000  0.50000000  1.0
  Sn  Sn7  1  0.00000000  0.00000000  0.00000000  1.0
  B  B8  1  1.55127096  0.79604584  -0.10798759  1.0
  B  B9  1  1.20395416  0.10798759  -0.55127096  1.0
  B  B10  1  1.10798759  -0.55127096  0.20395416  1.0
  B  B11  1  0.44872904  0.20395416  0.10798759  1.0
  B  B12  1  0.79604584  0.89201241  0.55127096  1.0
  B  B13  1  0.89201241  1.55127096  -0.20395416  1.0
  O  O14  1  0.73684421  0.91455936  0.02118832  1.0
  O  O15  1  1.08544064  -0.02118832  -0.73684421  1.0
  O  O16  1  0.97881168  -0.73684421  0.08544064  1.0
  O  O17  1  0.26315579  0.08544064  -0.02118832  1.0
  O  O18  1  0.91455936  1.02118832  -0.26315579  1.0
  O  O19  1  1.02118832  0.73684421  -0.08544064  1.0
  O  O20  1  1.49034770  0.79709106  -0.28610789  1.0
  O  O21  1  1.20290894  0.28610789  -0.49034770  1.0
  O  O22  1  1.28610789  -0.49034770  0.20290894  1.0
  O  O23  1  0.50965230  0.20290894  0.28610789  1.0
  O  O24  1  0.79709106  0.71389211  0.49034770  1.0
  O  O25  1  0.71389211  1.49034770  -0.20290894  1.0
  O  O26  1  0.55959438  0.30953536  0.03983124  1.0
  O  O27  1  0.69046464  0.96016876  0.44040562  1.0
  O  O28  1  0.96016876  1.44040562  -0.30953536  1.0
  O  O29  1  1.44040562  0.69046464  -0.03983124  1.0
  O  O30  1  1.30953536  0.03983124  -0.44040562  1.0
  O  O31  1  1.03983124  -0.44040562  0.30953536  1.0
