# generated using pymatgen
data_ZrCu2Te3
_symmetry_space_group_name_H-M   'P 1'
_cell_length_a   10.50056773
_cell_length_b   10.50056773
_cell_length_c   7.37656591
_cell_angle_alpha   81.42429118
_cell_angle_beta   98.57570882
_cell_angle_gamma   157.49322465
_symmetry_Int_Tables_number   1
_chemical_formula_structural   ZrCu2Te3
_chemical_formula_sum   'Zr2 Cu4 Te6'
_cell_volume   307.72651879
_cell_formula_units_Z   2
loop_
 _symmetry_equiv_pos_site_id
 _symmetry_equiv_pos_as_xyz
  1  'x, y, z'
loop_
 _atom_site_type_symbol
 _atom_site_label
 _atom_site_symmetry_multiplicity
 _atom_site_fract_x
 _atom_site_fract_y
 _atom_site_fract_z
 _atom_site_occupancy
  Zr  Zr0  1  0.85417581  -0.85417581  0.94725327  1.0
  Zr  Zr1  1  1.14582419  -0.14582419  0.05274673  1.0
  Cu  Cu2  1  0.78580707  -0.78580707  0.57483465  1.0
  Cu  Cu3  1  1.21419293  -0.21419293  0.42516535  1.0
  Cu  Cu4  1  1.45110844  -0.45110844  0.85145260  1.0
  Cu  Cu5  1  0.54889156  -0.54889156  0.14854740  1.0
  Te  Te6  1  0.91552955  -0.91552955  0.63634431  1.0
  Te  Te7  1  1.08447045  -0.08447045  0.36365569  1.0
  Te  Te8  1  0.58003795  -0.58003795  0.81851878  1.0
  Te  Te9  1  1.41996205  -0.41996205  0.18148122  1.0
  Te  Te10  1  1.25057028  -0.25057028  0.78396190  1.0
  Te  Te11  1  0.74942972  -0.74942972  0.21603810  1.0
