# generated using pymatgen
data_Na2Ti3Cl8
_symmetry_space_group_name_H-M   'P 1'
_cell_length_a   7.93228757
_cell_length_b   7.93228757
_cell_length_c   7.93228757
_cell_angle_alpha   54.77865692
_cell_angle_beta   54.77865692
_cell_angle_gamma   54.77865692
_symmetry_Int_Tables_number   1
_chemical_formula_structural   Na2Ti3Cl8
_chemical_formula_sum   'Na2 Ti3 Cl8'
_cell_volume   310.01003125
_cell_formula_units_Z   1
loop_
 _symmetry_equiv_pos_site_id
 _symmetry_equiv_pos_as_xyz
  1  'x, y, z'
loop_
 _atom_site_type_symbol
 _atom_site_label
 _atom_site_symmetry_multiplicity
 _atom_site_fract_x
 _atom_site_fract_y
 _atom_site_fract_z
 _atom_site_occupancy
  Na  Na0  1  1.66092895  0.66092895  0.66092895  1.0
  Na  Na1  1  1.33907105  0.33907105  0.33907105  1.0
  Ti  Ti2  1  1.00000000  1.50000000  0.00000000  1.0
  Ti  Ti3  1  1.00000000  1.00000000  0.50000000  1.0
  Ti  Ti4  1  1.50000000  1.00000000  0.00000000  1.0
  Cl  Cl5  1  1.39961565  1.39961565  -0.08108266  1.0
  Cl  Cl6  1  1.39961565  0.91891734  0.39961565  1.0
  Cl  Cl7  1  1.08108266  0.60038435  0.60038435  1.0
  Cl  Cl8  1  1.60038435  0.08108266  0.60038435  1.0
  Cl  Cl9  1  1.60038435  0.60038435  0.08108266  1.0
  Cl  Cl10  1  0.91891734  1.39961565  0.39961565  1.0
  Cl  Cl11  1  0.90453590  0.90453590  0.90453590  1.0
  Cl  Cl12  1  1.09546410  1.09546410  0.09546410  1.0
