# generated using pymatgen
data_Y(Cd10Ni)2
_symmetry_space_group_name_H-M   'P 1'
_cell_length_a   11.10064982
_cell_length_b   11.10064982
_cell_length_c   11.10064982
_cell_angle_alpha   60.00000000
_cell_angle_beta   60.00000000
_cell_angle_gamma   60.00000000
_symmetry_Int_Tables_number   1
_chemical_formula_structural   Y(Cd10Ni)2
_chemical_formula_sum   'Y2 Cd40 Ni4'
_cell_volume   967.23100625
_cell_formula_units_Z   2
loop_
 _symmetry_equiv_pos_site_id
 _symmetry_equiv_pos_as_xyz
  1  'x, y, z'
loop_
 _atom_site_type_symbol
 _atom_site_label
 _atom_site_symmetry_multiplicity
 _atom_site_fract_x
 _atom_site_fract_y
 _atom_site_fract_z
 _atom_site_occupancy
  Y  Y0  1  0.50000000  -0.50000000  0.50000000  1.0
  Y  Y1  1  0.75000000  0.75000000  0.75000000  1.0
  Cd  Cd2  1  0.56872385  1.30142033  0.30142033  1.0
  Cd  Cd3  1  0.30142033  1.56872385  -0.17156450  1.0
  Cd  Cd4  1  0.30142033  -0.17156450  0.56872385  1.0
  Cd  Cd5  1  -0.17156450  0.30142033  0.30142033  1.0
  Cd  Cd6  1  0.30142033  1.30142033  0.56872385  1.0
  Cd  Cd7  1  0.56872385  0.82843550  0.30142033  1.0
  Cd  Cd8  1  -0.17156450  1.56872385  0.30142033  1.0
  Cd  Cd9  1  0.30142033  1.30142033  -0.17156450  1.0
  Cd  Cd10  1  0.30142033  1.56872385  0.30142033  1.0
  Cd  Cd11  1  -0.17156450  0.30142033  0.56872385  1.0
  Cd  Cd12  1  0.56872385  1.30142033  -0.17156450  1.0
  Cd  Cd13  1  0.30142033  -0.17156450  0.30142033  1.0
  Cd  Cd14  1  0.68127615  0.94857967  0.94857967  1.0
  Cd  Cd15  1  0.94857967  0.68127615  -0.57843550  1.0
  Cd  Cd16  1  0.94857967  0.42156450  0.68127615  1.0
  Cd  Cd17  1  0.42156450  0.94857967  -0.05142033  1.0
  Cd  Cd18  1  0.94857967  0.94857967  0.68127615  1.0
  Cd  Cd19  1  0.68127615  -0.57843550  0.94857967  1.0
  Cd  Cd20  1  -0.57843550  0.68127615  0.94857967  1.0
  Cd  Cd21  1  0.94857967  0.94857967  -0.57843550  1.0
  Cd  Cd22  1  0.94857967  0.68127615  0.94857967  1.0
  Cd  Cd23  1  0.42156450  0.94857967  -0.31872385  1.0
  Cd  Cd24  1  0.68127615  0.94857967  -0.57843550  1.0
  Cd  Cd25  1  0.94857967  0.42156450  0.94857967  1.0
  Cd  Cd26  1  0.86305468  0.86305468  -0.86305468  1.0
  Cd  Cd27  1  0.13694532  1.13694532  -0.13694532  1.0
  Cd  Cd28  1  0.86305468  -0.86305468  0.86305468  1.0
  Cd  Cd29  1  0.13694532  -0.13694532  0.13694532  1.0
  Cd  Cd30  1  -0.86305468  0.86305468  0.86305468  1.0
  Cd  Cd31  1  -0.13694532  0.13694532  0.13694532  1.0
  Cd  Cd32  1  0.38694532  1.38694532  0.11305468  1.0
  Cd  Cd33  1  0.11305468  0.11305468  0.38694532  1.0
  Cd  Cd34  1  0.38694532  1.11305468  0.38694532  1.0
  Cd  Cd35  1  0.11305468  1.38694532  0.11305468  1.0
  Cd  Cd36  1  0.11305468  1.38694532  0.38694532  1.0
  Cd  Cd37  1  0.38694532  1.11305468  0.11305468  1.0
  Cd  Cd38  1  1.12500000  0.62500000  0.62500000  1.0
  Cd  Cd39  1  0.62500000  1.12500000  -0.37500000  1.0
  Cd  Cd40  1  -0.37500000  0.62500000  1.12500000  1.0
  Cd  Cd41  1  -0.37500000  0.62500000  0.62500000  1.0
  Ni  Ni42  1  0.62500000  1.12500000  0.12500000  1.0
  Ni  Ni43  1  0.12500000  1.62500000  0.12500000  1.0
  Ni  Ni44  1  0.12500000  0.12500000  1.62500000  1.0
  Ni  Ni45  1  0.12500000  0.12500000  0.12500000  1.0
