# generated using pymatgen
data_Mo15Se19
_symmetry_space_group_name_H-M   'P 1'
_cell_length_a   9.61765057
_cell_length_b   9.61765057
_cell_length_c   19.79875862
_cell_angle_alpha   90.00000000
_cell_angle_beta   90.00000000
_cell_angle_gamma   120.00000000
_symmetry_Int_Tables_number   1
_chemical_formula_structural   Mo15Se19
_chemical_formula_sum   'Mo30 Se38'
_cell_volume   1586.01241057
_cell_formula_units_Z   2
loop_
 _symmetry_equiv_pos_site_id
 _symmetry_equiv_pos_as_xyz
  1  'x, y, z'
loop_
 _atom_site_type_symbol
 _atom_site_label
 _atom_site_symmetry_multiplicity
 _atom_site_fract_x
 _atom_site_fract_y
 _atom_site_fract_z
 _atom_site_occupancy
  Mo  Mo0  1  0.14959328  0.97924711  0.44042158  1.0
  Mo  Mo1  1  0.14959328  0.97924711  0.05957842  1.0
  Mo  Mo2  1  0.97924711  0.82965383  0.94042158  1.0
  Mo  Mo3  1  0.97924711  0.82965383  0.55957842  1.0
  Mo  Mo4  1  0.82965383  0.85040672  0.44042158  1.0
  Mo  Mo5  1  0.82965383  0.85040672  0.05957842  1.0
  Mo  Mo6  1  0.02075289  0.17034617  0.44042158  1.0
  Mo  Mo7  1  0.02075289  0.17034617  0.05957842  1.0
  Mo  Mo8  1  0.85040672  0.02075289  0.94042158  1.0
  Mo  Mo9  1  0.85040672  0.02075289  0.55957842  1.0
  Mo  Mo10  1  0.17034617  0.14959328  0.94042158  1.0
  Mo  Mo11  1  0.17034617  0.14959328  0.55957842  1.0
  Mo  Mo12  1  0.18295100  0.68622966  0.36647198  1.0
  Mo  Mo13  1  0.18295100  0.68622966  0.13352802  1.0
  Mo  Mo14  1  0.68622966  0.50327866  0.86647198  1.0
  Mo  Mo15  1  0.68622966  0.50327866  0.63352802  1.0
  Mo  Mo16  1  0.50327866  0.81704900  0.36647198  1.0
  Mo  Mo17  1  0.50327866  0.81704900  0.13352802  1.0
  Mo  Mo18  1  0.31377034  0.49672134  0.36647198  1.0
  Mo  Mo19  1  0.31377034  0.49672134  0.13352802  1.0
  Mo  Mo20  1  0.81704900  0.31377034  0.86647198  1.0
  Mo  Mo21  1  0.81704900  0.31377034  0.63352802  1.0
  Mo  Mo22  1  0.49672134  0.18295100  0.86647198  1.0
  Mo  Mo23  1  0.49672134  0.18295100  0.63352802  1.0
  Mo  Mo24  1  0.34542917  0.83347144  0.25000000  1.0
  Mo  Mo25  1  0.83347144  0.48804228  0.75000000  1.0
  Mo  Mo26  1  0.48804228  0.65457083  0.25000000  1.0
  Mo  Mo27  1  0.16652856  0.51195772  0.25000000  1.0
  Mo  Mo28  1  0.65457083  0.16652856  0.75000000  1.0
  Mo  Mo29  1  0.51195772  0.34542917  0.75000000  1.0
  Se  Se30  1  0.96536713  0.67343056  0.45211270  1.0
  Se  Se31  1  0.96536713  0.67343056  0.04788730  1.0
  Se  Se32  1  0.67343056  0.70806343  0.95211270  1.0
  Se  Se33  1  0.67343056  0.70806343  0.54788730  1.0
  Se  Se34  1  0.70806343  0.03463287  0.45211270  1.0
  Se  Se35  1  0.70806343  0.03463287  0.04788730  1.0
  Se  Se36  1  0.32656944  0.29193657  0.45211270  1.0
  Se  Se37  1  0.32656944  0.29193657  0.04788730  1.0
  Se  Se38  1  0.03463287  0.32656944  0.95211270  1.0
  Se  Se39  1  0.03463287  0.32656944  0.54788730  1.0
  Se  Se40  1  0.29193657  0.96536713  0.95211270  1.0
  Se  Se41  1  0.29193657  0.96536713  0.54788730  1.0
  Se  Se42  1  0.62507501  0.62928490  0.35600226  1.0
  Se  Se43  1  0.62507501  0.62928490  0.14399774  1.0
  Se  Se44  1  0.62928490  1.00420988  0.85600226  1.0
  Se  Se45  1  0.62928490  1.00420988  0.64399774  1.0
  Se  Se46  1  1.00420988  0.37492499  0.35600226  1.0
  Se  Se47  1  1.00420988  0.37492499  0.14399774  1.0
  Se  Se48  1  0.37071510  -0.00420988  0.35600226  1.0
  Se  Se49  1  0.37071510  -0.00420988  0.14399774  1.0
  Se  Se50  1  0.37492499  0.37071510  0.85600226  1.0
  Se  Se51  1  0.37492499  0.37071510  0.64399774  1.0
  Se  Se52  1  -0.00420988  0.62507501  0.85600226  1.0
  Se  Se53  1  -0.00420988  0.62507501  0.64399774  1.0
  Se  Se54  1  0.03688303  0.69337478  0.25000000  1.0
  Se  Se55  1  0.69337478  0.65649175  0.75000000  1.0
  Se  Se56  1  0.65649175  0.96311697  0.25000000  1.0
  Se  Se57  1  0.30662522  0.34350825  0.25000000  1.0
  Se  Se58  1  0.96311697  0.30662522  0.75000000  1.0
  Se  Se59  1  0.34350825  0.03688303  0.75000000  1.0
  Se  Se60  1  0.33333333  0.66666667  0.46826486  1.0
  Se  Se61  1  0.33333333  0.66666667  0.03173514  1.0
  Se  Se62  1  0.66666667  0.33333333  0.96826486  1.0
  Se  Se63  1  0.66666667  0.33333333  0.53173514  1.0
  Se  Se64  1  0.00000000  0.00000000  0.33883294  1.0
  Se  Se65  1  0.00000000  0.00000000  0.16116706  1.0
  Se  Se66  1  0.00000000  0.00000000  0.83883294  1.0
  Se  Se67  1  0.00000000  0.00000000  0.66116706  1.0
