# generated using pymatgen
data_CuH6(CN2)4
_symmetry_space_group_name_H-M   'P 1'
_cell_length_a   7.40796705
_cell_length_b   9.62894071
_cell_length_c   7.35086670
_cell_angle_alpha   90.00000000
_cell_angle_beta   113.29365326
_cell_angle_gamma   90.00000000
_symmetry_Int_Tables_number   1
_chemical_formula_structural   CuH6(CN2)4
_chemical_formula_sum   'Cu2 H12 C8 N16'
_cell_volume   481.60459765
_cell_formula_units_Z   2
loop_
 _symmetry_equiv_pos_site_id
 _symmetry_equiv_pos_as_xyz
  1  'x, y, z'
loop_
 _atom_site_type_symbol
 _atom_site_label
 _atom_site_symmetry_multiplicity
 _atom_site_fract_x
 _atom_site_fract_y
 _atom_site_fract_z
 _atom_site_occupancy
  C  C0  1  0.86671811  0.29095556  0.06939250  1.0
  C  C1  1  0.86671811  0.20904444  0.56939250  1.0
  C  C2  1  0.13328189  0.79095556  0.43060750  1.0
  C  C3  1  0.13328189  0.70904444  0.93060750  1.0
  C  C4  1  0.73394576  0.99475111  0.45130460  1.0
  C  C5  1  0.73394576  0.50524889  0.95130460  1.0
  C  C6  1  0.26605424  0.49475111  0.04869540  1.0
  C  C7  1  0.26605424  0.00524889  0.54869540  1.0
  N  N8  1  0.83132146  0.41921707  0.09192266  1.0
  N  N9  1  0.83132146  0.08078293  0.59192266  1.0
  N  N10  1  0.16867854  0.91921707  0.40807734  1.0
  N  N11  1  0.16867854  0.58078293  0.90807734  1.0
  N  N12  1  0.64846218  0.90831168  0.33510992  1.0
  N  N13  1  0.64846218  0.59168832  0.83510992  1.0
  N  N14  1  0.35153782  0.40831168  0.16489008  1.0
  N  N15  1  0.35153782  0.09168832  0.66489008  1.0
  N  N16  1  0.73423125  0.91347927  0.95114046  1.0
  N  N17  1  0.73423125  0.58652073  0.45114046  1.0
  N  N18  1  0.26576875  0.41347927  0.54885954  1.0
  N  N19  1  0.26576875  0.08652073  0.04885954  1.0
  N  N20  1  0.90724992  0.17260861  0.07162961  1.0
  N  N21  1  0.90724992  0.32739139  0.57162961  1.0
  N  N22  1  0.09275008  0.67260861  0.42837039  1.0
  N  N23  1  0.09275008  0.82739139  0.92837039  1.0
  Cu  Cu24  1  0.00000000  0.50000000  0.50000000  1.0
  Cu  Cu25  1  0.00000000  0.00000000  0.00000000  1.0
  H  H26  1  0.71489479  0.68556939  0.39441200  1.0
  H  H27  1  0.71489479  0.81443061  0.89441200  1.0
  H  H28  1  0.28510521  0.18556939  0.10558800  1.0
  H  H29  1  0.28510521  0.31443061  0.60558800  1.0
  H  H30  1  0.37344190  0.02366599  0.14507803  1.0
  H  H31  1  0.37344190  0.47633401  0.64507803  1.0
  H  H32  1  0.62655810  0.52366599  0.35492197  1.0
  H  H33  1  0.62655810  0.97633401  0.85492197  1.0
  H  H34  1  0.28719158  0.41030566  0.41862070  1.0
  H  H35  1  0.28719158  0.08969434  0.91862070  1.0
  H  H36  1  0.71280842  0.91030566  0.08137930  1.0
  H  H37  1  0.71280842  0.58969434  0.58137930  1.0
