# generated using pymatgen
data_MnP2HO8
_symmetry_space_group_name_H-M   'P 1'
_cell_length_a   9.58437147
_cell_length_b   4.88532618
_cell_length_c   8.47676862
_cell_angle_alpha   90.00000000
_cell_angle_beta   124.29799430
_cell_angle_gamma   90.00000000
_symmetry_Int_Tables_number   1
_chemical_formula_structural   MnP2HO8
_chemical_formula_sum   'Mn2 P4 H2 O16'
_cell_volume   327.89109937
_cell_formula_units_Z   2
loop_
 _symmetry_equiv_pos_site_id
 _symmetry_equiv_pos_as_xyz
  1  'x, y, z'
loop_
 _atom_site_type_symbol
 _atom_site_label
 _atom_site_symmetry_multiplicity
 _atom_site_fract_x
 _atom_site_fract_y
 _atom_site_fract_z
 _atom_site_occupancy
  P  P0  1  0.80584858  0.00730652  0.20034768  1.0
  P  P1  1  0.80584858  0.49269348  0.70034768  1.0
  P  P2  1  0.19415142  0.50730652  0.29965232  1.0
  P  P3  1  0.19415142  0.99269348  0.79965232  1.0
  H  H4  1  0.50000000  0.50000000  0.50000000  1.0
  H  H5  1  0.50000000  0.00000000  -0.00000000  1.0
  O  O6  1  0.85640846  0.31064228  0.27091408  1.0
  O  O7  1  0.85640846  0.18935772  0.77091408  1.0
  O  O8  1  0.14359154  0.81064228  0.22908592  1.0
  O  O9  1  0.14359154  0.68935772  0.72908592  1.0
  O  O10  1  0.81675474  0.53646392  0.52536940  1.0
  O  O11  1  0.81675474  -0.03646392  1.02536940  1.0
  O  O12  1  0.18324526  1.03646392  -0.02536940  1.0
  O  O13  1  0.18324526  0.46353608  0.47463060  1.0
  O  O14  1  0.62939789  -0.05555591  0.14837541  1.0
  O  O15  1  0.62939789  0.55555591  0.64837541  1.0
  O  O16  1  0.37060211  0.44444409  0.35162459  1.0
  O  O17  1  0.37060211  1.05555591  0.85162459  1.0
  O  O18  1  0.94237322  0.82105232  0.36577555  1.0
  O  O19  1  0.94237322  0.67894768  0.86577555  1.0
  O  O20  1  0.05762678  0.32105232  0.13422445  1.0
  O  O21  1  0.05762678  0.17894768  0.63422445  1.0
  Mn  Mn22  1  0.00000000  0.50000000  0.50000000  1.0
  Mn  Mn23  1  0.00000000  0.00000000  0.00000000  1.0
