# generated using pymatgen
data_Ni5Ge2
_symmetry_space_group_name_H-M   'P 1'
_cell_length_a   6.82168285
_cell_length_b   6.82168285
_cell_length_c   12.39025390
_cell_angle_alpha   90.00000000
_cell_angle_beta   90.00000000
_cell_angle_gamma   120.00000000
_symmetry_Int_Tables_number   1
_chemical_formula_structural   Ni5Ge2
_chemical_formula_sum   'Ni30 Ge12'
_cell_volume   499.33715969
_cell_formula_units_Z   6
loop_
 _symmetry_equiv_pos_site_id
 _symmetry_equiv_pos_as_xyz
  1  'x, y, z'
loop_
 _atom_site_type_symbol
 _atom_site_label
 _atom_site_symmetry_multiplicity
 _atom_site_fract_x
 _atom_site_fract_y
 _atom_site_fract_z
 _atom_site_occupancy
  Ni  Ni0  1  0.72581583  0.72581583  0.61761084  1.0
  Ni  Ni1  1  0.72581583  0.00000000  0.11761084  1.0
  Ni  Ni2  1  -0.00000000  0.72581583  0.11761084  1.0
  Ni  Ni3  1  0.00000000  0.27418417  0.61761084  1.0
  Ni  Ni4  1  0.27418417  0.27418417  0.11761084  1.0
  Ni  Ni5  1  0.27418417  0.00000000  0.61761084  1.0
  Ni  Ni6  1  0.69243035  0.69243035  0.41220721  1.0
  Ni  Ni7  1  0.69243035  0.00000000  0.91220721  1.0
  Ni  Ni8  1  -0.00000000  0.69243035  0.91220721  1.0
  Ni  Ni9  1  0.00000000  0.30756965  0.41220721  1.0
  Ni  Ni10  1  0.30756965  0.30756965  0.91220721  1.0
  Ni  Ni11  1  0.30756965  0.00000000  0.41220721  1.0
  Ni  Ni12  1  0.62645649  0.62645649  0.02399427  1.0
  Ni  Ni13  1  0.62645649  0.00000000  0.52399427  1.0
  Ni  Ni14  1  -0.00000000  0.62645649  0.52399427  1.0
  Ni  Ni15  1  -0.00000000  0.37354351  0.02399427  1.0
  Ni  Ni16  1  0.37354351  0.37354351  0.52399427  1.0
  Ni  Ni17  1  0.37354351  0.00000000  0.02399427  1.0
  Ni  Ni18  1  0.37002767  0.37002767  0.31370736  1.0
  Ni  Ni19  1  0.37002767  0.00000000  0.81370736  1.0
  Ni  Ni20  1  -0.00000000  0.37002767  0.81370736  1.0
  Ni  Ni21  1  -0.00000000  0.62997233  0.31370736  1.0
  Ni  Ni22  1  0.62997233  0.62997233  0.81370736  1.0
  Ni  Ni23  1  0.62997233  0.00000000  0.31370736  1.0
  Ni  Ni24  1  0.33333333  0.66666667  0.14802877  1.0
  Ni  Ni25  1  0.33333333  0.66666667  0.64802877  1.0
  Ni  Ni26  1  0.66666667  0.33333333  0.14802877  1.0
  Ni  Ni27  1  0.66666667  0.33333333  0.64802877  1.0
  Ni  Ni28  1  0.00000000  0.00000000  0.29062496  1.0
  Ni  Ni29  1  0.00000000  0.00000000  0.79062496  1.0
  Ge  Ge30  1  0.67104113  0.67104113  0.21895663  1.0
  Ge  Ge31  1  0.67104113  0.00000000  0.71895663  1.0
  Ge  Ge32  1  -0.00000000  0.67104113  0.71895663  1.0
  Ge  Ge33  1  -0.00000000  0.32895887  0.21895663  1.0
  Ge  Ge34  1  0.32895887  0.32895887  0.71895663  1.0
  Ge  Ge35  1  0.32895887  0.00000000  0.21895663  1.0
  Ge  Ge36  1  0.33333333  0.66666667  0.43789392  1.0
  Ge  Ge37  1  0.33333333  0.66666667  0.93789392  1.0
  Ge  Ge38  1  0.66666667  0.33333333  0.43789392  1.0
  Ge  Ge39  1  0.66666667  0.33333333  0.93789392  1.0
  Ge  Ge40  1  0.00000000  0.00000000  -0.00489928  1.0
  Ge  Ge41  1  0.00000000  0.00000000  0.49510072  1.0
