# generated using pymatgen
data_Cu2PO4
_symmetry_space_group_name_H-M   'P 1'
_cell_length_a   9.48191135
_cell_length_b   6.06201904
_cell_length_c   6.34247593
_cell_angle_alpha   79.14150434
_cell_angle_beta   74.29415981
_cell_angle_gamma   85.04741760
_symmetry_Int_Tables_number   1
_chemical_formula_structural   Cu2PO4
_chemical_formula_sum   'Cu8 P4 O16'
_cell_volume   344.42681525
_cell_formula_units_Z   4
loop_
 _symmetry_equiv_pos_site_id
 _symmetry_equiv_pos_as_xyz
  1  'x, y, z'
loop_
 _atom_site_type_symbol
 _atom_site_label
 _atom_site_symmetry_multiplicity
 _atom_site_fract_x
 _atom_site_fract_y
 _atom_site_fract_z
 _atom_site_occupancy
  P  P0  1  0.50418981  0.78594530  0.80445691  1.0
  P  P1  1  0.49581019  0.21405470  0.19554309  1.0
  P  P2  1  0.88829793  0.37564651  0.30157800  1.0
  P  P3  1  0.11170207  0.62435349  0.69842200  1.0
  O  O4  1  0.14432338  0.74712531  0.88136514  1.0
  O  O5  1  0.85567662  0.25287469  0.11863486  1.0
  O  O6  1  0.94167068  0.65475507  0.71749261  1.0
  O  O7  1  0.05832932  0.34524493  0.28250739  1.0
  O  O8  1  0.83893676  0.62214298  0.25563997  1.0
  O  O9  1  0.16106324  0.37785702  0.74436003  1.0
  O  O10  1  0.80571875  0.25460914  0.53743345  1.0
  O  O11  1  0.19428125  0.74539086  0.46256655  1.0
  O  O12  1  0.58912403  0.31126334  0.95047229  1.0
  O  O13  1  0.41087597  0.68873666  0.04952771  1.0
  O  O14  1  0.47955231  0.63107752  0.64586601  1.0
  O  O15  1  0.52044769  0.36892248  0.35413399  1.0
  O  O16  1  0.55857674  0.97834452  0.26292359  1.0
  O  O17  1  0.44142326  0.02165548  0.73707641  1.0
  O  O18  1  0.66837063  0.77703928  0.80470143  1.0
  O  O19  1  0.33162937  0.22296072  0.19529857  1.0
  Cu  Cu20  1  0.52113906  0.30642604  0.68209747  1.0
  Cu  Cu21  1  0.47886094  0.69357396  0.31790253  1.0
  Cu  Cu22  1  0.76879327  0.47364647  0.89921077  1.0
  Cu  Cu23  1  0.23120673  0.52635353  0.10078923  1.0
  Cu  Cu24  1  0.86796161  0.95149355  0.61702860  1.0
  Cu  Cu25  1  0.13203839  0.04850645  0.38297140  1.0
  Cu  Cu26  1  0.85937759  0.93307711  0.18525299  1.0
  Cu  Cu27  1  0.14062241  0.06692289  0.81474701  1.0
