# generated using pymatgen
data_CuCl2
_symmetry_space_group_name_H-M   'P 1'
_cell_length_a   4.15780597
_cell_length_b   4.15780597
_cell_length_c   7.42952464
_cell_angle_alpha   60.03163534
_cell_angle_beta   119.96836466
_cell_angle_gamma   132.87827925
_symmetry_Int_Tables_number   1
_chemical_formula_structural   CuCl2
_chemical_formula_sum   'Cu1 Cl2'
_cell_volume   78.91542165
_cell_formula_units_Z   1
loop_
 _symmetry_equiv_pos_site_id
 _symmetry_equiv_pos_as_xyz
  1  'x, y, z'
loop_
 _atom_site_type_symbol
 _atom_site_label
 _atom_site_symmetry_multiplicity
 _atom_site_fract_x
 _atom_site_fract_y
 _atom_site_fract_z
 _atom_site_occupancy
  Cu  Cu0  1  0.00000000  0.00000000  0.00000000  1.0
  Cl  Cl1  1  0.28315659  -0.28315659  0.78117878  1.0
  Cl  Cl2  1  0.71684341  -0.71684341  0.21882122  1.0
