# generated using pymatgen
data_LiAlPHO5
_symmetry_space_group_name_H-M   'P 1'
_cell_length_a   5.25643800
_cell_length_b   5.08168188
_cell_length_c   7.26441400
_cell_angle_alpha   112.19755461
_cell_angle_beta   112.13475545
_cell_angle_gamma   81.95410650
_symmetry_Int_Tables_number   1
_chemical_formula_structural   LiAlPHO5
_chemical_formula_sum   'Li2 Al2 P2 H2 O10'
_cell_volume   166.42078181
_cell_formula_units_Z   2
loop_
 _symmetry_equiv_pos_site_id
 _symmetry_equiv_pos_as_xyz
  1  'x, y, z'
loop_
 _atom_site_type_symbol
 _atom_site_label
 _atom_site_symmetry_multiplicity
 _atom_site_fract_x
 _atom_site_fract_y
 _atom_site_fract_z
 _atom_site_occupancy
  Li  Li0  1  0.39114230  -0.43196605  0.31686251  1.0
  Li  Li1  1  0.60885770  0.43196605  0.68313749  1.0
  Al  Al2  1  0.00000000  0.00000000  0.00000000  1.0
  Al  Al3  1  0.00000000  0.50000000  0.50000000  1.0
  P  P4  1  0.64269087  -0.05896795  0.26684629  1.0
  P  P5  1  0.35730913  0.05896795  0.73315371  1.0
  H  H6  1  0.06967629  0.50426565  0.84504723  1.0
  H  H7  1  0.93032371  -0.50426565  0.15495277  1.0
  O  O8  1  0.66630242  0.14168171  0.84094386  1.0
  O  O9  1  0.33369758  -0.14168171  0.15905614  1.0
  O  O10  1  0.24213116  0.21868751  0.57381590  1.0
  O  O11  1  0.75786884  -0.21868751  0.42618410  1.0
  O  O12  1  0.32505197  -0.26903539  0.60905696  1.0
  O  O13  1  0.67494803  0.26903539  0.39094304  1.0
  O  O14  1  0.79557608  -0.15867211  0.10682616  1.0
  O  O15  1  0.20442392  0.15867211  0.89317384  1.0
  O  O16  1  0.95814034  0.63526776  0.77432220  1.0
  O  O17  1  0.04185966  -0.63526776  0.22567780  1.0
