# generated using pymatgen
data_Hg2N
_symmetry_space_group_name_H-M   'P 1'
_cell_length_a   7.22046505
_cell_length_b   7.22046505
_cell_length_c   7.22046505
_cell_angle_alpha   60.00000000
_cell_angle_beta   60.00000000
_cell_angle_gamma   60.00000000
_symmetry_Int_Tables_number   1
_chemical_formula_structural   Hg2N
_chemical_formula_sum   'Hg4 N2'
_cell_volume   266.18312127
_cell_formula_units_Z   2
loop_
 _symmetry_equiv_pos_site_id
 _symmetry_equiv_pos_as_xyz
  1  'x, y, z'
loop_
 _atom_site_type_symbol
 _atom_site_label
 _atom_site_symmetry_multiplicity
 _atom_site_fract_x
 _atom_site_fract_y
 _atom_site_fract_z
 _atom_site_occupancy
  Hg  Hg0  1  0.62500000  -0.37500000  1.12500000  1.0
  Hg  Hg1  1  0.62500000  0.12500000  0.62500000  1.0
  Hg  Hg2  1  1.12500000  -0.37500000  0.62500000  1.0
  Hg  Hg3  1  0.62500000  -0.37500000  0.62500000  1.0
  N  N4  1  0.75000000  -0.25000000  0.75000000  1.0
  N  N5  1  0.50000000  0.50000000  -0.50000000  1.0
