# generated using pymatgen
data_Ta2Tl4S11
_symmetry_space_group_name_H-M   'P 1'
_cell_length_a   8.21255467
_cell_length_b   13.49253196
_cell_length_c   9.19032215
_cell_angle_alpha   107.76440083
_cell_angle_beta   95.09859985
_cell_angle_gamma   89.25514569
_symmetry_Int_Tables_number   1
_chemical_formula_structural   Ta2Tl4S11
_chemical_formula_sum   'Ta4 Tl8 S22'
_cell_volume   965.86200754
_cell_formula_units_Z   2
loop_
 _symmetry_equiv_pos_site_id
 _symmetry_equiv_pos_as_xyz
  1  'x, y, z'
loop_
 _atom_site_type_symbol
 _atom_site_label
 _atom_site_symmetry_multiplicity
 _atom_site_fract_x
 _atom_site_fract_y
 _atom_site_fract_z
 _atom_site_occupancy
  Ta  Ta0  1  0.83350555  0.69158328  -0.61195644  1.0
  Ta  Ta1  1  0.16649445  0.30841672  -0.38804356  1.0
  Ta  Ta2  1  0.62652378  0.80656294  -0.85825798  1.0
  Ta  Ta3  1  0.37347622  0.19343706  -0.14174202  1.0
  Tl  Tl4  1  -0.00179659  0.39124038  -0.76159715  1.0
  Tl  Tl5  1  1.00179659  0.60875962  -0.23840285  1.0
  Tl  Tl6  1  0.73028304  0.08515085  -0.92223086  1.0
  Tl  Tl7  1  0.26971696  0.91484915  -0.07776914  1.0
  Tl  Tl8  1  0.45330530  0.52357230  -0.74017995  1.0
  Tl  Tl9  1  0.54669470  0.47642770  -0.25982005  1.0
  Tl  Tl10  1  0.28742148  0.92411612  -0.53423045  1.0
  Tl  Tl11  1  0.71257852  0.07588388  -0.46576955  1.0
  S  S12  1  0.98445973  0.37966457  -0.18624773  1.0
  S  S13  1  0.01554027  0.62033543  -0.81375227  1.0
  S  S14  1  0.88996579  0.85458077  -0.92120556  1.0
  S  S15  1  0.11003421  0.14541923  -0.07879444  1.0
  S  S16  1  0.88493334  0.87198133  -0.68682743  1.0
  S  S17  1  0.11506666  0.12801867  -0.31317257  1.0
  S  S18  1  0.91962176  0.24562843  -0.56919005  1.0
  S  S19  1  0.08037824  0.75437157  -0.43080995  1.0
  S  S20  1  0.86155695  0.83211880  -0.37004276  1.0
  S  S21  1  0.13844305  0.16788120  -0.62995724  1.0
  S  S22  1  0.76918940  0.61504132  -0.89581140  1.0
  S  S23  1  0.23081060  0.38495868  -0.10418860  1.0
  S  S24  1  0.77282765  0.54590842  -0.54364377  1.0
  S  S25  1  0.22717235  0.45409158  -0.45635623  1.0
  S  S26  1  0.54733959  0.75311853  -0.63504118  1.0
  S  S27  1  0.45266041  0.24688147  -0.36495882  1.0
  S  S28  1  0.49616474  0.96542568  -0.78805034  1.0
  S  S29  1  0.50383526  0.03457432  -0.21194966  1.0
  S  S30  1  0.45026218  0.25071675  -0.86401946  1.0
  S  S31  1  0.54973782  0.74928325  -0.13598054  1.0
  S  S32  1  0.40393720  0.68803949  -0.00589760  1.0
  S  S33  1  0.59606280  0.31196051  -0.99410240  1.0
