# generated using pymatgen
data_Sc3C4
_symmetry_space_group_name_H-M   'P 1'
_cell_length_a   7.51463905
_cell_length_b   7.51463905
_cell_length_c   15.06817334
_cell_angle_alpha   90.00000000
_cell_angle_beta   90.00000000
_cell_angle_gamma   90.00000000
_symmetry_Int_Tables_number   1
_chemical_formula_structural   Sc3C4
_chemical_formula_sum   'Sc30 C40'
_cell_volume   850.89673625
_cell_formula_units_Z   10
loop_
 _symmetry_equiv_pos_site_id
 _symmetry_equiv_pos_as_xyz
  1  'x, y, z'
loop_
 _atom_site_type_symbol
 _atom_site_label
 _atom_site_symmetry_multiplicity
 _atom_site_fract_x
 _atom_site_fract_y
 _atom_site_fract_z
 _atom_site_occupancy
  Sc  Sc0  1  0.39990873  0.78742360  0.35644542  1.0
  Sc  Sc1  1  0.39990873  0.78742360  0.64355458  1.0
  Sc  Sc2  1  0.89990873  0.71257640  0.85644542  1.0
  Sc  Sc3  1  0.89990873  0.71257640  0.14355458  1.0
  Sc  Sc4  1  0.21257640  0.39990873  0.35644542  1.0
  Sc  Sc5  1  0.21257640  0.39990873  0.64355458  1.0
  Sc  Sc6  1  0.71257640  0.10009127  0.85644542  1.0
  Sc  Sc7  1  0.71257640  0.10009127  0.14355458  1.0
  Sc  Sc8  1  0.60009127  0.21257640  0.35644542  1.0
  Sc  Sc9  1  0.60009127  0.21257640  0.64355458  1.0
  Sc  Sc10  1  0.10009127  0.28742360  0.85644542  1.0
  Sc  Sc11  1  0.10009127  0.28742360  0.14355458  1.0
  Sc  Sc12  1  0.78742360  0.60009127  0.35644542  1.0
  Sc  Sc13  1  0.78742360  0.60009127  0.64355458  1.0
  Sc  Sc14  1  0.28742360  0.89990873  0.85644542  1.0
  Sc  Sc15  1  0.28742360  0.89990873  0.14355458  1.0
  Sc  Sc16  1  0.09712525  0.69837632  0.50000000  1.0
  Sc  Sc17  1  0.59712525  0.80162368  0.00000000  1.0
  Sc  Sc18  1  0.30162368  0.09712525  0.50000000  1.0
  Sc  Sc19  1  0.80162368  0.40287475  0.00000000  1.0
  Sc  Sc20  1  0.90287475  0.30162368  0.50000000  1.0
  Sc  Sc21  1  0.40287475  0.19837632  0.00000000  1.0
  Sc  Sc22  1  0.69837632  0.90287475  0.50000000  1.0
  Sc  Sc23  1  0.19837632  0.59712525  0.00000000  1.0
  Sc  Sc24  1  0.50000000  0.50000000  0.18763400  1.0
  Sc  Sc25  1  0.50000000  0.50000000  0.81236600  1.0
  Sc  Sc26  1  0.00000000  0.00000000  0.68763400  1.0
  Sc  Sc27  1  0.00000000  0.00000000  0.31236600  1.0
  Sc  Sc28  1  0.50000000  0.50000000  0.50000000  1.0
  Sc  Sc29  1  0.00000000  0.00000000  0.00000000  1.0
  C  C30  1  0.19292504  0.59742116  0.16748688  1.0
  C  C31  1  0.19292504  0.59742116  0.83251312  1.0
  C  C32  1  0.69292504  0.90257884  0.66748688  1.0
  C  C33  1  0.69292504  0.90257884  0.33251312  1.0
  C  C34  1  0.40257884  0.19292504  0.16748688  1.0
  C  C35  1  0.40257884  0.19292504  0.83251312  1.0
  C  C36  1  0.90257884  0.30707496  0.66748688  1.0
  C  C37  1  0.90257884  0.30707496  0.33251312  1.0
  C  C38  1  0.80707496  0.40257884  0.16748688  1.0
  C  C39  1  0.80707496  0.40257884  0.83251312  1.0
  C  C40  1  0.30707496  0.09742116  0.66748688  1.0
  C  C41  1  0.30707496  0.09742116  0.33251312  1.0
  C  C42  1  0.59742116  0.80707496  0.16748688  1.0
  C  C43  1  0.59742116  0.80707496  0.83251312  1.0
  C  C44  1  0.09742116  0.69292504  0.66748688  1.0
  C  C45  1  0.09742116  0.69292504  0.33251312  1.0
  C  C46  1  0.39373957  0.80327492  0.50000000  1.0
  C  C47  1  0.89373957  0.69672508  0.00000000  1.0
  C  C48  1  0.19672508  0.39373957  0.50000000  1.0
  C  C49  1  0.69672508  0.10626043  0.00000000  1.0
  C  C50  1  0.60626043  0.19672508  0.50000000  1.0
  C  C51  1  0.10626043  0.30327492  0.00000000  1.0
  C  C52  1  0.80327492  0.60626043  0.50000000  1.0
  C  C53  1  0.30327492  0.89373957  0.00000000  1.0
  C  C54  1  0.34966553  0.15033447  0.25000000  1.0
  C  C55  1  0.34966553  0.15033447  0.75000000  1.0
  C  C56  1  0.84966553  0.34966553  0.75000000  1.0
  C  C57  1  0.84966553  0.34966553  0.25000000  1.0
  C  C58  1  0.65033447  0.84966553  0.25000000  1.0
  C  C59  1  0.65033447  0.84966553  0.75000000  1.0
  C  C60  1  0.15033447  0.65033447  0.75000000  1.0
  C  C61  1  0.15033447  0.65033447  0.25000000  1.0
  C  C62  1  0.50000000  0.50000000  0.34316501  1.0
  C  C63  1  0.50000000  0.50000000  0.65683499  1.0
  C  C64  1  0.00000000  0.00000000  0.84316501  1.0
  C  C65  1  0.00000000  0.00000000  0.15683499  1.0
  C  C66  1  0.50000000  0.50000000  0.04278524  1.0
  C  C67  1  0.50000000  0.50000000  0.95721476  1.0
  C  C68  1  0.00000000  0.00000000  0.54278524  1.0
  C  C69  1  0.00000000  0.00000000  0.45721476  1.0
