# generated using pymatgen
data_LaAsIr
_symmetry_space_group_name_H-M   'P 1'
_cell_length_a   8.10746499
_cell_length_b   8.10746499
_cell_length_c   8.10746499
_cell_angle_alpha   149.76689124
_cell_angle_beta   149.76689124
_cell_angle_gamma   43.28368892
_symmetry_Int_Tables_number   1
_chemical_formula_structural   LaAsIr
_chemical_formula_sum   'La2 As2 Ir2'
_cell_volume   134.74980236
_cell_formula_units_Z   2
loop_
 _symmetry_equiv_pos_site_id
 _symmetry_equiv_pos_as_xyz
  1  'x, y, z'
loop_
 _atom_site_type_symbol
 _atom_site_label
 _atom_site_symmetry_multiplicity
 _atom_site_fract_x
 _atom_site_fract_y
 _atom_site_fract_z
 _atom_site_occupancy
  La  La0  1  0.58340829  0.58340829  1.00000000  1.0
  La  La1  1  0.33340829  0.83340829  0.50000000  1.0
  As  As2  1  0.16292073  0.16292073  -0.00000000  1.0
  As  As3  1  0.91292073  0.41292073  0.50000000  1.0
  Ir  Ir4  1  -0.00182902  -0.00182902  0.00000000  1.0
  Ir  Ir5  1  0.74817098  0.24817098  0.50000000  1.0
