# generated using pymatgen
data_Eu(GaSe2)2
_symmetry_space_group_name_H-M   'P 1'
_cell_length_a   6.27748820
_cell_length_b   6.27748820
_cell_length_c   10.89273348
_cell_angle_alpha   90.00000000
_cell_angle_beta   90.00000000
_cell_angle_gamma   119.12262717
_symmetry_Int_Tables_number   1
_chemical_formula_structural   Eu(GaSe2)2
_chemical_formula_sum   'Eu2 Ga4 Se8'
_cell_volume   374.98285943
_cell_formula_units_Z   2
loop_
 _symmetry_equiv_pos_site_id
 _symmetry_equiv_pos_as_xyz
  1  'x, y, z'
loop_
 _atom_site_type_symbol
 _atom_site_label
 _atom_site_symmetry_multiplicity
 _atom_site_fract_x
 _atom_site_fract_y
 _atom_site_fract_z
 _atom_site_occupancy
  Eu  Eu0  1  0.00000000  0.00000000  0.75000000  1.0
  Eu  Eu1  1  0.00000000  0.00000000  0.25000000  1.0
  Ga  Ga2  1  -0.26561740  1.26217591  0.00000000  1.0
  Ga  Ga3  1  0.26217591  0.73438260  0.50000000  1.0
  Ga  Ga4  1  -0.26217591  1.26561740  0.50000000  1.0
  Ga  Ga5  1  0.26561740  0.73782409  0.00000000  1.0
  Se  Se6  1  -0.15004571  1.69401265  0.00000000  1.0
  Se  Se7  1  0.69401265  0.84995429  0.50000000  1.0
  Se  Se8  1  -0.69401265  1.15004571  0.50000000  1.0
  Se  Se9  1  0.15004571  0.30598735  0.00000000  1.0
  Se  Se10  1  -0.00000000  1.50000000  0.67265151  1.0
  Se  Se11  1  -0.00000000  1.50000000  0.32734849  1.0
  Se  Se12  1  0.50000000  1.00000000  0.17265151  1.0
  Se  Se13  1  0.50000000  1.00000000  0.82734849  1.0
