# generated using pymatgen
data_Rb2LiGdCl6
_symmetry_space_group_name_H-M   'P 1'
_cell_length_a   10.52655992
_cell_length_b   10.52655992
_cell_length_c   10.52373046
_cell_angle_alpha   90.00000000
_cell_angle_beta   90.00000000
_cell_angle_gamma   90.00000000
_symmetry_Int_Tables_number   1
_chemical_formula_structural   Rb2LiGdCl6
_chemical_formula_sum   'Rb8 Li4 Gd4 Cl24'
_cell_volume   1166.11840502
_cell_formula_units_Z   4
loop_
 _symmetry_equiv_pos_site_id
 _symmetry_equiv_pos_as_xyz
  1  'x, y, z'
loop_
 _atom_site_type_symbol
 _atom_site_label
 _atom_site_symmetry_multiplicity
 _atom_site_fract_x
 _atom_site_fract_y
 _atom_site_fract_z
 _atom_site_occupancy
  Rb  Rb0  1  0.75028221  0.74971779  0.25005691  1.0
  Rb  Rb1  1  0.75028221  0.25028221  0.74994309  1.0
  Rb  Rb2  1  0.25028221  0.24971779  0.74994309  1.0
  Rb  Rb3  1  0.25028221  0.75028221  0.25005691  1.0
  Rb  Rb4  1  0.74971779  0.75028221  0.74994309  1.0
  Rb  Rb5  1  0.74971779  0.24971779  0.25005691  1.0
  Rb  Rb6  1  0.24971779  0.25028221  0.25005691  1.0
  Rb  Rb7  1  0.24971779  0.74971779  0.74994309  1.0
  Li  Li8  1  0.50000000  0.00000000  0.00000000  1.0
  Li  Li9  1  0.00000000  0.50000000  0.00000000  1.0
  Li  Li10  1  0.00000000  0.00000000  0.50000000  1.0
  Li  Li11  1  0.50000000  0.50000000  0.50000000  1.0
  Gd  Gd12  1  0.50000000  0.00000000  0.50000000  1.0
  Gd  Gd13  1  0.00000000  0.50000000  0.50000000  1.0
  Gd  Gd14  1  0.00000000  0.00000000  0.00000000  1.0
  Gd  Gd15  1  0.50000000  0.50000000  0.00000000  1.0
  Cl  Cl16  1  0.75344783  0.00000000  0.50000000  1.0
  Cl  Cl17  1  0.25344783  0.50000000  0.50000000  1.0
  Cl  Cl18  1  0.00000000  0.75344783  0.50000000  1.0
  Cl  Cl19  1  0.00000000  0.24655217  0.50000000  1.0
  Cl  Cl20  1  0.50000000  0.25344783  0.50000000  1.0
  Cl  Cl21  1  0.50000000  0.74655217  0.50000000  1.0
  Cl  Cl22  1  0.74655217  0.50000000  0.50000000  1.0
  Cl  Cl23  1  0.24655217  0.00000000  0.50000000  1.0
  Cl  Cl24  1  0.25343453  0.00000000  0.00000000  1.0
  Cl  Cl25  1  0.75343453  0.50000000  0.00000000  1.0
  Cl  Cl26  1  0.00000000  0.25343453  0.00000000  1.0
  Cl  Cl27  1  0.00000000  0.74656547  0.00000000  1.0
  Cl  Cl28  1  0.50000000  0.75343453  0.00000000  1.0
  Cl  Cl29  1  0.50000000  0.24656547  0.00000000  1.0
  Cl  Cl30  1  0.24656547  0.50000000  0.00000000  1.0
  Cl  Cl31  1  0.74656547  0.00000000  0.00000000  1.0
  Cl  Cl32  1  0.50000000  0.00000000  0.24648639  1.0
  Cl  Cl33  1  0.50000000  0.00000000  0.75351361  1.0
  Cl  Cl34  1  0.00000000  0.50000000  0.75351361  1.0
  Cl  Cl35  1  0.00000000  0.50000000  0.24648639  1.0
  Cl  Cl36  1  0.00000000  0.00000000  0.25350468  1.0
  Cl  Cl37  1  0.00000000  0.00000000  0.74649532  1.0
  Cl  Cl38  1  0.50000000  0.50000000  0.74649532  1.0
  Cl  Cl39  1  0.50000000  0.50000000  0.25350468  1.0
