# generated using pymatgen
data_Mg3H4O5
_symmetry_space_group_name_H-M   'P 1'
_cell_length_a   3.12404969
_cell_length_b   3.12404969
_cell_length_c   12.39284052
_cell_angle_alpha   90.00000000
_cell_angle_beta   90.00000000
_cell_angle_gamma   120.00000000
_symmetry_Int_Tables_number   1
_chemical_formula_structural   Mg3H4O5
_chemical_formula_sum   'Mg3 H4 O5'
_cell_volume   104.74597852
_cell_formula_units_Z   1
loop_
 _symmetry_equiv_pos_site_id
 _symmetry_equiv_pos_as_xyz
  1  'x, y, z'
loop_
 _atom_site_type_symbol
 _atom_site_label
 _atom_site_symmetry_multiplicity
 _atom_site_fract_x
 _atom_site_fract_y
 _atom_site_fract_z
 _atom_site_occupancy
  Mg  Mg0  1  -0.00000000  -0.00000000  0.50000000  1.0
  Mg  Mg1  1  0.33333333  0.66666667  0.09863513  1.0
  Mg  Mg2  1  0.66666667  0.33333333  0.90136487  1.0
  H  H3  1  0.66666667  0.33333333  0.66280537  1.0
  H  H4  1  0.33333333  0.66666667  0.33719463  1.0
  H  H5  1  0.66666667  0.33333333  0.26103659  1.0
  H  H6  1  0.33333333  0.66666667  0.73896341  1.0
  O  O7  1  0.66666667  0.33333333  0.58480794  1.0
  O  O8  1  0.33333333  0.66666667  0.41519206  1.0
  O  O9  1  0.00000000  0.00000000  0.00000000  1.0
  O  O10  1  0.66666667  0.33333333  0.18293156  1.0
  O  O11  1  0.33333333  0.66666667  0.81706844  1.0
