# generated using pymatgen
data_Ta3Br7
_symmetry_space_group_name_H-M   'P 1'
_cell_length_a   10.29006736
_cell_length_b   10.29006736
_cell_length_c   12.01121898
_cell_angle_alpha   90.00000000
_cell_angle_beta   90.00000000
_cell_angle_gamma   93.13977874
_symmetry_Int_Tables_number   1
_chemical_formula_structural   Ta3Br7
_chemical_formula_sum   'Ta12 Br28'
_cell_volume   1269.90462166
_cell_formula_units_Z   4
loop_
 _symmetry_equiv_pos_site_id
 _symmetry_equiv_pos_as_xyz
  1  'x, y, z'
loop_
 _atom_site_type_symbol
 _atom_site_label
 _atom_site_symmetry_multiplicity
 _atom_site_fract_x
 _atom_site_fract_y
 _atom_site_fract_z
 _atom_site_occupancy
  Ta  Ta0  1  0.44148880  1.34724556  0.39095237  1.0
  Ta  Ta1  1  -0.05851120  0.84724556  0.10904763  1.0
  Ta  Ta2  1  0.34724556  1.44148880  0.60904763  1.0
  Ta  Ta3  1  -0.15275444  0.94148880  0.89095237  1.0
  Ta  Ta4  1  -0.34724556  0.55851120  0.39095237  1.0
  Ta  Ta5  1  0.15275444  1.05851120  0.10904763  1.0
  Ta  Ta6  1  -0.44148880  0.65275444  0.60904763  1.0
  Ta  Ta7  1  0.05851120  1.15275444  0.89095237  1.0
  Ta  Ta8  1  -0.11258648  1.11258648  0.07545902  1.0
  Ta  Ta9  1  0.38741352  0.61258648  0.42454098  1.0
  Ta  Ta10  1  0.11258648  0.88741352  0.92454098  1.0
  Ta  Ta11  1  -0.38741352  1.38741352  0.57545902  1.0
  Br  Br12  1  -0.41456091  1.16428848  0.47319855  1.0
  Br  Br13  1  0.08543909  0.66428848  0.02680145  1.0
  Br  Br14  1  0.16428848  0.58543909  0.52680145  1.0
  Br  Br15  1  -0.33571152  1.08543909  0.97319855  1.0
  Br  Br16  1  -0.16428848  1.41456091  0.47319855  1.0
  Br  Br17  1  0.33571152  0.91456091  0.02680145  1.0
  Br  Br18  1  0.41456091  0.83571152  0.52680145  1.0
  Br  Br19  1  -0.08543909  1.33571152  0.97319855  1.0
  Br  Br20  1  -0.22098297  0.97260420  0.23402992  1.0
  Br  Br21  1  0.27901703  1.47260420  0.26597008  1.0
  Br  Br22  1  -0.02739580  0.77901703  0.76597008  1.0
  Br  Br23  1  0.47260420  1.27901703  0.73402992  1.0
  Br  Br24  1  0.02739580  1.22098297  0.23402992  1.0
  Br  Br25  1  -0.47260420  0.72098297  0.26597008  1.0
  Br  Br26  1  0.22098297  1.02739580  0.76597008  1.0
  Br  Br27  1  -0.27901703  0.52739580  0.73402992  1.0
  Br  Br28  1  -0.38500444  1.38500444  0.23263904  1.0
  Br  Br29  1  0.11499556  0.88500444  0.26736096  1.0
  Br  Br30  1  0.38500444  0.61499556  0.76736096  1.0
  Br  Br31  1  -0.11499556  1.11499556  0.73263904  1.0
  Br  Br32  1  0.36939981  1.13060019  0.25000000  1.0
  Br  Br33  1  -0.13060019  0.63060019  0.25000000  1.0
  Br  Br34  1  0.13060019  1.36939981  0.75000000  1.0
  Br  Br35  1  -0.36939981  0.86939981  0.75000000  1.0
  Br  Br36  1  0.24303754  1.24303754  0.50000000  1.0
  Br  Br37  1  -0.25696246  0.74303754  0.00000000  1.0
  Br  Br38  1  -0.24303754  0.75696246  0.50000000  1.0
  Br  Br39  1  0.25696246  1.25696246  0.00000000  1.0
