# generated using pymatgen
data_HfGa2Co
_symmetry_space_group_name_H-M   'P 1'
_cell_length_a   9.57119693
_cell_length_b   9.57119693
_cell_length_c   9.57119693
_cell_angle_alpha   100.37566402
_cell_angle_beta   100.37566402
_cell_angle_gamma   129.77670427
_symmetry_Int_Tables_number   1
_chemical_formula_structural   HfGa2Co
_chemical_formula_sum   'Hf10 Ga20 Co10'
_cell_volume   610.16517385
_cell_formula_units_Z   10
loop_
 _symmetry_equiv_pos_site_id
 _symmetry_equiv_pos_as_xyz
  1  'x, y, z'
loop_
 _atom_site_type_symbol
 _atom_site_label
 _atom_site_symmetry_multiplicity
 _atom_site_fract_x
 _atom_site_fract_y
 _atom_site_fract_z
 _atom_site_occupancy
  Hf  Hf0  1  1.32403559  0.60452181  0.71951378  1.0
  Hf  Hf1  1  0.60452181  0.32403559  0.71951378  1.0
  Hf  Hf2  1  0.60452181  0.88500803  1.28048622  1.0
  Hf  Hf3  1  0.88500803  0.60452181  0.28048622  1.0
  Hf  Hf4  1  0.31598324  0.31598324  0.40075201  1.0
  Hf  Hf5  1  0.31598324  0.91523123  1.00000000  1.0
  Hf  Hf6  1  0.91523123  1.31598324  1.00000000  1.0
  Hf  Hf7  1  0.91523123  0.91523123  0.59924799  1.0
  Hf  Hf8  1  -0.00081330  -0.00081330  -0.00000000  1.0
  Hf  Hf9  1  0.53303192  0.53303192  0.00000000  1.0
  Ga  Ga10  1  0.72639885  0.51544701  0.50761646  1.0
  Ga  Ga11  1  0.72639885  1.21878239  1.21095184  1.0
  Ga  Ga12  1  1.51544701  1.72639885  1.50761646  1.0
  Ga  Ga13  1  1.51544701  1.00783055  0.78904816  1.0
  Ga  Ga14  1  1.00783055  0.51544701  0.78904816  1.0
  Ga  Ga15  1  1.00783055  1.21878239  1.49238354  1.0
  Ga  Ga16  1  1.21878239  1.72639885  1.21095184  1.0
  Ga  Ga17  1  1.21878239  1.00783055  0.49238354  1.0
  Ga  Ga18  1  1.11643766  0.27874975  0.83768791  1.0
  Ga  Ga19  1  1.27874975  1.11643766  0.83768791  1.0
  Ga  Ga20  1  1.27874975  1.44106183  1.16231209  1.0
  Ga  Ga21  1  0.44106184  0.27874975  0.16231209  1.0
  Ga  Ga22  1  0.74496371  0.12889221  0.61607150  1.0
  Ga  Ga23  1  1.12889221  0.74496371  0.61607150  1.0
  Ga  Ga24  1  1.12889221  1.51282070  1.38392850  1.0
  Ga  Ga25  1  0.51282070  0.12889221  0.38392850  1.0
  Ga  Ga26  1  0.64087755  0.64087755  0.73826370  1.0
  Ga  Ga27  1  0.64087755  0.90261385  1.00000000  1.0
  Ga  Ga28  1  0.90261385  1.64087755  1.00000000  1.0
  Ga  Ga29  1  0.90261385  0.90261385  0.26173630  1.0
  Co  Co30  1  1.75092941  0.96720539  0.78372402  1.0
  Co  Co31  1  0.96720539  0.75092941  0.78372402  1.0
  Co  Co32  1  0.96720539  1.18348137  1.21627598  1.0
  Co  Co33  1  1.18348137  0.96720539  0.21627598  1.0
  Co  Co34  1  0.62425181  0.62425181  0.32480808  1.0
  Co  Co35  1  0.62425181  1.29944373  1.00000000  1.0
  Co  Co36  1  1.29944373  1.62425181  1.00000000  1.0
  Co  Co37  1  1.29944373  1.29944373  0.67519192  1.0
  Co  Co38  1  0.87879217  0.37879217  0.50000000  1.0
  Co  Co39  1  1.37879217  0.87879217  0.50000000  1.0
