# generated using pymatgen
data_NaSn2(AsO4)3
_symmetry_space_group_name_H-M   'P 1'
_cell_length_a   9.39473139
_cell_length_b   9.39473139
_cell_length_c   9.39473139
_cell_angle_alpha   58.35353986
_cell_angle_beta   58.35353986
_cell_angle_gamma   58.35353986
_symmetry_Int_Tables_number   1
_chemical_formula_structural   NaSn2(AsO4)3
_chemical_formula_sum   'Na2 Sn4 As6 O24'
_cell_volume   564.22309083
_cell_formula_units_Z   2
loop_
 _symmetry_equiv_pos_site_id
 _symmetry_equiv_pos_as_xyz
  1  'x, y, z'
loop_
 _atom_site_type_symbol
 _atom_site_label
 _atom_site_symmetry_multiplicity
 _atom_site_fract_x
 _atom_site_fract_y
 _atom_site_fract_z
 _atom_site_occupancy
  Na  Na0  1  1.00000000  -0.00000000  -0.00000000  1.0
  Na  Na1  1  0.50000000  0.50000000  0.50000000  1.0
  Sn  Sn2  1  0.85556445  -0.14443555  -0.14443555  1.0
  Sn  Sn3  1  0.35556445  0.35556445  0.35556445  1.0
  Sn  Sn4  1  0.64443555  0.64443555  -0.35556445  1.0
  Sn  Sn5  1  1.14443555  0.14443555  0.14443555  1.0
  As  As6  1  0.46008097  0.75000000  0.03991903  1.0
  As  As7  1  0.96008097  -0.46008097  0.25000000  1.0
  As  As8  1  0.25000000  0.96008097  -0.46008097  1.0
  As  As9  1  0.75000000  1.03991903  -0.53991903  1.0
  As  As10  1  0.53991903  0.25000000  -0.03991903  1.0
  As  As11  1  1.03991903  0.46008097  -0.25000000  1.0
  O  O12  1  0.77857041  1.02163399  -0.36315187  1.0
  O  O13  1  1.27857041  0.13684813  -0.47836601  1.0
  O  O14  1  0.86315187  0.47836601  -0.27857041  1.0
  O  O15  1  0.36315187  0.22142959  -0.02163399  1.0
  O  O16  1  0.97836601  0.36315187  -0.77857041  1.0
  O  O17  1  0.47836601  0.72142959  -0.13684813  1.0
  O  O18  1  0.22142959  0.97836601  -0.63684813  1.0
  O  O19  1  0.72142959  0.86315187  -0.52163399  1.0
  O  O20  1  0.63684813  0.77857041  0.02163399  1.0
  O  O21  1  1.13684813  -0.47836601  0.27857041  1.0
  O  O22  1  0.52163399  0.27857041  0.13684813  1.0
  O  O23  1  1.02163399  0.63684813  -0.22142959  1.0
  O  O24  1  0.73592285  0.06990992  -0.05874199  1.0
  O  O25  1  1.23592285  0.44125801  -0.43009008  1.0
  O  O26  1  0.55874199  0.43009008  -0.23592285  1.0
  O  O27  1  1.05874199  0.26407715  -0.06990992  1.0
  O  O28  1  0.93009008  0.05874199  0.26407715  1.0
  O  O29  1  0.43009008  0.76407715  -0.44125801  1.0
  O  O30  1  1.26407715  -0.06990992  0.05874199  1.0
  O  O31  1  0.76407715  0.55874199  -0.56990992  1.0
  O  O32  1  0.94125801  -0.26407715  0.06990992  1.0
  O  O33  1  0.44125801  0.56990992  0.23592285  1.0
  O  O34  1  0.56990992  1.23592285  -0.55874199  1.0
  O  O35  1  1.06990992  -0.05874199  -0.26407715  1.0
