# generated using pymatgen
data_K6NbAs3O
_symmetry_space_group_name_H-M   'P 1'
_cell_length_a   11.15691892
_cell_length_b   11.15691892
_cell_length_c   11.15691892
_cell_angle_alpha   90.00000000
_cell_angle_beta   90.00000000
_cell_angle_gamma   90.00000000
_symmetry_Int_Tables_number   1
_chemical_formula_structural   K6NbAs3O
_chemical_formula_sum   'K24 Nb4 As12 O4'
_cell_volume   1388.77801066
_cell_formula_units_Z   4
loop_
 _symmetry_equiv_pos_site_id
 _symmetry_equiv_pos_as_xyz
  1  'x, y, z'
loop_
 _atom_site_type_symbol
 _atom_site_label
 _atom_site_symmetry_multiplicity
 _atom_site_fract_x
 _atom_site_fract_y
 _atom_site_fract_z
 _atom_site_occupancy
  K  K0  1  0.46580536  0.78137266  0.86548119  1.0
  K  K1  1  0.96580536  0.71862734  0.13451881  1.0
  K  K2  1  0.28137266  0.63451881  0.53419464  1.0
  K  K3  1  0.78137266  0.86548119  0.46580536  1.0
  K  K4  1  0.13451881  0.96580536  0.71862734  1.0
  K  K5  1  0.63451881  0.53419464  0.28137266  1.0
  K  K6  1  0.53419464  0.28137266  0.63451881  1.0
  K  K7  1  0.03419464  0.21862734  0.36548119  1.0
  K  K8  1  0.71862734  0.13451881  0.96580536  1.0
  K  K9  1  0.21862734  0.36548119  0.03419464  1.0
  K  K10  1  0.86548119  0.46580536  0.78137266  1.0
  K  K11  1  0.36548119  0.03419464  0.21862734  1.0
  K  K12  1  0.18061695  0.68061695  0.81938305  1.0
  K  K13  1  0.68061695  0.81938305  0.18061695  1.0
  K  K14  1  0.81938305  0.18061695  0.68061695  1.0
  K  K15  1  0.31938305  0.31938305  0.31938305  1.0
  K  K16  1  0.86902033  0.36902033  0.13097967  1.0
  K  K17  1  0.36902033  0.13097967  0.86902033  1.0
  K  K18  1  0.13097967  0.86902033  0.36902033  1.0
  K  K19  1  0.63097967  0.63097967  0.63097967  1.0
  K  K20  1  0.65877716  0.15877716  0.34122284  1.0
  K  K21  1  0.15877716  0.34122284  0.65877716  1.0
  K  K22  1  0.34122284  0.65877716  0.15877716  1.0
  K  K23  1  0.84122284  0.84122284  0.84122284  1.0
  Nb  Nb24  1  0.42830007  0.92830007  0.57169993  1.0
  Nb  Nb25  1  0.92830007  0.57169993  0.42830007  1.0
  Nb  Nb26  1  0.57169993  0.42830007  0.92830007  1.0
  Nb  Nb27  1  0.07169993  0.07169993  0.07169993  1.0
  As  As28  1  0.38892240  0.48008595  0.80356242  1.0
  As  As29  1  0.88892240  0.01991405  0.19643758  1.0
  As  As30  1  0.98008595  0.69643758  0.61107760  1.0
  As  As31  1  0.48008595  0.80356242  0.38892240  1.0
  As  As32  1  0.19643758  0.88892240  0.01991405  1.0
  As  As33  1  0.69643758  0.61107760  0.98008595  1.0
  As  As34  1  0.61107760  0.98008595  0.69643758  1.0
  As  As35  1  0.11107760  0.51991405  0.30356242  1.0
  As  As36  1  0.01991405  0.19643758  0.88892240  1.0
  As  As37  1  0.51991405  0.30356242  0.11107760  1.0
  As  As38  1  0.80356242  0.38892240  0.48008595  1.0
  As  As39  1  0.30356242  0.11107760  0.51991405  1.0
  O  O40  1  0.33351796  0.83351796  0.66648204  1.0
  O  O41  1  0.83351796  0.66648204  0.33351796  1.0
  O  O42  1  0.66648204  0.33351796  0.83351796  1.0
  O  O43  1  0.16648204  0.16648204  0.16648204  1.0
