# generated using pymatgen
data_Cs2LiInCl6
_symmetry_space_group_name_H-M   'P 1'
_cell_length_a   13.05219736
_cell_length_b   13.05219736
_cell_length_c   13.05219736
_cell_angle_alpha   33.25669286
_cell_angle_beta   33.25669286
_cell_angle_gamma   33.25669286
_symmetry_Int_Tables_number   1
_chemical_formula_structural   Cs2LiInCl6
_chemical_formula_sum   'Cs4 Li2 In2 Cl12'
_cell_volume   595.33375889
_cell_formula_units_Z   2
loop_
 _symmetry_equiv_pos_site_id
 _symmetry_equiv_pos_as_xyz
  1  'x, y, z'
loop_
 _atom_site_type_symbol
 _atom_site_label
 _atom_site_symmetry_multiplicity
 _atom_site_fract_x
 _atom_site_fract_y
 _atom_site_fract_z
 _atom_site_occupancy
  Cs  Cs0  1  0.79128976  0.79128976  0.79128976  1.0
  Cs  Cs1  1  1.20871024  1.20871024  0.20871024  1.0
  Cs  Cs2  1  1.62538043  0.62538043  0.62538043  1.0
  Cs  Cs3  1  1.37461957  0.37461957  0.37461957  1.0
  Li  Li4  1  0.91312542  0.91312542  0.91312542  1.0
  Li  Li5  1  1.08687458  1.08687458  0.08687458  1.0
  In  In6  1  1.50000000  0.50000000  0.50000000  1.0
  In  In7  1  0.00000000  0.00000000  0.00000000  1.0
  Cl  Cl8  1  1.29813260  0.29813260  0.78393722  1.0
  Cl  Cl9  1  1.29813260  0.78393722  0.29813260  1.0
  Cl  Cl10  1  1.21606278  0.70186740  0.70186740  1.0
  Cl  Cl11  1  1.70186740  0.21606278  0.70186740  1.0
  Cl  Cl12  1  1.70186740  0.70186740  0.21606278  1.0
  Cl  Cl13  1  1.78393722  0.29813260  0.29813260  1.0
  Cl  Cl14  1  1.11431405  1.11431405  0.64534878  1.0
  Cl  Cl15  1  1.11431405  1.64534878  0.11431405  1.0
  Cl  Cl16  1  1.35465122  0.88568595  -0.11431405  1.0
  Cl  Cl17  1  0.88568595  1.35465122  -0.11431405  1.0
  Cl  Cl18  1  0.88568595  0.88568595  0.35465122  1.0
  Cl  Cl19  1  1.64534878  1.11431405  0.11431405  1.0
