# generated using pymatgen
data_Ir3C7
_symmetry_space_group_name_H-M   'P 1'
_cell_length_a   6.20814716
_cell_length_b   6.20814716
_cell_length_c   6.20814716
_cell_angle_alpha   109.47122063
_cell_angle_beta   109.47122063
_cell_angle_gamma   109.47122063
_symmetry_Int_Tables_number   1
_chemical_formula_structural   Ir3C7
_chemical_formula_sum   'Ir6 C14'
_cell_volume   184.18918161
_cell_formula_units_Z   2
loop_
 _symmetry_equiv_pos_site_id
 _symmetry_equiv_pos_as_xyz
  1  'x, y, z'
loop_
 _atom_site_type_symbol
 _atom_site_label
 _atom_site_symmetry_multiplicity
 _atom_site_fract_x
 _atom_site_fract_y
 _atom_site_fract_z
 _atom_site_occupancy
  Ir  Ir0  1  0.67364844  0.67364844  0.00000000  1.0
  Ir  Ir1  1  0.32635156  -0.00000000  0.32635156  1.0
  Ir  Ir2  1  0.00000000  0.32635156  0.32635156  1.0
  Ir  Ir3  1  0.32635156  0.32635156  -0.00000000  1.0
  Ir  Ir4  1  0.67364844  -0.00000000  0.67364844  1.0
  Ir  Ir5  1  0.00000000  0.67364844  0.67364844  1.0
  C  C6  1  0.75000000  1.25000000  0.50000000  1.0
  C  C7  1  0.75000000  0.50000000  0.25000000  1.0
  C  C8  1  0.50000000  0.25000000  0.75000000  1.0
  C  C9  1  0.25000000  0.50000000  0.75000000  1.0
  C  C10  1  1.25000000  0.75000000  0.50000000  1.0
  C  C11  1  0.50000000  0.75000000  0.25000000  1.0
  C  C12  1  1.00000000  1.00000000  0.38041097  1.0
  C  C13  1  1.00000000  1.38041097  1.00000000  1.0
  C  C14  1  1.38041097  1.00000000  1.00000000  1.0
  C  C15  1  0.61958903  0.61958903  0.61958903  1.0
  C  C16  1  1.00000000  1.00000000  0.61958903  1.0
  C  C17  1  1.00000000  1.61958903  1.00000000  1.0
  C  C18  1  1.61958903  1.00000000  1.00000000  1.0
  C  C19  1  0.38041097  0.38041097  0.38041097  1.0
