# generated using pymatgen
data_Cr2FeO4
_symmetry_space_group_name_H-M   'P 1'
_cell_length_a   9.24017347
_cell_length_b   2.98077240
_cell_length_c   10.64978313
_cell_angle_alpha   90.00000000
_cell_angle_beta   90.00000000
_cell_angle_gamma   90.00000000
_symmetry_Int_Tables_number   1
_chemical_formula_structural   Cr2FeO4
_chemical_formula_sum   'Cr8 Fe4 O16'
_cell_volume   293.32542293
_cell_formula_units_Z   4
loop_
 _symmetry_equiv_pos_site_id
 _symmetry_equiv_pos_as_xyz
  1  'x, y, z'
loop_
 _atom_site_type_symbol
 _atom_site_label
 _atom_site_symmetry_multiplicity
 _atom_site_fract_x
 _atom_site_fract_y
 _atom_site_fract_z
 _atom_site_occupancy
  Cr  Cr0  1  0.95116440  0.75000000  0.61912416  1.0
  Cr  Cr1  1  0.45116440  0.75000000  0.88087584  1.0
  Cr  Cr2  1  0.04883560  0.25000000  0.38087584  1.0
  Cr  Cr3  1  0.54883560  0.25000000  0.11912416  1.0
  Cr  Cr4  1  0.90600992  0.75000000  0.09639385  1.0
  Cr  Cr5  1  0.40600992  0.75000000  0.40360615  1.0
  Cr  Cr6  1  0.09399008  0.25000000  0.90360615  1.0
  Cr  Cr7  1  0.59399008  0.25000000  0.59639385  1.0
  Fe  Fe8  1  0.74622675  0.75000000  0.33134560  1.0
  Fe  Fe9  1  0.24622675  0.75000000  0.16865440  1.0
  Fe  Fe10  1  0.25377325  0.25000000  0.66865440  1.0
  Fe  Fe11  1  0.75377325  0.25000000  0.83134560  1.0
  O  O12  1  0.91737197  0.75000000  0.43308636  1.0
  O  O13  1  0.41737197  0.75000000  0.06691364  1.0
  O  O14  1  0.08262803  0.25000000  0.56691364  1.0
  O  O15  1  0.58262803  0.25000000  0.93308636  1.0
  O  O16  1  0.68992596  0.75000000  0.15628450  1.0
  O  O17  1  0.18992596  0.75000000  0.34371550  1.0
  O  O18  1  0.31007404  0.25000000  0.84371550  1.0
  O  O19  1  0.81007404  0.25000000  0.65628450  1.0
  O  O20  1  0.61057319  0.75000000  0.46831201  1.0
  O  O21  1  0.11057319  0.75000000  0.03168799  1.0
  O  O22  1  0.38942681  0.25000000  0.53168799  1.0
  O  O23  1  0.88942681  0.25000000  0.96831201  1.0
  O  O24  1  0.56200662  0.75000000  0.71719316  1.0
  O  O25  1  0.06200662  0.75000000  0.78280684  1.0
  O  O26  1  0.43799338  0.25000000  0.28280684  1.0
  O  O27  1  0.93799338  0.25000000  0.21719316  1.0
