# generated using pymatgen
data_RbGeBiS4
_symmetry_space_group_name_H-M   'P 1'
_cell_length_a   6.72473683
_cell_length_b   6.93781379
_cell_length_c   18.27319556
_cell_angle_alpha   90.00000000
_cell_angle_beta   107.56015942
_cell_angle_gamma   90.00000000
_symmetry_Int_Tables_number   1
_chemical_formula_structural   RbGeBiS4
_chemical_formula_sum   'Rb4 Ge4 Bi4 S16'
_cell_volume   812.80786320
_cell_formula_units_Z   4
loop_
 _symmetry_equiv_pos_site_id
 _symmetry_equiv_pos_as_xyz
  1  'x, y, z'
loop_
 _atom_site_type_symbol
 _atom_site_label
 _atom_site_symmetry_multiplicity
 _atom_site_fract_x
 _atom_site_fract_y
 _atom_site_fract_z
 _atom_site_occupancy
  Rb  Rb0  1  0.72051104  0.75472323  0.46605364  1.0
  Rb  Rb1  1  0.72051104  0.74527677  0.96605364  1.0
  Rb  Rb2  1  0.27948896  0.25472323  0.03394636  1.0
  Rb  Rb3  1  0.27948896  0.24527677  0.53394636  1.0
  Ge  Ge4  1  0.78848715  0.23187318  0.33898154  1.0
  Ge  Ge5  1  0.78848715  0.26812682  0.83898154  1.0
  Ge  Ge6  1  0.21151285  0.73187318  0.16101846  1.0
  Ge  Ge7  1  0.21151285  0.76812682  0.66101846  1.0
  Bi  Bi8  1  0.76297584  0.80695228  0.22201468  1.0
  Bi  Bi9  1  0.76297584  0.69304772  0.72201468  1.0
  Bi  Bi10  1  0.23702416  0.30695228  0.27798532  1.0
  Bi  Bi11  1  0.23702416  0.19304772  0.77798532  1.0
  S  S12  1  -0.00794883  0.49292795  0.35133525  1.0
  S  S13  1  -0.00794883  0.00707205  0.85133525  1.0
  S  S14  1  1.00794883  0.99292795  0.14866475  1.0
  S  S15  1  1.00794883  0.50707205  0.64866475  1.0
  S  S16  1  0.98843908  0.48790499  0.13633861  1.0
  S  S17  1  0.98843908  0.01209501  0.63633861  1.0
  S  S18  1  0.01156092  0.98790499  0.36366139  1.0
  S  S19  1  0.01156092  0.51209501  0.86366139  1.0
  S  S20  1  0.58630832  0.16865288  0.21806073  1.0
  S  S21  1  0.58630832  0.33134712  0.71806073  1.0
  S  S22  1  0.41369168  0.66865288  0.28193927  1.0
  S  S23  1  0.41369168  0.83134712  0.78193927  1.0
  S  S24  1  0.57844813  0.25835249  0.41198530  1.0
  S  S25  1  0.57844813  0.24164751  0.91198530  1.0
  S  S26  1  0.42155187  0.75835249  0.08801470  1.0
  S  S27  1  0.42155187  0.74164751  0.58801470  1.0
