# generated using pymatgen
data_ZnS
_symmetry_space_group_name_H-M   'P 1'
_cell_length_a   3.84988732
_cell_length_b   3.84988732
_cell_length_c   62.92084881
_cell_angle_alpha   90.00000000
_cell_angle_beta   90.00000000
_cell_angle_gamma   120.00000000
_symmetry_Int_Tables_number   1
_chemical_formula_structural   ZnS
_chemical_formula_sum   'Zn20 S20'
_cell_volume   807.64636365
_cell_formula_units_Z   20
loop_
 _symmetry_equiv_pos_site_id
 _symmetry_equiv_pos_as_xyz
  1  'x, y, z'
loop_
 _atom_site_type_symbol
 _atom_site_label
 _atom_site_symmetry_multiplicity
 _atom_site_fract_x
 _atom_site_fract_y
 _atom_site_fract_z
 _atom_site_occupancy
  Zn  Zn0  1  0.00000000  0.00000000  0.04999735  1.0
  Zn  Zn1  1  0.00000000  0.00000000  0.19998973  1.0
  Zn  Zn2  1  0.00000000  0.00000000  0.40000433  1.0
  Zn  Zn3  1  0.00000000  0.00000000  0.54998971  1.0
  Zn  Zn4  1  0.00000000  0.00000000  0.75000439  1.0
  Zn  Zn5  1  0.00000000  0.00000000  0.89999560  1.0
  Zn  Zn6  1  0.66666667  0.33333333  0.15000465  1.0
  Zn  Zn7  1  0.66666667  0.33333333  0.29999665  1.0
  Zn  Zn8  1  0.66666667  0.33333333  0.44999741  1.0
  Zn  Zn9  1  0.66666667  0.33333333  0.59995501  1.0
  Zn  Zn10  1  0.66666667  0.33333333  0.70003351  1.0
  Zn  Zn11  1  0.66666667  0.33333333  0.84995519  1.0
  Zn  Zn12  1  0.66666667  0.33333333  0.95002573  1.0
  Zn  Zn13  1  0.33333333  0.66666667  -0.00003681  1.0
  Zn  Zn14  1  0.33333333  0.66666667  0.10003401  1.0
  Zn  Zn15  1  0.33333333  0.66666667  0.24995530  1.0
  Zn  Zn16  1  0.33333333  0.66666667  0.35003334  1.0
  Zn  Zn17  1  0.33333333  0.66666667  0.49999648  1.0
  Zn  Zn18  1  0.33333333  0.66666667  0.64999619  1.0
  Zn  Zn19  1  0.33333333  0.66666667  0.79998966  1.0
  S  S20  1  0.00000000  0.00000000  0.01245726  1.0
  S  S21  1  -0.00000000  -0.00000000  0.16250386  1.0
  S  S22  1  0.00000000  0.00000000  0.36252092  1.0
  S  S23  1  -0.00000000  -0.00000000  0.51250088  1.0
  S  S24  1  0.00000000  0.00000000  0.71252182  1.0
  S  S25  1  -0.00000000  -0.00000000  0.86245414  1.0
  S  S26  1  0.66666667  0.33333333  0.11252202  1.0
  S  S27  1  0.66666667  0.33333333  0.26245434  1.0
  S  S28  1  0.66666667  0.33333333  0.41250699  1.0
  S  S29  1  0.66666667  0.33333333  0.56248362  1.0
  S  S30  1  0.66666667  0.33333333  0.66255695  1.0
  S  S31  1  0.66666667  0.33333333  0.81248456  1.0
  S  S32  1  0.66666667  0.33333333  0.91255325  1.0
  S  S33  1  0.33333333  0.66666667  0.06255752  1.0
  S  S34  1  0.33333333  0.66666667  0.21248471  1.0
  S  S35  1  0.33333333  0.66666667  0.31255634  1.0
  S  S36  1  0.33333333  0.66666667  0.46250454  1.0
  S  S37  1  0.33333333  0.66666667  0.61245373  1.0
  S  S38  1  0.33333333  0.66666667  0.76250370  1.0
  S  S39  1  0.33333333  0.66666667  0.96250143  1.0
