# generated using pymatgen
data_Ni(BW)2
_symmetry_space_group_name_H-M   'P 1'
_cell_length_a   4.51376495
_cell_length_b   4.51376495
_cell_length_c   4.51376495
_cell_angle_alpha   138.43903020
_cell_angle_beta   119.19034583
_cell_angle_gamma   76.35161936
_symmetry_Int_Tables_number   1
_chemical_formula_structural   Ni(BW)2
_chemical_formula_sum   'Ni1 B2 W2'
_cell_volume   51.92493231
_cell_formula_units_Z   1
loop_
 _symmetry_equiv_pos_site_id
 _symmetry_equiv_pos_as_xyz
  1  'x, y, z'
loop_
 _atom_site_type_symbol
 _atom_site_label
 _atom_site_symmetry_multiplicity
 _atom_site_fract_x
 _atom_site_fract_y
 _atom_site_fract_z
 _atom_site_occupancy
  Ni  Ni0  1  0.00000000  0.00000000  0.00000000  1.0
  B  B1  1  0.29755973  0.50000000  0.79755973  1.0
  B  B2  1  0.70244027  0.50000000  1.20244027  1.0
  W  W3  1  0.70042776  0.20042776  0.50000000  1.0
  W  W4  1  1.29957224  0.79957224  0.50000000  1.0
