# generated using pymatgen
data_NaMg2H3(SO4)2
_symmetry_space_group_name_H-M   'P 1'
_cell_length_a   6.38042812
_cell_length_b   9.07291617
_cell_length_c   7.88171340
_cell_angle_alpha   64.74272162
_cell_angle_beta   67.37103168
_cell_angle_gamma   68.44526856
_symmetry_Int_Tables_number   1
_chemical_formula_structural   NaMg2H3(SO4)2
_chemical_formula_sum   'Na2 Mg4 H6 S4 O16'
_cell_volume   369.42100118
_cell_formula_units_Z   2
loop_
 _symmetry_equiv_pos_site_id
 _symmetry_equiv_pos_as_xyz
  1  'x, y, z'
loop_
 _atom_site_type_symbol
 _atom_site_label
 _atom_site_symmetry_multiplicity
 _atom_site_fract_x
 _atom_site_fract_y
 _atom_site_fract_z
 _atom_site_occupancy
  Na  Na0  1  -0.15095606  0.58908654  -0.82935328  1.0
  Na  Na1  1  0.15095606  0.41091346  -0.17064672  1.0
  Mg  Mg2  1  0.50530544  0.31056165  -0.82534523  1.0
  Mg  Mg3  1  -0.50530544  0.68943835  -0.17465477  1.0
  Mg  Mg4  1  0.50000000  0.00000000  -0.00000000  1.0
  Mg  Mg5  1  0.00000000  0.00000000  0.00000000  1.0
  H  H6  1  -0.21770703  0.76736374  -0.56107530  1.0
  H  H7  1  0.21770703  0.23263626  -0.43892470  1.0
  H  H8  1  -0.61503473  0.99992046  -0.28210322  1.0
  H  H9  1  0.61503473  0.00007954  -0.71789678  1.0
  H  H10  1  -0.46901584  0.76832009  -0.55915956  1.0
  H  H11  1  0.46901584  0.23167991  -0.44084044  1.0
  S  S12  1  0.28002410  0.65889298  -0.70421264  1.0
  S  S13  1  -0.28002410  0.34110702  -0.29578736  1.0
  S  S14  1  -0.03487631  0.79760428  -0.25498999  1.0
  S  S15  1  0.03487631  0.20239572  -0.74501001  1.0
  O  O16  1  0.39783136  0.57447092  -0.86485433  1.0
  O  O17  1  -0.39783136  0.42552908  -0.13514567  1.0
  O  O18  1  0.20790897  0.68963167  -0.23096817  1.0
  O  O19  1  -0.20790897  0.31036833  -0.76903183  1.0
  O  O20  1  0.04775721  0.77744983  -0.75202001  1.0
  O  O21  1  -0.04775721  0.22255017  -0.24797999  1.0
  O  O22  1  -0.14225054  0.87454355  -0.08474736  1.0
  O  O23  1  0.14225054  0.12545645  -0.91525264  1.0
  O  O24  1  0.64028263  0.07250791  -0.85432748  1.0
  O  O25  1  -0.64028263  0.92749209  -0.14567252  1.0
  O  O26  1  0.16914336  0.34036411  -0.82267106  1.0
  O  O27  1  -0.16914336  0.65963589  -0.17732894  1.0
  O  O28  1  -0.38493291  0.78115654  -0.48531317  1.0
  O  O29  1  0.38493291  0.21884346  -0.51468683  1.0
  O  O30  1  -0.55723660  0.77292368  -0.75390894  1.0
  O  O31  1  0.55723660  0.22707632  -0.24609106  1.0
