# generated using pymatgen
data_As2PHBr3F11
_symmetry_space_group_name_H-M   'P 1'
_cell_length_a   6.43253783
_cell_length_b   9.27613075
_cell_length_c   12.46914228
_cell_angle_alpha   90.00000000
_cell_angle_beta   93.75064668
_cell_angle_gamma   90.00000000
_symmetry_Int_Tables_number   1
_chemical_formula_structural   As2PHBr3F11
_chemical_formula_sum   'As4 P2 H2 Br6 F22'
_cell_volume   742.42846622
_cell_formula_units_Z   2
loop_
 _symmetry_equiv_pos_site_id
 _symmetry_equiv_pos_as_xyz
  1  'x, y, z'
loop_
 _atom_site_type_symbol
 _atom_site_label
 _atom_site_symmetry_multiplicity
 _atom_site_fract_x
 _atom_site_fract_y
 _atom_site_fract_z
 _atom_site_occupancy
  As  As0  1  0.88952739  0.75000000  0.89591524  1.0
  As  As1  1  0.11047261  0.25000000  0.10408476  1.0
  As  As2  1  0.81377771  0.75000000  0.59221395  1.0
  As  As3  1  0.18622229  0.25000000  0.40778605  1.0
  P  P4  1  0.45971851  0.75000000  0.20237438  1.0
  P  P5  1  0.54028149  0.25000000  0.79762562  1.0
  H  H6  1  0.33579627  0.75000000  0.10427581  1.0
  H  H7  1  0.66420373  0.25000000  0.89572419  1.0
  Br  Br8  1  0.64752383  0.94099032  0.20667364  1.0
  Br  Br9  1  0.64752383  0.55900968  0.20667364  1.0
  Br  Br10  1  0.35247617  0.44099032  0.79332636  1.0
  Br  Br11  1  0.35247617  0.05900968  0.79332636  1.0
  Br  Br12  1  0.24879859  0.75000000  0.32843788  1.0
  Br  Br13  1  0.75120141  0.25000000  0.67156212  1.0
  F  F14  1  1.00158147  0.88487379  0.62670417  1.0
  F  F15  1  1.00158147  0.61512621  0.62670417  1.0
  F  F16  1  -0.00158147  0.38487379  0.37329583  1.0
  F  F17  1  -0.00158147  0.11512621  0.37329583  1.0
  F  F18  1  0.88215097  0.94126616  0.88741036  1.0
  F  F19  1  0.88215097  0.55873384  0.88741036  1.0
  F  F20  1  0.11784903  0.44126616  0.11258964  1.0
  F  F21  1  0.11784903  0.05873384  0.11258964  1.0
  F  F22  1  0.61803702  0.88435157  0.58182074  1.0
  F  F23  1  0.61803702  0.61564843  0.58182074  1.0
  F  F24  1  0.38196298  0.38435157  0.41817926  1.0
  F  F25  1  0.38196298  0.11564843  0.41817926  1.0
  F  F26  1  1.00863553  0.75000000  0.02868019  1.0
  F  F27  1  -0.00863553  0.25000000  0.97131981  1.0
  F  F28  1  0.85845623  0.75000000  0.45371908  1.0
  F  F29  1  0.14154377  0.25000000  0.54628092  1.0
  F  F30  1  0.75078018  0.75000000  0.75275111  1.0
  F  F31  1  0.24921982  0.25000000  0.24724889  1.0
  F  F32  1  0.63330651  0.75000000  0.94263583  1.0
  F  F33  1  0.36669349  0.25000000  0.05736417  1.0
  F  F34  1  0.13546397  0.75000000  0.83770593  1.0
  F  F35  1  0.86453603  0.25000000  0.16229407  1.0
