# generated using pymatgen
data_K2SrTa2O7
_symmetry_space_group_name_H-M   'P 1'
_cell_length_a   11.36860673
_cell_length_b   11.36860673
_cell_length_c   11.36860673
_cell_angle_alpha   159.68077455
_cell_angle_beta   159.68077455
_cell_angle_gamma   28.89046553
_symmetry_Int_Tables_number   1
_chemical_formula_structural   K2SrTa2O7
_chemical_formula_sum   'K2 Sr1 Ta2 O7'
_cell_volume   177.08551517
_cell_formula_units_Z   1
loop_
 _symmetry_equiv_pos_site_id
 _symmetry_equiv_pos_as_xyz
  1  'x, y, z'
loop_
 _atom_site_type_symbol
 _atom_site_label
 _atom_site_symmetry_multiplicity
 _atom_site_fract_x
 _atom_site_fract_y
 _atom_site_fract_z
 _atom_site_occupancy
  K  K0  1  0.69337767  0.69337767  1.00000000  1.0
  K  K1  1  0.30662233  0.30662233  -0.00000000  1.0
  Sr  Sr2  1  0.50000000  0.50000000  1.00000000  1.0
  Ta  Ta3  1  0.90385524  0.90385524  1.00000000  1.0
  Ta  Ta4  1  0.09614476  0.09614476  -0.00000000  1.0
  O  O5  1  0.41259565  0.91259565  0.50000000  1.0
  O  O6  1  0.58740435  0.08740435  0.50000000  1.0
  O  O7  1  0.91259565  0.41259565  0.50000000  1.0
  O  O8  1  0.08740435  0.58740435  0.50000000  1.0
  O  O9  1  0.81888377  0.81888377  1.00000000  1.0
  O  O10  1  0.18111623  0.18111623  -0.00000000  1.0
  O  O11  1  0.00000000  0.00000000  0.00000000  1.0
