# generated using pymatgen
data_LiGdO2
_symmetry_space_group_name_H-M   'P 1'
_cell_length_a   11.44219767
_cell_length_b   3.45595245
_cell_length_c   5.34936912
_cell_angle_alpha   90.00000000
_cell_angle_beta   90.00000000
_cell_angle_gamma   90.00000000
_symmetry_Int_Tables_number   1
_chemical_formula_structural   LiGdO2
_chemical_formula_sum   'Li4 Gd4 O8'
_cell_volume   211.53380002
_cell_formula_units_Z   4
loop_
 _symmetry_equiv_pos_site_id
 _symmetry_equiv_pos_as_xyz
  1  'x, y, z'
loop_
 _atom_site_type_symbol
 _atom_site_label
 _atom_site_symmetry_multiplicity
 _atom_site_fract_x
 _atom_site_fract_y
 _atom_site_fract_z
 _atom_site_occupancy
  Li  Li0  1  0.43460640  0.25000000  -0.09542900  1.0
  Li  Li1  1  0.93460640  0.25000000  0.59542900  1.0
  Li  Li2  1  0.56539360  0.75000000  1.09542900  1.0
  Li  Li3  1  0.06539360  0.75000000  0.40457100  1.0
  Gd  Gd4  1  0.64040054  0.25000000  0.54457016  1.0
  Gd  Gd5  1  0.14040054  0.25000000  -0.04457016  1.0
  Gd  Gd6  1  0.35959946  0.75000000  0.45542984  1.0
  Gd  Gd7  1  0.85959946  0.75000000  1.04457016  1.0
  O  O8  1  0.29792151  0.25000000  0.70036530  1.0
  O  O9  1  0.79792151  0.25000000  0.79963470  1.0
  O  O10  1  0.70207849  0.75000000  0.29963470  1.0
  O  O11  1  0.20207849  0.75000000  0.20036530  1.0
  O  O12  1  0.47271338  0.25000000  0.25542533  1.0
  O  O13  1  0.97271338  0.25000000  0.24457467  1.0
  O  O14  1  0.52728662  0.75000000  0.74457467  1.0
  O  O15  1  0.02728662  0.75000000  0.75542533  1.0
