# generated using pymatgen
data_TbB4
_symmetry_space_group_name_H-M   'P 1'
_cell_length_a   8.46017857
_cell_length_b   8.46017857
_cell_length_c   4.19499343
_cell_angle_alpha   90.00000000
_cell_angle_beta   90.00000000
_cell_angle_gamma   90.00000000
_symmetry_Int_Tables_number   1
_chemical_formula_structural   TbB4
_chemical_formula_sum   'Tb4 B16'
_cell_volume   300.25506655
_cell_formula_units_Z   4
loop_
 _symmetry_equiv_pos_site_id
 _symmetry_equiv_pos_as_xyz
  1  'x, y, z'
loop_
 _atom_site_type_symbol
 _atom_site_label
 _atom_site_symmetry_multiplicity
 _atom_site_fract_x
 _atom_site_fract_y
 _atom_site_fract_z
 _atom_site_occupancy
  Tb  Tb0  1  0.35990308  0.85990308  -0.00000000  1.0
  Tb  Tb1  1  0.14009692  0.35990308  0.00000000  1.0
  Tb  Tb2  1  0.64009692  0.14009692  -0.00000000  1.0
  Tb  Tb3  1  0.85990308  0.64009692  0.00000000  1.0
  B  B4  1  0.00000000  0.00000000  0.30756477  1.0
  B  B5  1  0.50000000  0.50000000  0.69243523  1.0
  B  B6  1  0.00000000  0.00000000  0.69243523  1.0
  B  B7  1  0.50000000  0.50000000  0.30756477  1.0
  B  B8  1  0.06452667  0.56452667  0.50000000  1.0
  B  B9  1  0.43547333  0.06452667  0.50000000  1.0
  B  B10  1  0.93547333  0.43547333  0.50000000  1.0
  B  B11  1  0.56452667  0.93547333  0.50000000  1.0
  B  B12  1  0.12969611  0.05392370  0.00000000  1.0
  B  B13  1  0.94607630  0.12969611  -0.00000000  1.0
  B  B14  1  0.87030389  0.94607630  0.00000000  1.0
  B  B15  1  0.05392370  0.87030389  -0.00000000  1.0
  B  B16  1  0.62969611  0.44607630  0.00000000  1.0
  B  B17  1  0.55392370  0.62969611  0.00000000  1.0
  B  B18  1  0.37030389  0.55392370  0.00000000  1.0
  B  B19  1  0.44607630  0.37030389  0.00000000  1.0
