# generated using pymatgen
data_Cs2HfCu3F12
_symmetry_space_group_name_H-M   'P 1'
_cell_length_a   8.24807474
_cell_length_b   8.24807474
_cell_length_c   8.24807474
_cell_angle_alpha   52.06689362
_cell_angle_beta   52.06689362
_cell_angle_gamma   52.06689362
_symmetry_Int_Tables_number   1
_chemical_formula_structural   Cs2HfCu3F12
_chemical_formula_sum   'Cs2 Hf1 Cu3 F12'
_cell_volume   322.78437300
_cell_formula_units_Z   1
loop_
 _symmetry_equiv_pos_site_id
 _symmetry_equiv_pos_as_xyz
  1  'x, y, z'
loop_
 _atom_site_type_symbol
 _atom_site_label
 _atom_site_symmetry_multiplicity
 _atom_site_fract_x
 _atom_site_fract_y
 _atom_site_fract_z
 _atom_site_occupancy
  Cs  Cs0  1  0.89386472  0.89386472  0.89386472  1.0
  Cs  Cs1  1  1.10613528  1.10613528  0.10613528  1.0
  Hf  Hf2  1  1.50000000  0.50000000  0.50000000  1.0
  Cu  Cu3  1  0.50000000  0.00000000  -0.50000000  1.0
  Cu  Cu4  1  0.50000000  -0.50000000  0.00000000  1.0
  Cu  Cu5  1  0.00000000  0.50000000  -0.50000000  1.0
  F  F6  1  1.19339132  1.19339132  0.57419151  1.0
  F  F7  1  1.19339132  1.57419151  0.19339132  1.0
  F  F8  1  1.42580849  0.80660868  -0.19339132  1.0
  F  F9  1  0.80660868  1.42580849  -0.19339132  1.0
  F  F10  1  0.80660868  0.80660868  0.42580849  1.0
  F  F11  1  1.57419151  1.19339132  0.19339132  1.0
  F  F12  1  1.41898920  0.41898920  0.81973975  1.0
  F  F13  1  1.41898920  0.81973975  0.41898920  1.0
  F  F14  1  1.18026025  0.58101080  0.58101080  1.0
  F  F15  1  1.58101080  0.18026025  0.58101080  1.0
  F  F16  1  1.58101080  0.58101080  0.18026025  1.0
  F  F17  1  1.81973975  0.41898920  0.41898920  1.0
