# generated using pymatgen
data_C6I2F3
_symmetry_space_group_name_H-M   'P 1'
_cell_length_a   7.72160691
_cell_length_b   23.78376644
_cell_length_c   5.34976543
_cell_angle_alpha   90.00000000
_cell_angle_beta   90.00000000
_cell_angle_gamma   90.00000000
_symmetry_Int_Tables_number   1
_chemical_formula_structural   C6I2F3
_chemical_formula_sum   'C24 I8 F12'
_cell_volume   982.47851154
_cell_formula_units_Z   4
loop_
 _symmetry_equiv_pos_site_id
 _symmetry_equiv_pos_as_xyz
  1  'x, y, z'
loop_
 _atom_site_type_symbol
 _atom_site_label
 _atom_site_symmetry_multiplicity
 _atom_site_fract_x
 _atom_site_fract_y
 _atom_site_fract_z
 _atom_site_occupancy
  C  C0  1  0.87228231  0.85678042  0.33849566  1.0
  C  C1  1  0.12771769  0.14321958  0.33849566  1.0
  C  C2  1  0.37228231  0.64321958  0.66150434  1.0
  C  C3  1  0.62771769  0.35678042  0.66150434  1.0
  C  C4  1  0.77091466  0.89612974  0.46477118  1.0
  C  C5  1  0.22908534  0.10387026  0.46477118  1.0
  C  C6  1  0.27091466  0.60387026  0.53522882  1.0
  C  C7  1  0.72908534  0.39612974  0.53522882  1.0
  C  C8  1  0.82386837  0.95217604  0.45601097  1.0
  C  C9  1  0.17613163  0.04782396  0.45601097  1.0
  C  C10  1  0.32386837  0.54782396  0.54398903  1.0
  C  C11  1  0.67613163  0.45217604  0.54398903  1.0
  C  C12  1  0.97310148  0.97007468  0.33034877  1.0
  C  C13  1  0.02689852  0.02992532  0.33034877  1.0
  C  C14  1  0.47310148  0.52992532  0.66965123  1.0
  C  C15  1  0.52689852  0.47007468  0.66965123  1.0
  C  C16  1  0.06968037  0.92846379  0.20866833  1.0
  C  C17  1  0.93031963  0.07153621  0.20866833  1.0
  C  C18  1  0.56968037  0.57153621  0.79133167  1.0
  C  C19  1  0.43031963  0.42846379  0.79133167  1.0
  C  C20  1  0.02200252  0.87188870  0.20852963  1.0
  C  C21  1  0.97799748  0.12811130  0.20852963  1.0
  C  C22  1  0.52200252  0.62811130  0.79147037  1.0
  C  C23  1  0.47799748  0.37188870  0.79147037  1.0
  I  I24  1  0.54925317  0.87217011  0.66766758  1.0
  I  I25  1  0.45074683  0.12782989  0.66766758  1.0
  I  I26  1  0.04925317  0.62782989  0.33233242  1.0
  I  I27  1  0.95074683  0.37217011  0.33233242  1.0
  I  I28  1  0.16821001  0.81094873  0.01799781  1.0
  I  I29  1  0.83178999  0.18905127  0.01799781  1.0
  I  I30  1  0.66821001  0.68905127  0.98200219  1.0
  I  I31  1  0.33178999  0.31094873  0.98200219  1.0
  F  F32  1  0.82443607  0.80210281  0.34259532  1.0
  F  F33  1  0.17556393  0.19789719  0.34259532  1.0
  F  F34  1  0.32443607  0.69789719  0.65740468  1.0
  F  F35  1  0.67556393  0.30210281  0.65740468  1.0
  F  F36  1  0.72930494  0.99128548  0.57745119  1.0
  F  F37  1  0.27069506  0.00871452  0.57745119  1.0
  F  F38  1  0.22930494  0.50871452  0.42254881  1.0
  F  F39  1  0.77069506  0.49128548  0.42254881  1.0
  F  F40  1  0.21379579  0.94424741  0.08421992  1.0
  F  F41  1  0.78620421  0.05575259  0.08421992  1.0
  F  F42  1  0.71379579  0.55575259  0.91578008  1.0
  F  F43  1  0.28620421  0.44424741  0.91578008  1.0
