# generated using pymatgen
data_LaNi9Ge4
_symmetry_space_group_name_H-M   'P 1'
_cell_length_a   8.17734712
_cell_length_b   8.17734712
_cell_length_c   8.17734712
_cell_angle_alpha   121.39316616
_cell_angle_beta   121.39316616
_cell_angle_gamma   87.60344126
_symmetry_Int_Tables_number   1
_chemical_formula_structural   LaNi9Ge4
_chemical_formula_sum   'La2 Ni18 Ge8'
_cell_volume   378.15236008
_cell_formula_units_Z   2
loop_
 _symmetry_equiv_pos_site_id
 _symmetry_equiv_pos_as_xyz
  1  'x, y, z'
loop_
 _atom_site_type_symbol
 _atom_site_label
 _atom_site_symmetry_multiplicity
 _atom_site_fract_x
 _atom_site_fract_y
 _atom_site_fract_z
 _atom_site_occupancy
  La  La0  1  0.75000000  0.75000000  1.00000000  1.0
  La  La1  1  0.25000000  0.25000000  -0.00000000  1.0
  Ni  Ni2  1  0.50000000  -0.00000000  0.50000000  1.0
  Ni  Ni3  1  0.00000000  0.50000000  0.50000000  1.0
  Ni  Ni4  1  0.79529912  0.93279965  1.72809877  1.0
  Ni  Ni5  1  0.70470088  0.43279965  1.13750053  1.0
  Ni  Ni6  1  0.43279965  0.29529912  0.72809877  1.0
  Ni  Ni7  1  0.06720035  0.79529912  0.86249947  1.0
  Ni  Ni8  1  0.29529912  0.56720035  0.86249947  1.0
  Ni  Ni9  1  0.20470088  0.06720035  0.27190123  1.0
  Ni  Ni10  1  0.93279965  0.20470088  1.13750053  1.0
  Ni  Ni11  1  0.56720035  0.70470088  1.27190123  1.0
  Ni  Ni12  1  0.69383955  1.19383955  1.25072196  1.0
  Ni  Ni13  1  1.05688241  0.55688241  1.25072196  1.0
  Ni  Ni14  1  0.44311759  0.69383955  0.50000000  1.0
  Ni  Ni15  1  0.80616045  1.05688241  1.50000000  1.0
  Ni  Ni16  1  1.19383955  0.94311759  1.50000000  1.0
  Ni  Ni17  1  0.55688241  0.30616045  0.50000000  1.0
  Ni  Ni18  1  0.94311759  0.44311759  0.74927804  1.0
  Ni  Ni19  1  0.30616045  0.80616045  0.74927804  1.0
  Ge  Ge20  1  1.20512365  0.70512365  1.15333277  1.0
  Ge  Ge21  1  0.44820911  0.94820911  1.15333277  1.0
  Ge  Ge22  1  1.05179089  1.20512365  1.50000000  1.0
  Ge  Ge23  1  0.29487635  0.44820911  0.50000000  1.0
  Ge  Ge24  1  0.70512365  0.55179089  0.50000000  1.0
  Ge  Ge25  1  0.94820911  0.79487635  1.50000000  1.0
  Ge  Ge26  1  0.55179089  1.05179089  0.84666723  1.0
  Ge  Ge27  1  0.79487635  0.29487635  0.84666723  1.0
