# generated using pymatgen
data_H12AuC4N
_symmetry_space_group_name_H-M   'P 1'
_cell_length_a   7.87200872
_cell_length_b   7.87200872
_cell_length_c   5.78400581
_cell_angle_alpha   90.00000000
_cell_angle_beta   90.00000000
_cell_angle_gamma   90.00000000
_symmetry_Int_Tables_number   1
_chemical_formula_structural   H12AuC4N
_chemical_formula_sum   'H24 Au2 C8 N2'
_cell_volume   358.42628732
_cell_formula_units_Z   2
loop_
 _symmetry_equiv_pos_site_id
 _symmetry_equiv_pos_as_xyz
  1  'x, y, z'
loop_
 _atom_site_type_symbol
 _atom_site_label
 _atom_site_symmetry_multiplicity
 _atom_site_fract_x
 _atom_site_fract_y
 _atom_site_fract_z
 _atom_site_occupancy
  H  H0  1  0.84756536  0.11463242  0.25788894  1.0
  H  H1  1  0.15243464  0.11463242  0.25788894  1.0
  H  H2  1  0.84756536  0.88536758  0.25788894  1.0
  H  H3  1  0.15243464  0.88536758  0.25788894  1.0
  H  H4  1  0.61463242  0.34756536  0.25788894  1.0
  H  H5  1  0.38536758  0.34756536  0.25788894  1.0
  H  H6  1  0.61463242  0.65243464  0.25788894  1.0
  H  H7  1  0.38536758  0.65243464  0.25788894  1.0
  H  H8  1  0.65243464  0.38536758  0.74211106  1.0
  H  H9  1  0.34756536  0.38536758  0.74211106  1.0
  H  H10  1  0.65243464  0.61463242  0.74211106  1.0
  H  H11  1  0.34756536  0.61463242  0.74211106  1.0
  H  H12  1  0.88536758  0.15243464  0.74211106  1.0
  H  H13  1  0.11463242  0.15243464  0.74211106  1.0
  H  H14  1  0.88536758  0.84756536  0.74211106  1.0
  H  H15  1  0.11463242  0.84756536  0.74211106  1.0
  H  H16  1  0.73199260  0.00000000  0.03716256  1.0
  H  H17  1  0.26800740  0.00000000  0.03716256  1.0
  H  H18  1  0.50000000  0.23199260  0.03716256  1.0
  H  H19  1  0.50000000  0.76800740  0.03716256  1.0
  H  H20  1  0.76800740  0.50000000  0.96283744  1.0
  H  H21  1  0.23199260  0.50000000  0.96283744  1.0
  H  H22  1  0.00000000  0.26800740  0.96283744  1.0
  H  H23  1  0.00000000  0.73199260  0.96283744  1.0
  Au  Au24  1  0.50000000  0.00000000  0.67205374  1.0
  Au  Au25  1  0.00000000  0.50000000  0.32794626  1.0
  C  C26  1  0.84458806  0.00000000  0.15024244  1.0
  C  C27  1  0.15541194  0.00000000  0.15024244  1.0
  C  C28  1  0.50000000  0.34458806  0.15024244  1.0
  C  C29  1  0.50000000  0.65541194  0.15024244  1.0
  C  C30  1  0.65541194  0.50000000  0.84975756  1.0
  C  C31  1  0.34458806  0.50000000  0.84975756  1.0
  C  C32  1  0.00000000  0.15541194  0.84975756  1.0
  C  C33  1  0.00000000  0.84458806  0.84975756  1.0
  N  N34  1  0.00000000  0.00000000  0.00000000  1.0
  N  N35  1  0.50000000  0.50000000  0.00000000  1.0
