# generated using pymatgen
data_Li2CaTa2O7
_symmetry_space_group_name_H-M   'P 1'
_cell_length_a   5.56446331
_cell_length_b   5.49194732
_cell_length_c   18.38161663
_cell_angle_alpha   90.00000000
_cell_angle_beta   90.00000000
_cell_angle_gamma   90.00000000
_symmetry_Int_Tables_number   1
_chemical_formula_structural   Li2CaTa2O7
_chemical_formula_sum   'Li8 Ca4 Ta8 O28'
_cell_volume   561.73741364
_cell_formula_units_Z   4
loop_
 _symmetry_equiv_pos_site_id
 _symmetry_equiv_pos_as_xyz
  1  'x, y, z'
loop_
 _atom_site_type_symbol
 _atom_site_label
 _atom_site_symmetry_multiplicity
 _atom_site_fract_x
 _atom_site_fract_y
 _atom_site_fract_z
 _atom_site_occupancy
  Li  Li0  1  0.51169564  0.25105013  0.01262103  1.0
  Li  Li1  1  0.48830436  0.74894987  0.51262103  1.0
  Li  Li2  1  0.98830436  0.75105013  0.51262103  1.0
  Li  Li3  1  0.01169564  0.24894987  0.01262103  1.0
  Li  Li4  1  0.48821734  0.74927425  0.98881712  1.0
  Li  Li5  1  0.51178266  0.25072575  0.48881712  1.0
  Li  Li6  1  0.01178266  0.24927425  0.48881712  1.0
  Li  Li7  1  0.98821734  0.75072575  0.98881712  1.0
  Ca  Ca8  1  0.79605321  1.00167246  0.75071714  1.0
  Ca  Ca9  1  0.20394679  -0.00167246  0.25071714  1.0
  Ca  Ca10  1  0.70394679  0.50167246  0.25071714  1.0
  Ca  Ca11  1  0.29605321  0.49832754  0.75071714  1.0
  Ta  Ta12  1  0.23967582  0.50129033  0.36277831  1.0
  Ta  Ta13  1  0.76032418  0.49870967  0.86277831  1.0
  Ta  Ta14  1  0.26032418  0.00129033  0.86277831  1.0
  Ta  Ta15  1  0.73967582  0.99870967  0.36277831  1.0
  Ta  Ta16  1  0.76031180  0.49873468  0.63865820  1.0
  Ta  Ta17  1  0.23968820  0.50126532  0.13865820  1.0
  Ta  Ta18  1  0.73968820  -0.00126532  0.13865820  1.0
  Ta  Ta19  1  0.26031180  1.00126532  0.63865820  1.0
  O  O20  1  0.22880035  0.92041792  0.75071372  1.0
  O  O21  1  0.77119965  0.07958208  0.25071372  1.0
  O  O22  1  0.27119965  0.42041792  0.25071372  1.0
  O  O23  1  0.72880035  0.57958208  0.75071372  1.0
  O  O24  1  0.74223980  0.94889937  0.03742661  1.0
  O  O25  1  0.25776020  0.05110063  0.53742661  1.0
  O  O26  1  0.75776020  0.44889937  0.53742661  1.0
  O  O27  1  0.24223980  0.55110063  0.03742661  1.0
  O  O28  1  0.25780577  0.05116131  0.96400526  1.0
  O  O29  1  0.74219423  0.94883869  0.46400526  1.0
  O  O30  1  0.24219423  0.55116131  0.46400526  1.0
  O  O31  1  0.75780577  0.44883869  0.96400526  1.0
  O  O32  1  0.96112342  0.78987575  0.63217449  1.0
  O  O33  1  0.03887658  0.21012425  0.13217449  1.0
  O  O34  1  0.53887658  0.28987575  0.13217449  1.0
  O  O35  1  0.46112342  0.71012425  0.63217449  1.0
  O  O36  1  0.03879393  0.21019587  0.36927331  1.0
  O  O37  1  0.96120607  0.78980413  0.86927331  1.0
  O  O38  1  0.46120607  0.71019587  0.86927331  1.0
  O  O39  1  0.53879393  0.28980413  0.36927331  1.0
  O  O40  1  0.46938169  0.78127117  0.33562067  1.0
  O  O41  1  0.53061831  0.21872883  0.83562067  1.0
  O  O42  1  0.03061831  0.28127117  0.83562067  1.0
  O  O43  1  0.96938169  0.71872883  0.33562067  1.0
  O  O44  1  0.53061758  0.21868080  0.66579412  1.0
  O  O45  1  0.46938242  0.78131920  0.16579412  1.0
  O  O46  1  0.96938242  0.71868080  0.16579412  1.0
  O  O47  1  0.03061758  0.28131920  0.66579412  1.0
