# generated using pymatgen
data_Sr4Nb2O9
_symmetry_space_group_name_H-M   'P 1'
_cell_length_a   5.92106460
_cell_length_b   15.83523161
_cell_length_c   5.92120460
_cell_angle_alpha   90.00039060
_cell_angle_beta   60.00058968
_cell_angle_gamma   90.00196532
_symmetry_Int_Tables_number   1
_chemical_formula_structural   Sr4Nb2O9
_chemical_formula_sum   'Sr8 Nb4 O18'
_cell_volume   480.80336601
_cell_formula_units_Z   2
loop_
 _symmetry_equiv_pos_site_id
 _symmetry_equiv_pos_as_xyz
  1  'x, y, z'
loop_
 _atom_site_type_symbol
 _atom_site_label
 _atom_site_symmetry_multiplicity
 _atom_site_fract_x
 _atom_site_fract_y
 _atom_site_fract_z
 _atom_site_occupancy
  Sr  Sr0  1  0.00000000  0.00000000  0.00000000  1.0
  Sr  Sr1  1  -0.33314112  -0.13986703  -0.33379298  1.0
  Sr  Sr2  1  -0.66685888  -0.86013297  -0.66620702  1.0
  Sr  Sr3  1  -0.99997104  -0.24994570  -0.00013383  1.0
  Sr  Sr4  1  -0.00002896  -0.75005430  -0.99986617  1.0
  Sr  Sr5  1  -0.00000000  -0.50000000  0.00000000  1.0
  Sr  Sr6  1  -0.66653635  -0.63985087  -0.66687557  1.0
  Sr  Sr7  1  -0.33346365  -0.36014913  -0.33312443  1.0
  O  O8  1  -0.72869069  -0.10256334  -0.35254197  1.0
  O  O9  1  -0.27130931  -0.89743666  -0.64745803  1.0
  O  O10  1  -0.91890761  -0.10292788  -0.72980538  1.0
  O  O11  1  -0.08109239  -0.89707212  -0.27019462  1.0
  O  O12  1  -0.35138894  -0.10287197  -0.91977567  1.0
  O  O13  1  -0.64861106  -0.89712803  -0.08022433  1.0
  O  O14  1  -0.59248022  -0.25011016  -0.96265019  1.0
  O  O15  1  -0.40751978  -0.74988984  -0.03734981  1.0
  O  O16  1  -0.44494869  -0.24994592  -0.59266808  1.0
  O  O17  1  -0.55505131  -0.75005408  -0.40733192  1.0
  O  O18  1  -0.27063262  -0.60293407  -0.64867747  1.0
  O  O19  1  -0.72936738  -0.39706593  -0.35132253  1.0
  O  O20  1  -0.08063168  -0.60266626  -0.27134688  1.0
  O  O21  1  -0.91936832  -0.39733374  -0.72865312  1.0
  O  O22  1  -0.64796266  -0.60268058  -0.08117500  1.0
  O  O23  1  -0.35203734  -0.39731942  -0.91882500  1.0
  O  O24  1  -0.96242506  -0.24995462  -0.44510295  1.0
  O  O25  1  -0.03757494  -0.75004538  -0.55489705  1.0
  Nb  Nb26  1  -0.33361200  -0.84577477  -0.33292037  1.0
  Nb  Nb27  1  -0.66638800  -0.15422523  -0.66707963  1.0
  Nb  Nb28  1  -0.66685455  -0.34580426  -0.66652068  1.0
  Nb  Nb29  1  -0.33314545  -0.65419574  -0.33347932  1.0
