# generated using pymatgen
data_SiAg5O4
_symmetry_space_group_name_H-M   'P 1'
_cell_length_a   9.04228536
_cell_length_b   10.22495950
_cell_length_c   6.36390918
_cell_angle_alpha   90.00000000
_cell_angle_beta   90.00000000
_cell_angle_gamma   90.00000000
_symmetry_Int_Tables_number   1
_chemical_formula_structural   SiAg5O4
_chemical_formula_sum   'Si4 Ag20 O16'
_cell_volume   588.38796062
_cell_formula_units_Z   4
loop_
 _symmetry_equiv_pos_site_id
 _symmetry_equiv_pos_as_xyz
  1  'x, y, z'
loop_
 _atom_site_type_symbol
 _atom_site_label
 _atom_site_symmetry_multiplicity
 _atom_site_fract_x
 _atom_site_fract_y
 _atom_site_fract_z
 _atom_site_occupancy
  Si  Si0  1  0.26329824  0.62028405  0.50000000  1.0
  Si  Si1  1  0.76329824  0.87971595  -0.00000000  1.0
  Si  Si2  1  0.73670176  0.37971595  0.50000000  1.0
  Si  Si3  1  0.23670176  0.12028405  0.00000000  1.0
  Ag  Ag4  1  0.43511759  0.87932939  0.27978014  1.0
  Ag  Ag5  1  0.43511759  0.87932939  0.72021986  1.0
  Ag  Ag6  1  0.93511759  0.62067061  0.77978014  1.0
  Ag  Ag7  1  0.93511759  0.62067061  0.22021986  1.0
  Ag  Ag8  1  0.56488241  0.12067061  0.27978014  1.0
  Ag  Ag9  1  0.56488241  0.12067061  0.72021986  1.0
  Ag  Ag10  1  0.06488241  0.37932939  0.77978014  1.0
  Ag  Ag11  1  0.06488241  0.37932939  0.22021986  1.0
  Ag  Ag12  1  0.10908502  0.87735783  0.26492337  1.0
  Ag  Ag13  1  0.10908502  0.87735783  0.73507663  1.0
  Ag  Ag14  1  0.60908502  0.62264217  0.76492337  1.0
  Ag  Ag15  1  0.60908502  0.62264217  0.23507663  1.0
  Ag  Ag16  1  0.89091498  0.12264217  0.26492337  1.0
  Ag  Ag17  1  0.89091498  0.12264217  0.73507663  1.0
  Ag  Ag18  1  0.39091498  0.37735783  0.76492337  1.0
  Ag  Ag19  1  0.39091498  0.37735783  0.23507663  1.0
  Ag  Ag20  1  0.28968207  0.08659971  0.50000000  1.0
  Ag  Ag21  1  0.78968207  0.41340029  0.00000000  1.0
  Ag  Ag22  1  0.71031793  0.91340029  0.50000000  1.0
  Ag  Ag23  1  0.21031793  0.58659971  -0.00000000  1.0
  O  O24  1  0.35390471  0.66078374  0.28261541  1.0
  O  O25  1  0.35390471  0.66078374  0.71738459  1.0
  O  O26  1  0.85390471  0.83921626  0.78261541  1.0
  O  O27  1  0.85390471  0.83921626  0.21738459  1.0
  O  O28  1  0.64609529  0.33921626  0.28261541  1.0
  O  O29  1  0.64609529  0.33921626  0.71738459  1.0
  O  O30  1  0.14609529  0.16078374  0.78261541  1.0
  O  O31  1  0.14609529  0.16078374  0.21738459  1.0
  O  O32  1  0.75921946  0.54206510  0.50000000  1.0
  O  O33  1  0.25921946  0.95793490  0.00000000  1.0
  O  O34  1  0.24078054  0.45793490  0.50000000  1.0
  O  O35  1  0.74078054  0.04206510  0.00000000  1.0
  O  O36  1  0.09985440  0.69630179  0.50000000  1.0
  O  O37  1  0.59985440  0.80369821  0.00000000  1.0
  O  O38  1  0.90014560  0.30369821  0.50000000  1.0
  O  O39  1  0.40014560  0.19630179  0.00000000  1.0
