# generated using pymatgen
data_K2(SO2)3
_symmetry_space_group_name_H-M   'P 1'
_cell_length_a   9.90227081
_cell_length_b   5.79316747
_cell_length_c   14.45237624
_cell_angle_alpha   90.00000000
_cell_angle_beta   90.00000000
_cell_angle_gamma   90.00000000
_symmetry_Int_Tables_number   1
_chemical_formula_structural   K2(SO2)3
_chemical_formula_sum   'K8 S12 O24'
_cell_volume   829.06797914
_cell_formula_units_Z   4
loop_
 _symmetry_equiv_pos_site_id
 _symmetry_equiv_pos_as_xyz
  1  'x, y, z'
loop_
 _atom_site_type_symbol
 _atom_site_label
 _atom_site_symmetry_multiplicity
 _atom_site_fract_x
 _atom_site_fract_y
 _atom_site_fract_z
 _atom_site_occupancy
  K  K0  1  0.86309288  0.75000000  0.41173168  1.0
  K  K1  1  0.36309288  0.75000000  0.08826832  1.0
  K  K2  1  0.13690712  0.25000000  0.58826832  1.0
  K  K3  1  0.63690712  0.25000000  0.91173168  1.0
  K  K4  1  0.81916006  0.75000000  0.73476795  1.0
  K  K5  1  0.31916006  0.75000000  0.76523205  1.0
  K  K6  1  0.18083994  0.25000000  0.26523205  1.0
  K  K7  1  0.68083994  0.25000000  0.23476795  1.0
  S  S8  1  0.97075339  0.75000000  0.18860334  1.0
  S  S9  1  0.47075339  0.75000000  0.31139666  1.0
  S  S10  1  0.02924661  0.25000000  0.81139666  1.0
  S  S11  1  0.52924661  0.25000000  0.68860334  1.0
  S  S12  1  0.91683788  0.75000000  0.04588171  1.0
  S  S13  1  0.41683788  0.75000000  0.45411829  1.0
  S  S14  1  0.08316212  0.25000000  0.95411829  1.0
  S  S15  1  0.58316212  0.25000000  0.54588171  1.0
  S  S16  1  0.70408356  0.75000000  0.03385432  1.0
  S  S17  1  0.20408356  0.75000000  0.46614568  1.0
  S  S18  1  0.29591644  0.25000000  0.96614568  1.0
  S  S19  1  0.79591644  0.25000000  0.53385432  1.0
  O  O20  1  0.91866997  0.96223330  0.23209590  1.0
  O  O21  1  0.91866997  0.53776670  0.23209590  1.0
  O  O22  1  0.41866997  0.96223330  0.26790410  1.0
  O  O23  1  0.41866997  0.53776670  0.26790410  1.0
  O  O24  1  0.08133003  0.46223330  0.76790410  1.0
  O  O25  1  0.08133003  0.03776670  0.76790410  1.0
  O  O26  1  0.58133003  0.46223330  0.73209590  1.0
  O  O27  1  0.58133003  0.03776670  0.73209590  1.0
  O  O28  1  0.64862613  0.96208481  0.07570488  1.0
  O  O29  1  0.64862613  0.53791519  0.07570488  1.0
  O  O30  1  0.14862613  0.96208481  0.42429512  1.0
  O  O31  1  0.14862613  0.53791519  0.42429512  1.0
  O  O32  1  0.35137387  0.46208481  0.92429512  1.0
  O  O33  1  0.35137387  0.03791519  0.92429512  1.0
  O  O34  1  0.85137387  0.46208481  0.57570488  1.0
  O  O35  1  0.85137387  0.03791519  0.57570488  1.0
  O  O36  1  0.69664272  0.75000000  0.93153452  1.0
  O  O37  1  0.19664272  0.75000000  0.56846548  1.0
  O  O38  1  0.30335728  0.25000000  0.06846548  1.0
  O  O39  1  0.80335728  0.25000000  0.43153452  1.0
  O  O40  1  0.61883002  0.75000000  0.32311354  1.0
  O  O41  1  0.11883002  0.75000000  0.17688646  1.0
  O  O42  1  0.38116998  0.25000000  0.67688646  1.0
  O  O43  1  0.88116998  0.25000000  0.82311354  1.0
