# generated using pymatgen
data_LiVAsO5
_symmetry_space_group_name_H-M   'P 1'
_cell_length_a   7.72440891
_cell_length_b   6.53517999
_cell_length_c   7.58473166
_cell_angle_alpha   90.00000000
_cell_angle_beta   90.00000000
_cell_angle_gamma   90.00000000
_symmetry_Int_Tables_number   1
_chemical_formula_structural   LiVAsO5
_chemical_formula_sum   'Li4 V4 As4 O20'
_cell_volume   382.88030732
_cell_formula_units_Z   4
loop_
 _symmetry_equiv_pos_site_id
 _symmetry_equiv_pos_as_xyz
  1  'x, y, z'
loop_
 _atom_site_type_symbol
 _atom_site_label
 _atom_site_symmetry_multiplicity
 _atom_site_fract_x
 _atom_site_fract_y
 _atom_site_fract_z
 _atom_site_occupancy
  Li  Li0  1  0.50000000  0.00000000  0.50000000  1.0
  Li  Li1  1  0.50000000  0.50000000  0.50000000  1.0
  Li  Li2  1  0.00000000  0.00000000  0.00000000  1.0
  Li  Li3  1  0.00000000  0.50000000  0.00000000  1.0
  V  V4  1  0.32633852  0.75000000  0.77611439  1.0
  V  V5  1  0.82633852  0.75000000  0.72388561  1.0
  V  V6  1  0.67366148  0.25000000  0.22388561  1.0
  V  V7  1  0.17366148  0.25000000  0.27611439  1.0
  As  As8  1  0.12509414  0.75000000  0.37744163  1.0
  As  As9  1  0.62509414  0.75000000  0.12255837  1.0
  As  As10  1  0.87490586  0.25000000  0.62255837  1.0
  As  As11  1  0.37490586  0.25000000  0.87744163  1.0
  O  O12  1  0.12103056  0.75000000  0.83297811  1.0
  O  O13  1  0.62103056  0.75000000  0.66702189  1.0
  O  O14  1  0.87896944  0.25000000  0.16702189  1.0
  O  O15  1  0.37896944  0.25000000  0.33297811  1.0
  O  O16  1  0.37216563  0.45827492  0.73412401  1.0
  O  O17  1  0.37216563  0.04172508  0.73412401  1.0
  O  O18  1  0.87216563  0.45827492  0.76587599  1.0
  O  O19  1  0.87216563  0.04172508  0.76587599  1.0
  O  O20  1  0.62783437  0.95827492  0.26587599  1.0
  O  O21  1  0.62783437  0.54172508  0.26587599  1.0
  O  O22  1  0.12783437  0.95827492  0.23412401  1.0
  O  O23  1  0.12783437  0.54172508  0.23412401  1.0
  O  O24  1  0.43593161  0.75000000  0.00275536  1.0
  O  O25  1  0.93593161  0.75000000  0.49724464  1.0
  O  O26  1  0.56406839  0.25000000  0.99724464  1.0
  O  O27  1  0.06406839  0.25000000  0.50275536  1.0
  O  O28  1  0.31422461  0.75000000  0.50466280  1.0
  O  O29  1  0.81422461  0.75000000  -0.00466280  1.0
  O  O30  1  0.68577539  0.25000000  0.49533720  1.0
  O  O31  1  0.18577539  0.25000000  1.00466280  1.0
