# generated using pymatgen
data_K2PH4O5
_symmetry_space_group_name_H-M   'P 1'
_cell_length_a   7.43973233
_cell_length_b   7.43973233
_cell_length_c   11.98405110
_cell_angle_alpha   88.25560432
_cell_angle_beta   91.74439568
_cell_angle_gamma   67.33054449
_symmetry_Int_Tables_number   1
_chemical_formula_structural   K2PH4O5
_chemical_formula_sum   'K8 P4 H16 O20'
_cell_volume   611.14401120
_cell_formula_units_Z   4
loop_
 _symmetry_equiv_pos_site_id
 _symmetry_equiv_pos_as_xyz
  1  'x, y, z'
loop_
 _atom_site_type_symbol
 _atom_site_label
 _atom_site_symmetry_multiplicity
 _atom_site_fract_x
 _atom_site_fract_y
 _atom_site_fract_z
 _atom_site_occupancy
  K  K0  1  0.97531551  -0.04002053  0.49782949  1.0
  K  K1  1  1.04002053  0.02468449  -0.00217051  1.0
  K  K2  1  0.62736369  -0.37129238  0.43421646  1.0
  K  K3  1  1.37129238  0.37263631  0.93421646  1.0
  K  K4  1  1.15261158  0.62091003  0.25459005  1.0
  K  K5  1  0.37908997  -0.15261158  0.75459005  1.0
  K  K6  1  1.43937150  0.17652870  0.46454446  1.0
  K  K7  1  0.82347130  -0.43937150  0.96454446  1.0
  P  P8  1  0.68833412  -0.02582879  0.20992884  1.0
  P  P9  1  1.02582879  0.31166588  0.70992884  1.0
  P  P10  1  1.69504062  0.26903896  0.21598488  1.0
  P  P11  1  0.73096104  -0.69504062  0.71598488  1.0
  H  H12  1  0.47886398  -0.40623893  0.09270241  1.0
  H  H13  1  1.40623893  0.52113602  0.59270241  1.0
  H  H14  1  0.66497630  -0.05429155  0.99011126  1.0
  H  H15  1  1.05429155  0.33502370  0.49011126  1.0
  H  H16  1  1.66196922  0.01667237  0.86241098  1.0
  H  H17  1  0.98332763  -0.66196922  0.36241098  1.0
  H  H18  1  0.42396512  -0.18297650  0.11319200  1.0
  H  H19  1  1.18297650  0.57603488  0.61319200  1.0
  H  H20  1  0.34094661  -0.04714726  0.28028223  1.0
  H  H21  1  1.04714726  0.65905339  0.78028223  1.0
  H  H22  1  1.12020123  0.03728923  0.30397202  1.0
  H  H23  1  0.96271077  -0.12020123  0.80397202  1.0
  H  H24  1  1.27307767  0.20769500  0.14062905  1.0
  H  H25  1  0.79230500  -0.27307767  0.64062905  1.0
  H  H26  1  1.05070358  0.29238412  0.16720221  1.0
  H  H27  1  0.70761588  -0.05070358  0.66720221  1.0
  O  O28  1  0.81922620  -0.13397541  0.11469980  1.0
  O  O29  1  1.13397541  0.18077380  0.61469980  1.0
  O  O30  1  0.76152980  -0.12123761  0.32754272  1.0
  O  O31  1  1.12123761  0.23847020  0.82754272  1.0
  O  O32  1  1.76932411  0.08924858  0.75703466  1.0
  O  O33  1  0.91075142  -0.76932411  0.25703466  1.0
  O  O34  1  0.37287712  -0.27421067  0.07798391  1.0
  O  O35  1  1.27421067  0.62712288  0.57798391  1.0
  O  O36  1  0.59159423  -0.03351008  0.91684258  1.0
  O  O37  1  1.03351008  0.40840577  0.41684258  1.0
  O  O38  1  0.47086946  0.00228638  0.18350531  1.0
  O  O39  1  0.99771362  0.52913054  0.68350531  1.0
  O  O40  1  1.63609832  0.34533420  0.59576301  1.0
  O  O41  1  0.65466580  -0.63609832  0.09576301  1.0
  O  O42  1  0.24656932  -0.06266608  0.33445971  1.0
  O  O43  1  1.06266608  0.75343068  0.83445971  1.0
  O  O44  1  1.54548772  0.38251446  0.30038759  1.0
  O  O45  1  0.61748554  -0.54548772  0.80038759  1.0
  O  O46  1  1.14548539  0.31369618  0.11578437  1.0
  O  O47  1  0.68630382  -0.14548539  0.61578437  1.0
