# generated using pymatgen
data_As2PbS4
_symmetry_space_group_name_H-M   'P 1'
_cell_length_a   9.43936835
_cell_length_b   3.76662321
_cell_length_c   18.53062771
_cell_angle_alpha   90.00000000
_cell_angle_beta   90.00000000
_cell_angle_gamma   90.00000000
_symmetry_Int_Tables_number   1
_chemical_formula_structural   As2PbS4
_chemical_formula_sum   'As8 Pb4 S16'
_cell_volume   658.84801579
_cell_formula_units_Z   4
loop_
 _symmetry_equiv_pos_site_id
 _symmetry_equiv_pos_as_xyz
  1  'x, y, z'
loop_
 _atom_site_type_symbol
 _atom_site_label
 _atom_site_symmetry_multiplicity
 _atom_site_fract_x
 _atom_site_fract_y
 _atom_site_fract_z
 _atom_site_occupancy
  As  As0  1  0.66171332  0.75000000  0.00761985  1.0
  As  As1  1  0.16171332  0.75000000  0.49238015  1.0
  As  As2  1  0.33828668  0.25000000  0.99238015  1.0
  As  As3  1  0.83828668  0.25000000  0.50761985  1.0
  As  As4  1  0.50153792  0.75000000  0.61645934  1.0
  As  As5  1  0.00153792  0.75000000  0.88354066  1.0
  As  As6  1  0.49846208  0.25000000  0.38354066  1.0
  As  As7  1  0.99846208  0.25000000  0.11645934  1.0
  Pb  Pb8  1  0.83972103  0.75000000  0.31369398  1.0
  Pb  Pb9  1  0.33972103  0.75000000  0.18630602  1.0
  Pb  Pb10  1  0.16027897  0.25000000  0.68630602  1.0
  Pb  Pb11  1  0.66027897  0.25000000  0.81369398  1.0
  S  S12  1  0.98992012  0.75000000  0.58145684  1.0
  S  S13  1  0.48992012  0.75000000  0.91854316  1.0
  S  S14  1  0.01007988  0.25000000  0.41854316  1.0
  S  S15  1  0.51007988  0.25000000  0.08145684  1.0
  S  S16  1  0.87692538  0.75000000  0.77796382  1.0
  S  S17  1  0.37692538  0.75000000  0.72203618  1.0
  S  S18  1  0.12307462  0.25000000  0.22203618  1.0
  S  S19  1  0.62307462  0.25000000  0.27796382  1.0
  S  S20  1  0.84546712  0.75000000  0.14605711  1.0
  S  S21  1  0.34546712  0.75000000  0.35394289  1.0
  S  S22  1  0.15453288  0.25000000  0.85394289  1.0
  S  S23  1  0.65453288  0.25000000  0.64605711  1.0
  S  S24  1  0.69393629  0.75000000  0.45456122  1.0
  S  S25  1  0.19393629  0.75000000  0.04543878  1.0
  S  S26  1  0.30606371  0.25000000  0.54543878  1.0
  S  S27  1  0.80606371  0.25000000  0.95456122  1.0
