# generated using pymatgen
data_Na2Nb4O11
_symmetry_space_group_name_H-M   'P 1'
_cell_length_a   12.83667573
_cell_length_b   12.83667573
_cell_length_c   12.83667573
_cell_angle_alpha   28.29928196
_cell_angle_beta   28.29928196
_cell_angle_gamma   28.29928196
_symmetry_Int_Tables_number   1
_chemical_formula_structural   Na2Nb4O11
_chemical_formula_sum   'Na4 Nb8 O22'
_cell_volume   420.06538890
_cell_formula_units_Z   2
loop_
 _symmetry_equiv_pos_site_id
 _symmetry_equiv_pos_as_xyz
  1  'x, y, z'
loop_
 _atom_site_type_symbol
 _atom_site_label
 _atom_site_symmetry_multiplicity
 _atom_site_fract_x
 _atom_site_fract_y
 _atom_site_fract_z
 _atom_site_occupancy
  Na  Na0  1  0.83455397  0.83455397  -0.16544603  1.0
  Na  Na1  1  0.33455397  0.33455397  0.33455397  1.0
  Na  Na2  1  0.66544603  0.66544603  -0.33455397  1.0
  Na  Na3  1  0.16544603  0.16544603  0.16544603  1.0
  Nb  Nb4  1  1.11131565  -0.25000000  0.38868435  1.0
  Nb  Nb5  1  0.61131565  -0.11131565  0.25000000  1.0
  Nb  Nb6  1  0.25000000  0.61131565  -0.11131565  1.0
  Nb  Nb7  1  0.75000000  0.38868435  0.11131565  1.0
  Nb  Nb8  1  0.88868435  0.25000000  -0.38868435  1.0
  Nb  Nb9  1  1.38868435  0.11131565  -0.25000000  1.0
  Nb  Nb10  1  1.00000000  -0.00000000  -0.00000000  1.0
  Nb  Nb11  1  0.50000000  0.50000000  0.50000000  1.0
  O  O12  1  0.93554300  0.24559420  -0.27383014  1.0
  O  O13  1  1.43554300  0.22616986  -0.25440580  1.0
  O  O14  1  0.77383014  0.25440580  -0.43554300  1.0
  O  O15  1  1.27383014  0.06445700  -0.24559420  1.0
  O  O16  1  0.75440580  0.27383014  0.06445700  1.0
  O  O17  1  0.25440580  0.56445700  -0.22616986  1.0
  O  O18  1  1.06445700  -0.24559420  0.27383014  1.0
  O  O19  1  0.56445700  0.77383014  -0.74559420  1.0
  O  O20  1  0.72616986  -0.06445700  0.24559420  1.0
  O  O21  1  1.22616986  -0.25440580  0.43554300  1.0
  O  O22  1  0.74559420  0.43554300  0.22616986  1.0
  O  O23  1  1.24559420  -0.27383014  -0.06445700  1.0
  O  O24  1  0.50554115  0.75000000  -0.00554115  1.0
  O  O25  1  1.00554115  -0.50554115  0.25000000  1.0
  O  O26  1  0.25000000  1.00554115  -0.50554115  1.0
  O  O27  1  0.75000000  0.99445885  -0.49445885  1.0
  O  O28  1  0.49445885  0.25000000  0.00554115  1.0
  O  O29  1  0.99445885  0.50554115  -0.25000000  1.0
  O  O30  1  0.90612187  -0.09387813  -0.09387813  1.0
  O  O31  1  0.40612187  0.40612187  0.40612187  1.0
  O  O32  1  0.59387813  0.59387813  -0.40612187  1.0
  O  O33  1  1.09387813  0.09387813  0.09387813  1.0
