# generated using pymatgen
data_B
_symmetry_space_group_name_H-M   'P 1'
_cell_length_a   5.03365462
_cell_length_b   5.60333893
_cell_length_c   6.91320857
_cell_angle_alpha   90.00000000
_cell_angle_beta   90.00000000
_cell_angle_gamma   90.00000000
_symmetry_Int_Tables_number   1
_chemical_formula_structural   B
_chemical_formula_sum   B28
_cell_volume   194.98893400
_cell_formula_units_Z   28
loop_
 _symmetry_equiv_pos_site_id
 _symmetry_equiv_pos_as_xyz
  1  'x, y, z'
loop_
 _atom_site_type_symbol
 _atom_site_label
 _atom_site_symmetry_multiplicity
 _atom_site_fract_x
 _atom_site_fract_y
 _atom_site_fract_z
 _atom_site_occupancy
  B  B0  1  0.33938889  0.78115050  0.12565802  1.0
  B  B1  1  0.33938889  0.78115050  0.87434198  1.0
  B  B2  1  0.83938889  0.71884950  0.62565802  1.0
  B  B3  1  0.83938889  0.71884950  0.37434198  1.0
  B  B4  1  0.66061111  0.21884950  0.12565802  1.0
  B  B5  1  0.66061111  0.21884950  0.87434198  1.0
  B  B6  1  0.16061111  0.28115050  0.62565802  1.0
  B  B7  1  0.16061111  0.28115050  0.37434198  1.0
  B  B8  1  0.15282844  0.59253522  0.29084106  1.0
  B  B9  1  0.15282844  0.59253522  0.70915894  1.0
  B  B10  1  0.65282844  0.90746478  0.79084106  1.0
  B  B11  1  0.65282844  0.90746478  0.20915894  1.0
  B  B12  1  0.84717156  0.40746478  0.29084106  1.0
  B  B13  1  0.84717156  0.40746478  0.70915894  1.0
  B  B14  1  0.34717156  0.09253522  0.79084106  1.0
  B  B15  1  0.34717156  0.09253522  0.20915894  1.0
  B  B16  1  0.33564248  0.50804669  0.50000000  1.0
  B  B17  1  0.83564248  0.99195331  0.00000000  1.0
  B  B18  1  0.66435752  0.49195331  0.50000000  1.0
  B  B19  1  0.16435752  0.00804669  0.00000000  1.0
  B  B20  1  0.32978807  0.02064290  0.50000000  1.0
  B  B21  1  0.82978807  0.47935710  0.00000000  1.0
  B  B22  1  0.67021193  0.97935710  0.50000000  1.0
  B  B23  1  0.17021193  0.52064290  -0.00000000  1.0
  B  B24  1  0.14813810  0.77119819  0.50000000  1.0
  B  B25  1  0.64813810  0.72880181  -0.00000000  1.0
  B  B26  1  0.85186190  0.22880181  0.50000000  1.0
  B  B27  1  0.35186190  0.27119819  0.00000000  1.0
