# generated using pymatgen
data_Y4AlRh
_symmetry_space_group_name_H-M   'P 1'
_cell_length_a   9.56219078
_cell_length_b   9.56219078
_cell_length_c   9.56219078
_cell_angle_alpha   60.00000000
_cell_angle_beta   60.00000000
_cell_angle_gamma   60.00000000
_symmetry_Int_Tables_number   1
_chemical_formula_structural   Y4AlRh
_chemical_formula_sum   'Y16 Al4 Rh4'
_cell_volume   618.24016239
_cell_formula_units_Z   4
loop_
 _symmetry_equiv_pos_site_id
 _symmetry_equiv_pos_as_xyz
  1  'x, y, z'
loop_
 _atom_site_type_symbol
 _atom_site_label
 _atom_site_symmetry_multiplicity
 _atom_site_fract_x
 _atom_site_fract_y
 _atom_site_fract_z
 _atom_site_occupancy
  Y  Y0  1  -0.35201371  0.64798629  0.64798629  1.0
  Y  Y1  1  1.05604114  0.64798629  -0.35201371  1.0
  Y  Y2  1  -0.35201371  0.64798629  1.05604114  1.0
  Y  Y3  1  0.64798629  1.05604114  -0.35201371  1.0
  Y  Y4  1  0.06309038  0.43690962  0.43690962  1.0
  Y  Y5  1  0.43690962  0.43690962  0.06309038  1.0
  Y  Y6  1  0.43690962  0.06309038  0.43690962  1.0
  Y  Y7  1  0.06309038  0.06309038  0.43690962  1.0
  Y  Y8  1  0.06309038  0.43690962  0.06309038  1.0
  Y  Y9  1  0.43690962  0.06309038  0.06309038  1.0
  Y  Y10  1  -0.80702552  0.80702552  0.80702552  1.0
  Y  Y11  1  -0.19297448  0.80702552  0.19297448  1.0
  Y  Y12  1  -0.19297448  0.19297448  0.80702552  1.0
  Y  Y13  1  0.19297448  1.19297448  -0.19297448  1.0
  Y  Y14  1  0.19297448  -0.19297448  0.19297448  1.0
  Y  Y15  1  -0.19297448  0.19297448  0.19297448  1.0
  Al  Al16  1  0.42233104  1.42233104  0.42233104  1.0
  Al  Al17  1  -0.26699312  0.42233104  0.42233104  1.0
  Al  Al18  1  0.42233104  1.42233104  -0.26699312  1.0
  Al  Al19  1  0.42233104  -0.26699312  0.42233104  1.0
  Rh  Rh20  1  0.85775128  0.85775128  -0.14224872  1.0
  Rh  Rh21  1  0.42674615  0.85775128  -0.14224872  1.0
  Rh  Rh22  1  0.85775128  0.85775128  -0.57325385  1.0
  Rh  Rh23  1  0.85775128  0.42674615  -0.14224872  1.0
