# generated using pymatgen
data_TlNO3
_symmetry_space_group_name_H-M   'P 1'
_cell_length_a   12.43200173
_cell_length_b   8.11775358
_cell_length_c   6.36757641
_cell_angle_alpha   90.00000000
_cell_angle_beta   90.00000000
_cell_angle_gamma   90.00000000
_symmetry_Int_Tables_number   1
_chemical_formula_structural   TlNO3
_chemical_formula_sum   'Tl8 N8 O24'
_cell_volume   642.61534332
_cell_formula_units_Z   8
loop_
 _symmetry_equiv_pos_site_id
 _symmetry_equiv_pos_as_xyz
  1  'x, y, z'
loop_
 _atom_site_type_symbol
 _atom_site_label
 _atom_site_symmetry_multiplicity
 _atom_site_fract_x
 _atom_site_fract_y
 _atom_site_fract_z
 _atom_site_occupancy
  Tl  Tl0  1  0.62760307  0.49587948  0.20566855  1.0
  Tl  Tl1  1  0.62760307  0.00412052  0.20566855  1.0
  Tl  Tl2  1  0.12760307  0.49587948  0.29433145  1.0
  Tl  Tl3  1  0.12760307  0.00412052  0.29433145  1.0
  Tl  Tl4  1  0.37239693  0.99587948  0.79433145  1.0
  Tl  Tl5  1  0.37239693  0.50412052  0.79433145  1.0
  Tl  Tl6  1  0.87239693  0.99587948  0.70566855  1.0
  Tl  Tl7  1  0.87239693  0.50412052  0.70566855  1.0
  N  N8  1  0.86454095  0.25000000  0.16568688  1.0
  N  N9  1  0.36454095  0.25000000  0.33431312  1.0
  N  N10  1  0.13545905  0.75000000  0.83431312  1.0
  N  N11  1  0.63545905  0.75000000  0.66568688  1.0
  N  N12  1  0.60973900  0.25000000  0.72897296  1.0
  N  N13  1  0.10973900  0.25000000  0.77102704  1.0
  N  N14  1  0.39026100  0.75000000  0.27102704  1.0
  N  N15  1  0.89026100  0.75000000  0.22897296  1.0
  O  O16  1  0.85653276  0.88545744  0.15986891  1.0
  O  O17  1  0.85653276  0.61454256  0.15986891  1.0
  O  O18  1  0.35653276  0.88545744  0.34013109  1.0
  O  O19  1  0.35653276  0.61454256  0.34013109  1.0
  O  O20  1  0.14346724  0.38545744  0.84013109  1.0
  O  O21  1  0.14346724  0.11454256  0.84013109  1.0
  O  O22  1  0.64346724  0.38545744  0.65986891  1.0
  O  O23  1  0.64346724  0.11454256  0.65986891  1.0
  O  O24  1  0.96432562  0.25000000  0.13531525  1.0
  O  O25  1  0.46432562  0.25000000  0.36468475  1.0
  O  O26  1  0.03567438  0.75000000  0.86468475  1.0
  O  O27  1  0.53567438  0.75000000  0.63531525  1.0
  O  O28  1  0.82420784  0.25000000  0.34670170  1.0
  O  O29  1  0.32420784  0.25000000  0.15329830  1.0
  O  O30  1  0.17579216  0.75000000  0.65329830  1.0
  O  O31  1  0.67579216  0.75000000  0.84670170  1.0
  O  O32  1  0.80103118  0.25000000  0.00670178  1.0
  O  O33  1  0.30103118  0.25000000  0.49329822  1.0
  O  O34  1  0.19896882  0.75000000  0.99329822  1.0
  O  O35  1  0.69896882  0.75000000  0.50670179  1.0
  O  O36  1  0.53903349  0.25000000  0.87565116  1.0
  O  O37  1  0.03903349  0.25000000  0.62434884  1.0
  O  O38  1  0.46096651  0.75000000  0.12434884  1.0
  O  O39  1  0.96096651  0.75000000  0.37565116  1.0
