# generated using pymatgen
data_ReSeSBr4
_symmetry_space_group_name_H-M   'P 1'
_cell_length_a   10.79323959
_cell_length_b   10.79323959
_cell_length_c   10.79323959
_cell_angle_alpha   114.36337405
_cell_angle_beta   114.36337405
_cell_angle_gamma   100.07607467
_symmetry_Int_Tables_number   1
_chemical_formula_structural   ReSeSBr4
_chemical_formula_sum   'Re4 Se4 S4 Br16'
_cell_volume   948.85657523
_cell_formula_units_Z   4
loop_
 _symmetry_equiv_pos_site_id
 _symmetry_equiv_pos_as_xyz
  1  'x, y, z'
loop_
 _atom_site_type_symbol
 _atom_site_label
 _atom_site_symmetry_multiplicity
 _atom_site_fract_x
 _atom_site_fract_y
 _atom_site_fract_z
 _atom_site_occupancy
  Re  Re0  1  0.45785636  0.60090017  0.91661148  1.0
  Re  Re1  1  1.45875512  1.54214364  1.14304381  1.0
  Re  Re2  1  0.68428869  1.54124488  1.08338852  1.0
  Re  Re3  1  1.39909983  1.31571131  1.85695619  1.0
  Se  Se4  1  0.35407221  0.80567905  0.91826414  1.0
  Se  Se5  1  1.56419193  1.64592779  1.45160685  1.0
  Se  Se6  1  0.88741491  1.43580807  1.08173586  1.0
  Se  Se7  1  1.19432095  1.11258509  1.54839315  1.0
  S  S8  1  0.56045960  1.36539310  1.11221301  1.0
  S  S9  1  1.55175342  1.43954040  1.80493350  1.0
  S  S10  1  1.25318009  1.44824658  0.88778699  1.0
  S  S11  1  0.63460690  0.74681991  1.19506650  1.0
  Br  Br12  1  0.61397913  0.80794279  0.90947649  1.0
  Br  Br13  1  1.29549736  1.38602087  1.19396366  1.0
  Br  Br14  1  0.89846630  1.70450264  1.09052351  1.0
  Br  Br15  1  1.19205721  1.10153370  1.80603634  1.0
  Br  Br16  1  0.46529395  1.09632023  0.72900895  1.0
  Br  Br17  1  0.26371500  0.53470605  0.63102628  1.0
  Br  Br18  1  1.36731128  1.73628500  1.27099105  1.0
  Br  Br19  1  0.90367977  0.63268872  0.36897372  1.0
  Br  Br20  1  0.84344785  1.22366747  1.10746272  1.0
  Br  Br21  1  1.26401487  1.15655215  1.38021962  1.0
  Br  Br22  1  1.11620475  1.73598513  0.89253728  1.0
  Br  Br23  1  0.77633253  0.88379525  1.61978038  1.0
  Br  Br24  1  0.49504012  1.03143643  1.18473029  1.0
  Br  Br25  1  0.68969018  0.50495988  0.53639631  1.0
  Br  Br26  1  0.84670614  0.31030982  0.81526971  1.0
  Br  Br27  1  0.96856357  1.15329386  1.46360369  1.0
