# generated using pymatgen
data_BaB5H3PbO11
_symmetry_space_group_name_H-M   'P 1'
_cell_length_a   6.63288499
_cell_length_b   6.63288499
_cell_length_c   13.03733151
_cell_angle_alpha   68.81441854
_cell_angle_beta   111.18558146
_cell_angle_gamma   119.54246156
_symmetry_Int_Tables_number   1
_chemical_formula_structural   BaB5H3PbO11
_chemical_formula_sum   'Ba2 B10 H6 Pb2 O22'
_cell_volume   453.26222324
_cell_formula_units_Z   2
loop_
 _symmetry_equiv_pos_site_id
 _symmetry_equiv_pos_as_xyz
  1  'x, y, z'
loop_
 _atom_site_type_symbol
 _atom_site_label
 _atom_site_symmetry_multiplicity
 _atom_site_fract_x
 _atom_site_fract_y
 _atom_site_fract_z
 _atom_site_occupancy
  Ba  Ba0  1  1.62172982  0.02652539  0.72515168  1.0
  Ba  Ba1  1  0.97347461  -0.62172982  0.22515168  1.0
  B  B2  1  1.43446001  -0.23505085  0.44577293  1.0
  B  B3  1  1.23505085  -0.43446001  0.94577293  1.0
  B  B4  1  1.29200971  0.30137375  0.49491362  1.0
  B  B5  1  0.69862625  0.70799029  -0.00508638  1.0
  B  B6  1  1.77246097  -0.13643696  0.15783417  1.0
  B  B7  1  1.13643696  0.22753903  0.65783417  1.0
  B  B8  1  1.48083424  0.18855609  0.38997258  1.0
  B  B9  1  0.81144391  0.51916576  0.88997258  1.0
  B  B10  1  1.84551848  0.09890563  0.47860393  1.0
  B  B11  1  0.90109437  0.15448152  0.97860393  1.0
  H  H12  1  1.31733332  -0.01390654  0.21561297  1.0
  H  H13  1  1.01390654  -0.31733332  0.71561297  1.0
  H  H14  1  1.48019463  -0.13430457  0.22143750  1.0
  H  H15  1  1.13430457  -0.48019463  0.72143750  1.0
  H  H16  1  1.48473803  0.41780659  0.23435037  1.0
  H  H17  1  0.58219341  0.51526197  0.73435037  1.0
  Pb  Pb18  1  0.31886421  0.09574119  0.94796784  1.0
  Pb  Pb19  1  0.90425881  0.68113579  0.44796784  1.0
  O  O20  1  1.87488101  -0.05412909  0.95072593  1.0
  O  O21  1  1.05412909  0.12511899  0.45072593  1.0
  O  O22  1  1.73939646  -0.15912607  0.25930529  1.0
  O  O23  1  1.15912607  -0.73939646  0.75930529  1.0
  O  O24  1  1.67632753  -0.16248802  0.48810700  1.0
  O  O25  1  1.16248802  -0.67632753  0.98810700  1.0
  O  O26  1  0.72728025  -0.32916511  0.12015744  1.0
  O  O27  1  1.32916511  0.27271975  0.62015744  1.0
  O  O28  1  1.36527659  0.28325320  0.27386491  1.0
  O  O29  1  0.71674680  0.63472341  0.77386491  1.0
  O  O30  1  1.48686835  0.28308589  0.47838005  1.0
  O  O31  1  0.71691411  0.51313165  0.97838005  1.0
  O  O32  1  1.33541018  -0.07496229  0.41201898  1.0
  O  O33  1  1.07496229  -0.33541018  0.91201898  1.0
  O  O34  1  1.32136876  -0.12591492  0.18422270  1.0
  O  O35  1  1.12591492  -0.32136876  0.68422270  1.0
  O  O36  1  1.72528192  0.24231770  0.38967389  1.0
  O  O37  1  0.75768230  0.27471808  0.88967389  1.0
  O  O38  1  1.84266534  0.08996175  0.08821027  1.0
  O  O39  1  0.91003825  -0.84266534  0.58821027  1.0
  O  O40  1  1.28040336  0.53766042  0.43521593  1.0
  O  O41  1  1.46233958  -0.28040336  0.93521593  1.0
