# generated using pymatgen
data_LiLa2(SiGe2)2
_symmetry_space_group_name_H-M   'P 1'
_cell_length_a   11.25372891
_cell_length_b   11.25372891
_cell_length_c   4.27539451
_cell_angle_alpha   90.00000000
_cell_angle_beta   90.00000000
_cell_angle_gamma   159.04298015
_symmetry_Int_Tables_number   1
_chemical_formula_structural   LiLa2(SiGe2)2
_chemical_formula_sum   'Li1 La2 Si2 Ge4'
_cell_volume   193.66387049
_cell_formula_units_Z   1
loop_
 _symmetry_equiv_pos_site_id
 _symmetry_equiv_pos_as_xyz
  1  'x, y, z'
loop_
 _atom_site_type_symbol
 _atom_site_label
 _atom_site_symmetry_multiplicity
 _atom_site_fract_x
 _atom_site_fract_y
 _atom_site_fract_z
 _atom_site_occupancy
  Li  Li0  1  0.00000000  0.00000000  0.00000000  1.0
  La  La1  1  -0.83309375  0.83309375  0.00000000  1.0
  La  La2  1  -0.16690625  1.16690625  0.00000000  1.0
  Si  Si3  1  -0.71914464  0.71914464  0.50000000  1.0
  Si  Si4  1  -0.28085536  1.28085536  0.50000000  1.0
  Ge  Ge5  1  -0.93976907  0.93976907  0.50000000  1.0
  Ge  Ge6  1  -0.06023093  1.06023093  0.50000000  1.0
  Ge  Ge7  1  -0.56005107  0.56005107  0.00000000  1.0
  Ge  Ge8  1  -0.43994893  1.43994893  0.00000000  1.0
