# generated using pymatgen
data_CsSrTa6Cl18
_symmetry_space_group_name_H-M   'P 1'
_cell_length_a   9.51503278
_cell_length_b   9.51503278
_cell_length_c   17.60526831
_cell_angle_alpha   90.00000000
_cell_angle_beta   90.00000000
_cell_angle_gamma   120.00000000
_symmetry_Int_Tables_number   1
_chemical_formula_structural   CsSrTa6Cl18
_chemical_formula_sum   'Cs2 Sr2 Ta12 Cl36'
_cell_volume   1380.36474279
_cell_formula_units_Z   2
loop_
 _symmetry_equiv_pos_site_id
 _symmetry_equiv_pos_as_xyz
  1  'x, y, z'
loop_
 _atom_site_type_symbol
 _atom_site_label
 _atom_site_symmetry_multiplicity
 _atom_site_fract_x
 _atom_site_fract_y
 _atom_site_fract_z
 _atom_site_occupancy
  Cs  Cs0  1  0.66666667  0.33333333  0.25000000  1.0
  Cs  Cs1  1  0.33333333  0.66666667  0.75000000  1.0
  Sr  Sr2  1  0.33333333  0.66666667  0.25000000  1.0
  Sr  Sr3  1  0.66666667  0.33333333  0.75000000  1.0
  Ta  Ta4  1  0.16172641  0.97067791  0.06802962  1.0
  Ta  Ta5  1  0.16172641  0.19104849  0.43197038  1.0
  Ta  Ta6  1  0.97067791  0.16172641  0.56802962  1.0
  Ta  Ta7  1  0.97067791  0.80895151  0.93197038  1.0
  Ta  Ta8  1  0.80895151  0.97067791  0.43197038  1.0
  Ta  Ta9  1  0.80895151  0.83827359  0.06802962  1.0
  Ta  Ta10  1  0.02932209  0.83827359  0.43197038  1.0
  Ta  Ta11  1  0.02932209  0.19104849  0.06802962  1.0
  Ta  Ta12  1  0.83827359  0.80895151  0.56802962  1.0
  Ta  Ta13  1  0.83827359  0.02932209  0.93197038  1.0
  Ta  Ta14  1  0.19104849  0.16172641  0.93197038  1.0
  Ta  Ta15  1  0.19104849  0.02932209  0.56802962  1.0
  Cl  Cl16  1  0.36587958  0.93838543  0.15542554  1.0
  Cl  Cl17  1  0.36587958  0.42749415  0.34457446  1.0
  Cl  Cl18  1  0.93838543  0.36587958  0.65542554  1.0
  Cl  Cl19  1  0.93838543  0.57250585  0.84457446  1.0
  Cl  Cl20  1  0.57250585  0.93838543  0.34457446  1.0
  Cl  Cl21  1  0.57250585  0.63412042  0.15542554  1.0
  Cl  Cl22  1  0.06161457  0.63412042  0.34457446  1.0
  Cl  Cl23  1  0.06161457  0.42749415  0.15542554  1.0
  Cl  Cl24  1  0.63412042  0.57250585  0.65542554  1.0
  Cl  Cl25  1  0.63412042  0.06161457  0.84457446  1.0
  Cl  Cl26  1  0.42749415  0.36587958  0.84457446  1.0
  Cl  Cl27  1  0.42749415  0.06161457  0.65542554  1.0
  Cl  Cl28  1  0.96617690  0.77648625  0.15905447  1.0
  Cl  Cl29  1  0.96617690  0.18969065  0.34094553  1.0
  Cl  Cl30  1  0.77648625  0.96617690  0.65905447  1.0
  Cl  Cl31  1  0.77648625  0.81030935  0.84094553  1.0
  Cl  Cl32  1  0.81030935  0.77648625  0.34094553  1.0
  Cl  Cl33  1  0.81030935  0.03382310  0.15905447  1.0
  Cl  Cl34  1  0.22351375  0.03382310  0.34094553  1.0
  Cl  Cl35  1  0.22351375  0.18969065  0.15905447  1.0
  Cl  Cl36  1  0.03382310  0.81030935  0.65905447  1.0
  Cl  Cl37  1  0.03382310  0.22351375  0.84094553  1.0
  Cl  Cl38  1  0.18969065  0.96617690  0.84094553  1.0
  Cl  Cl39  1  0.18969065  0.22351375  0.65905447  1.0
  Cl  Cl40  1  0.74260411  0.58739058  0.00019540  1.0
  Cl  Cl41  1  0.74260411  0.15521353  0.49980460  1.0
  Cl  Cl42  1  0.58739058  0.74260411  0.50019540  1.0
  Cl  Cl43  1  0.58739058  0.84478647  0.99980460  1.0
  Cl  Cl44  1  0.84478647  0.58739058  0.49980460  1.0
  Cl  Cl45  1  0.84478647  0.25739589  0.00019540  1.0
  Cl  Cl46  1  0.41260942  0.25739589  0.49980460  1.0
  Cl  Cl47  1  0.41260942  0.15521353  0.00019540  1.0
  Cl  Cl48  1  0.25739589  0.84478647  0.50019540  1.0
  Cl  Cl49  1  0.25739589  0.41260942  0.99980460  1.0
  Cl  Cl50  1  0.15521353  0.74260411  0.99980460  1.0
  Cl  Cl51  1  0.15521353  0.41260942  0.50019540  1.0
