# generated using pymatgen
data_TlPO3
_symmetry_space_group_name_H-M   'P 1'
_cell_length_a   7.81535890
_cell_length_b   7.81535890
_cell_length_c   11.44623562
_cell_angle_alpha   90.00000000
_cell_angle_beta   90.00000000
_cell_angle_gamma   90.00000000
_symmetry_Int_Tables_number   1
_chemical_formula_structural   TlPO3
_chemical_formula_sum   'Tl8 P8 O24'
_cell_volume   699.13418001
_cell_formula_units_Z   8
loop_
 _symmetry_equiv_pos_site_id
 _symmetry_equiv_pos_as_xyz
  1  'x, y, z'
loop_
 _atom_site_type_symbol
 _atom_site_label
 _atom_site_symmetry_multiplicity
 _atom_site_fract_x
 _atom_site_fract_y
 _atom_site_fract_z
 _atom_site_occupancy
  Tl  Tl0  1  0.00000000  0.50000000  0.28165645  1.0
  Tl  Tl1  1  0.50000000  0.00000000  0.21834355  1.0
  Tl  Tl2  1  0.50000000  0.00000000  0.71834355  1.0
  Tl  Tl3  1  0.00000000  0.50000000  0.78165645  1.0
  Tl  Tl4  1  0.50000000  0.50000000  0.33303099  1.0
  Tl  Tl5  1  0.00000000  0.00000000  0.16696901  1.0
  Tl  Tl6  1  0.50000000  0.50000000  0.66696901  1.0
  Tl  Tl7  1  0.00000000  0.00000000  0.83303099  1.0
  P  P8  1  0.28418990  0.34482321  0.03112688  1.0
  P  P9  1  0.21581010  0.84482321  0.46887312  1.0
  P  P10  1  0.65517679  0.28418990  0.96887312  1.0
  P  P11  1  0.84482321  0.78418990  0.53112688  1.0
  P  P12  1  0.71581010  0.65517679  0.03112688  1.0
  P  P13  1  0.78418990  0.15517679  0.46887312  1.0
  P  P14  1  0.34482321  0.71581010  0.96887312  1.0
  P  P15  1  0.15517679  0.21581010  0.53112688  1.0
  O  O16  1  0.19643645  0.37286941  0.46025399  1.0
  O  O17  1  0.30356355  0.87286941  0.03974601  1.0
  O  O18  1  0.62713059  0.19643645  0.53974601  1.0
  O  O19  1  0.87286941  0.69643645  0.96025399  1.0
  O  O20  1  0.80356355  0.62713059  0.46025399  1.0
  O  O21  1  0.69643645  0.12713059  0.03974601  1.0
  O  O22  1  0.37286941  0.80356355  0.53974601  1.0
  O  O23  1  0.12713059  0.30356355  0.96025399  1.0
  O  O24  1  0.30270195  0.26970810  0.15220393  1.0
  O  O25  1  0.19729805  0.76970810  0.34779607  1.0
  O  O26  1  0.73029190  0.30270195  0.84779607  1.0
  O  O27  1  0.76970810  0.80270195  0.65220393  1.0
  O  O28  1  0.69729805  0.73029190  0.15220393  1.0
  O  O29  1  0.80270195  0.23029190  0.34779607  1.0
  O  O30  1  0.26970810  0.69729805  0.84779607  1.0
  O  O31  1  0.23029190  0.19729805  0.65220393  1.0
  O  O32  1  0.19775761  0.05175921  0.44805204  1.0
  O  O33  1  0.30224239  0.55175921  0.05194796  1.0
  O  O34  1  0.94824079  0.19775761  0.55194796  1.0
  O  O35  1  0.55175921  0.69775761  0.94805204  1.0
  O  O36  1  0.80224239  0.94824079  0.44805204  1.0
  O  O37  1  0.69775761  0.44824079  0.05194796  1.0
  O  O38  1  0.05175921  0.80224239  0.55194796  1.0
  O  O39  1  0.44824079  0.30224239  0.94805204  1.0
