# generated using pymatgen
data_PbS
_symmetry_space_group_name_H-M   'P 1'
_cell_length_a   8.49080385
_cell_length_b   4.24204385
_cell_length_c   6.00179352
_cell_angle_alpha   90.00000000
_cell_angle_beta   90.00000000
_cell_angle_gamma   90.00000000
_symmetry_Int_Tables_number   1
_chemical_formula_structural   PbS
_chemical_formula_sum   'Pb4 S4'
_cell_volume   216.17477300
_cell_formula_units_Z   4
loop_
 _symmetry_equiv_pos_site_id
 _symmetry_equiv_pos_as_xyz
  1  'x, y, z'
loop_
 _atom_site_type_symbol
 _atom_site_label
 _atom_site_symmetry_multiplicity
 _atom_site_fract_x
 _atom_site_fract_y
 _atom_site_fract_z
 _atom_site_occupancy
  Pb  Pb0  1  0.12491399  0.75000000  0.74999585  1.0
  Pb  Pb1  1  0.62491399  0.75000000  0.75000415  1.0
  Pb  Pb2  1  0.87508601  0.25000000  0.25000415  1.0
  Pb  Pb3  1  0.37508601  0.25000000  0.24999585  1.0
  S  S4  1  0.87471705  0.25000000  0.74977361  1.0
  S  S5  1  0.37471705  0.25000000  0.75022639  1.0
  S  S6  1  0.12528295  0.75000000  0.25022639  1.0
  S  S7  1  0.62528295  0.75000000  0.24977361  1.0
