# generated using pymatgen
data_MoAs
_symmetry_space_group_name_H-M   'P 1'
_cell_length_a   6.04890540
_cell_length_b   3.38540560
_cell_length_c   6.42749097
_cell_angle_alpha   90.00000000
_cell_angle_beta   90.00000000
_cell_angle_gamma   90.00000000
_symmetry_Int_Tables_number   1
_chemical_formula_structural   MoAs
_chemical_formula_sum   'Mo4 As4'
_cell_volume   131.62214839
_cell_formula_units_Z   4
loop_
 _symmetry_equiv_pos_site_id
 _symmetry_equiv_pos_as_xyz
  1  'x, y, z'
loop_
 _atom_site_type_symbol
 _atom_site_label
 _atom_site_symmetry_multiplicity
 _atom_site_fract_x
 _atom_site_fract_y
 _atom_site_fract_z
 _atom_site_occupancy
  Mo  Mo0  1  -0.01398788  0.75000000  0.18296503  1.0
  Mo  Mo1  1  0.48601212  0.75000000  0.31703497  1.0
  Mo  Mo2  1  0.01398788  0.25000000  0.81703497  1.0
  Mo  Mo3  1  0.51398788  0.25000000  0.68296503  1.0
  As  As4  1  0.81250790  0.75000000  0.56861058  1.0
  As  As5  1  0.31250790  0.75000000  0.93138942  1.0
  As  As6  1  0.18749210  0.25000000  0.43138942  1.0
  As  As7  1  0.68749210  0.25000000  0.06861058  1.0
