# generated using pymatgen
data_TaBe3
_symmetry_space_group_name_H-M   'P 1'
_cell_length_a   7.45182457
_cell_length_b   7.45182457
_cell_length_c   7.45182457
_cell_angle_alpha   35.57373688
_cell_angle_beta   35.57373688
_cell_angle_gamma   35.57373688
_symmetry_Int_Tables_number   1
_chemical_formula_structural   TaBe3
_chemical_formula_sum   'Ta3 Be9'
_cell_volume   125.16510075
_cell_formula_units_Z   3
loop_
 _symmetry_equiv_pos_site_id
 _symmetry_equiv_pos_as_xyz
  1  'x, y, z'
loop_
 _atom_site_type_symbol
 _atom_site_label
 _atom_site_symmetry_multiplicity
 _atom_site_fract_x
 _atom_site_fract_y
 _atom_site_fract_z
 _atom_site_occupancy
  Ta  Ta0  1  0.00000000  0.00000000  0.00000000  1.0
  Ta  Ta1  1  0.85977689  0.85977689  0.85977689  1.0
  Ta  Ta2  1  1.14022311  1.14022311  0.14022311  1.0
  Be  Be3  1  1.66544652  0.66544652  0.66544652  1.0
  Be  Be4  1  1.33455348  0.33455348  0.33455348  1.0
  Be  Be5  1  1.50000000  0.50000000  0.50000000  1.0
  Be  Be6  1  1.41575857  1.41575857  -0.07471447  1.0
  Be  Be7  1  1.41575857  0.92528553  0.41575857  1.0
  Be  Be8  1  1.07471447  0.58424143  0.58424143  1.0
  Be  Be9  1  1.58424143  0.07471447  0.58424143  1.0
  Be  Be10  1  1.58424143  0.58424143  0.07471447  1.0
  Be  Be11  1  0.92528553  1.41575857  0.41575857  1.0
