# generated using pymatgen
data_LiGaCl3
_symmetry_space_group_name_H-M   'P 1'
_cell_length_a   15.28935196
_cell_length_b   9.95388768
_cell_length_c   6.28651849
_cell_angle_alpha   90.00000000
_cell_angle_beta   90.00000000
_cell_angle_gamma   90.00000000
_symmetry_Int_Tables_number   1
_chemical_formula_structural   LiGaCl3
_chemical_formula_sum   'Li8 Ga8 Cl24'
_cell_volume   956.73577021
_cell_formula_units_Z   8
loop_
 _symmetry_equiv_pos_site_id
 _symmetry_equiv_pos_as_xyz
  1  'x, y, z'
loop_
 _atom_site_type_symbol
 _atom_site_label
 _atom_site_symmetry_multiplicity
 _atom_site_fract_x
 _atom_site_fract_y
 _atom_site_fract_z
 _atom_site_occupancy
  Li  Li0  1  0.86787716  0.48728650  0.14206947  1.0
  Li  Li1  1  0.86787716  0.01271350  0.14206947  1.0
  Li  Li2  1  0.36787716  0.48728650  0.35793053  1.0
  Li  Li3  1  0.36787716  0.01271350  0.35793053  1.0
  Li  Li4  1  0.13212284  0.98728650  0.85793053  1.0
  Li  Li5  1  0.13212284  0.51271350  0.85793053  1.0
  Li  Li6  1  0.63212284  0.98728650  0.64206947  1.0
  Li  Li7  1  0.63212284  0.51271350  0.64206947  1.0
  Ga  Ga8  1  0.99938968  0.25000000  0.55121555  1.0
  Ga  Ga9  1  0.49938968  0.25000000  0.94878445  1.0
  Ga  Ga10  1  0.00061032  0.75000000  0.44878445  1.0
  Ga  Ga11  1  0.50061032  0.75000000  0.05121555  1.0
  Ga  Ga12  1  0.64571888  0.25000000  0.09408567  1.0
  Ga  Ga13  1  0.14571888  0.25000000  0.40591433  1.0
  Ga  Ga14  1  0.35428112  0.75000000  0.90591433  1.0
  Ga  Ga15  1  0.85428112  0.75000000  0.59408567  1.0
  Cl  Cl16  1  0.97535977  0.43053698  0.76635152  1.0
  Cl  Cl17  1  0.97535977  0.06946302  0.76635152  1.0
  Cl  Cl18  1  0.47535977  0.43053698  0.73364848  1.0
  Cl  Cl19  1  0.47535977  0.06946302  0.73364848  1.0
  Cl  Cl20  1  0.02464023  0.93053698  0.23364848  1.0
  Cl  Cl21  1  0.02464023  0.56946302  0.23364848  1.0
  Cl  Cl22  1  0.52464023  0.93053698  0.26635152  1.0
  Cl  Cl23  1  0.52464023  0.56946302  0.26635152  1.0
  Cl  Cl24  1  0.77572727  0.92671762  0.46184917  1.0
  Cl  Cl25  1  0.77572727  0.57328238  0.46184917  1.0
  Cl  Cl26  1  0.27572727  0.92671762  0.03815083  1.0
  Cl  Cl27  1  0.27572727  0.57328238  0.03815083  1.0
  Cl  Cl28  1  0.22427273  0.42671762  0.53815083  1.0
  Cl  Cl29  1  0.22427273  0.07328238  0.53815083  1.0
  Cl  Cl30  1  0.72427273  0.42671762  0.96184917  1.0
  Cl  Cl31  1  0.72427273  0.07328238  0.96184917  1.0
  Cl  Cl32  1  0.89064313  0.25000000  0.30331816  1.0
  Cl  Cl33  1  0.39064313  0.25000000  0.19668184  1.0
  Cl  Cl34  1  0.10935687  0.75000000  0.69668184  1.0
  Cl  Cl35  1  0.60935687  0.75000000  0.80331816  1.0
  Cl  Cl36  1  0.66010302  0.25000000  0.44945502  1.0
  Cl  Cl37  1  0.16010302  0.25000000  0.05054498  1.0
  Cl  Cl38  1  0.33989698  0.75000000  0.55054498  1.0
  Cl  Cl39  1  0.83989698  0.75000000  0.94945502  1.0
