# generated using pymatgen
data_Ca3C3Cl2
_symmetry_space_group_name_H-M   'P 1'
_cell_length_a   7.01937929
_cell_length_b   7.01937929
_cell_length_c   11.55122372
_cell_angle_alpha   90.00000000
_cell_angle_beta   90.00000000
_cell_angle_gamma   148.13750307
_symmetry_Int_Tables_number   1
_chemical_formula_structural   Ca3C3Cl2
_chemical_formula_sum   'Ca6 C6 Cl4'
_cell_volume   300.44342260
_cell_formula_units_Z   2
loop_
 _symmetry_equiv_pos_site_id
 _symmetry_equiv_pos_as_xyz
  1  'x, y, z'
loop_
 _atom_site_type_symbol
 _atom_site_label
 _atom_site_symmetry_multiplicity
 _atom_site_fract_x
 _atom_site_fract_y
 _atom_site_fract_z
 _atom_site_occupancy
  Ca  Ca0  1  0.34335219  0.65664781  0.93926734  1.0
  Ca  Ca1  1  0.34335219  0.65664781  0.56073266  1.0
  Ca  Ca2  1  -0.34335219  0.34335219  0.43926734  1.0
  Ca  Ca3  1  -0.34335219  0.34335219  0.06073266  1.0
  Ca  Ca4  1  0.12150948  0.87849052  0.75000000  1.0
  Ca  Ca5  1  -0.12150948  0.12150948  0.25000000  1.0
  C  C6  1  0.26715256  0.73284744  0.36490098  1.0
  C  C7  1  0.26715256  0.73284744  0.13509902  1.0
  C  C8  1  -0.26715256  0.26715256  0.86490098  1.0
  C  C9  1  -0.26715256  0.26715256  0.63509902  1.0
  C  C10  1  -0.25762991  0.25762991  0.75000000  1.0
  C  C11  1  0.25762991  0.74237009  0.25000000  1.0
  Cl  Cl12  1  0.47119113  0.52880887  0.75000000  1.0
  Cl  Cl13  1  -0.47119113  0.47119113  0.25000000  1.0
  Cl  Cl14  1  0.00000000  0.00000000  0.00000000  1.0
  Cl  Cl15  1  0.00000000  0.00000000  0.50000000  1.0
