# generated using pymatgen
data_Ti2NiSe4
_symmetry_space_group_name_H-M   'P 1'
_cell_length_a   6.90220294
_cell_length_b   6.90220294
_cell_length_c   6.17020340
_cell_angle_alpha   63.74421096
_cell_angle_beta   116.25578904
_cell_angle_gamma   149.98044471
_symmetry_Int_Tables_number   1
_chemical_formula_structural   Ti2NiSe4
_chemical_formula_sum   'Ti2 Ni1 Se4'
_cell_volume   130.73098591
_cell_formula_units_Z   1
loop_
 _symmetry_equiv_pos_site_id
 _symmetry_equiv_pos_as_xyz
  1  'x, y, z'
loop_
 _atom_site_type_symbol
 _atom_site_label
 _atom_site_symmetry_multiplicity
 _atom_site_fract_x
 _atom_site_fract_y
 _atom_site_fract_z
 _atom_site_occupancy
  Ti  Ti0  1  0.74899694  -0.74899694  0.73800842  1.0
  Ti  Ti1  1  1.25100306  -0.25100306  0.26199158  1.0
  Ni  Ni2  1  0.00000000  0.00000000  0.00000000  1.0
  Se  Se3  1  0.88306730  -0.88306730  0.54785049  1.0
  Se  Se4  1  1.11693270  -0.11693270  0.45214951  1.0
  Se  Se5  1  0.62107287  -0.62107287  0.95400732  1.0
  Se  Se6  1  1.37892713  -0.37892713  0.04599268  1.0
