# generated using pymatgen
data_K2OsCBr5O
_symmetry_space_group_name_H-M   'P 1'
_cell_length_a   15.25195709
_cell_length_b   7.60683743
_cell_length_c   10.54721804
_cell_angle_alpha   90.00000000
_cell_angle_beta   90.00000000
_cell_angle_gamma   90.00000000
_symmetry_Int_Tables_number   1
_chemical_formula_structural   K2OsCBr5O
_chemical_formula_sum   'K8 Os4 C4 Br20 O4'
_cell_volume   1223.67935666
_cell_formula_units_Z   4
loop_
 _symmetry_equiv_pos_site_id
 _symmetry_equiv_pos_as_xyz
  1  'x, y, z'
loop_
 _atom_site_type_symbol
 _atom_site_label
 _atom_site_symmetry_multiplicity
 _atom_site_fract_x
 _atom_site_fract_y
 _atom_site_fract_z
 _atom_site_occupancy
  K  K0  1  0.34657214  0.15784150  0.75357956  1.0
  K  K1  1  0.84657214  0.34215850  0.75357956  1.0
  K  K2  1  0.65342786  0.84215850  0.25357956  1.0
  K  K3  1  0.15342786  0.65784150  0.25357956  1.0
  K  K4  1  0.15334392  0.65781633  0.75324892  1.0
  K  K5  1  0.65334392  0.84218367  0.75324892  1.0
  K  K6  1  0.84665608  0.34218367  0.25324892  1.0
  K  K7  1  0.34665608  0.15781633  0.25324892  1.0
  Os  Os8  1  0.38271969  0.69991556  0.50337807  1.0
  Os  Os9  1  0.88271969  0.80008444  0.50337807  1.0
  Os  Os10  1  0.61728031  0.30008444  0.00337807  1.0
  Os  Os11  1  0.11728031  0.19991556  0.00337807  1.0
  C  C12  1  0.47337691  0.54281066  0.50343405  1.0
  C  C13  1  0.97337691  0.95718934  0.50343405  1.0
  C  C14  1  0.52662309  0.45718934  0.00343405  1.0
  C  C15  1  0.02662309  0.04281066  0.00343405  1.0
  Br  Br16  1  0.48470426  0.96509800  0.50334372  1.0
  Br  Br17  1  0.98470426  0.53490200  0.50334372  1.0
  Br  Br18  1  0.51529574  0.03490200  0.00334372  1.0
  Br  Br19  1  0.01529574  0.46509800  0.00334372  1.0
  Br  Br20  1  0.38027167  0.70651686  0.74155790  1.0
  Br  Br21  1  0.88027167  0.79348314  0.74155790  1.0
  Br  Br22  1  0.61972833  0.29348314  0.24155790  1.0
  Br  Br23  1  0.11972833  0.20651686  0.24155790  1.0
  Br  Br24  1  0.38032566  0.70637095  0.26519291  1.0
  Br  Br25  1  0.88032566  0.79362905  0.26519291  1.0
  Br  Br26  1  0.61967434  0.29362905  0.76519291  1.0
  Br  Br27  1  0.11967434  0.20637095  0.76519291  1.0
  Br  Br28  1  0.24692123  0.91508916  0.50341951  1.0
  Br  Br29  1  0.74692123  0.58491084  0.50341951  1.0
  Br  Br30  1  0.75307877  0.08491084  0.00341951  1.0
  Br  Br31  1  0.25307877  0.41508916  0.00341951  1.0
  Br  Br32  1  0.22616662  0.94639354  0.00335691  1.0
  Br  Br33  1  0.72616662  0.55360646  0.00335691  1.0
  Br  Br34  1  0.77383338  0.05360646  0.50335691  1.0
  Br  Br35  1  0.27383338  0.44639354  0.50335691  1.0
  O  O36  1  0.47074317  0.56195514  0.00348846  1.0
  O  O37  1  0.97074317  0.93804486  0.00348846  1.0
  O  O38  1  0.52925683  0.43804486  0.50348846  1.0
  O  O39  1  0.02925683  0.06195514  0.50348846  1.0
