# generated using pymatgen
data_K3NaFeCl6
_symmetry_space_group_name_H-M   'P 1'
_cell_length_a   7.75872262
_cell_length_b   7.75872262
_cell_length_c   7.75872262
_cell_angle_alpha   111.49404822
_cell_angle_beta   111.49404822
_cell_angle_gamma   111.49404822
_symmetry_Int_Tables_number   1
_chemical_formula_structural   K3NaFeCl6
_chemical_formula_sum   'K3 Na1 Fe1 Cl6'
_cell_volume   329.88363901
_cell_formula_units_Z   1
loop_
 _symmetry_equiv_pos_site_id
 _symmetry_equiv_pos_as_xyz
  1  'x, y, z'
loop_
 _atom_site_type_symbol
 _atom_site_label
 _atom_site_symmetry_multiplicity
 _atom_site_fract_x
 _atom_site_fract_y
 _atom_site_fract_z
 _atom_site_occupancy
  K  K0  1  0.50000000  1.00000000  -0.50000000  1.0
  K  K1  1  1.00000000  0.50000000  0.50000000  1.0
  K  K2  1  0.50000000  0.50000000  -0.00000000  1.0
  Na  Na3  1  0.00000000  0.00000000  0.00000000  1.0
  Fe  Fe4  1  0.50000000  0.50000000  0.50000000  1.0
  Cl  Cl5  1  0.80488556  0.80488556  0.53060179  1.0
  Cl  Cl6  1  0.80488556  1.53060179  -0.19511444  1.0
  Cl  Cl7  1  0.53060179  -0.19511444  -0.19511444  1.0
  Cl  Cl8  1  1.19511444  1.19511444  0.46939821  1.0
  Cl  Cl9  1  1.19511444  1.46939821  0.19511444  1.0
  Cl  Cl10  1  0.46939821  0.19511444  0.19511444  1.0
