# generated using pymatgen
data_ZnSnS3
_symmetry_space_group_name_H-M   'P 1'
_cell_length_a   6.88842587
_cell_length_b   6.88842587
_cell_length_c   6.88842587
_cell_angle_alpha   55.67282902
_cell_angle_beta   55.67282902
_cell_angle_gamma   55.67282902
_symmetry_Int_Tables_number   1
_chemical_formula_structural   ZnSnS3
_chemical_formula_sum   'Zn2 Sn2 S6'
_cell_volume   207.92054772
_cell_formula_units_Z   2
loop_
 _symmetry_equiv_pos_site_id
 _symmetry_equiv_pos_as_xyz
  1  'x, y, z'
loop_
 _atom_site_type_symbol
 _atom_site_label
 _atom_site_symmetry_multiplicity
 _atom_site_fract_x
 _atom_site_fract_y
 _atom_site_fract_z
 _atom_site_occupancy
  Zn  Zn0  1  0.20371825  0.20371825  0.20371825  1.0
  Zn  Zn1  1  0.70371825  -0.29628175  -0.29628175  1.0
  Sn  Sn2  1  0.49493075  0.49493075  -0.50506925  1.0
  Sn  Sn3  1  0.99493075  -0.00506925  -0.00506925  1.0
  S  S4  1  0.58813815  0.30755782  -0.09185397  1.0
  S  S5  1  1.30755782  -0.09185397  -0.41186185  1.0
  S  S6  1  0.90814603  -0.41186185  0.30755782  1.0
  S  S7  1  0.08813815  0.40814603  -0.19244218  1.0
  S  S8  1  0.40814603  0.80755782  -0.91186185  1.0
  S  S9  1  0.80755782  0.08813815  -0.59185397  1.0
