# generated using pymatgen
data_Sc2Mn3Si
_symmetry_space_group_name_H-M   'P 1'
_cell_length_a   4.91944709
_cell_length_b   4.91944709
_cell_length_c   8.08778268
_cell_angle_alpha   90.00000000
_cell_angle_beta   90.00000000
_cell_angle_gamma   120.00000000
_symmetry_Int_Tables_number   1
_chemical_formula_structural   Sc2Mn3Si
_chemical_formula_sum   'Sc4 Mn6 Si2'
_cell_volume   169.50897308
_cell_formula_units_Z   2
loop_
 _symmetry_equiv_pos_site_id
 _symmetry_equiv_pos_as_xyz
  1  'x, y, z'
loop_
 _atom_site_type_symbol
 _atom_site_label
 _atom_site_symmetry_multiplicity
 _atom_site_fract_x
 _atom_site_fract_y
 _atom_site_fract_z
 _atom_site_occupancy
  Sc  Sc0  1  0.33333333  0.66666667  0.93402230  1.0
  Sc  Sc1  1  0.33333333  0.66666667  0.56597770  1.0
  Sc  Sc2  1  0.66666667  0.33333333  0.43402230  1.0
  Sc  Sc3  1  0.66666667  0.33333333  0.06597770  1.0
  Mn  Mn4  1  0.17532649  0.82467351  0.25000000  1.0
  Mn  Mn5  1  0.17532649  0.35065298  0.25000000  1.0
  Mn  Mn6  1  0.82467351  0.17532649  0.75000000  1.0
  Mn  Mn7  1  0.82467351  0.64934702  0.75000000  1.0
  Mn  Mn8  1  0.64934702  0.82467351  0.25000000  1.0
  Mn  Mn9  1  0.35065298  0.17532649  0.75000000  1.0
  Si  Si10  1  0.00000000  -0.00000000  0.50000000  1.0
  Si  Si11  1  -0.00000000  0.00000000  -0.00000000  1.0
