# generated using pymatgen
data_SrI2
_symmetry_space_group_name_H-M   'P 1'
_cell_length_a   12.61880293
_cell_length_b   5.01661607
_cell_length_c   8.43861777
_cell_angle_alpha   90.00000000
_cell_angle_beta   90.00000000
_cell_angle_gamma   90.00000000
_symmetry_Int_Tables_number   1
_chemical_formula_structural   SrI2
_chemical_formula_sum   'Sr4 I8'
_cell_volume   534.19563991
_cell_formula_units_Z   4
loop_
 _symmetry_equiv_pos_site_id
 _symmetry_equiv_pos_as_xyz
  1  'x, y, z'
loop_
 _atom_site_type_symbol
 _atom_site_label
 _atom_site_symmetry_multiplicity
 _atom_site_fract_x
 _atom_site_fract_y
 _atom_site_fract_z
 _atom_site_occupancy
  Sr  Sr0  1  0.16839811  0.75000000  0.87088292  1.0
  Sr  Sr1  1  0.66839811  0.75000000  0.62911708  1.0
  Sr  Sr2  1  0.83160189  0.25000000  0.12911708  1.0
  Sr  Sr3  1  0.33160189  0.25000000  0.37088292  1.0
  I  I4  1  0.39309852  0.75000000  0.62472391  1.0
  I  I5  1  0.89309852  0.75000000  0.87527609  1.0
  I  I6  1  0.60690148  0.25000000  0.37527609  1.0
  I  I7  1  0.10690148  0.25000000  0.12472391  1.0
  I  I8  1  0.37427749  0.75000000  0.12015282  1.0
  I  I9  1  0.87427749  0.75000000  0.37984718  1.0
  I  I10  1  0.62572251  0.25000000  0.87984718  1.0
  I  I11  1  0.12572251  0.25000000  0.62015282  1.0
