# generated using pymatgen
data_K2Zn(PO3)4
_symmetry_space_group_name_H-M   'P 1'
_cell_length_a   8.46926778
_cell_length_b   8.46926778
_cell_length_c   7.86306627
_cell_angle_alpha   82.09588911
_cell_angle_beta   97.90411089
_cell_angle_gamma   82.87663679
_symmetry_Int_Tables_number   1
_chemical_formula_structural   K2Zn(PO3)4
_chemical_formula_sum   'K4 Zn2 P8 O24'
_cell_volume   547.43780286
_cell_formula_units_Z   2
loop_
 _symmetry_equiv_pos_site_id
 _symmetry_equiv_pos_as_xyz
  1  'x, y, z'
loop_
 _atom_site_type_symbol
 _atom_site_label
 _atom_site_symmetry_multiplicity
 _atom_site_fract_x
 _atom_site_fract_y
 _atom_site_fract_z
 _atom_site_occupancy
  K  K0  1  0.87745500  -0.13022145  0.49782872  1.0
  K  K1  1  1.13022145  0.12254500  -0.00217128  1.0
  K  K2  1  1.56983179  0.16356188  0.81919738  1.0
  K  K3  1  0.83643812  -0.56983179  0.31919738  1.0
  Zn  Zn4  1  0.52151440  -0.21459356  0.15655654  1.0
  Zn  Zn5  1  1.21459356  0.47848560  0.65655654  1.0
  P  P6  1  1.18753937  0.66325991  0.24915054  1.0
  P  P7  1  0.33674009  -0.18753937  0.74915054  1.0
  P  P8  1  1.50036760  0.12058951  0.33182384  1.0
  P  P9  1  0.87941049  -0.50036760  0.83182384  1.0
  P  P10  1  1.19621601  0.12600493  0.49313213  1.0
  P  P11  1  0.87399507  -0.19621601  0.99313213  1.0
  P  P12  1  1.40615369  0.43803681  0.09571475  1.0
  P  P13  1  0.56196319  -0.40615369  0.59571475  1.0
  O  O14  1  0.64495613  -0.34683612  0.44674234  1.0
  O  O15  1  1.34683612  0.35504387  0.94674234  1.0
  O  O16  1  0.76690036  -0.24549737  0.12409549  1.0
  O  O17  1  1.24549737  0.23309964  0.62409549  1.0
  O  O18  1  0.51193367  -0.43250242  0.07127866  1.0
  O  O19  1  1.43250242  0.48806633  0.57127866  1.0
  O  O20  1  0.85568276  -0.02607208  0.90210090  1.0
  O  O21  1  1.02607208  0.14431724  0.40210090  1.0
  O  O22  1  1.25061031  0.49796017  0.18215971  1.0
  O  O23  1  0.50203983  -0.25061031  0.68215971  1.0
  O  O24  1  0.31722220  -0.23095013  0.27030800  1.0
  O  O25  1  1.23095013  0.68277780  0.77030800  1.0
  O  O26  1  1.53413012  0.01785839  0.19361991  1.0
  O  O27  1  0.98214161  -0.53413012  0.69361991  1.0
  O  O28  1  1.60254483  0.08233703  0.50681067  1.0
  O  O29  1  0.91766297  -0.60254483  0.00681067  1.0
  O  O30  1  1.09936684  0.61645484  0.39880809  1.0
  O  O31  1  0.38354516  -0.09936684  0.89880809  1.0
  O  O32  1  1.06066348  0.75917948  0.08424443  1.0
  O  O33  1  0.24082052  -0.06066348  0.58424443  1.0
  O  O34  1  1.51412103  0.30561651  0.25217762  1.0
  O  O35  1  0.69438349  -0.51412103  0.75217762  1.0
  O  O36  1  1.30774581  0.13276909  0.33925028  1.0
  O  O37  1  0.86723091  -0.30774581  0.83925028  1.0
