# generated using pymatgen
data_K3YV2O8
_symmetry_space_group_name_H-M   'P 1'
_cell_length_a   5.97498156
_cell_length_b   5.97498156
_cell_length_c   7.66112949
_cell_angle_alpha   90.00000000
_cell_angle_beta   90.00000000
_cell_angle_gamma   120.00000000
_symmetry_Int_Tables_number   1
_chemical_formula_structural   K3YV2O8
_chemical_formula_sum   'K3 Y1 V2 O8'
_cell_volume   236.86264389
_cell_formula_units_Z   1
loop_
 _symmetry_equiv_pos_site_id
 _symmetry_equiv_pos_as_xyz
  1  'x, y, z'
loop_
 _atom_site_type_symbol
 _atom_site_label
 _atom_site_symmetry_multiplicity
 _atom_site_fract_x
 _atom_site_fract_y
 _atom_site_fract_z
 _atom_site_occupancy
  K  K0  1  0.33333333  0.66666667  0.69179184  1.0
  K  K1  1  0.66666667  0.33333333  0.30820816  1.0
  K  K2  1  0.00000000  0.00000000  0.00000000  1.0
  Y  Y3  1  0.00000000  0.00000000  0.50000000  1.0
  V  V4  1  0.33333333  0.66666667  0.24512993  1.0
  V  V5  1  0.66666667  0.33333333  0.75487007  1.0
  O  O6  1  0.64997200  0.82498600  0.32421899  1.0
  O  O7  1  0.82498600  0.64997200  0.67578101  1.0
  O  O8  1  0.82498600  0.17501400  0.67578101  1.0
  O  O9  1  0.17501400  0.82498600  0.32421899  1.0
  O  O10  1  0.17501400  0.35002800  0.32421899  1.0
  O  O11  1  0.35002800  0.17501400  0.67578101  1.0
  O  O12  1  0.33333333  0.66666667  0.02861724  1.0
  O  O13  1  0.66666667  0.33333333  0.97138276  1.0
