# generated using pymatgen
data_MgAlH5
_symmetry_space_group_name_H-M   'P 1'
_cell_length_a   4.55838911
_cell_length_b   4.26872312
_cell_length_c   13.03596235
_cell_angle_alpha   90.00000000
_cell_angle_beta   90.00000000
_cell_angle_gamma   90.00000000
_symmetry_Int_Tables_number   1
_chemical_formula_structural   MgAlH5
_chemical_formula_sum   'Mg4 Al4 H20'
_cell_volume   253.66028618
_cell_formula_units_Z   4
loop_
 _symmetry_equiv_pos_site_id
 _symmetry_equiv_pos_as_xyz
  1  'x, y, z'
loop_
 _atom_site_type_symbol
 _atom_site_label
 _atom_site_symmetry_multiplicity
 _atom_site_fract_x
 _atom_site_fract_y
 _atom_site_fract_z
 _atom_site_occupancy
  Mg  Mg0  1  0.99935071  0.00014121  0.07051309  1.0
  Mg  Mg1  1  0.50064929  0.99985879  0.57051309  1.0
  Mg  Mg2  1  0.00064929  0.50014121  0.42948691  1.0
  Mg  Mg3  1  0.49935071  0.49985879  0.92948691  1.0
  Al  Al4  1  0.49955256  0.50045022  0.15798798  1.0
  Al  Al5  1  0.00044744  0.49954978  0.65798798  1.0
  Al  Al6  1  0.50044744  0.00045022  0.34201202  1.0
  Al  Al7  1  0.99955256  0.99954978  0.84201202  1.0
  H  H8  1  0.80570078  0.22239010  0.34351253  1.0
  H  H9  1  0.69429922  0.77760990  0.84351253  1.0
  H  H10  1  0.19429922  0.72239010  0.15648747  1.0
  H  H11  1  0.30570078  0.27760990  0.65648747  1.0
  H  H12  1  0.65477435  0.77787438  0.44532100  1.0
  H  H13  1  0.84522565  0.22212562  0.94532100  1.0
  H  H14  1  0.34522565  0.27787438  0.05467900  1.0
  H  H15  1  0.15477435  0.72212562  0.55467900  1.0
  H  H16  1  0.80486310  0.27861672  0.15633394  1.0
  H  H17  1  0.69513690  0.72138328  0.65633394  1.0
  H  H18  1  0.19513690  0.77861672  0.34366606  1.0
  H  H19  1  0.30486310  0.22138328  0.84366606  1.0
  H  H20  1  0.65339112  0.72272109  0.05454283  1.0
  H  H21  1  0.84660888  0.27727891  0.55454283  1.0
  H  H22  1  0.34660888  0.22272109  0.44545717  1.0
  H  H23  1  0.15339112  0.77727891  0.94545717  1.0
  H  H24  1  0.65802376  0.75067502  0.24985875  1.0
  H  H25  1  0.84197624  0.24932498  0.74985875  1.0
  H  H26  1  0.34197624  0.25067502  0.25014125  1.0
  H  H27  1  0.15802376  0.74932498  0.75014125  1.0
