# generated using pymatgen
data_Pb3Se2(BrO3)2
_symmetry_space_group_name_H-M   'P 1'
_cell_length_a   7.40474871
_cell_length_b   7.40474871
_cell_length_c   14.16653128
_cell_angle_alpha   84.24618451
_cell_angle_beta   95.75381549
_cell_angle_gamma   133.89550231
_symmetry_Int_Tables_number   1
_chemical_formula_structural   Pb3Se2(BrO3)2
_chemical_formula_sum   'Pb6 Se4 Br4 O12'
_cell_volume   556.40186102
_cell_formula_units_Z   2
loop_
 _symmetry_equiv_pos_site_id
 _symmetry_equiv_pos_as_xyz
  1  'x, y, z'
loop_
 _atom_site_type_symbol
 _atom_site_label
 _atom_site_symmetry_multiplicity
 _atom_site_fract_x
 _atom_site_fract_y
 _atom_site_fract_z
 _atom_site_occupancy
  Pb  Pb0  1  0.23883540  -0.17729864  0.85150800  1.0
  Pb  Pb1  1  1.17729864  0.76116460  0.35150800  1.0
  Pb  Pb2  1  0.82270136  0.23883540  0.64849200  1.0
  Pb  Pb3  1  0.76116460  0.17729864  0.14849200  1.0
  Pb  Pb4  1  0.57289158  0.57289158  0.75000000  1.0
  Pb  Pb5  1  0.42710842  0.42710842  0.25000000  1.0
  Se  Se6  1  0.90938668  0.10691078  0.87552014  1.0
  Se  Se7  1  0.89308922  0.09061332  0.37552014  1.0
  Se  Se8  1  0.10691078  -0.09061332  0.62447986  1.0
  Se  Se9  1  1.09061332  0.89308922  0.12447986  1.0
  Br  Br10  1  0.63834033  0.33611334  0.93707288  1.0
  Br  Br11  1  0.66388666  0.36165967  0.43707288  1.0
  Br  Br12  1  1.33611334  0.63834033  0.56292712  1.0
  Br  Br13  1  0.36165967  -0.33611334  0.06292712  1.0
  O  O14  1  0.92481156  -0.03380462  0.63929222  1.0
  O  O15  1  1.03380462  0.07518844  0.13929222  1.0
  O  O16  1  0.96619538  0.92481156  0.86070778  1.0
  O  O17  1  0.07518844  0.03380462  0.36070778  1.0
  O  O18  1  0.62996291  -0.05970308  0.80377855  1.0
  O  O19  1  1.05970308  0.37003709  0.30377855  1.0
  O  O20  1  0.94029692  0.62996291  0.69622145  1.0
  O  O21  1  0.37003709  0.05970308  0.19622145  1.0
  O  O22  1  0.36967531  0.10400331  0.70062299  1.0
  O  O23  1  0.89599669  0.63032469  0.20062299  1.0
  O  O24  1  1.10400331  0.36967531  0.79937701  1.0
  O  O25  1  0.63032469  -0.10400331  0.29937701  1.0
