# generated using pymatgen
data_Ca3Si2(H3O5)2
_symmetry_space_group_name_H-M   'P 1'
_cell_length_a   8.65437493
_cell_length_b   8.65437493
_cell_length_c   11.67672635
_cell_angle_alpha   56.19917360
_cell_angle_beta   123.80082640
_cell_angle_gamma   141.66467859
_symmetry_Int_Tables_number   1
_chemical_formula_structural   Ca3Si2(H3O5)2
_chemical_formula_sum   'Ca6 Si4 H12 O20'
_cell_volume   438.39677542
_cell_formula_units_Z   2
loop_
 _symmetry_equiv_pos_site_id
 _symmetry_equiv_pos_as_xyz
  1  'x, y, z'
loop_
 _atom_site_type_symbol
 _atom_site_label
 _atom_site_symmetry_multiplicity
 _atom_site_fract_x
 _atom_site_fract_y
 _atom_site_fract_z
 _atom_site_occupancy
  Ca  Ca0  1  1.67346913  -0.24989551  0.10358000  1.0
  Ca  Ca1  1  1.24989551  -0.67346913  0.60358000  1.0
  Ca  Ca2  1  0.24339688  0.19372346  0.35824575  1.0
  Ca  Ca3  1  0.80627654  0.75660312  0.85824575  1.0
  Ca  Ca4  1  1.34323391  0.04819621  0.18464138  1.0
  Ca  Ca5  1  0.95180379  0.65676609  0.68464138  1.0
  Si  Si6  1  0.47714176  0.13512354  0.89277462  1.0
  Si  Si7  1  0.86487646  0.52285824  0.39277462  1.0
  Si  Si8  1  1.69121604  -0.15606439  0.39402901  1.0
  Si  Si9  1  1.15606439  0.30878396  0.89402901  1.0
  H  H10  1  0.59254222  0.17368766  0.59875805  1.0
  H  H11  1  0.82631234  -0.59254222  0.09875805  1.0
  H  H12  1  1.14759862  -0.54989131  0.02587143  1.0
  H  H13  1  1.54989131  -0.14759862  0.52587143  1.0
  H  H14  1  1.00382904  -0.48207642  0.23532398  1.0
  H  H15  1  0.48207642  -0.00382904  0.73532398  1.0
  H  H16  1  0.77700218  0.18535485  0.89374725  1.0
  H  H17  1  0.81464515  -0.77700218  0.39374725  1.0
  H  H18  1  1.66704571  0.02521114  0.15989559  1.0
  H  H19  1  0.97478886  0.33295429  0.65989559  1.0
  H  H20  1  1.18205259  -0.45720417  0.13081694  1.0
  H  H21  1  1.45720417  -0.18205259  0.63081694  1.0
  O  O22  1  0.99988786  -0.42838454  0.13320385  1.0
  O  O23  1  0.42838454  0.00011214  0.63320385  1.0
  O  O24  1  0.58749440  0.02702673  0.90465672  1.0
  O  O25  1  0.97297327  -0.58749440  0.40465672  1.0
  O  O26  1  1.58699766  -0.04417394  0.37455118  1.0
  O  O27  1  1.04417394  0.41300234  0.87455118  1.0
  O  O28  1  1.74311150  -0.05391738  0.23610767  1.0
  O  O29  1  1.05391738  -0.74311150  0.73610767  1.0
  O  O30  1  1.49625970  -0.46528700  0.45274617  1.0
  O  O31  1  1.46528700  -0.49625970  0.95274617  1.0
  O  O32  1  0.97955698  0.98459751  0.49987441  1.0
  O  O33  1  0.01540249  0.02044302  -0.00012559  1.0
  O  O34  1  1.23759386  -0.51929928  0.12611398  1.0
  O  O35  1  1.51929928  -0.23759386  0.62611398  1.0
  O  O36  1  0.57531073  0.37349563  0.28728200  1.0
  O  O37  1  0.62650437  0.42468927  0.78728200  1.0
  O  O38  1  1.04765337  0.82704595  0.31370070  1.0
  O  O39  1  0.17295405  -0.04765337  0.81370070  1.0
  O  O40  1  1.55111647  0.14364189  0.05347931  1.0
  O  O41  1  0.85635811  0.44888353  0.55347931  1.0
