# generated using pymatgen
data_HgTe
_symmetry_space_group_name_H-M   'P 1'
_cell_length_a   4.55634939
_cell_length_b   4.55634939
_cell_length_c   5.86644371
_cell_angle_alpha   90.00000000
_cell_angle_beta   90.00000000
_cell_angle_gamma   98.55925913
_symmetry_Int_Tables_number   1
_chemical_formula_structural   HgTe
_chemical_formula_sum   'Hg2 Te2'
_cell_volume   120.43281493
_cell_formula_units_Z   2
loop_
 _symmetry_equiv_pos_site_id
 _symmetry_equiv_pos_as_xyz
  1  'x, y, z'
loop_
 _atom_site_type_symbol
 _atom_site_label
 _atom_site_symmetry_multiplicity
 _atom_site_fract_x
 _atom_site_fract_y
 _atom_site_fract_z
 _atom_site_occupancy
  Hg  Hg0  1  -0.33136468  1.33136468  0.25000000  1.0
  Hg  Hg1  1  0.33136468  0.66863532  0.75000000  1.0
  Te  Te2  1  0.22698538  0.77301462  0.25000000  1.0
  Te  Te3  1  -0.22698538  1.22698538  0.75000000  1.0
