# generated using pymatgen
data_BaMgF4
_symmetry_space_group_name_H-M   'P 1'
_cell_length_a   7.72633429
_cell_length_b   7.72633429
_cell_length_c   5.92297547
_cell_angle_alpha   90.00000000
_cell_angle_beta   90.00000000
_cell_angle_gamma   148.84303399
_symmetry_Int_Tables_number   1
_chemical_formula_structural   BaMgF4
_chemical_formula_sum   'Ba2 Mg2 F8'
_cell_volume   182.93645661
_cell_formula_units_Z   2
loop_
 _symmetry_equiv_pos_site_id
 _symmetry_equiv_pos_as_xyz
  1  'x, y, z'
loop_
 _atom_site_type_symbol
 _atom_site_label
 _atom_site_symmetry_multiplicity
 _atom_site_fract_x
 _atom_site_fract_y
 _atom_site_fract_z
 _atom_site_occupancy
  Ba  Ba0  1  -0.65105648  0.65105648  0.14724793  1.0
  Ba  Ba1  1  -0.34894352  1.34894352  0.64724793  1.0
  Mg  Mg2  1  -0.91660827  0.91660827  0.19041683  1.0
  Mg  Mg3  1  -0.08339173  1.08339173  0.69041683  1.0
  F  F4  1  -0.97220610  0.97220610  0.50802406  1.0
  F  F5  1  -0.02779390  1.02779390  0.00802406  1.0
  F  F6  1  -0.83890991  0.83890991  0.92129778  1.0
  F  F7  1  -0.16109009  1.16109009  0.42129778  1.0
  F  F8  1  -0.80426192  0.80426192  0.37851666  1.0
  F  F9  1  -0.19573808  1.19573808  0.87851666  1.0
  F  F10  1  -0.42136114  1.42136114  0.20539675  1.0
  F  F11  1  -0.57863886  0.57863886  0.70539675  1.0
