# generated using pymatgen
data_Mn2CrPb2O9
_symmetry_space_group_name_H-M   'P 1'
_cell_length_a   10.52054299
_cell_length_b   7.65447047
_cell_length_c   5.05279068
_cell_angle_alpha   70.66720605
_cell_angle_beta   81.41379347
_cell_angle_gamma   82.72116340
_symmetry_Int_Tables_number   1
_chemical_formula_structural   Mn2CrPb2O9
_chemical_formula_sum   'Mn4 Cr2 Pb4 O18'
_cell_volume   378.34541014
_cell_formula_units_Z   2
loop_
 _symmetry_equiv_pos_site_id
 _symmetry_equiv_pos_as_xyz
  1  'x, y, z'
loop_
 _atom_site_type_symbol
 _atom_site_label
 _atom_site_symmetry_multiplicity
 _atom_site_fract_x
 _atom_site_fract_y
 _atom_site_fract_z
 _atom_site_occupancy
  Mn  Mn0  1  -1.00184915  0.80446678  0.09683739  1.0
  Mn  Mn1  1  0.00184915  0.19553322  -0.09683739  1.0
  Mn  Mn2  1  -0.99311777  0.39471259  0.30218868  1.0
  Mn  Mn3  1  -0.00688223  0.60528741  -0.30218868  1.0
  Cr  Cr4  1  -0.54966934  0.76632443  -0.07780892  1.0
  Cr  Cr5  1  -0.45033066  0.23367557  0.07780892  1.0
  Pb  Pb6  1  -0.67833079  0.39257896  0.62071222  1.0
  Pb  Pb7  1  -0.32166921  0.60742104  -0.62071222  1.0
  Pb  Pb8  1  -0.76245808  0.96255615  -0.55772714  1.0
  Pb  Pb9  1  -0.23754192  0.03744385  0.55772714  1.0
  O  O10  1  -0.56509903  0.67424611  0.27418756  1.0
  O  O11  1  -0.43490097  0.32575389  -0.27418756  1.0
  O  O12  1  -0.90526028  0.59373742  0.35343073  1.0
  O  O13  1  -0.09473972  0.40626258  -0.35343073  1.0
  O  O14  1  -0.60786848  0.98557135  -0.17654641  1.0
  O  O15  1  -0.39213152  0.01442865  0.17654641  1.0
  O  O16  1  -0.89066652  0.21585786  0.54671290  1.0
  O  O17  1  -0.10933348  0.78414214  -0.54671290  1.0
  O  O18  1  -0.39280821  0.74224524  -0.19497689  1.0
  O  O19  1  -0.60719179  0.25775476  0.19497689  1.0
  O  O20  1  -0.91161831  0.77029208  -0.23629584  1.0
  O  O21  1  -0.08838169  0.22970792  0.23629584  1.0
  O  O22  1  -0.63483428  0.65350341  -0.20254471  1.0
  O  O23  1  -0.36516572  0.34649659  0.20254471  1.0
  O  O24  1  -0.90317842  0.39072091  -0.06011226  1.0
  O  O25  1  -0.09682158  0.60927909  0.06011226  1.0
  O  O26  1  -0.89738183  0.98549439  -0.90678489  1.0
  O  O27  1  -0.10261817  0.01450561  0.90678489  1.0
