# generated using pymatgen
data_Se
_symmetry_space_group_name_H-M   'P 1'
_cell_length_a   4.54563585
_cell_length_b   4.54563585
_cell_length_c   6.35445979
_cell_angle_alpha   74.82688654
_cell_angle_beta   105.17311346
_cell_angle_gamma   142.71429788
_symmetry_Int_Tables_number   1
_chemical_formula_structural   Se
_chemical_formula_sum   Se3
_cell_volume   76.44598201
_cell_formula_units_Z   3
loop_
 _symmetry_equiv_pos_site_id
 _symmetry_equiv_pos_as_xyz
  1  'x, y, z'
loop_
 _atom_site_type_symbol
 _atom_site_label
 _atom_site_symmetry_multiplicity
 _atom_site_fract_x
 _atom_site_fract_y
 _atom_site_fract_z
 _atom_site_occupancy
  Se  Se0  1  0.88546002  0.11453998  0.34493908  1.0
  Se  Se1  1  0.11453998  -0.11453998  0.65506092  1.0
  Se  Se2  1  0.00000000  0.00000000  0.00000000  1.0
