# generated using pymatgen
data_NbBOs
_symmetry_space_group_name_H-M   'P 1'
_cell_length_a   9.09856136
_cell_length_b   15.81415373
_cell_length_c   3.10369833
_cell_angle_alpha   90.00000000
_cell_angle_beta   90.00000000
_cell_angle_gamma   90.00000000
_symmetry_Int_Tables_number   1
_chemical_formula_structural   NbBOs
_chemical_formula_sum   'Nb12 B12 Os12'
_cell_volume   446.57888794
_cell_formula_units_Z   12
loop_
 _symmetry_equiv_pos_site_id
 _symmetry_equiv_pos_as_xyz
  1  'x, y, z'
loop_
 _atom_site_type_symbol
 _atom_site_label
 _atom_site_symmetry_multiplicity
 _atom_site_fract_x
 _atom_site_fract_y
 _atom_site_fract_z
 _atom_site_occupancy
  Nb  Nb0  1  0.31127920  0.79781191  0.50000000  1.0
  Nb  Nb1  1  0.81127920  0.70218809  0.50000000  1.0
  Nb  Nb2  1  0.68872080  0.20218809  0.50000000  1.0
  Nb  Nb3  1  0.18872080  0.29781191  0.50000000  1.0
  Nb  Nb4  1  0.20069052  0.50438578  0.50000000  1.0
  Nb  Nb5  1  0.70069052  0.99561422  0.50000000  1.0
  Nb  Nb6  1  0.79930948  0.49561422  0.50000000  1.0
  Nb  Nb7  1  0.29930948  0.00438578  0.50000000  1.0
  Nb  Nb8  1  0.01479403  0.90601287  0.50000000  1.0
  Nb  Nb9  1  0.51479403  0.59398713  0.50000000  1.0
  Nb  Nb10  1  0.98520597  0.09398713  0.50000000  1.0
  Nb  Nb11  1  0.48520597  0.40601287  0.50000000  1.0
  B  B12  1  0.10882350  0.66753399  0.50000000  1.0
  B  B13  1  0.60882350  0.83246601  0.50000000  1.0
  B  B14  1  0.89117650  0.33246601  0.50000000  1.0
  B  B15  1  0.39117650  0.16753399  0.50000000  1.0
  B  B16  1  0.39511371  0.50217654  0.00000000  1.0
  B  B17  1  0.89511371  0.99782346  0.00000000  1.0
  B  B18  1  0.60488629  0.49782346  0.00000000  1.0
  B  B19  1  0.10488629  0.00217654  0.00000000  1.0
  B  B20  1  0.21456279  0.90245207  0.00000000  1.0
  B  B21  1  0.71456279  0.59754793  0.00000000  1.0
  B  B22  1  0.78543721  0.09754793  0.00000000  1.0
  B  B23  1  0.28543721  0.40245207  0.00000000  1.0
  Os  Os24  1  0.48364309  0.90589410  0.00000000  1.0
  Os  Os25  1  0.98364309  0.59410590  0.00000000  1.0
  Os  Os26  1  0.51635691  0.09410590  0.00000000  1.0
  Os  Os27  1  0.01635691  0.40589410  0.00000000  1.0
  Os  Os28  1  0.27988660  0.64474398  0.00000000  1.0
  Os  Os29  1  0.77988660  0.85525602  0.00000000  1.0
  Os  Os30  1  0.72011340  0.35525602  0.00000000  1.0
  Os  Os31  1  0.22011340  0.14474398  0.00000000  1.0
  Os  Os32  1  0.05994406  0.76511002  0.00000000  1.0
  Os  Os33  1  0.55994406  0.73488998  0.00000000  1.0
  Os  Os34  1  0.94005594  0.23488998  0.00000000  1.0
  Os  Os35  1  0.44005594  0.26511002  0.00000000  1.0
