# generated using pymatgen
data_Lu3Al2
_symmetry_space_group_name_H-M   'P 1'
_cell_length_a   8.03338016
_cell_length_b   8.03338016
_cell_length_c   7.40882271
_cell_angle_alpha   90.00000000
_cell_angle_beta   90.00000000
_cell_angle_gamma   90.00000000
_symmetry_Int_Tables_number   1
_chemical_formula_structural   Lu3Al2
_chemical_formula_sum   'Lu12 Al8'
_cell_volume   478.12983088
_cell_formula_units_Z   4
loop_
 _symmetry_equiv_pos_site_id
 _symmetry_equiv_pos_as_xyz
  1  'x, y, z'
loop_
 _atom_site_type_symbol
 _atom_site_label
 _atom_site_symmetry_multiplicity
 _atom_site_fract_x
 _atom_site_fract_y
 _atom_site_fract_z
 _atom_site_occupancy
  Lu  Lu0  1  0.34947204  0.65052796  0.50000000  1.0
  Lu  Lu1  1  0.84947204  0.84947204  0.00000000  1.0
  Lu  Lu2  1  0.65052796  0.34947204  0.50000000  1.0
  Lu  Lu3  1  0.15052796  0.15052796  0.00000000  1.0
  Lu  Lu4  1  0.20211758  0.20211758  0.50000000  1.0
  Lu  Lu5  1  0.70211758  0.29788242  0.00000000  1.0
  Lu  Lu6  1  0.79788242  0.79788242  0.50000000  1.0
  Lu  Lu7  1  0.29788242  0.70211758  0.00000000  1.0
  Lu  Lu8  1  0.50000000  0.00000000  0.25000000  1.0
  Lu  Lu9  1  0.50000000  0.00000000  0.75000000  1.0
  Lu  Lu10  1  0.00000000  0.50000000  0.75000000  1.0
  Lu  Lu11  1  0.00000000  0.50000000  0.25000000  1.0
  Al  Al12  1  0.12004503  0.87995497  0.30165370  1.0
  Al  Al13  1  0.12004503  0.87995497  0.69834630  1.0
  Al  Al14  1  0.62004503  0.62004503  0.80165370  1.0
  Al  Al15  1  0.62004503  0.62004503  0.19834630  1.0
  Al  Al16  1  0.87995497  0.12004503  0.30165370  1.0
  Al  Al17  1  0.87995497  0.12004503  0.69834630  1.0
  Al  Al18  1  0.37995497  0.37995497  0.80165370  1.0
  Al  Al19  1  0.37995497  0.37995497  0.19834630  1.0
