# generated using pymatgen
data_TbB2C
_symmetry_space_group_name_H-M   'P 1'
_cell_length_a   6.77594229
_cell_length_b   6.77594229
_cell_length_c   7.50053199
_cell_angle_alpha   90.00000000
_cell_angle_beta   90.00000000
_cell_angle_gamma   90.00000000
_symmetry_Int_Tables_number   1
_chemical_formula_structural   TbB2C
_chemical_formula_sum   'Tb8 B16 C8'
_cell_volume   344.37487966
_cell_formula_units_Z   8
loop_
 _symmetry_equiv_pos_site_id
 _symmetry_equiv_pos_as_xyz
  1  'x, y, z'
loop_
 _atom_site_type_symbol
 _atom_site_label
 _atom_site_symmetry_multiplicity
 _atom_site_fract_x
 _atom_site_fract_y
 _atom_site_fract_z
 _atom_site_occupancy
  Tb  Tb0  1  0.30897146  0.19102854  0.75000000  1.0
  Tb  Tb1  1  0.30897146  0.19102854  0.25000000  1.0
  Tb  Tb2  1  0.80897146  0.30897146  0.75000000  1.0
  Tb  Tb3  1  0.80897146  0.30897146  0.25000000  1.0
  Tb  Tb4  1  0.69102854  0.80897146  0.75000000  1.0
  Tb  Tb5  1  0.69102854  0.80897146  0.25000000  1.0
  Tb  Tb6  1  0.19102854  0.69102854  0.75000000  1.0
  Tb  Tb7  1  0.19102854  0.69102854  0.25000000  1.0
  B  B8  1  0.46603275  0.65110340  0.00000000  1.0
  B  B9  1  0.96603275  0.84889660  0.00000000  1.0
  B  B10  1  0.34889660  0.46603275  0.50000000  1.0
  B  B11  1  0.84889660  0.03396725  0.50000000  1.0
  B  B12  1  0.53396725  0.34889660  0.00000000  1.0
  B  B13  1  0.03396725  0.15110340  0.00000000  1.0
  B  B14  1  0.65110340  0.53396725  0.50000000  1.0
  B  B15  1  0.15110340  0.96603275  0.50000000  1.0
  B  B16  1  0.40566478  0.90372484  0.00000000  1.0
  B  B17  1  0.90566478  0.59627516  0.00000000  1.0
  B  B18  1  0.09627516  0.40566478  0.50000000  1.0
  B  B19  1  0.59627516  0.09433522  0.50000000  1.0
  B  B20  1  0.59433522  0.09627516  0.00000000  1.0
  B  B21  1  0.09433522  0.40372484  0.00000000  1.0
  B  B22  1  0.90372484  0.59433522  0.50000000  1.0
  B  B23  1  0.40372484  0.90566478  0.50000000  1.0
  C  C24  1  0.17850423  0.95888564  0.00000000  1.0
  C  C25  1  0.67850423  0.54111436  0.00000000  1.0
  C  C26  1  0.04111436  0.17850423  0.50000000  1.0
  C  C27  1  0.54111436  0.32149577  0.50000000  1.0
  C  C28  1  0.82149577  0.04111436  0.00000000  1.0
  C  C29  1  0.32149577  0.45888564  0.00000000  1.0
  C  C30  1  0.95888564  0.82149577  0.50000000  1.0
  C  C31  1  0.45888564  0.67850423  0.50000000  1.0
