# generated using pymatgen
data_Na2B2Se7
_symmetry_space_group_name_H-M   'P 1'
_cell_length_a   8.28003040
_cell_length_b   8.28003040
_cell_length_c   12.03081005
_cell_angle_alpha   63.72119176
_cell_angle_beta   116.27880824
_cell_angle_gamma   131.11729799
_symmetry_Int_Tables_number   1
_chemical_formula_structural   Na2B2Se7
_chemical_formula_sum   'Na4 B4 Se14'
_cell_volume   542.95806973
_cell_formula_units_Z   2
loop_
 _symmetry_equiv_pos_site_id
 _symmetry_equiv_pos_as_xyz
  1  'x, y, z'
loop_
 _atom_site_type_symbol
 _atom_site_label
 _atom_site_symmetry_multiplicity
 _atom_site_fract_x
 _atom_site_fract_y
 _atom_site_fract_z
 _atom_site_occupancy
  Na  Na0  1  0.60638929  -0.17363434  0.45764094  1.0
  Na  Na1  1  1.17363434  -0.60638929  0.95764094  1.0
  Na  Na2  1  0.82636566  0.60638929  0.04235906  1.0
  Na  Na3  1  1.39361071  0.17363434  0.54235906  1.0
  B  B4  1  1.66093689  -0.10413712  0.15035678  1.0
  B  B5  1  1.10413712  -0.66093689  0.65035678  1.0
  B  B6  1  0.89586288  0.66093689  0.34964322  1.0
  B  B7  1  0.33906311  0.10413712  0.84964322  1.0
  Se  Se8  1  1.41364124  -0.41160921  0.22350662  1.0
  Se  Se9  1  1.41160921  -0.41364124  0.72350662  1.0
  Se  Se10  1  0.58839079  0.41364124  0.27649338  1.0
  Se  Se11  1  0.58635876  0.41160921  0.77649338  1.0
  Se  Se12  1  1.69718818  -0.05936218  0.97972155  1.0
  Se  Se13  1  1.05936218  0.30281182  0.47972155  1.0
  Se  Se14  1  0.94063782  -0.30281182  0.52027845  1.0
  Se  Se15  1  0.30281182  0.05936218  0.02027845  1.0
  Se  Se16  1  0.64533733  0.11992558  0.16941614  1.0
  Se  Se17  1  0.88007442  -0.64533733  0.66941614  1.0
  Se  Se18  1  1.11992558  0.64533733  0.33058386  1.0
  Se  Se19  1  1.35466267  -0.11992558  0.83058386  1.0
  Se  Se20  1  0.97355385  0.97355385  0.25000000  1.0
  Se  Se21  1  0.02644615  0.02644615  0.75000000  1.0
