# generated using pymatgen
data_Sr7Zr(Si2O7)3
_symmetry_space_group_name_H-M   'P 1'
_cell_length_a   8.49880791
_cell_length_b   8.49914081
_cell_length_c   8.49913644
_cell_angle_alpha   106.04084005
_cell_angle_beta   106.04273383
_cell_angle_gamma   106.04218784
_symmetry_Int_Tables_number   1
_chemical_formula_structural   Sr7Zr(Si2O7)3
_chemical_formula_sum   'Sr7 Zr1 Si6 O21'
_cell_volume   524.06240401
_cell_formula_units_Z   1
loop_
 _symmetry_equiv_pos_site_id
 _symmetry_equiv_pos_as_xyz
  1  'x, y, z'
loop_
 _atom_site_type_symbol
 _atom_site_label
 _atom_site_symmetry_multiplicity
 _atom_site_fract_x
 _atom_site_fract_y
 _atom_site_fract_z
 _atom_site_occupancy
  Sr  Sr0  1  0.74990508  0.62732917  0.15127970  1.0
  Sr  Sr1  1  0.25009492  0.37267083  0.84872030  1.0
  Sr  Sr2  1  0.62733699  0.15133232  0.74991132  1.0
  Sr  Sr3  1  0.37266301  0.84866768  0.25008868  1.0
  Sr  Sr4  1  0.15129132  0.74986463  0.62729326  1.0
  Sr  Sr5  1  0.84870868  0.25013537  0.37270674  1.0
  Sr  Sr6  1  0.50000000  0.50000000  0.50000000  1.0
  Zr  Zr7  1  0.00000000  0.00000000  0.00000000  1.0
  Si  Si8  1  0.92797421  0.54208595  0.81606351  1.0
  Si  Si9  1  0.07202579  0.45791405  0.18393649  1.0
  Si  Si10  1  0.81604755  0.92791771  0.54206632  1.0
  Si  Si11  1  0.18395245  0.07208229  0.45793368  1.0
  Si  Si12  1  0.54205031  0.81604726  0.92791979  1.0
  Si  Si13  1  0.45794969  0.18395274  0.07208021  1.0
  O  O14  1  0.98405450  0.54023288  0.31852933  1.0
  O  O15  1  0.01594550  0.45976712  0.68147067  1.0
  O  O16  1  0.87403855  0.01577925  0.75853751  1.0
  O  O17  1  0.12596145  0.98422075  0.24146249  1.0
  O  O18  1  0.75853108  0.87405002  1.01579934  1.0
  O  O19  1  0.24146892  0.12594998  -0.01579934  1.0
  O  O20  1  0.74187574  0.71469623  0.45372015  1.0
  O  O21  1  0.25812426  0.28530377  0.54627985  1.0
  O  O22  1  0.71474549  0.45373430  0.74185282  1.0
  O  O23  1  0.28525451  0.54626570  0.25814718  1.0
  O  O24  1  0.54031399  0.31857292  0.98414932  1.0
  O  O25  1  0.45968601  0.68142708  0.01585068  1.0
  O  O26  1  0.45373314  0.74187721  0.71469899  1.0
  O  O27  1  0.54626686  0.25812279  0.28530101  1.0
  O  O28  1  0.31856189  0.98412927  0.54026670  1.0
  O  O29  1  0.68143811  0.01587073  0.45973330  1.0
  O  O30  1  0.01586266  0.75855855  0.87411012  1.0
  O  O31  1  0.98413734  0.24144145  0.12588988  1.0
  O  O32  1  0.50000000  -0.00000000  -0.00000000  1.0
  O  O33  1  -0.00000000  0.50000000  -0.00000000  1.0
  O  O34  1  -0.00000000  -0.00000000  0.50000000  1.0
