# generated using pymatgen
data_Ca5Bi3
_symmetry_space_group_name_H-M   'P 1'
_cell_length_a   12.86919543
_cell_length_b   9.77740667
_cell_length_c   8.44690504
_cell_angle_alpha   90.00000000
_cell_angle_beta   90.00000000
_cell_angle_gamma   90.00000000
_symmetry_Int_Tables_number   1
_chemical_formula_structural   Ca5Bi3
_chemical_formula_sum   'Ca20 Bi12'
_cell_volume   1062.85173765
_cell_formula_units_Z   4
loop_
 _symmetry_equiv_pos_site_id
 _symmetry_equiv_pos_as_xyz
  1  'x, y, z'
loop_
 _atom_site_type_symbol
 _atom_site_label
 _atom_site_symmetry_multiplicity
 _atom_site_fract_x
 _atom_site_fract_y
 _atom_site_fract_z
 _atom_site_occupancy
  Ca  Ca0  1  0.99580591  0.25000000  0.53502964  1.0
  Ca  Ca1  1  0.49580591  0.25000000  0.96497036  1.0
  Ca  Ca2  1  0.00419409  0.75000000  0.46497036  1.0
  Ca  Ca3  1  0.50419409  0.75000000  0.03502964  1.0
  Ca  Ca4  1  0.92190341  0.45828242  0.19102034  1.0
  Ca  Ca5  1  0.92190341  0.04171758  0.19102034  1.0
  Ca  Ca6  1  0.42190341  0.45828242  0.30897966  1.0
  Ca  Ca7  1  0.42190341  0.04171758  0.30897966  1.0
  Ca  Ca8  1  0.07809659  0.95828242  0.80897966  1.0
  Ca  Ca9  1  0.07809659  0.54171758  0.80897966  1.0
  Ca  Ca10  1  0.57809659  0.95828242  0.69102034  1.0
  Ca  Ca11  1  0.57809659  0.54171758  0.69102034  1.0
  Ca  Ca12  1  0.77153684  0.25000000  0.81907608  1.0
  Ca  Ca13  1  0.27153684  0.25000000  0.68092392  1.0
  Ca  Ca14  1  0.22846316  0.75000000  0.18092392  1.0
  Ca  Ca15  1  0.72846316  0.75000000  0.31907608  1.0
  Ca  Ca16  1  0.70682228  0.25000000  0.34616144  1.0
  Ca  Ca17  1  0.20682228  0.25000000  0.15383856  1.0
  Ca  Ca18  1  0.29317772  0.75000000  0.65383856  1.0
  Ca  Ca19  1  0.79317772  0.75000000  0.84616144  1.0
  Bi  Bi20  1  0.67123934  0.48918934  0.06013403  1.0
  Bi  Bi21  1  0.67123934  0.01081066  0.06013403  1.0
  Bi  Bi22  1  0.17123934  0.48918934  0.43986597  1.0
  Bi  Bi23  1  0.17123934  0.01081066  0.43986597  1.0
  Bi  Bi24  1  0.32876066  0.98918934  0.93986597  1.0
  Bi  Bi25  1  0.32876066  0.51081066  0.93986597  1.0
  Bi  Bi26  1  0.82876066  0.98918934  0.56013403  1.0
  Bi  Bi27  1  0.82876066  0.51081066  0.56013403  1.0
  Bi  Bi28  1  0.51474158  0.25000000  0.57655950  1.0
  Bi  Bi29  1  0.01474158  0.25000000  0.92344050  1.0
  Bi  Bi30  1  0.48525842  0.75000000  0.42344050  1.0
  Bi  Bi31  1  0.98525842  0.75000000  0.07655950  1.0
