# generated using pymatgen
data_AuC2OF3
_symmetry_space_group_name_H-M   'P 1'
_cell_length_a   8.85175920
_cell_length_b   8.85175920
_cell_length_c   8.85175920
_cell_angle_alpha   109.47122063
_cell_angle_beta   109.47122063
_cell_angle_gamma   109.47122063
_symmetry_Int_Tables_number   1
_chemical_formula_structural   AuC2OF3
_chemical_formula_sum   'Au4 C8 O4 F12'
_cell_volume   533.90855787
_cell_formula_units_Z   4
loop_
 _symmetry_equiv_pos_site_id
 _symmetry_equiv_pos_as_xyz
  1  'x, y, z'
loop_
 _atom_site_type_symbol
 _atom_site_label
 _atom_site_symmetry_multiplicity
 _atom_site_fract_x
 _atom_site_fract_y
 _atom_site_fract_z
 _atom_site_occupancy
  Au  Au0  1  0.71913037  0.71913037  0.71913037  1.0
  Au  Au1  1  0.50000000  1.00000000  0.78086963  1.0
  Au  Au2  1  1.00000000  0.78086963  1.50000000  1.0
  Au  Au3  1  0.78086963  1.50000000  1.00000000  1.0
  C  C4  1  1.49864326  1.49864326  1.49864326  1.0
  C  C5  1  1.50000000  1.00000000  1.00135674  1.0
  C  C6  1  1.00000000  1.00135674  1.50000000  1.0
  C  C7  1  1.00135674  0.50000000  1.00000000  1.0
  C  C8  1  0.95240314  0.95240314  0.95240314  1.0
  C  C9  1  0.50000000  1.00000000  0.54759686  1.0
  C  C10  1  1.00000000  0.54759686  1.50000000  1.0
  C  C11  1  0.54759686  1.50000000  1.00000000  1.0
  O  O12  1  1.37029364  1.37029364  1.37029364  1.0
  O  O13  1  1.50000000  1.00000000  1.12970636  1.0
  O  O14  1  1.00000000  1.12970636  1.50000000  1.0
  O  O15  1  1.12970636  0.50000000  1.00000000  1.0
  F  F16  1  1.02339894  0.09787250  0.92311891  1.0
  F  F17  1  0.67475359  1.10028003  0.57688109  1.0
  F  F18  1  0.92311891  1.02339894  0.09787250  1.0
  F  F19  1  1.42552644  0.82524641  1.40212750  1.0
  F  F20  1  1.09787250  0.92311891  1.02339894  1.0
  F  F21  1  1.39971997  1.07447356  1.47660106  1.0
  F  F22  1  1.82524641  1.40212750  1.42552644  1.0
  F  F23  1  1.47660106  1.39971997  1.07447356  1.0
  F  F24  1  1.07447356  1.47660106  1.39971997  1.0
  F  F25  1  1.57688109  0.67475359  1.10028003  1.0
  F  F26  1  1.10028003  1.57688109  0.67475359  1.0
  F  F27  1  1.40212750  1.42552644  1.82524641  1.0
