# generated using pymatgen
data_BiRhSe
_symmetry_space_group_name_H-M   'P 1'
_cell_length_a   6.37337973
_cell_length_b   6.37337973
_cell_length_c   6.37337973
_cell_angle_alpha   90.00000000
_cell_angle_beta   90.00000000
_cell_angle_gamma   90.00000000
_symmetry_Int_Tables_number   1
_chemical_formula_structural   BiRhSe
_chemical_formula_sum   'Bi4 Rh4 Se4'
_cell_volume   258.88648820
_cell_formula_units_Z   4
loop_
 _symmetry_equiv_pos_site_id
 _symmetry_equiv_pos_as_xyz
  1  'x, y, z'
loop_
 _atom_site_type_symbol
 _atom_site_label
 _atom_site_symmetry_multiplicity
 _atom_site_fract_x
 _atom_site_fract_y
 _atom_site_fract_z
 _atom_site_occupancy
  Bi  Bi0  1  0.12988243  0.62988243  0.87011757  1.0
  Bi  Bi1  1  0.62988243  0.87011757  0.12988243  1.0
  Bi  Bi2  1  0.87011757  0.12988243  0.62988243  1.0
  Bi  Bi3  1  0.37011757  0.37011757  0.37011757  1.0
  Rh  Rh4  1  0.48537835  0.98537835  0.51462165  1.0
  Rh  Rh5  1  0.98537835  0.51462165  0.48537835  1.0
  Rh  Rh6  1  0.51462165  0.48537835  0.98537835  1.0
  Rh  Rh7  1  0.01462165  0.01462165  0.01462165  1.0
  Se  Se8  1  0.87756428  0.37756428  0.12243572  1.0
  Se  Se9  1  0.37756428  0.12243572  0.87756428  1.0
  Se  Se10  1  0.12243572  0.87756428  0.37756428  1.0
  Se  Se11  1  0.62243572  0.62243572  0.62243572  1.0
