# generated using pymatgen
data_CsNa3TiO4
_symmetry_space_group_name_H-M   'P 1'
_cell_length_a   11.42848275
_cell_length_b   8.64370677
_cell_length_c   6.61487946
_cell_angle_alpha   79.71905121
_cell_angle_beta   76.18751578
_cell_angle_gamma   82.75985840
_symmetry_Int_Tables_number   1
_chemical_formula_structural   CsNa3TiO4
_chemical_formula_sum   'Cs4 Na12 Ti4 O16'
_cell_volume   621.97897719
_cell_formula_units_Z   4
loop_
 _symmetry_equiv_pos_site_id
 _symmetry_equiv_pos_as_xyz
  1  'x, y, z'
loop_
 _atom_site_type_symbol
 _atom_site_label
 _atom_site_symmetry_multiplicity
 _atom_site_fract_x
 _atom_site_fract_y
 _atom_site_fract_z
 _atom_site_occupancy
  Cs  Cs0  1  -0.12704212  -0.62029076  -0.96609362  1.0
  Cs  Cs1  1  -0.87295788  -0.37970924  -0.03390638  1.0
  Cs  Cs2  1  -0.37404702  -0.86559431  -0.96042141  1.0
  Cs  Cs3  1  -0.62595298  -0.13440569  -0.03957859  1.0
  Na  Na4  1  -0.60369897  -0.55326881  -0.81770487  1.0
  Na  Na5  1  -0.39630103  -0.44673119  -0.18229513  1.0
  Na  Na6  1  -0.85521684  -0.83386117  -0.79638508  1.0
  Na  Na7  1  -0.14478316  -0.16613883  -0.20361492  1.0
  Na  Na8  1  -0.62511845  -0.95609633  -0.57058691  1.0
  Na  Na9  1  -0.37488155  -0.04390367  -0.42941309  1.0
  Na  Na10  1  -0.39287975  -0.66587758  -0.50480858  1.0
  Na  Na11  1  -0.60712025  -0.33412242  -0.49519142  1.0
  Na  Na12  1  -0.87466544  -0.57049699  -0.46048239  1.0
  Na  Na13  1  -0.12533456  -0.42950301  -0.53951761  1.0
  Na  Na14  1  -0.89581116  -0.94270413  -0.20535829  1.0
  Na  Na15  1  -0.10418884  -0.05729587  -0.79464171  1.0
  Ti  Ti16  1  -0.86211547  -0.21320020  -0.58052343  1.0
  Ti  Ti17  1  -0.13788453  -0.78679980  -0.41947657  1.0
  Ti  Ti18  1  -0.64524311  -0.71541966  -0.16500737  1.0
  Ti  Ti19  1  -0.35475689  -0.28458034  -0.83499263  1.0
  O  O20  1  -0.64494366  -0.79812862  -0.88812247  1.0
  O  O21  1  -0.35505634  -0.20187138  -0.11187753  1.0
  O  O22  1  -0.89694923  -0.08470835  -0.81681286  1.0
  O  O23  1  -0.10305077  -0.91529165  -0.18318714  1.0
  O  O24  1  -0.41212041  -0.48116172  -0.79761512  1.0
  O  O25  1  -0.58787959  -0.51883828  -0.20238489  1.0
  O  O26  1  -0.75337413  -0.37670560  -0.67030012  1.0
  O  O27  1  -0.24662587  -0.62329440  -0.32969988  1.0
  O  O28  1  -0.00555028  -0.69046700  -0.58656899  1.0
  O  O29  1  -0.99444972  -0.30953300  -0.41343101  1.0
  O  O30  1  -0.21506472  -0.88495282  -0.56987910  1.0
  O  O31  1  -0.78493528  -0.11504718  -0.43012090  1.0
  O  O32  1  -0.54229180  -0.83865116  -0.34517623  1.0
  O  O33  1  -0.45770820  -0.16134884  -0.65482377  1.0
  O  O34  1  -0.80373971  -0.71380202  -0.18167083  1.0
  O  O35  1  -0.19626029  -0.28619798  -0.81832917  1.0
