# generated using pymatgen
data_Pb3WCl2O5
_symmetry_space_group_name_H-M   'P 1'
_cell_length_a   7.26172796
_cell_length_b   7.26172796
_cell_length_c   11.21044900
_cell_angle_alpha   90.00000000
_cell_angle_beta   90.00000000
_cell_angle_gamma   133.84397593
_symmetry_Int_Tables_number   1
_chemical_formula_structural   Pb3WCl2O5
_chemical_formula_sum   'Pb6 W2 Cl4 O10'
_cell_volume   426.35955963
_cell_formula_units_Z   2
loop_
 _symmetry_equiv_pos_site_id
 _symmetry_equiv_pos_as_xyz
  1  'x, y, z'
loop_
 _atom_site_type_symbol
 _atom_site_label
 _atom_site_symmetry_multiplicity
 _atom_site_fract_x
 _atom_site_fract_y
 _atom_site_fract_z
 _atom_site_occupancy
  Pb  Pb0  1  0.34564611  0.65435389  0.46594146  1.0
  Pb  Pb1  1  0.34564611  0.65435389  0.03405854  1.0
  Pb  Pb2  1  -0.34564611  0.34564611  0.96594146  1.0
  Pb  Pb3  1  -0.34564611  0.34564611  0.53405854  1.0
  Pb  Pb4  1  -0.09480049  0.09480049  0.75000000  1.0
  Pb  Pb5  1  0.09480049  0.90519951  0.25000000  1.0
  W  W6  1  0.23746192  0.76253808  0.75000000  1.0
  W  W7  1  -0.23746192  0.23746192  0.25000000  1.0
  Cl  Cl8  1  0.47875798  0.52124202  0.75000000  1.0
  Cl  Cl9  1  -0.47875798  0.47875798  0.25000000  1.0
  Cl  Cl10  1  0.00000000  0.00000000  0.00000000  1.0
  Cl  Cl11  1  0.00000000  0.00000000  0.50000000  1.0
  O  O12  1  0.04112554  0.49542064  0.86866245  1.0
  O  O13  1  0.04112554  0.49542064  0.63133755  1.0
  O  O14  1  0.49542064  1.04112554  0.36866245  1.0
  O  O15  1  0.49542064  1.04112554  0.13133755  1.0
  O  O16  1  0.50457936  0.95887446  0.86866245  1.0
  O  O17  1  0.50457936  0.95887446  0.63133755  1.0
  O  O18  1  -0.04112554  0.50457936  0.36866245  1.0
  O  O19  1  -0.04112554  0.50457936  0.13133755  1.0
  O  O20  1  0.10759540  0.89240460  0.75000000  1.0
  O  O21  1  -0.10759540  0.10759540  0.25000000  1.0
