# generated using pymatgen
data_SbC2O5
_symmetry_space_group_name_H-M   'P 1'
_cell_length_a   7.48232271
_cell_length_b   11.35047272
_cell_length_c   5.98279985
_cell_angle_alpha   90.00000000
_cell_angle_beta   90.00000000
_cell_angle_gamma   90.00000000
_symmetry_Int_Tables_number   1
_chemical_formula_structural   SbC2O5
_chemical_formula_sum   'Sb4 C8 O20'
_cell_volume   508.10662649
_cell_formula_units_Z   4
loop_
 _symmetry_equiv_pos_site_id
 _symmetry_equiv_pos_as_xyz
  1  'x, y, z'
loop_
 _atom_site_type_symbol
 _atom_site_label
 _atom_site_symmetry_multiplicity
 _atom_site_fract_x
 _atom_site_fract_y
 _atom_site_fract_z
 _atom_site_occupancy
  C  C0  1  0.47608748  0.47672332  0.61777807  1.0
  C  C1  1  0.47608748  0.02327668  0.61777807  1.0
  C  C2  1  0.97608748  0.47672332  0.88222193  1.0
  C  C3  1  0.97608748  0.02327668  0.88222193  1.0
  C  C4  1  0.52391252  0.97672332  0.38222193  1.0
  C  C5  1  0.52391252  0.52327668  0.38222193  1.0
  C  C6  1  0.02391252  0.97672332  0.11777807  1.0
  C  C7  1  0.02391252  0.52327668  0.11777807  1.0
  Sb  Sb8  1  0.03752388  0.25000000  0.14488543  1.0
  Sb  Sb9  1  0.53752388  0.25000000  0.35511457  1.0
  Sb  Sb10  1  0.96247612  0.75000000  0.85511457  1.0
  Sb  Sb11  1  0.46247612  0.75000000  0.64488543  1.0
  O  O12  1  0.48102343  0.36526114  0.64780904  1.0
  O  O13  1  0.48102343  0.13473886  0.64780904  1.0
  O  O14  1  0.98102343  0.36526114  0.85219096  1.0
  O  O15  1  0.98102343  0.13473886  0.85219096  1.0
  O  O16  1  0.51897657  0.86526114  0.35219096  1.0
  O  O17  1  0.51897657  0.63473886  0.35219096  1.0
  O  O18  1  0.01897657  0.86526114  0.14780904  1.0
  O  O19  1  0.01897657  0.63473886  0.14780904  1.0
  O  O20  1  0.43513517  0.94988343  0.76510797  1.0
  O  O21  1  0.43513517  0.55011657  0.76510797  1.0
  O  O22  1  0.93513517  0.94988343  0.73489203  1.0
  O  O23  1  0.93513517  0.55011657  0.73489203  1.0
  O  O24  1  0.56486483  0.44988343  0.23489203  1.0
  O  O25  1  0.56486483  0.05011657  0.23489203  1.0
  O  O26  1  0.06486483  0.44988343  0.26510797  1.0
  O  O27  1  0.06486483  0.05011657  0.26510797  1.0
  O  O28  1  -0.19920306  0.25000000  0.29189575  1.0
  O  O29  1  0.30079694  0.25000000  0.20810425  1.0
  O  O30  1  1.19920306  0.75000000  0.70810425  1.0
  O  O31  1  0.69920306  0.75000000  0.79189575  1.0
