# generated using pymatgen
data_Ca2CdPt2
_symmetry_space_group_name_H-M   'P 1'
_cell_length_a   5.67239100
_cell_length_b   5.67239100
_cell_length_c   5.67239100
_cell_angle_alpha   133.43847970
_cell_angle_beta   117.02486497
_cell_angle_gamma   81.83915789
_symmetry_Int_Tables_number   1
_chemical_formula_structural   Ca2CdPt2
_chemical_formula_sum   'Ca2 Cd1 Pt2'
_cell_volume   113.88235354
_cell_formula_units_Z   1
loop_
 _symmetry_equiv_pos_site_id
 _symmetry_equiv_pos_as_xyz
  1  'x, y, z'
loop_
 _atom_site_type_symbol
 _atom_site_label
 _atom_site_symmetry_multiplicity
 _atom_site_fract_x
 _atom_site_fract_y
 _atom_site_fract_z
 _atom_site_occupancy
  Ca  Ca0  1  0.70175017  0.20175017  0.50000000  1.0
  Ca  Ca1  1  1.29824983  0.79824983  0.50000000  1.0
  Cd  Cd2  1  0.00000000  0.00000000  0.00000000  1.0
  Pt  Pt3  1  0.27554091  0.50000000  0.77554091  1.0
  Pt  Pt4  1  0.72445909  0.50000000  1.22445909  1.0
