# generated using pymatgen
data_Si
_symmetry_space_group_name_H-M   'P 1'
_cell_length_a   10.21047633
_cell_length_b   10.21047633
_cell_length_c   10.39855323
_cell_angle_alpha   90.00000000
_cell_angle_beta   90.00000000
_cell_angle_gamma   120.00542340
_symmetry_Int_Tables_number   1
_chemical_formula_structural   Si
_chemical_formula_sum   Si40
_cell_volume   938.79727391
_cell_formula_units_Z   40
loop_
 _symmetry_equiv_pos_site_id
 _symmetry_equiv_pos_as_xyz
  1  'x, y, z'
loop_
 _atom_site_type_symbol
 _atom_site_label
 _atom_site_symmetry_multiplicity
 _atom_site_fract_x
 _atom_site_fract_y
 _atom_site_fract_z
 _atom_site_occupancy
  Si  Si0  1  -0.08126038  0.70936610  0.31227511  1.0
  Si  Si1  1  0.08126038  1.29063390  0.31227511  1.0
  Si  Si2  1  0.29063390  1.08126038  0.68772489  1.0
  Si  Si3  1  -0.29063390  0.91873962  0.68772489  1.0
  Si  Si4  1  0.08126038  1.29063390  0.68772489  1.0
  Si  Si5  1  -0.08126038  0.70936610  0.68772489  1.0
  Si  Si6  1  -0.29063390  0.91873962  0.31227511  1.0
  Si  Si7  1  0.29063390  1.08126038  0.31227511  1.0
  Si  Si8  1  -0.49998740  0.88051326  0.18661698  1.0
  Si  Si9  1  0.49998740  1.11948674  0.18661698  1.0
  Si  Si10  1  0.11948674  1.49998740  0.81338302  1.0
  Si  Si11  1  -0.11948674  0.50001260  0.81338302  1.0
  Si  Si12  1  0.49998740  1.11948674  0.81338302  1.0
  Si  Si13  1  -0.49998740  0.88051326  0.81338302  1.0
  Si  Si14  1  -0.11948674  0.50001260  0.18661698  1.0
  Si  Si15  1  0.11948674  1.49998740  0.18661698  1.0
  Si  Si16  1  -0.11949796  0.88050204  0.18663440  1.0
  Si  Si17  1  0.11949796  1.11949796  0.18663440  1.0
  Si  Si18  1  0.11949796  1.11949796  0.81336560  1.0
  Si  Si19  1  -0.11949796  0.88050204  0.81336560  1.0
  Si  Si20  1  -0.63259064  0.63259064  0.50000000  1.0
  Si  Si21  1  -0.36740936  0.36740936  0.50000000  1.0
  Si  Si22  1  -0.70933336  0.70933336  0.31227860  1.0
  Si  Si23  1  -0.29066664  0.29066664  0.31227860  1.0
  Si  Si24  1  -0.70933336  0.70933336  0.68772140  1.0
  Si  Si25  1  -0.29066664  0.29066664  0.68772140  1.0
  Si  Si26  1  -0.83330187  0.83330187  0.38783735  1.0
  Si  Si27  1  -0.16669813  0.16669813  0.38783735  1.0
  Si  Si28  1  -0.83330187  0.83330187  0.61216265  1.0
  Si  Si29  1  -0.16669813  0.16669813  0.61216265  1.0
  Si  Si30  1  -0.23473862  0.63265137  0.50000000  1.0
  Si  Si31  1  0.23473862  1.36734863  0.50000000  1.0
  Si  Si32  1  0.36734863  1.23473862  0.50000000  1.0
  Si  Si33  1  -0.36734863  0.76526138  0.50000000  1.0
  Si  Si34  1  -0.25771078  0.74228922  0.00000000  1.0
  Si  Si35  1  0.25771078  1.25771078  0.00000000  1.0
  Si  Si36  1  -0.49999497  0.74229579  0.00000000  1.0
  Si  Si37  1  0.49999497  1.25770421  0.00000000  1.0
  Si  Si38  1  0.25770421  1.49999497  0.00000000  1.0
  Si  Si39  1  -0.25770421  0.50000503  0.00000000  1.0
