# generated using pymatgen
data_NiH10C4(SN4)2
_symmetry_space_group_name_H-M   'P 1'
_cell_length_a   8.52002972
_cell_length_b   8.52002972
_cell_length_c   9.65605466
_cell_angle_alpha   75.05985067
_cell_angle_beta   104.94014933
_cell_angle_gamma   125.35186911
_symmetry_Int_Tables_number   1
_chemical_formula_structural   NiH10C4(SN4)2
_chemical_formula_sum   'Ni2 H20 C8 S4 N16'
_cell_volume   547.09768551
_cell_formula_units_Z   2
loop_
 _symmetry_equiv_pos_site_id
 _symmetry_equiv_pos_as_xyz
  1  'x, y, z'
loop_
 _atom_site_type_symbol
 _atom_site_label
 _atom_site_symmetry_multiplicity
 _atom_site_fract_x
 _atom_site_fract_y
 _atom_site_fract_z
 _atom_site_occupancy
  Ni  Ni0  1  0.88931919  0.88931919  0.75000000  1.0
  Ni  Ni1  1  0.11068081  0.11068081  0.25000000  1.0
  H  H2  1  0.24528400  0.11558589  0.72726128  1.0
  H  H3  1  1.11558589  0.24528400  0.77273872  1.0
  H  H4  1  0.75471600  -0.11558589  0.27273872  1.0
  H  H5  1  0.88441411  0.75471600  0.22726128  1.0
  H  H6  1  1.09205559  0.66308328  0.54887415  1.0
  H  H7  1  0.66308328  0.09205559  0.95112585  1.0
  H  H8  1  0.90794441  0.33691672  0.45112585  1.0
  H  H9  1  0.33691672  -0.09205559  0.04887415  1.0
  H  H10  1  0.62222974  0.59112555  0.64233155  1.0
  H  H11  1  0.59112555  -0.37777026  0.85766845  1.0
  H  H12  1  1.37777026  0.40887445  0.35766845  1.0
  H  H13  1  0.40887445  0.37777026  0.14233155  1.0
  H  H14  1  0.46346348  0.11960657  0.61841237  1.0
  H  H15  1  1.11960657  0.46346348  0.88158763  1.0
  H  H16  1  0.53653652  -0.11960657  0.38158763  1.0
  H  H17  1  0.88039343  0.53653652  0.11841237  1.0
  H  H18  1  0.38667428  -0.10407564  0.57859392  1.0
  H  H19  1  0.89592436  0.38667428  0.92140608  1.0
  H  H20  1  0.61332572  0.10407564  0.42140608  1.0
  H  H21  1  1.10407564  0.61332572  0.07859392  1.0
  C  C22  1  0.17677789  -0.10048197  0.63867131  1.0
  C  C23  1  0.89951803  0.17677789  0.86132869  1.0
  C  C24  1  0.82322211  0.10048197  0.36132869  1.0
  C  C25  1  1.10048197  0.82322211  0.13867131  1.0
  C  C26  1  0.84328575  0.61920900  0.58978246  1.0
  C  C27  1  0.61920900  -0.15671425  0.91021754  1.0
  C  C28  1  1.15671425  0.38079100  0.41021754  1.0
  C  C29  1  0.38079100  0.15671425  0.08978246  1.0
  S  S30  1  0.70265074  0.43348463  0.48318198  1.0
  S  S31  1  0.43348463  -0.29734926  0.01681802  1.0
  S  S32  1  1.29734926  0.56651537  0.51681802  1.0
  S  S33  1  0.56651537  0.29734926  0.98318198  1.0
  N  N34  1  0.12722378  -0.01131801  0.69285806  1.0
  N  N35  1  0.98868199  0.12722378  0.80714194  1.0
  N  N36  1  0.87277622  0.01131801  0.30714194  1.0
  N  N37  1  1.01131801  0.87277622  0.19285806  1.0
  N  N38  1  1.04176187  0.72182699  0.59252954  1.0
  N  N39  1  0.72182699  0.04176187  0.90747046  1.0
  N  N40  1  0.95823813  0.27817301  0.40747046  1.0
  N  N41  1  0.27817301  -0.04176187  0.09252954  1.0
  N  N42  1  0.77125018  0.66973691  0.66138033  1.0
  N  N43  1  0.66973691  -0.22874982  0.83861967  1.0
  N  N44  1  1.22874982  0.33026309  0.33861967  1.0
  N  N45  1  0.33026309  0.22874982  0.16138033  1.0
  N  N46  1  0.36303164  -0.02715493  0.62565866  1.0
  N  N47  1  0.97284507  0.36303164  0.87434134  1.0
  N  N48  1  0.63696837  0.02715493  0.37434134  1.0
  N  N49  1  1.02715493  0.63696837  0.12565866  1.0
