# generated using pymatgen
data_LiVO3
_symmetry_space_group_name_H-M   'P 1'
_cell_length_a   8.09612575
_cell_length_b   8.09612575
_cell_length_c   5.64633214
_cell_angle_alpha   69.67418201
_cell_angle_beta   110.32581799
_cell_angle_gamma   86.84061187
_symmetry_Int_Tables_number   1
_chemical_formula_structural   LiVO3
_chemical_formula_sum   'Li4 V4 O12'
_cell_volume   318.87791409
_cell_formula_units_Z   4
loop_
 _symmetry_equiv_pos_site_id
 _symmetry_equiv_pos_as_xyz
  1  'x, y, z'
loop_
 _atom_site_type_symbol
 _atom_site_label
 _atom_site_symmetry_multiplicity
 _atom_site_fract_x
 _atom_site_fract_y
 _atom_site_fract_z
 _atom_site_occupancy
  Li  Li0  1  0.75261691  0.75261691  0.25000000  1.0
  Li  Li1  1  0.24738309  0.24738309  0.75000000  1.0
  Li  Li2  1  0.24712617  0.24712617  0.25000000  1.0
  Li  Li3  1  0.75287383  0.75287383  0.75000000  1.0
  V  V4  1  0.65942697  0.16417412  0.27250228  1.0
  V  V5  1  0.83582588  0.34057303  0.77250228  1.0
  V  V6  1  1.16417412  -0.34057303  0.22749772  1.0
  V  V7  1  1.34057303  -0.16417412  0.72749772  1.0
  O  O8  1  0.72479831  -0.05790861  0.39124313  1.0
  O  O9  1  1.05790861  0.27520169  0.89124313  1.0
  O  O10  1  0.94209139  -0.27520169  0.10875687  1.0
  O  O11  1  1.27520169  0.05790861  0.60875687  1.0
  O  O12  1  0.72458623  0.23487940  0.55111724  1.0
  O  O13  1  0.76512060  0.27541377  1.05111724  1.0
  O  O14  1  1.23487940  -0.27541377  -0.05111724  1.0
  O  O15  1  1.27541377  -0.23487940  0.44888276  1.0
  O  O16  1  0.43669700  0.21947546  0.10794069  1.0
  O  O17  1  0.78052454  0.56330300  0.60794069  1.0
  O  O18  1  1.21947546  -0.56330300  0.39205931  1.0
  O  O19  1  1.56330300  -0.21947546  0.89205931  1.0
