# generated using pymatgen
data_Y(ClO4)3
_symmetry_space_group_name_H-M   'P 1'
_cell_length_a   9.93319766
_cell_length_b   9.93319766
_cell_length_c   5.48656591
_cell_angle_alpha   90.00000000
_cell_angle_beta   90.00000000
_cell_angle_gamma   120.00000000
_symmetry_Int_Tables_number   1
_chemical_formula_structural   Y(ClO4)3
_chemical_formula_sum   'Y2 Cl6 O24'
_cell_volume   468.82351555
_cell_formula_units_Z   2
loop_
 _symmetry_equiv_pos_site_id
 _symmetry_equiv_pos_as_xyz
  1  'x, y, z'
loop_
 _atom_site_type_symbol
 _atom_site_label
 _atom_site_symmetry_multiplicity
 _atom_site_fract_x
 _atom_site_fract_y
 _atom_site_fract_z
 _atom_site_occupancy
  Y  Y0  1  0.66666667  0.33333333  0.25000000  1.0
  Y  Y1  1  0.33333333  0.66666667  0.75000000  1.0
  Cl  Cl2  1  0.29780845  0.89950277  0.25000000  1.0
  Cl  Cl3  1  0.89950277  0.60169433  0.75000000  1.0
  Cl  Cl4  1  0.60169433  0.70219155  0.25000000  1.0
  Cl  Cl5  1  0.10049723  0.39830567  0.25000000  1.0
  Cl  Cl6  1  0.70219155  0.10049723  0.75000000  1.0
  Cl  Cl7  1  0.39830567  0.29780845  0.75000000  1.0
  O  O8  1  0.13328723  0.83645920  0.25000000  1.0
  O  O9  1  0.83645920  0.70317197  0.75000000  1.0
  O  O10  1  0.70317197  0.86671277  0.25000000  1.0
  O  O11  1  0.16354080  0.29682803  0.25000000  1.0
  O  O12  1  0.86671277  0.16354080  0.75000000  1.0
  O  O13  1  0.29682803  0.13328723  0.75000000  1.0
  O  O14  1  0.34914314  0.84727973  0.46705261  1.0
  O  O15  1  0.34914314  0.84727973  0.03294739  1.0
  O  O16  1  0.84727973  0.49813659  0.96705261  1.0
  O  O17  1  0.84727973  0.49813659  0.53294739  1.0
  O  O18  1  0.49813659  0.65085686  0.46705261  1.0
  O  O19  1  0.49813659  0.65085686  0.03294739  1.0
  O  O20  1  0.15272027  0.50186341  0.46705261  1.0
  O  O21  1  0.15272027  0.50186341  0.03294739  1.0
  O  O22  1  0.65085686  0.15272027  0.96705261  1.0
  O  O23  1  0.65085686  0.15272027  0.53294739  1.0
  O  O24  1  0.50186341  0.34914314  0.96705261  1.0
  O  O25  1  0.50186341  0.34914314  0.53294739  1.0
  O  O26  1  0.68765621  0.61941337  0.25000000  1.0
  O  O27  1  0.61941337  0.93175716  0.75000000  1.0
  O  O28  1  0.93175716  0.31234379  0.25000000  1.0
  O  O29  1  0.38058663  0.06824284  0.25000000  1.0
  O  O30  1  0.31234379  0.38058663  0.75000000  1.0
  O  O31  1  0.06824284  0.68765621  0.75000000  1.0
