# generated using pymatgen
data_NbI2O
_symmetry_space_group_name_H-M   'P 1'
_cell_length_a   8.66521269
_cell_length_b   8.66521269
_cell_length_c   7.60406682
_cell_angle_alpha   75.16041315
_cell_angle_beta   104.83958685
_cell_angle_gamma   154.03569579
_symmetry_Int_Tables_number   1
_chemical_formula_structural   NbI2O
_chemical_formula_sum   'Nb2 I4 O2'
_cell_volume   241.18329353
_cell_formula_units_Z   2
loop_
 _symmetry_equiv_pos_site_id
 _symmetry_equiv_pos_as_xyz
  1  'x, y, z'
loop_
 _atom_site_type_symbol
 _atom_site_label
 _atom_site_symmetry_multiplicity
 _atom_site_fract_x
 _atom_site_fract_y
 _atom_site_fract_z
 _atom_site_occupancy
  Nb  Nb0  1  0.99993526  -0.99993526  0.70749903  1.0
  Nb  Nb1  1  1.00006474  -0.00006474  0.29250097  1.0
  I  I2  1  0.88450390  -0.88450390  0.93257482  1.0
  I  I3  1  1.11549610  -0.11549610  0.06742518  1.0
  I  I4  1  0.85825520  -0.85825520  0.41706829  1.0
  I  I5  1  1.14174480  -0.14174480  0.58293171  1.0
  O  O6  1  1.49999318  -0.49999318  0.71239139  1.0
  O  O7  1  0.50000682  -0.50000682  0.28760861  1.0
