# generated using pymatgen
data_Be3SiO6
_symmetry_space_group_name_H-M   'P 1'
_cell_length_a   5.23095171
_cell_length_b   4.71014252
_cell_length_c   17.48228349
_cell_angle_alpha   90.00000000
_cell_angle_beta   108.13119625
_cell_angle_gamma   90.00000000
_symmetry_Int_Tables_number   1
_chemical_formula_structural   Be3SiO6
_chemical_formula_sum   'Be12 Si4 O24'
_cell_volume   409.35006796
_cell_formula_units_Z   4
loop_
 _symmetry_equiv_pos_site_id
 _symmetry_equiv_pos_as_xyz
  1  'x, y, z'
loop_
 _atom_site_type_symbol
 _atom_site_label
 _atom_site_symmetry_multiplicity
 _atom_site_fract_x
 _atom_site_fract_y
 _atom_site_fract_z
 _atom_site_occupancy
  Si  Si0  1  0.98904175  0.90826560  0.12341322  1.0
  Si  Si1  1  0.98904175  0.59173440  0.62341322  1.0
  Si  Si2  1  0.01095825  0.40826560  0.37658678  1.0
  Si  Si3  1  0.01095825  0.09173440  0.87658678  1.0
  O  O4  1  0.94291677  0.06785118  0.35733365  1.0
  O  O5  1  0.94291677  0.43214882  0.85733365  1.0
  O  O6  1  0.05708323  0.56785118  0.14266635  1.0
  O  O7  1  0.05708323  0.93214882  0.64266635  1.0
  O  O8  1  0.98513162  0.06582735  0.20808311  1.0
  O  O9  1  0.98513162  0.43417265  0.70808311  1.0
  O  O10  1  0.01486838  0.56582735  0.29191689  1.0
  O  O11  1  0.01486838  0.93417265  0.79191689  1.0
  O  O12  1  0.77168857  0.94296550  0.90569921  1.0
  O  O13  1  0.77168857  0.55703450  0.40569921  1.0
  O  O14  1  0.22831143  0.44296550  0.59430079  1.0
  O  O15  1  0.22831143  0.05703450  0.09430079  1.0
  O  O16  1  0.29621203  0.47696916  0.44491349  1.0
  O  O17  1  0.29621203  0.02303084  0.94491349  1.0
  O  O18  1  0.70378797  0.97696916  0.05508651  1.0
  O  O19  1  0.70378797  0.52303084  0.55508651  1.0
  O  O20  1  0.59007812  0.43979704  0.17079929  1.0
  O  O21  1  0.59007812  0.06020296  0.67079929  1.0
  O  O22  1  0.40992188  0.93979704  0.32920071  1.0
  O  O23  1  0.40992188  0.56020296  0.82920071  1.0
  O  O24  1  0.65323494  0.06566783  0.45790238  1.0
  O  O25  1  0.65323494  0.43433217  0.95790238  1.0
  O  O26  1  0.34676506  0.56566783  0.04209762  1.0
  O  O27  1  0.34676506  0.93433217  0.54209762  1.0
  Be  Be28  1  0.91227891  0.40924314  0.20294476  1.0
  Be  Be29  1  0.91227891  0.09075686  0.70294476  1.0
  Be  Be30  1  0.08772109  0.90924314  0.29705524  1.0
  Be  Be31  1  0.08772109  0.59075686  0.79705524  1.0
  Be  Be32  1  0.70836470  0.89305671  0.38568801  1.0
  Be  Be33  1  0.70836470  0.60694329  0.88568801  1.0
  Be  Be34  1  0.29163530  0.39305671  0.11431199  1.0
  Be  Be35  1  0.29163530  0.10694329  0.61431199  1.0
  Be  Be36  1  0.61255136  0.40075093  0.46188353  1.0
  Be  Be37  1  0.61255136  0.09924907  0.96188353  1.0
  Be  Be38  1  0.38744864  0.90075093  0.03811647  1.0
  Be  Be39  1  0.38744864  0.59924907  0.53811647  1.0
