# generated using pymatgen
data_Na5Fe3F14
_symmetry_space_group_name_H-M   'P 1'
_cell_length_a   7.76729992
_cell_length_b   7.76729992
_cell_length_c   10.31030138
_cell_angle_alpha   90.00000000
_cell_angle_beta   90.00000000
_cell_angle_gamma   90.00000000
_symmetry_Int_Tables_number   1
_chemical_formula_structural   Na5Fe3F14
_chemical_formula_sum   'Na10 Fe6 F28'
_cell_volume   622.03025662
_cell_formula_units_Z   2
loop_
 _symmetry_equiv_pos_site_id
 _symmetry_equiv_pos_as_xyz
  1  'x, y, z'
loop_
 _atom_site_type_symbol
 _atom_site_label
 _atom_site_symmetry_multiplicity
 _atom_site_fract_x
 _atom_site_fract_y
 _atom_site_fract_z
 _atom_site_occupancy
  Fe  Fe0  1  0.50000000  0.50000000  0.50000000  1.0
  Fe  Fe1  1  0.00000000  0.00000000  0.00000000  1.0
  Fe  Fe2  1  0.50000000  0.00000000  0.50000725  1.0
  Fe  Fe3  1  0.00000000  0.50000000  -0.00000725  1.0
  Fe  Fe4  1  0.00000000  0.50000000  0.49999275  1.0
  Fe  Fe5  1  0.50000000  0.00000000  1.00000725  1.0
  Na  Na6  1  0.26268849  0.73756018  0.25742685  1.0
  Na  Na7  1  0.76268849  0.76243982  0.24257315  1.0
  Na  Na8  1  0.26243982  0.73731151  0.74257315  1.0
  Na  Na9  1  0.76243982  0.76268849  0.75742685  1.0
  Na  Na10  1  0.73731151  0.26243982  0.25742685  1.0
  Na  Na11  1  0.23731151  0.23756018  0.24257315  1.0
  Na  Na12  1  0.73756018  0.26268849  0.74257315  1.0
  Na  Na13  1  0.23756018  0.23731151  0.75742685  1.0
  Na  Na14  1  0.50000000  0.50000000  0.00000000  1.0
  Na  Na15  1  0.00000000  0.00000000  0.50000000  1.0
  F  F16  1  0.31303620  0.99876537  0.37126761  1.0
  F  F17  1  0.81303620  0.50123463  0.12873239  1.0
  F  F18  1  0.00123463  0.68696380  0.62873239  1.0
  F  F19  1  0.50123463  0.81303620  0.87126761  1.0
  F  F20  1  0.68696380  0.00123463  0.37126761  1.0
  F  F21  1  0.18696380  0.49876537  0.12873239  1.0
  F  F22  1  0.99876537  0.31303620  0.62873239  1.0
  F  F23  1  0.49876537  0.18696380  0.87126761  1.0
  F  F24  1  0.49813913  0.74935299  0.49996659  1.0
  F  F25  1  0.99813913  0.75064701  0.00003341  1.0
  F  F26  1  0.25064701  0.50186087  0.50003341  1.0
  F  F27  1  0.75064701  0.99813913  0.99996659  1.0
  F  F28  1  0.50186087  0.25064701  0.49996659  1.0
  F  F29  1  0.00186087  0.24935299  0.00003341  1.0
  F  F30  1  0.74935299  0.49813913  0.50003341  1.0
  F  F31  1  0.24935299  0.00186087  0.99996659  1.0
  F  F32  1  0.00142332  0.68689109  0.37123119  1.0
  F  F33  1  0.50142332  0.81310891  0.12876881  1.0
  F  F34  1  0.31310891  0.99857668  0.62876881  1.0
  F  F35  1  0.81310891  0.50142332  0.87123119  1.0
  F  F36  1  0.99857668  0.31310891  0.37123119  1.0
  F  F37  1  0.49857668  0.18689109  0.12876881  1.0
  F  F38  1  0.68689109  0.00142332  0.62876881  1.0
  F  F39  1  0.18689109  0.49857668  0.87123119  1.0
  F  F40  1  0.50000000  0.50000000  0.31310372  1.0
  F  F41  1  0.00000000  0.00000000  0.18689628  1.0
  F  F42  1  0.50000000  0.50000000  0.68689628  1.0
  F  F43  1  0.00000000  0.00000000  0.81310372  1.0
