# generated using pymatgen
data_Gd13Ge6O31F
_symmetry_space_group_name_H-M   'P 1'
_cell_length_a   9.84322754
_cell_length_b   9.84322754
_cell_length_c   9.84322754
_cell_angle_alpha   109.80100359
_cell_angle_beta   109.80100359
_cell_angle_gamma   109.80100359
_symmetry_Int_Tables_number   1
_chemical_formula_structural   Gd13Ge6O31F
_chemical_formula_sum   'Gd13 Ge6 O31 F1'
_cell_volume   725.05744842
_cell_formula_units_Z   1
loop_
 _symmetry_equiv_pos_site_id
 _symmetry_equiv_pos_as_xyz
  1  'x, y, z'
loop_
 _atom_site_type_symbol
 _atom_site_label
 _atom_site_symmetry_multiplicity
 _atom_site_fract_x
 _atom_site_fract_y
 _atom_site_fract_z
 _atom_site_occupancy
  Gd  Gd0  1  0.96482734  0.96482734  0.96482734  1.0
  Gd  Gd1  1  0.93992915  0.84675841  0.27372259  1.0
  Gd  Gd2  1  0.27372259  -0.06007085  -0.15324159  1.0
  Gd  Gd3  1  0.84675841  0.27372259  -0.06007085  1.0
  Gd  Gd4  1  1.05732871  1.15067228  -0.27677218  1.0
  Gd  Gd5  1  0.72322782  0.05732871  0.15067228  1.0
  Gd  Gd6  1  1.15067228  1.72322782  0.05732871  1.0
  Gd  Gd7  1  0.81470034  0.67096876  0.52793784  1.0
  Gd  Gd8  1  0.52793784  -0.18529966  -0.32903124  1.0
  Gd  Gd9  1  0.67096876  0.52793784  -0.18529966  1.0
  Gd  Gd10  1  1.16674714  0.32269029  0.46736117  1.0
  Gd  Gd11  1  0.46736117  0.16674714  0.32269029  1.0
  Gd  Gd12  1  1.32269029  1.46736117  0.16674714  1.0
  Ge  Ge13  1  1.34102152  1.06721854  0.55525177  1.0
  Ge  Ge14  1  0.55525177  0.34102152  0.06721854  1.0
  Ge  Ge15  1  1.06721854  0.55525177  0.34102152  1.0
  Ge  Ge16  1  0.65484561  0.92721831  -0.55795007  1.0
  Ge  Ge17  1  0.44204993  -0.34515439  -0.07278169  1.0
  Ge  Ge18  1  0.92721831  0.44204993  0.65484561  1.0
  O  O19  1  0.68858426  0.40541528  -0.00870199  1.0
  O  O20  1  0.99129801  0.68858426  0.40541528  1.0
  O  O21  1  0.40541528  -0.00870199  -0.31141574  1.0
  O  O22  1  1.30591158  1.58526189  0.00010618  1.0
  O  O23  1  1.00010618  0.30591158  0.58526189  1.0
  O  O24  1  0.58526189  1.00010618  -0.69408842  1.0
  O  O25  1  0.50142206  0.25081147  -0.41014961  1.0
  O  O26  1  0.58985039  0.50142206  0.25081147  1.0
  O  O27  1  1.25081147  0.58985039  0.50142206  1.0
  O  O28  1  0.49509101  0.74056492  -0.59651593  1.0
  O  O29  1  1.40348407  0.49509101  0.74056492  1.0
  O  O30  1  0.74056492  0.40348407  0.49509101  1.0
  O  O31  1  1.17128485  1.10156142  0.54859553  1.0
  O  O32  1  0.54859553  0.17128485  0.10156142  1.0
  O  O33  1  1.10156142  0.54859553  0.17128485  1.0
  O  O34  1  0.82448831  0.89781659  -0.55654236  1.0
  O  O35  1  0.44345764  -0.17551169  -0.10218341  1.0
  O  O36  1  0.89781659  1.44345764  -0.17551169  1.0
  O  O37  1  0.93168736  0.33626695  0.25547133  1.0
  O  O38  1  1.25547133  0.93168736  0.33626695  1.0
  O  O39  1  0.33626695  0.25547133  -0.06831264  1.0
  O  O40  1  1.06383897  0.66119591  0.74636893  1.0
  O  O41  1  0.74636893  1.06383897  -0.33880409  1.0
  O  O42  1  0.66119591  -0.25363107  0.06383897  1.0
  O  O43  1  0.74667044  0.02444489  -0.07127479  1.0
  O  O44  1  0.92872521  1.74667044  0.02444489  1.0
  O  O45  1  1.02444489  0.92872521  -0.25332956  1.0
  O  O46  1  0.97698218  0.06637693  0.23489882  1.0
  O  O47  1  0.23489882  -0.02301782  0.06637693  1.0
  O  O48  1  1.06637693  1.23489882  -0.02301782  1.0
  O  O49  1  0.71224882  0.71224882  0.71224882  1.0
  F  F50  1  0.32944030  0.32944030  0.32944030  1.0
