# generated using pymatgen
data_LiFe(SiO3)2
_symmetry_space_group_name_H-M   'P 1'
_cell_length_a   9.40218793
_cell_length_b   8.88833378
_cell_length_c   5.33051798
_cell_angle_alpha   90.00000000
_cell_angle_beta   101.15108290
_cell_angle_gamma   90.00000000
_symmetry_Int_Tables_number   1
_chemical_formula_structural   LiFe(SiO3)2
_chemical_formula_sum   'Li4 Fe4 Si8 O24'
_cell_volume   437.06004097
_cell_formula_units_Z   4
loop_
 _symmetry_equiv_pos_site_id
 _symmetry_equiv_pos_as_xyz
  1  'x, y, z'
loop_
 _atom_site_type_symbol
 _atom_site_label
 _atom_site_symmetry_multiplicity
 _atom_site_fract_x
 _atom_site_fract_y
 _atom_site_fract_z
 _atom_site_occupancy
  Li  Li0  1  0.75086645  1.00798946  0.48963574  1.0
  Li  Li1  1  0.75086645  0.49201054  0.98963574  1.0
  Li  Li2  1  0.24913355  0.50798946  0.01036426  1.0
  Li  Li3  1  0.24913355  -0.00798946  0.51036426  1.0
  O  O4  1  0.89374010  0.76478971  0.47471585  1.0
  O  O5  1  0.89374010  0.73521029  0.97471585  1.0
  O  O6  1  0.10625990  0.26478971  0.02528415  1.0
  O  O7  1  0.10625990  0.23521029  0.52528415  1.0
  O  O8  1  0.39716815  0.27307185  0.41514447  1.0
  O  O9  1  0.39716815  0.22692815  0.91514447  1.0
  O  O10  1  0.60283185  0.77307185  0.08485553  1.0
  O  O11  1  0.60283185  0.72692815  0.58485553  1.0
  O  O12  1  0.86785687  0.33458872  0.20936719  1.0
  O  O13  1  0.86785687  0.16541128  0.70936719  1.0
  O  O14  1  0.13214313  0.83458872  0.29063281  1.0
  O  O15  1  0.13214313  0.66541128  0.79063281  1.0
  O  O16  1  0.88149753  0.00446033  0.20018013  1.0
  O  O17  1  0.88149753  0.49553967  0.70018013  1.0
  O  O18  1  0.11850247  0.50446033  0.29981987  1.0
  O  O19  1  0.11850247  0.99553967  0.79981987  1.0
  O  O20  1  0.63201987  0.16258282  0.26664565  1.0
  O  O21  1  0.63201987  0.33741718  0.76664565  1.0
  O  O22  1  0.36798013  0.66258282  0.23335435  1.0
  O  O23  1  0.36798013  0.83741718  0.73335435  1.0
  O  O24  1  0.62419097  0.50005910  0.27055344  1.0
  O  O25  1  0.62419097  -0.00005910  0.77055344  1.0
  O  O26  1  0.37580903  1.00005910  0.22944656  1.0
  O  O27  1  0.37580903  0.49994090  0.72944656  1.0
  Si  Si28  1  0.95332333  0.83738466  0.23042134  1.0
  Si  Si29  1  0.95332333  0.66261534  0.73042134  1.0
  Si  Si30  1  0.04667667  0.33738466  0.26957866  1.0
  Si  Si31  1  0.04667667  0.16261534  0.76957866  1.0
  Si  Si32  1  0.45286605  0.16241360  0.20644785  1.0
  Si  Si33  1  0.45286605  0.33758640  0.70644785  1.0
  Si  Si34  1  0.54713395  0.66241360  0.29355215  1.0
  Si  Si35  1  0.54713395  0.83758640  0.79355215  1.0
  Fe  Fe36  1  0.75013339  0.36207102  0.48822533  1.0
  Fe  Fe37  1  0.75013339  0.13792898  0.98822533  1.0
  Fe  Fe38  1  0.24986661  0.86207102  0.01177467  1.0
  Fe  Fe39  1  0.24986661  0.63792898  0.51177467  1.0
