# generated using pymatgen
data_VZnPbO5
_symmetry_space_group_name_H-M   'P 1'
_cell_length_a   8.61364133
_cell_length_b   5.75084977
_cell_length_c   10.07123607
_cell_angle_alpha   90.00000000
_cell_angle_beta   90.00000000
_cell_angle_gamma   90.00000000
_symmetry_Int_Tables_number   1
_chemical_formula_structural   VZnPbO5
_chemical_formula_sum   'V4 Zn4 Pb4 O20'
_cell_volume   498.88630450
_cell_formula_units_Z   4
loop_
 _symmetry_equiv_pos_site_id
 _symmetry_equiv_pos_as_xyz
  1  'x, y, z'
loop_
 _atom_site_type_symbol
 _atom_site_label
 _atom_site_symmetry_multiplicity
 _atom_site_fract_x
 _atom_site_fract_y
 _atom_site_fract_z
 _atom_site_occupancy
  O  O0  1  0.74506552  1.01447581  0.30069215  1.0
  O  O1  1  0.74506552  0.48552419  0.30069215  1.0
  O  O2  1  0.24506552  1.01447581  0.19930785  1.0
  O  O3  1  0.24506552  0.48552419  0.19930785  1.0
  O  O4  1  0.25493448  0.51447581  0.69930785  1.0
  O  O5  1  0.25493448  -0.01447581  0.69930785  1.0
  O  O6  1  0.75493448  0.51447581  0.80069215  1.0
  O  O7  1  0.75493448  -0.01447581  0.80069215  1.0
  O  O8  1  0.66671434  0.75000000  0.07315461  1.0
  O  O9  1  0.16671434  0.75000000  0.42684539  1.0
  O  O10  1  0.33328566  0.25000000  0.92684539  1.0
  O  O11  1  0.83328566  0.25000000  0.57315461  1.0
  O  O12  1  -0.00000000  0.00000000  0.00000000  1.0
  O  O13  1  0.00000000  0.50000000  -0.00000000  1.0
  O  O14  1  0.50000000  0.00000000  0.50000000  1.0
  O  O15  1  0.50000000  0.50000000  0.50000000  1.0
  O  O16  1  0.48287853  0.75000000  0.30162360  1.0
  O  O17  1  -0.01712147  0.75000000  0.19837640  1.0
  O  O18  1  0.51712147  0.25000000  0.69837640  1.0
  O  O19  1  1.01712147  0.25000000  0.80162360  1.0
  Zn  Zn20  1  0.83607597  0.75000000  -0.06415986  1.0
  Zn  Zn21  1  0.33607597  0.75000000  0.56415986  1.0
  Zn  Zn22  1  0.16392403  0.25000000  0.06415986  1.0
  Zn  Zn23  1  0.66392403  0.25000000  0.43584014  1.0
  Pb  Pb24  1  0.72332620  0.75000000  0.59917609  1.0
  Pb  Pb25  1  0.22332620  0.75000000  0.90082391  1.0
  Pb  Pb26  1  0.27667380  0.25000000  0.40082391  1.0
  Pb  Pb27  1  0.77667380  0.25000000  0.09917609  1.0
  V  V28  1  0.66603686  0.75000000  0.24418089  1.0
  V  V29  1  0.16603686  0.75000000  0.25581911  1.0
  V  V30  1  0.33396314  0.25000000  0.75581911  1.0
  V  V31  1  0.83396314  0.25000000  0.74418089  1.0
