# generated using pymatgen
data_Ba9Nb6WO27
_symmetry_space_group_name_H-M   'P 1'
_cell_length_a   21.71399069
_cell_length_b   21.71399069
_cell_length_c   21.71399069
_cell_angle_alpha   15.48310112
_cell_angle_beta   15.48310112
_cell_angle_gamma   15.48310112
_symmetry_Int_Tables_number   1
_chemical_formula_structural   Ba9Nb6WO27
_chemical_formula_sum   'Ba9 Nb6 W1 O27'
_cell_volume   635.70776745
_cell_formula_units_Z   1
loop_
 _symmetry_equiv_pos_site_id
 _symmetry_equiv_pos_as_xyz
  1  'x, y, z'
loop_
 _atom_site_type_symbol
 _atom_site_label
 _atom_site_symmetry_multiplicity
 _atom_site_fract_x
 _atom_site_fract_y
 _atom_site_fract_z
 _atom_site_occupancy
  Ba  Ba0  1  0.81356434  0.81356434  0.81356434  1.0
  Ba  Ba1  1  1.18643566  1.18643566  0.18643566  1.0
  Ba  Ba2  1  0.74614965  0.74614965  0.74614965  1.0
  Ba  Ba3  1  1.25385035  1.25385035  0.25385035  1.0
  Ba  Ba4  1  1.62806045  0.62806045  0.62806045  1.0
  Ba  Ba5  1  1.37193955  0.37193955  0.37193955  1.0
  Ba  Ba6  1  1.56053009  0.56053009  0.56053009  1.0
  Ba  Ba7  1  1.43946991  0.43946991  0.43946991  1.0
  Ba  Ba8  1  0.00000000  0.00000000  0.00000000  1.0
  Nb  Nb9  1  0.94130544  0.94130544  0.94130544  1.0
  Nb  Nb10  1  1.05869456  1.05869456  0.05869456  1.0
  Nb  Nb11  1  0.87322122  0.87322122  0.87322122  1.0
  Nb  Nb12  1  1.12677878  1.12677878  0.12677878  1.0
  Nb  Nb13  1  0.68610774  0.68610774  0.68610774  1.0
  Nb  Nb14  1  1.31389226  1.31389226  0.31389226  1.0
  W  W15  1  1.50000000  0.50000000  0.50000000  1.0
  O  O16  1  1.32357218  0.32357218  0.80154743  1.0
  O  O17  1  1.32357218  0.80154743  0.32357218  1.0
  O  O18  1  1.19845257  0.67642782  0.67642782  1.0
  O  O19  1  1.67642782  0.19845257  0.67642782  1.0
  O  O20  1  1.67642782  0.67642782  0.19845257  1.0
  O  O21  1  0.80154743  1.32357218  0.32357218  1.0
  O  O22  1  1.23497711  0.23497711  0.74524829  1.0
  O  O23  1  1.23497711  0.74524829  0.23497711  1.0
  O  O24  1  1.25475171  0.76502289  0.76502289  1.0
  O  O25  1  1.76502289  0.25475171  0.76502289  1.0
  O  O26  1  1.76502289  0.76502289  0.25475171  1.0
  O  O27  1  0.74524829  1.23497711  0.23497711  1.0
  O  O28  1  1.13425191  1.13425191  0.62494418  1.0
  O  O29  1  1.13425191  1.62494418  0.13425191  1.0
  O  O30  1  1.37505582  0.86574809  -0.13425191  1.0
  O  O31  1  0.86574809  1.37505582  -0.13425191  1.0
  O  O32  1  0.86574809  0.86574809  0.37505582  1.0
  O  O33  1  1.62494418  1.13425191  0.13425191  1.0
  O  O34  1  1.04915938  1.04915938  0.56051371  1.0
  O  O35  1  1.04915938  1.56051371  0.04915938  1.0
  O  O36  1  1.43948629  0.95084062  -0.04915938  1.0
  O  O37  1  0.95084062  1.43948629  -0.04915938  1.0
  O  O38  1  0.95084062  0.95084062  0.43948629  1.0
  O  O39  1  1.56051371  1.04915938  0.04915938  1.0
  O  O40  1  0.50000000  0.00000000  -0.50000000  1.0
  O  O41  1  0.50000000  -0.50000000  0.00000000  1.0
  O  O42  1  0.00000000  0.50000000  -0.50000000  1.0
