# generated using pymatgen
data_AgC4S2O5F6
_symmetry_space_group_name_H-M   'P 1'
_cell_length_a   5.60178618
_cell_length_b   9.36396414
_cell_length_c   11.45034900
_cell_angle_alpha   90.00000000
_cell_angle_beta   94.41599246
_cell_angle_gamma   90.00000000
_symmetry_Int_Tables_number   1
_chemical_formula_structural   AgC4S2O5F6
_chemical_formula_sum   'Ag2 C8 S4 O10 F12'
_cell_volume   598.84411441
_cell_formula_units_Z   2
loop_
 _symmetry_equiv_pos_site_id
 _symmetry_equiv_pos_as_xyz
  1  'x, y, z'
loop_
 _atom_site_type_symbol
 _atom_site_label
 _atom_site_symmetry_multiplicity
 _atom_site_fract_x
 _atom_site_fract_y
 _atom_site_fract_z
 _atom_site_occupancy
  C  C0  1  0.32538120  0.89161684  0.66452351  1.0
  C  C1  1  0.67461880  0.39161685  0.33547649  1.0
  C  C2  1  0.67461880  0.10838316  0.33547649  1.0
  C  C3  1  0.32538120  0.60838316  0.66452351  1.0
  C  C4  1  0.20041102  0.75000000  0.62155717  1.0
  C  C5  1  0.79958898  0.25000000  0.37844283  1.0
  C  C6  1  0.52896849  0.75000000  0.87094459  1.0
  C  C7  1  0.47103151  0.25000000  0.12905541  1.0
  S  S8  1  0.38249949  0.90795591  0.83053867  1.0
  S  S9  1  0.61750051  0.40795591  0.16946133  1.0
  S  S10  1  0.61750051  0.09204409  0.16946133  1.0
  S  S11  1  0.38249949  0.59204409  0.83053867  1.0
  O  O12  1  0.14501994  0.91535944  0.87603751  1.0
  O  O13  1  0.85498006  0.41535944  0.12396249  1.0
  O  O14  1  0.85498006  0.08464056  0.12396249  1.0
  O  O15  1  0.14501994  0.58464056  0.87603751  1.0
  O  O16  1  0.54542556  0.02702191  0.85023728  1.0
  O  O17  1  0.45457444  0.52702191  0.14976272  1.0
  O  O18  1  0.45457444  0.97297809  0.14976272  1.0
  O  O19  1  0.54542556  0.47297809  0.85023728  1.0
  O  O20  1  -0.03845711  0.75000000  0.14045206  1.0
  O  O21  1  1.03845711  0.25000000  0.85954794  1.0
  F  F22  1  0.53989336  0.90366514  0.61806926  1.0
  F  F23  1  0.46010664  0.40366514  0.38193074  1.0
  F  F24  1  0.46010664  0.09633486  0.38193074  1.0
  F  F25  1  0.53989336  0.59633486  0.61806926  1.0
  F  F26  1  0.18429946  0.00326259  0.62862748  1.0
  F  F27  1  0.81570054  0.50326259  0.37137252  1.0
  F  F28  1  0.81570054  0.99673741  0.37137252  1.0
  F  F29  1  0.18429946  0.49673741  0.62862748  1.0
  F  F30  1  0.97387658  0.75000000  0.65738831  1.0
  F  F31  1  0.02612342  0.25000000  0.34261169  1.0
  F  F32  1  0.18596460  0.75000000  0.50194789  1.0
  F  F33  1  0.81403540  0.25000000  0.49805211  1.0
  Ag  Ag34  1  0.85333954  0.75000000  0.97036551  1.0
  Ag  Ag35  1  0.14666046  0.25000000  0.02963449  1.0
