# generated using pymatgen
data_CaTiO5
_symmetry_space_group_name_H-M   'P 1'
_cell_length_a   3.84431854
_cell_length_b   5.65508127
_cell_length_c   5.78618906
_cell_angle_alpha   90.00000000
_cell_angle_beta   90.00000000
_cell_angle_gamma   90.00000000
_symmetry_Int_Tables_number   1
_chemical_formula_structural   CaTiO5
_chemical_formula_sum   'Ca1 Ti1 O5'
_cell_volume   125.79136666
_cell_formula_units_Z   1
loop_
 _symmetry_equiv_pos_site_id
 _symmetry_equiv_pos_as_xyz
  1  'x, y, z'
loop_
 _atom_site_type_symbol
 _atom_site_label
 _atom_site_symmetry_multiplicity
 _atom_site_fract_x
 _atom_site_fract_y
 _atom_site_fract_z
 _atom_site_occupancy
  Ca  Ca0  1  0.50000000  0.50000000  0.00000000  1.0
  Ti  Ti1  1  0.00000000  0.00000000  0.00000000  1.0
  O  O2  1  0.00000000  0.72265268  0.80692849  1.0
  O  O3  1  0.00000000  0.72265268  0.19307151  1.0
  O  O4  1  0.00000000  0.27734732  0.80692849  1.0
  O  O5  1  0.00000000  0.27734732  0.19307151  1.0
  O  O6  1  0.50000000  0.00000000  0.00000000  1.0
