# generated using pymatgen
data_CS5N5O3F
_symmetry_space_group_name_H-M   'P 1'
_cell_length_a   7.31542392
_cell_length_b   9.22754662
_cell_length_c   8.59660512
_cell_angle_alpha   98.36601495
_cell_angle_beta   107.24475562
_cell_angle_gamma   92.02575493
_symmetry_Int_Tables_number   1
_chemical_formula_structural   CS5N5O3F
_chemical_formula_sum   'C2 S10 N10 O6 F2'
_cell_volume   546.42185868
_cell_formula_units_Z   2
loop_
 _symmetry_equiv_pos_site_id
 _symmetry_equiv_pos_as_xyz
  1  'x, y, z'
loop_
 _atom_site_type_symbol
 _atom_site_label
 _atom_site_symmetry_multiplicity
 _atom_site_fract_x
 _atom_site_fract_y
 _atom_site_fract_z
 _atom_site_occupancy
  C  C0  1  -0.39520235  -0.30146535  -0.98920910  1.0
  C  C1  1  -0.60479765  -0.69853465  -0.01079090  1.0
  S  S2  1  -0.99057353  -0.81240658  -0.81953534  1.0
  S  S3  1  -0.00942647  -0.18759342  -0.18046466  1.0
  S  S4  1  -0.82821533  -0.72470428  -0.30591642  1.0
  S  S5  1  -0.17178467  -0.27529572  -0.69408358  1.0
  S  S6  1  -0.75962925  -0.53298164  -0.78795351  1.0
  S  S7  1  -0.24037075  -0.46701836  -0.21204649  1.0
  S  S8  1  -0.62243200  -0.95653148  -0.70968622  1.0
  S  S9  1  -0.37756800  -0.04346852  -0.29031378  1.0
  S  S10  1  -0.40879817  -0.66899217  -0.68160918  1.0
  S  S11  1  -0.59120183  -0.33100783  -0.31839082  1.0
  N  N12  1  -0.93363320  -0.64317326  -0.79073675  1.0
  N  N13  1  -0.06636680  -0.35682674  -0.20926325  1.0
  N  N14  1  -0.83034975  -0.92604371  -0.81947776  1.0
  N  N15  1  -0.16965025  -0.07395629  -0.18052224  1.0
  N  N16  1  -0.77609371  -0.67542560  -0.11202917  1.0
  N  N17  1  -0.22390629  -0.32457440  -0.88797083  1.0
  N  N18  1  -0.58902205  -0.62947605  -0.84046980  1.0
  N  N19  1  -0.41097795  -0.37052395  -0.15953020  1.0
  N  N20  1  -0.45710047  -0.83002904  -0.64900685  1.0
  N  N21  1  -0.54289953  -0.16997096  -0.35099315  1.0
  O  O22  1  -0.97274557  -0.29693878  -0.61828592  1.0
  O  O23  1  -0.02725443  -0.70306122  -0.38171408  1.0
  O  O24  1  -0.68647205  -0.67865282  -0.38016125  1.0
  O  O25  1  -0.31352795  -0.32134718  -0.61983875  1.0
  O  O26  1  -0.53237527  -0.23632979  -0.97087832  1.0
  O  O27  1  -0.46762473  -0.76367021  -0.02912168  1.0
  F  F28  1  -0.82225302  -0.90351553  -0.32670202  1.0
  F  F29  1  -0.17774698  -0.09648447  -0.67329798  1.0
