# generated using pymatgen
data_V(MoS2)2
_symmetry_space_group_name_H-M   'P 1'
_cell_length_a   6.84218007
_cell_length_b   6.84218007
_cell_length_c   12.77239902
_cell_angle_alpha   68.55061284
_cell_angle_beta   111.44938716
_cell_angle_gamma   123.75615406
_symmetry_Int_Tables_number   1
_chemical_formula_structural   V(MoS2)2
_chemical_formula_sum   'V4 Mo8 S16'
_cell_volume   452.39096352
_cell_formula_units_Z   4
loop_
 _symmetry_equiv_pos_site_id
 _symmetry_equiv_pos_as_xyz
  1  'x, y, z'
loop_
 _atom_site_type_symbol
 _atom_site_label
 _atom_site_symmetry_multiplicity
 _atom_site_fract_x
 _atom_site_fract_y
 _atom_site_fract_z
 _atom_site_occupancy
  V  V0  1  1.86078109  -0.11105630  0.13721556  1.0
  V  V1  1  1.11105630  -0.86078109  0.63721556  1.0
  V  V2  1  1.35424544  -0.60449271  0.13644061  1.0
  V  V3  1  1.60449271  -0.35424544  0.63644061  1.0
  Mo  Mo4  1  0.71801548  0.06214548  0.87876400  1.0
  Mo  Mo5  1  0.93785452  -0.71801548  0.37876400  1.0
  Mo  Mo6  1  1.46173365  -0.18285781  0.37769192  1.0
  Mo  Mo7  1  1.18285781  0.53826635  0.87769192  1.0
  Mo  Mo8  1  1.00361104  0.71764308  0.39596307  1.0
  Mo  Mo9  1  0.28235692  -0.00361104  0.89596307  1.0
  Mo  Mo10  1  0.52752710  0.25281483  0.39489608  1.0
  Mo  Mo11  1  0.74718517  0.47247290  0.89489608  1.0
  S  S12  1  0.86925076  0.87285395  0.50071679  1.0
  S  S13  1  0.12714605  0.13074924  0.00071679  1.0
  S  S14  1  1.59608002  -0.33809194  0.27294110  1.0
  S  S15  1  1.33809194  -0.59608002  0.77294110  1.0
  S  S16  1  1.64624914  0.10906063  0.03554754  1.0
  S  S17  1  0.89093937  -0.64624914  0.53554754  1.0
  S  S18  1  1.12975624  -0.38419093  0.02843892  1.0
  S  S19  1  0.38419093  -0.12975624  0.52843892  1.0
  S  S20  1  1.08116850  -0.33544419  0.24521345  1.0
  S  S21  1  0.33544419  -0.08116850  0.74521345  1.0
  S  S22  1  1.57443893  0.18104510  0.23811445  1.0
  S  S23  1  0.81895490  0.42556107  0.73811445  1.0
  S  S24  1  1.36945676  -0.61413750  0.49730170  1.0
  S  S25  1  0.61413750  -0.36945676  0.99730170  1.0
  S  S26  1  1.09587889  -0.85109868  0.27635482  1.0
  S  S27  1  1.85109868  -0.09587889  0.77635482  1.0
