# generated using pymatgen
data_NiH5CN(ClO)2
_symmetry_space_group_name_H-M   'P 1'
_cell_length_a   6.90173533
_cell_length_b   6.90173533
_cell_length_c   6.73533897
_cell_angle_alpha   84.58165908
_cell_angle_beta   95.41834092
_cell_angle_gamma   70.42956755
_symmetry_Int_Tables_number   1
_chemical_formula_structural   NiH5CN(ClO)2
_chemical_formula_sum   'Ni2 H10 C2 N2 Cl4 O4'
_cell_volume   298.21596395
_cell_formula_units_Z   2
loop_
 _symmetry_equiv_pos_site_id
 _symmetry_equiv_pos_as_xyz
  1  'x, y, z'
loop_
 _atom_site_type_symbol
 _atom_site_label
 _atom_site_symmetry_multiplicity
 _atom_site_fract_x
 _atom_site_fract_y
 _atom_site_fract_z
 _atom_site_occupancy
  Ni  Ni0  1  0.00000000  0.00000000  0.00000000  1.0
  Ni  Ni1  1  0.00000000  -0.00000000  0.50000000  1.0
  H  H2  1  0.67684918  -0.32315082  0.25000000  1.0
  H  H3  1  1.32315082  0.32315082  0.75000000  1.0
  H  H4  1  0.72138210  -0.49036347  0.75755587  1.0
  H  H5  1  0.50963653  -0.27861790  0.74244413  1.0
  H  H6  1  1.27861790  0.49036347  0.24244413  1.0
  H  H7  1  1.49036347  0.27861790  0.25755587  1.0
  H  H8  1  0.73356587  -0.28485282  0.87760563  1.0
  H  H9  1  0.71514718  -0.26643413  0.62239437  1.0
  H  H10  1  1.26643413  0.28485282  0.12239437  1.0
  H  H11  1  1.28485282  0.26643413  0.37760563  1.0
  C  C12  1  0.77493342  -0.22506658  0.25000000  1.0
  C  C13  1  1.22506658  0.22506658  0.75000000  1.0
  N  N14  1  0.66979379  -0.33020621  0.75000000  1.0
  N  N15  1  1.33020621  0.33020621  0.25000000  1.0
  Cl  Cl16  1  0.82928954  -0.74668511  0.20886746  1.0
  Cl  Cl17  1  0.25331489  -0.17071046  0.29113254  1.0
  Cl  Cl18  1  1.17071046  0.74668511  0.79113254  1.0
  Cl  Cl19  1  1.74668511  0.17071046  0.70886746  1.0
  O  O20  1  0.82765652  -0.18011708  0.08118212  1.0
  O  O21  1  0.81988292  -0.17234348  0.41881788  1.0
  O  O22  1  1.17234348  0.18011708  0.91881788  1.0
  O  O23  1  1.18011708  0.17234348  0.58118212  1.0
