# generated using pymatgen
data_Ba5Er2ZrAl2O13
_symmetry_space_group_name_H-M   'P 1'
_cell_length_a   6.00963225
_cell_length_b   6.00963225
_cell_length_c   25.24793028
_cell_angle_alpha   90.00000000
_cell_angle_beta   90.00000000
_cell_angle_gamma   120.00000000
_symmetry_Int_Tables_number   1
_chemical_formula_structural   Ba5Er2ZrAl2O13
_chemical_formula_sum   'Ba10 Er4 Zr2 Al4 O26'
_cell_volume   789.68194449
_cell_formula_units_Z   2
loop_
 _symmetry_equiv_pos_site_id
 _symmetry_equiv_pos_as_xyz
  1  'x, y, z'
loop_
 _atom_site_type_symbol
 _atom_site_label
 _atom_site_symmetry_multiplicity
 _atom_site_fract_x
 _atom_site_fract_y
 _atom_site_fract_z
 _atom_site_occupancy
  Ba  Ba0  1  0.33333333  0.66666667  0.25000000  1.0
  Ba  Ba1  1  0.66666667  0.33333333  0.75000000  1.0
  Ba  Ba2  1  -0.00000000  -0.00000000  0.36336231  1.0
  Ba  Ba3  1  -0.00000000  -0.00000000  0.13663769  1.0
  Ba  Ba4  1  0.00000000  0.00000000  0.86336231  1.0
  Ba  Ba5  1  0.00000000  0.00000000  0.63663769  1.0
  Ba  Ba6  1  0.33333333  0.66666667  0.95950062  1.0
  Ba  Ba7  1  0.33333333  0.66666667  0.54049938  1.0
  Ba  Ba8  1  0.66666667  0.33333333  0.45950062  1.0
  Ba  Ba9  1  0.66666667  0.33333333  0.04049938  1.0
  Er  Er10  1  0.33333333  0.66666667  0.39615112  1.0
  Er  Er11  1  0.33333333  0.66666667  0.10384888  1.0
  Er  Er12  1  0.66666667  0.33333333  0.89615112  1.0
  Er  Er13  1  0.66666667  0.33333333  0.60384888  1.0
  Zr  Zr14  1  0.00000000  0.00000000  0.50000000  1.0
  Zr  Zr15  1  0.00000000  0.00000000  0.00000000  1.0
  Al  Al16  1  0.33333333  0.66666667  0.81891206  1.0
  Al  Al17  1  0.33333333  0.66666667  0.68108794  1.0
  Al  Al18  1  0.66666667  0.33333333  0.31891206  1.0
  Al  Al19  1  0.66666667  0.33333333  0.18108794  1.0
  O  O20  1  0.50477895  0.49522105  0.34152553  1.0
  O  O21  1  0.50477895  0.49522105  0.15847447  1.0
  O  O22  1  0.50477895  0.00955789  0.34152553  1.0
  O  O23  1  0.50477895  0.00955789  0.15847447  1.0
  O  O24  1  0.49522105  0.50477895  0.84152553  1.0
  O  O25  1  0.49522105  0.50477895  0.65847447  1.0
  O  O26  1  0.49522105  0.99044211  0.84152553  1.0
  O  O27  1  0.49522105  0.99044211  0.65847447  1.0
  O  O28  1  0.99044211  0.49522105  0.34152553  1.0
  O  O29  1  0.99044211  0.49522105  0.15847447  1.0
  O  O30  1  0.00955789  0.50477895  0.84152553  1.0
  O  O31  1  0.00955789  0.50477895  0.65847447  1.0
  O  O32  1  0.33333333  0.66666667  0.75000000  1.0
  O  O33  1  0.66666667  0.33333333  0.25000000  1.0
  O  O34  1  0.16236270  0.83763730  0.45028133  1.0
  O  O35  1  0.16236270  0.83763730  0.04971867  1.0
  O  O36  1  0.16236270  0.32472541  0.45028133  1.0
  O  O37  1  0.16236270  0.32472541  0.04971867  1.0
  O  O38  1  0.83763730  0.16236270  0.95028133  1.0
  O  O39  1  0.83763730  0.16236270  0.54971867  1.0
  O  O40  1  0.83763730  0.67527459  0.95028133  1.0
  O  O41  1  0.83763730  0.67527459  0.54971867  1.0
  O  O42  1  0.67527459  0.83763730  0.45028133  1.0
  O  O43  1  0.67527459  0.83763730  0.04971867  1.0
  O  O44  1  0.32472541  0.16236270  0.95028133  1.0
  O  O45  1  0.32472541  0.16236270  0.54971867  1.0
