# generated using pymatgen
data_TaPd3
_symmetry_space_group_name_H-M   'P 1'
_cell_length_a   5.54817851
_cell_length_b   5.54817851
_cell_length_c   23.33931546
_cell_angle_alpha   90.00000000
_cell_angle_beta   90.00000000
_cell_angle_gamma   120.00000000
_symmetry_Int_Tables_number   1
_chemical_formula_structural   TaPd3
_chemical_formula_sum   'Ta10 Pd30'
_cell_volume   622.18508700
_cell_formula_units_Z   10
loop_
 _symmetry_equiv_pos_site_id
 _symmetry_equiv_pos_as_xyz
  1  'x, y, z'
loop_
 _atom_site_type_symbol
 _atom_site_label
 _atom_site_symmetry_multiplicity
 _atom_site_fract_x
 _atom_site_fract_y
 _atom_site_fract_z
 _atom_site_occupancy
  Ta  Ta0  1  -0.00000000  -0.00000000  0.25000000  1.0
  Ta  Ta1  1  -0.00000000  -0.00000000  0.75000000  1.0
  Ta  Ta2  1  0.33333333  0.66666667  0.95547849  1.0
  Ta  Ta3  1  0.66666667  0.33333333  0.45547849  1.0
  Ta  Ta4  1  0.33333333  0.66666667  0.54452151  1.0
  Ta  Ta5  1  0.66666667  0.33333333  0.04452151  1.0
  Ta  Ta6  1  0.33333333  0.66666667  0.15115747  1.0
  Ta  Ta7  1  0.66666667  0.33333333  0.65115747  1.0
  Ta  Ta8  1  0.33333333  0.66666667  0.34884253  1.0
  Ta  Ta9  1  0.66666667  0.33333333  0.84884253  1.0
  Pd  Pd10  1  0.83309394  0.66618789  0.15088561  1.0
  Pd  Pd11  1  0.16690606  0.83309394  0.65088561  1.0
  Pd  Pd12  1  0.33381211  0.16690606  0.15088561  1.0
  Pd  Pd13  1  0.16690606  0.33381211  0.65088561  1.0
  Pd  Pd14  1  0.83309394  0.16690606  0.15088561  1.0
  Pd  Pd15  1  0.66618789  0.83309394  0.65088561  1.0
  Pd  Pd16  1  0.33381211  0.16690606  0.34911439  1.0
  Pd  Pd17  1  0.16690606  0.33381211  0.84911439  1.0
  Pd  Pd18  1  0.83309394  0.16690606  0.34911439  1.0
  Pd  Pd19  1  0.66618789  0.83309394  0.84911439  1.0
  Pd  Pd20  1  0.83309394  0.66618789  0.34911439  1.0
  Pd  Pd21  1  0.16690606  0.83309394  0.84911439  1.0
  Pd  Pd22  1  0.16823994  0.33647988  0.05227314  1.0
  Pd  Pd23  1  0.83176006  0.16823994  0.55227314  1.0
  Pd  Pd24  1  0.66352012  0.83176006  0.05227314  1.0
  Pd  Pd25  1  0.83176006  0.66352012  0.55227314  1.0
  Pd  Pd26  1  0.16823994  0.83176006  0.05227314  1.0
  Pd  Pd27  1  0.33647988  0.16823994  0.55227314  1.0
  Pd  Pd28  1  0.66352012  0.83176006  0.44772686  1.0
  Pd  Pd29  1  0.83176006  0.66352012  0.94772686  1.0
  Pd  Pd30  1  0.16823994  0.83176006  0.44772686  1.0
  Pd  Pd31  1  0.33647988  0.16823994  0.94772686  1.0
  Pd  Pd32  1  0.16823994  0.33647988  0.44772686  1.0
  Pd  Pd33  1  0.83176006  0.16823994  0.94772686  1.0
  Pd  Pd34  1  0.49890533  -0.00218934  0.25000000  1.0
  Pd  Pd35  1  0.50109467  0.49890533  0.75000000  1.0
  Pd  Pd36  1  0.00218934  0.50109467  0.25000000  1.0
  Pd  Pd37  1  0.50109467  0.00218934  0.75000000  1.0
  Pd  Pd38  1  0.49890533  0.50109467  0.25000000  1.0
  Pd  Pd39  1  -0.00218934  0.49890533  0.75000000  1.0
