# generated using pymatgen
data_ZrBr2
_symmetry_space_group_name_H-M   'P 1'
_cell_length_a   8.59896467
_cell_length_b   8.59896467
_cell_length_c   8.59896467
_cell_angle_alpha   106.85923826
_cell_angle_beta   106.85923826
_cell_angle_gamma   106.85923826
_symmetry_Int_Tables_number   1
_chemical_formula_structural   ZrBr2
_chemical_formula_sum   'Zr6 Br12'
_cell_volume   531.54239909
_cell_formula_units_Z   6
loop_
 _symmetry_equiv_pos_site_id
 _symmetry_equiv_pos_as_xyz
  1  'x, y, z'
loop_
 _atom_site_type_symbol
 _atom_site_label
 _atom_site_symmetry_multiplicity
 _atom_site_fract_x
 _atom_site_fract_y
 _atom_site_fract_z
 _atom_site_occupancy
  Zr  Zr0  1  1.71506684  0.97236299  -0.09441530  1.0
  Zr  Zr1  1  1.02763701  0.09441530  -0.71506684  1.0
  Zr  Zr2  1  1.09441530  -0.71506684  0.02763701  1.0
  Zr  Zr3  1  0.28493316  0.02763701  0.09441530  1.0
  Zr  Zr4  1  0.97236299  0.90558470  0.71506684  1.0
  Zr  Zr5  1  0.90558470  1.71506684  -0.02763701  1.0
  Br  Br6  1  0.92193914  0.77633341  0.31275581  1.0
  Br  Br7  1  1.22366659  -0.31275581  0.07806086  1.0
  Br  Br8  1  0.68724419  0.07806086  0.22366659  1.0
  Br  Br9  1  1.07806086  0.22366659  -0.31275581  1.0
  Br  Br10  1  0.77633341  1.31275581  -0.07806086  1.0
  Br  Br11  1  1.31275581  0.92193914  -0.22366659  1.0
  Br  Br12  1  1.55685448  0.63421935  -0.14107605  1.0
  Br  Br13  1  0.36578065  1.14107605  -0.55685448  1.0
  Br  Br14  1  1.14107605  0.44314552  -0.63421935  1.0
  Br  Br15  1  0.44314552  0.36578065  0.14107605  1.0
  Br  Br16  1  1.63421935  -0.14107605  0.55685448  1.0
  Br  Br17  1  0.85892395  0.55685448  0.63421935  1.0
