# generated using pymatgen
data_TlAgPSe3
_symmetry_space_group_name_H-M   'P 1'
_cell_length_a   10.42227397
_cell_length_b   12.84206073
_cell_length_c   9.90625018
_cell_angle_alpha   90.00000000
_cell_angle_beta   97.10957887
_cell_angle_gamma   90.00000000
_symmetry_Int_Tables_number   1
_chemical_formula_structural   TlAgPSe3
_chemical_formula_sum   'Tl8 Ag8 P8 Se24'
_cell_volume   1315.69255071
_cell_formula_units_Z   8
loop_
 _symmetry_equiv_pos_site_id
 _symmetry_equiv_pos_as_xyz
  1  'x, y, z'
loop_
 _atom_site_type_symbol
 _atom_site_label
 _atom_site_symmetry_multiplicity
 _atom_site_fract_x
 _atom_site_fract_y
 _atom_site_fract_z
 _atom_site_occupancy
  Tl  Tl0  1  0.08542559  0.38376317  0.62056698  1.0
  Tl  Tl1  1  0.91457441  0.88376317  0.87943302  1.0
  Tl  Tl2  1  0.91457441  0.61623683  0.37943302  1.0
  Tl  Tl3  1  0.08542559  0.11623683  0.12056698  1.0
  Tl  Tl4  1  0.68358689  0.17188595  0.61272312  1.0
  Tl  Tl5  1  0.31641311  0.67188595  0.88727688  1.0
  Tl  Tl6  1  0.31641311  0.82811405  0.38727688  1.0
  Tl  Tl7  1  0.68358689  0.32811405  0.11272312  1.0
  Ag  Ag8  1  0.20897854  0.95040811  0.78949693  1.0
  Ag  Ag9  1  0.79102146  0.45040811  0.71050307  1.0
  Ag  Ag10  1  0.79102146  0.04959189  0.21050307  1.0
  Ag  Ag11  1  0.20897854  0.54959189  0.28949693  1.0
  Ag  Ag12  1  0.32411127  0.18185562  0.77895872  1.0
  Ag  Ag13  1  0.67588873  0.68185562  0.72104128  1.0
  Ag  Ag14  1  0.67588873  0.81814438  0.22104128  1.0
  Ag  Ag15  1  0.32411127  0.31814438  0.27895872  1.0
  P  P16  1  0.43552565  0.47821229  0.58462768  1.0
  P  P17  1  0.56447435  0.97821229  0.91537232  1.0
  P  P18  1  0.56447435  0.52178771  0.41537232  1.0
  P  P19  1  0.43552565  0.02178771  0.08462768  1.0
  P  P20  1  0.04646777  0.08123486  0.50334622  1.0
  P  P21  1  0.95353223  0.58123486  0.99665378  1.0
  P  P22  1  0.95353223  0.91876514  0.49665378  1.0
  P  P23  1  0.04646777  0.41876514  0.00334622  1.0
  Se  Se24  1  0.22879220  0.42717692  0.91355679  1.0
  Se  Se25  1  0.77120780  0.92717692  0.58644321  1.0
  Se  Se26  1  0.77120780  0.57282308  0.08644321  1.0
  Se  Se27  1  0.22879220  0.07282308  0.41355679  1.0
  Se  Se28  1  0.10165447  0.81487472  0.60652390  1.0
  Se  Se29  1  0.89834553  0.31487472  0.89347610  1.0
  Se  Se30  1  0.89834553  0.18512528  0.39347610  1.0
  Se  Se31  1  0.10165447  0.68512528  0.10652390  1.0
  Se  Se32  1  0.26943522  0.91167133  0.05135809  1.0
  Se  Se33  1  0.73056478  0.41167133  0.44864191  1.0
  Se  Se34  1  0.73056478  0.08832867  0.94864191  1.0
  Se  Se35  1  0.26943522  0.58832867  0.55135809  1.0
  Se  Se36  1  0.38150434  0.30952266  0.55297155  1.0
  Se  Se37  1  0.61849566  0.80952266  0.94702845  1.0
  Se  Se38  1  0.61849566  0.69047734  0.44702845  1.0
  Se  Se39  1  0.38150434  0.19047734  0.05297155  1.0
  Se  Se40  1  0.54921604  0.50526262  0.78641324  1.0
  Se  Se41  1  0.45078396  1.00526262  0.71358676  1.0
  Se  Se42  1  0.45078396  0.49473738  0.21358676  1.0
  Se  Se43  1  0.54921604  -0.00526262  0.28641324  1.0
  Se  Se44  1  0.06768033  0.12802117  0.72170844  1.0
  Se  Se45  1  0.93231967  0.62802117  0.77829156  1.0
  Se  Se46  1  0.93231967  0.87197883  0.27829156  1.0
  Se  Se47  1  0.06768033  0.37197883  0.22170844  1.0
