# generated using pymatgen
data_Be2BH4NO3F2
_symmetry_space_group_name_H-M   'P 1'
_cell_length_a   7.26023627
_cell_length_b   7.26023627
_cell_length_c   7.26023627
_cell_angle_alpha   35.85140537
_cell_angle_beta   35.85140537
_cell_angle_gamma   35.85140537
_symmetry_Int_Tables_number   1
_chemical_formula_structural   Be2BH4NO3F2
_chemical_formula_sum   'Be2 B1 H4 N1 O3 F2'
_cell_volume   117.38504108
_cell_formula_units_Z   1
loop_
 _symmetry_equiv_pos_site_id
 _symmetry_equiv_pos_as_xyz
  1  'x, y, z'
loop_
 _atom_site_type_symbol
 _atom_site_label
 _atom_site_symmetry_multiplicity
 _atom_site_fract_x
 _atom_site_fract_y
 _atom_site_fract_z
 _atom_site_occupancy
  Be  Be0  1  0.80589038  -0.19410962  -0.19410962  1.0
  Be  Be1  1  0.19450003  0.19450003  0.19450003  1.0
  B  B2  1  0.49872997  0.49872997  -0.50127003  1.0
  H  H3  1  0.27514810  -0.10353453  -0.10598270  1.0
  H  H4  1  0.89646547  -0.10598270  -0.72485190  1.0
  H  H5  1  0.89401730  -0.72485190  -0.10353453  1.0
  H  H6  1  0.95494987  -0.04505013  -0.04505013  1.0
  N  N7  1  0.00514891  0.00514891  0.00514891  1.0
  O  O8  1  0.80653900  0.49907237  -0.81036973  1.0
  O  O9  1  0.49907237  0.18963027  -0.19346100  1.0
  O  O10  1  0.18963027  0.80653900  -0.50092763  1.0
  F  F11  1  0.72744997  -0.27255003  -0.27255003  1.0
  F  F12  1  0.26925837  0.26925837  0.26925837  1.0
