# generated using pymatgen
data_NaHNO2
_symmetry_space_group_name_H-M   'P 1'
_cell_length_a   6.39020298
_cell_length_b   9.85245131
_cell_length_c   6.83176766
_cell_angle_alpha   90.00000000
_cell_angle_beta   90.00000000
_cell_angle_gamma   90.00000000
_symmetry_Int_Tables_number   1
_chemical_formula_structural   NaHNO2
_chemical_formula_sum   'Na8 H8 N8 O16'
_cell_volume   430.12237820
_cell_formula_units_Z   8
loop_
 _symmetry_equiv_pos_site_id
 _symmetry_equiv_pos_as_xyz
  1  'x, y, z'
loop_
 _atom_site_type_symbol
 _atom_site_label
 _atom_site_symmetry_multiplicity
 _atom_site_fract_x
 _atom_site_fract_y
 _atom_site_fract_z
 _atom_site_occupancy
  Na  Na0  1  0.33147775  0.25000000  0.50000000  1.0
  Na  Na1  1  0.33147775  0.25000000  0.00000000  1.0
  Na  Na2  1  0.66852225  0.75000000  0.50000000  1.0
  Na  Na3  1  0.66852225  0.75000000  0.00000000  1.0
  Na  Na4  1  0.00000000  0.50000000  0.50000000  1.0
  Na  Na5  1  0.00000000  0.50000000  0.00000000  1.0
  Na  Na6  1  0.00000000  0.00000000  0.00000000  1.0
  Na  Na7  1  0.00000000  0.00000000  0.50000000  1.0
  H  H8  1  0.82003456  0.27713041  0.39594197  1.0
  H  H9  1  0.82003456  0.27713041  0.10405803  1.0
  H  H10  1  0.82003456  0.22286959  0.89594197  1.0
  H  H11  1  0.82003456  0.22286959  0.60405803  1.0
  H  H12  1  0.17996544  0.77713041  0.39594197  1.0
  H  H13  1  0.17996544  0.77713041  0.10405803  1.0
  H  H14  1  0.17996544  0.72286959  0.89594197  1.0
  H  H15  1  0.17996544  0.72286959  0.60405803  1.0
  N  N16  1  0.60975348  0.02077783  0.25000000  1.0
  N  N17  1  0.60975348  0.47922217  0.75000000  1.0
  N  N18  1  0.39024652  0.52077783  0.25000000  1.0
  N  N19  1  0.39024652  0.97922217  0.75000000  1.0
  N  N20  1  0.57712794  0.47063206  0.25000000  1.0
  N  N21  1  0.57712794  0.02936794  0.75000000  1.0
  N  N22  1  0.42287206  0.97063206  0.25000000  1.0
  N  N23  1  0.42287206  0.52936794  0.75000000  1.0
  O  O24  1  0.76025530  0.92606389  0.25000000  1.0
  O  O25  1  0.76025530  0.57393611  0.75000000  1.0
  O  O26  1  0.23974470  0.42606389  0.25000000  1.0
  O  O27  1  0.23974470  0.07393611  0.75000000  1.0
  O  O28  1  0.61217499  0.33839206  0.25000000  1.0
  O  O29  1  0.61217499  0.16160794  0.75000000  1.0
  O  O30  1  0.38782501  0.83839206  0.25000000  1.0
  O  O31  1  0.38782501  0.66160794  0.75000000  1.0
  O  O32  1  0.26267520  0.05492741  0.25000000  1.0
  O  O33  1  0.26267520  0.44507259  0.75000000  1.0
  O  O34  1  0.73732480  0.55492741  0.25000000  1.0
  O  O35  1  0.73732480  0.94507259  0.75000000  1.0
  O  O36  1  0.92003310  0.25000000  0.50000000  1.0
  O  O37  1  0.92003310  0.25000000  0.00000000  1.0
  O  O38  1  0.07996690  0.75000000  0.50000000  1.0
  O  O39  1  0.07996690  0.75000000  0.00000000  1.0
