# generated using pymatgen
data_Tl2SbF5
_symmetry_space_group_name_H-M   'P 1'
_cell_length_a   8.35432880
_cell_length_b   8.35432880
_cell_length_c   6.74490867
_cell_angle_alpha   90.00000000
_cell_angle_beta   90.00000000
_cell_angle_gamma   133.17040800
_symmetry_Int_Tables_number   1
_chemical_formula_structural   Tl2SbF5
_chemical_formula_sum   'Tl4 Sb2 F10'
_cell_volume   343.33538471
_cell_formula_units_Z   2
loop_
 _symmetry_equiv_pos_site_id
 _symmetry_equiv_pos_as_xyz
  1  'x, y, z'
loop_
 _atom_site_type_symbol
 _atom_site_label
 _atom_site_symmetry_multiplicity
 _atom_site_fract_x
 _atom_site_fract_y
 _atom_site_fract_z
 _atom_site_occupancy
  Tl  Tl0  1  -0.58081220  0.58081220  0.25000000  1.0
  Tl  Tl1  1  -0.41918780  1.41918780  0.75000000  1.0
  Tl  Tl2  1  -0.24955128  1.24955128  0.25000000  1.0
  Tl  Tl3  1  -0.75044872  0.75044872  0.75000000  1.0
  Sb  Sb4  1  -0.89643222  0.89643222  0.25000000  1.0
  Sb  Sb5  1  -0.10356778  1.10356778  0.75000000  1.0
  F  F6  1  -0.09828035  1.64763576  0.46937345  1.0
  F  F7  1  -0.09828035  1.64763576  0.03062655  1.0
  F  F8  1  -0.35236424  0.90171965  0.96937345  1.0
  F  F9  1  -0.35236424  0.90171965  0.53062655  1.0
  F  F10  1  -0.64763576  1.09828035  0.46937345  1.0
  F  F11  1  -0.64763576  1.09828035  0.03062655  1.0
  F  F12  1  0.09828035  1.35236424  0.96937345  1.0
  F  F13  1  0.09828035  1.35236424  0.53062655  1.0
  F  F14  1  -0.76562877  0.76562877  0.25000000  1.0
  F  F15  1  -0.23437123  1.23437123  0.75000000  1.0
