# generated using pymatgen
data_Tl2CO3
_symmetry_space_group_name_H-M   'P 1'
_cell_length_a   7.18982839
_cell_length_b   7.18982839
_cell_length_c   7.98192155
_cell_angle_alpha   60.57244470
_cell_angle_beta   119.42755530
_cell_angle_gamma   134.68679575
_symmetry_Int_Tables_number   1
_chemical_formula_structural   Tl2CO3
_chemical_formula_sum   'Tl4 C2 O6'
_cell_volume   248.31969828
_cell_formula_units_Z   2
loop_
 _symmetry_equiv_pos_site_id
 _symmetry_equiv_pos_as_xyz
  1  'x, y, z'
loop_
 _atom_site_type_symbol
 _atom_site_label
 _atom_site_symmetry_multiplicity
 _atom_site_fract_x
 _atom_site_fract_y
 _atom_site_fract_z
 _atom_site_occupancy
  Tl  Tl0  1  0.86700836  -0.86700836  0.21409529  1.0
  Tl  Tl1  1  0.13299164  -0.13299164  0.78590471  1.0
  Tl  Tl2  1  1.39465670  -0.39465670  0.69592034  1.0
  Tl  Tl3  1  0.60534330  0.39465670  0.30407966  1.0
  C  C4  1  0.82122445  0.17877555  0.79435478  1.0
  C  C5  1  1.17877555  -0.17877555  0.20564522  1.0
  O  O6  1  0.61855465  -0.02495463  0.87850781  1.0
  O  O7  1  1.02495463  0.38144535  0.87850781  1.0
  O  O8  1  0.97504537  -0.38144535  0.12149219  1.0
  O  O9  1  1.38144535  0.02495463  0.12149219  1.0
  O  O10  1  0.82285415  0.17714585  0.63427923  1.0
  O  O11  1  0.17714585  -0.17714585  0.36572077  1.0
