# generated using pymatgen
data_Ta2FeB2
_symmetry_space_group_name_H-M   'P 1'
_cell_length_a   5.88277734
_cell_length_b   5.88277734
_cell_length_c   3.26970028
_cell_angle_alpha   90.00000000
_cell_angle_beta   90.00000000
_cell_angle_gamma   90.00000000
_symmetry_Int_Tables_number   1
_chemical_formula_structural   Ta2FeB2
_chemical_formula_sum   'Ta4 Fe2 B4'
_cell_volume   113.15474378
_cell_formula_units_Z   2
loop_
 _symmetry_equiv_pos_site_id
 _symmetry_equiv_pos_as_xyz
  1  'x, y, z'
loop_
 _atom_site_type_symbol
 _atom_site_label
 _atom_site_symmetry_multiplicity
 _atom_site_fract_x
 _atom_site_fract_y
 _atom_site_fract_z
 _atom_site_occupancy
  Ta  Ta0  1  0.31886687  0.18113313  0.50000000  1.0
  Ta  Ta1  1  0.81886687  0.31886687  0.50000000  1.0
  Ta  Ta2  1  0.68113313  0.81886687  0.50000000  1.0
  Ta  Ta3  1  0.18113313  0.68113313  0.50000000  1.0
  Fe  Fe4  1  0.50000000  0.50000000  0.00000000  1.0
  Fe  Fe5  1  0.00000000  0.00000000  0.00000000  1.0
  B  B6  1  0.89095583  0.60904417  0.00000000  1.0
  B  B7  1  0.39095583  0.89095583  0.00000000  1.0
  B  B8  1  0.10904417  0.39095583  0.00000000  1.0
  B  B9  1  0.60904417  0.10904417  0.00000000  1.0
