# generated using pymatgen
data_CdSnO3
_symmetry_space_group_name_H-M   'P 1'
_cell_length_a   5.66868564
_cell_length_b   8.03754319
_cell_length_c   5.54709292
_cell_angle_alpha   90.00000000
_cell_angle_beta   90.00000000
_cell_angle_gamma   90.00000000
_symmetry_Int_Tables_number   1
_chemical_formula_structural   CdSnO3
_chemical_formula_sum   'Cd4 Sn4 O12'
_cell_volume   252.73834283
_cell_formula_units_Z   4
loop_
 _symmetry_equiv_pos_site_id
 _symmetry_equiv_pos_as_xyz
  1  'x, y, z'
loop_
 _atom_site_type_symbol
 _atom_site_label
 _atom_site_symmetry_multiplicity
 _atom_site_fract_x
 _atom_site_fract_y
 _atom_site_fract_z
 _atom_site_occupancy
  Cd  Cd0  1  0.04521085  0.75000000  0.51165320  1.0
  Cd  Cd1  1  0.54521085  0.75000000  0.98834680  1.0
  Cd  Cd2  1  0.95478915  0.25000000  0.48834680  1.0
  Cd  Cd3  1  0.45478915  0.25000000  0.01165320  1.0
  Sn  Sn4  1  0.50000000  0.00000000  0.50000000  1.0
  Sn  Sn5  1  0.50000000  0.50000000  0.50000000  1.0
  Sn  Sn6  1  0.00000000  0.00000000  0.00000000  1.0
  Sn  Sn7  1  0.00000000  0.50000000  0.00000000  1.0
  O  O8  1  0.30160777  0.93791438  0.80504244  1.0
  O  O9  1  0.30160777  0.56208562  0.80504244  1.0
  O  O10  1  0.80160777  0.93791438  0.69495756  1.0
  O  O11  1  0.80160777  0.56208562  0.69495756  1.0
  O  O12  1  0.69839223  0.43791438  0.19495756  1.0
  O  O13  1  0.69839223  0.06208562  0.19495756  1.0
  O  O14  1  0.19839223  0.43791438  0.30504244  1.0
  O  O15  1  0.19839223  0.06208562  0.30504244  1.0
  O  O16  1  0.94677804  0.75000000  0.11477427  1.0
  O  O17  1  0.44677804  0.75000000  0.38522573  1.0
  O  O18  1  0.05322196  0.25000000  0.88522573  1.0
  O  O19  1  0.55322196  0.25000000  0.61477427  1.0
