# generated using pymatgen
data_NiP3
_symmetry_space_group_name_H-M   'P 1'
_cell_length_a   6.79053846
_cell_length_b   6.79053846
_cell_length_c   6.79053846
_cell_angle_alpha   109.47122063
_cell_angle_beta   109.47122063
_cell_angle_gamma   109.47122063
_symmetry_Int_Tables_number   1
_chemical_formula_structural   NiP3
_chemical_formula_sum   'Ni4 P12'
_cell_volume   241.04090523
_cell_formula_units_Z   4
loop_
 _symmetry_equiv_pos_site_id
 _symmetry_equiv_pos_as_xyz
  1  'x, y, z'
loop_
 _atom_site_type_symbol
 _atom_site_label
 _atom_site_symmetry_multiplicity
 _atom_site_fract_x
 _atom_site_fract_y
 _atom_site_fract_z
 _atom_site_occupancy
  Ni  Ni0  1  0.50000000  1.00000000  1.00000000  1.0
  Ni  Ni1  1  0.50000000  0.50000000  0.50000000  1.0
  Ni  Ni2  1  1.00000000  1.00000000  0.50000000  1.0
  Ni  Ni3  1  1.00000000  0.50000000  1.00000000  1.0
  P  P4  1  0.85670024  1.35604574  1.21274598  1.0
  P  P5  1  0.85670024  0.64395426  0.50065450  1.0
  P  P6  1  0.14329976  0.35604574  0.49934550  1.0
  P  P7  1  0.14329976  0.64395426  0.78725402  1.0
  P  P8  1  0.50065450  0.85670024  0.64395426  1.0
  P  P9  1  1.21274598  0.85670024  1.35604574  1.0
  P  P10  1  0.64395426  0.78725402  0.14329976  1.0
  P  P11  1  0.64395426  0.50065450  0.85670024  1.0
  P  P12  1  0.78725402  0.14329976  0.64395426  1.0
  P  P13  1  0.49934550  0.14329976  0.35604574  1.0
  P  P14  1  0.35604574  0.49934550  0.14329976  1.0
  P  P15  1  1.35604574  1.21274598  0.85670024  1.0
