# generated using pymatgen
data_CdBr2
_symmetry_space_group_name_H-M   'P 1'
_cell_length_a   7.48528736
_cell_length_b   7.48528736
_cell_length_c   7.48528736
_cell_angle_alpha   31.34272108
_cell_angle_beta   31.34272108
_cell_angle_gamma   31.34272108
_symmetry_Int_Tables_number   1
_chemical_formula_structural   CdBr2
_chemical_formula_sum   'Cd1 Br2'
_cell_volume   100.71684582
_cell_formula_units_Z   1
loop_
 _symmetry_equiv_pos_site_id
 _symmetry_equiv_pos_as_xyz
  1  'x, y, z'
loop_
 _atom_site_type_symbol
 _atom_site_label
 _atom_site_symmetry_multiplicity
 _atom_site_fract_x
 _atom_site_fract_y
 _atom_site_fract_z
 _atom_site_occupancy
  Cd  Cd0  1  0.00000000  -0.00000000  0.00000000  1.0
  Br  Br1  1  0.74087323  0.74087323  0.74087323  1.0
  Br  Br2  1  1.25912677  1.25912677  0.25912677  1.0
