# generated using pymatgen
data_RbVI3
_symmetry_space_group_name_H-M   'P 1'
_cell_length_a   13.96803544
_cell_length_b   13.96803544
_cell_length_c   7.04356280
_cell_angle_alpha   90.00000000
_cell_angle_beta   90.00000000
_cell_angle_gamma   120.00000000
_symmetry_Int_Tables_number   1
_chemical_formula_structural   RbVI3
_chemical_formula_sum   'Rb6 V6 I18'
_cell_volume   1190.12801724
_cell_formula_units_Z   6
loop_
 _symmetry_equiv_pos_site_id
 _symmetry_equiv_pos_as_xyz
  1  'x, y, z'
loop_
 _atom_site_type_symbol
 _atom_site_label
 _atom_site_symmetry_multiplicity
 _atom_site_fract_x
 _atom_site_fract_y
 _atom_site_fract_z
 _atom_site_occupancy
  Rb  Rb0  1  0.32933477  0.32933477  0.25000000  1.0
  Rb  Rb1  1  0.32933477  0.00000000  0.75000000  1.0
  Rb  Rb2  1  -0.00000000  0.32933477  0.75000000  1.0
  Rb  Rb3  1  0.00000000  0.67066523  0.25000000  1.0
  Rb  Rb4  1  0.67066523  0.67066523  0.75000000  1.0
  Rb  Rb5  1  0.67066523  -0.00000000  0.25000000  1.0
  V  V6  1  0.33333333  0.66666667  0.08272823  1.0
  V  V7  1  0.33333333  0.66666667  0.58272823  1.0
  V  V8  1  0.66666667  0.33333333  0.41727177  1.0
  V  V9  1  0.66666667  0.33333333  0.91727177  1.0
  V  V10  1  0.00000000  0.00000000  -0.00000000  1.0
  V  V11  1  0.00000000  -0.00000000  0.50000000  1.0
  I  I12  1  0.66529543  0.49338428  0.16552519  1.0
  I  I13  1  0.66529543  0.17191115  0.66552519  1.0
  I  I14  1  0.49338428  0.66529543  0.33447481  1.0
  I  I15  1  0.49338428  0.82808885  0.83447481  1.0
  I  I16  1  0.82808885  0.49338428  0.66552519  1.0
  I  I17  1  0.82808885  0.33470457  0.16552519  1.0
  I  I18  1  0.50661572  0.33470457  0.66552519  1.0
  I  I19  1  0.50661572  0.17191115  0.16552519  1.0
  I  I20  1  0.33470457  0.82808885  0.33447481  1.0
  I  I21  1  0.33470457  0.50661572  0.83447481  1.0
  I  I22  1  0.17191115  0.66529543  0.83447481  1.0
  I  I23  1  0.17191115  0.50661572  0.33447481  1.0
  I  I24  1  0.83894592  0.83894592  0.25000000  1.0
  I  I25  1  0.83894592  0.00000000  0.75000000  1.0
  I  I26  1  -0.00000000  0.83894592  0.75000000  1.0
  I  I27  1  0.00000000  0.16105408  0.25000000  1.0
  I  I28  1  0.16105408  0.16105408  0.75000000  1.0
  I  I29  1  0.16105408  0.00000000  0.25000000  1.0
