# generated using pymatgen
data_Cu3P
_symmetry_space_group_name_H-M   'P 1'
_cell_length_a   6.96969663
_cell_length_b   6.96969663
_cell_length_c   7.20350045
_cell_angle_alpha   90.00000000
_cell_angle_beta   90.00000000
_cell_angle_gamma   120.00000000
_symmetry_Int_Tables_number   1
_chemical_formula_structural   Cu3P
_chemical_formula_sum   'Cu18 P6'
_cell_volume   303.04140413
_cell_formula_units_Z   6
loop_
 _symmetry_equiv_pos_site_id
 _symmetry_equiv_pos_as_xyz
  1  'x, y, z'
loop_
 _atom_site_type_symbol
 _atom_site_label
 _atom_site_symmetry_multiplicity
 _atom_site_fract_x
 _atom_site_fract_y
 _atom_site_fract_z
 _atom_site_occupancy
  Cu  Cu0  1  0.93122102  0.61468393  0.07908377  1.0
  Cu  Cu1  1  0.93122102  0.31653708  0.57908377  1.0
  Cu  Cu2  1  0.61468393  0.93122102  0.42091623  1.0
  Cu  Cu3  1  0.61468393  0.68346292  0.92091623  1.0
  Cu  Cu4  1  0.68346292  0.61468393  0.57908377  1.0
  Cu  Cu5  1  0.68346292  0.06877898  0.07908377  1.0
  Cu  Cu6  1  0.38531607  0.06877898  0.57908377  1.0
  Cu  Cu7  1  0.38531607  0.31653708  0.07908377  1.0
  Cu  Cu8  1  0.06877898  0.68346292  0.42091623  1.0
  Cu  Cu9  1  0.06877898  0.38531607  0.92091623  1.0
  Cu  Cu10  1  0.31653708  0.93122102  0.92091623  1.0
  Cu  Cu11  1  0.31653708  0.38531607  0.42091623  1.0
  Cu  Cu12  1  0.33333333  0.66666667  0.17303194  1.0
  Cu  Cu13  1  0.33333333  0.66666667  0.67303194  1.0
  Cu  Cu14  1  0.66666667  0.33333333  0.32696806  1.0
  Cu  Cu15  1  0.66666667  0.33333333  0.82696806  1.0
  Cu  Cu16  1  0.00000000  0.00000000  0.00000000  1.0
  Cu  Cu17  1  -0.00000000  -0.00000000  0.50000000  1.0
  P  P18  1  0.67915170  0.67915170  0.25000000  1.0
  P  P19  1  0.67915170  -0.00000000  0.75000000  1.0
  P  P20  1  -0.00000000  0.67915170  0.75000000  1.0
  P  P21  1  -0.00000000  0.32084830  0.25000000  1.0
  P  P22  1  0.32084830  0.32084830  0.75000000  1.0
  P  P23  1  0.32084830  -0.00000000  0.25000000  1.0
