# generated using pymatgen
data_Nb3CuS4
_symmetry_space_group_name_H-M   'P 1'
_cell_length_a   8.97367034
_cell_length_b   8.97367034
_cell_length_c   4.02021920
_cell_angle_alpha   90.00000000
_cell_angle_beta   90.00000000
_cell_angle_gamma   120.00000000
_symmetry_Int_Tables_number   1
_chemical_formula_structural   Nb3CuS4
_chemical_formula_sum   'Nb6 Cu2 S8'
_cell_volume   280.36292849
_cell_formula_units_Z   2
loop_
 _symmetry_equiv_pos_site_id
 _symmetry_equiv_pos_as_xyz
  1  'x, y, z'
loop_
 _atom_site_type_symbol
 _atom_site_label
 _atom_site_symmetry_multiplicity
 _atom_site_fract_x
 _atom_site_fract_y
 _atom_site_fract_z
 _atom_site_occupancy
  Nb  Nb0  1  0.64385409  0.51170934  0.25000000  1.0
  Nb  Nb1  1  0.86785524  0.35614591  0.25000000  1.0
  Nb  Nb2  1  0.48829066  0.13214476  0.25000000  1.0
  Nb  Nb3  1  0.35614591  0.48829066  0.75000000  1.0
  Nb  Nb4  1  0.13214476  0.64385409  0.75000000  1.0
  Nb  Nb5  1  0.51170934  0.86785524  0.75000000  1.0
  Cu  Cu6  1  0.00000000  0.00000000  0.50000000  1.0
  Cu  Cu7  1  0.00000000  0.00000000  0.00000000  1.0
  S  S8  1  0.33333333  0.66666667  0.25000000  1.0
  S  S9  1  0.66666667  0.33333333  0.75000000  1.0
  S  S10  1  0.97120303  0.67053453  0.25000000  1.0
  S  S11  1  0.69933150  0.02879697  0.25000000  1.0
  S  S12  1  0.32946547  0.30066850  0.25000000  1.0
  S  S13  1  0.02879697  0.32946547  0.75000000  1.0
  S  S14  1  0.30066850  0.97120303  0.75000000  1.0
  S  S15  1  0.67053453  0.69933150  0.75000000  1.0
