# generated using pymatgen
data_NiH14C10(N4O)2
_symmetry_space_group_name_H-M   'P 1'
_cell_length_a   7.93034931
_cell_length_b   7.93034931
_cell_length_c   8.17690494
_cell_angle_alpha   71.40082147
_cell_angle_beta   108.59917853
_cell_angle_gamma   124.24988690
_symmetry_Int_Tables_number   1
_chemical_formula_structural   NiH14C10(N4O)2
_chemical_formula_sum   'Ni1 H14 C10 N8 O2'
_cell_volume   396.44026395
_cell_formula_units_Z   1
loop_
 _symmetry_equiv_pos_site_id
 _symmetry_equiv_pos_as_xyz
  1  'x, y, z'
loop_
 _atom_site_type_symbol
 _atom_site_label
 _atom_site_symmetry_multiplicity
 _atom_site_fract_x
 _atom_site_fract_y
 _atom_site_fract_z
 _atom_site_occupancy
  Ni  Ni0  1  -0.00000000  0.00000000  0.50000000  1.0
  H  H1  1  0.78065101  0.21934899  0.25554689  1.0
  H  H2  1  0.21934899  -0.21934899  0.74445311  1.0
  H  H3  1  0.90468552  0.33490542  0.77618731  1.0
  H  H4  1  0.66509458  0.09531448  0.77618731  1.0
  H  H5  1  1.09531448  0.66509458  0.22381269  1.0
  H  H6  1  0.33490542  -0.09531448  0.22381269  1.0
  H  H7  1  0.89341183  0.10658817  0.92064420  1.0
  H  H8  1  0.10658817  -0.10658817  0.07935580  1.0
  H  H9  1  0.74274571  0.49773094  0.85871875  1.0
  H  H10  1  0.50226906  0.25725429  0.85871875  1.0
  H  H11  1  1.25725429  0.50226906  0.14128125  1.0
  H  H12  1  0.49773094  -0.25725429  0.14128125  1.0
  H  H13  1  0.63134751  0.36865249  1.05328318  1.0
  H  H14  1  0.36865249  -0.36865249  -0.05328318  1.0
  C  C15  1  0.82380043  0.17619957  0.16634935  1.0
  C  C16  1  0.17619957  -0.17619957  0.83365065  1.0
  C  C17  1  0.81000943  0.18999057  0.85985775  1.0
  C  C18  1  0.18999057  -0.18999057  0.14014225  1.0
  C  C19  1  0.65423287  0.34576713  0.93843457  1.0
  C  C20  1  0.34576713  -0.34576713  0.06156543  1.0
  C  C21  1  1.24323359  0.44757792  0.57777613  1.0
  C  C22  1  0.55242208  -0.24323359  0.57777613  1.0
  C  C23  1  0.75676641  0.55242208  0.42222387  1.0
  C  C24  1  0.44757792  0.24323359  0.42222387  1.0
  N  N25  1  1.10548256  0.29170271  0.53035679  1.0
  N  N26  1  0.70829729  -0.10548256  0.53035679  1.0
  N  N27  1  0.89451744  0.70829729  0.46964321  1.0
  N  N28  1  0.29170271  0.10548256  0.46964321  1.0
  N  N29  1  0.38445473  -0.38445473  0.64073801  1.0
  N  N30  1  0.61554527  0.38445473  0.35926199  1.0
  N  N31  1  0.76545332  0.23454668  0.99554439  1.0
  N  N32  1  0.23454668  -0.23454668  0.00445561  1.0
  O  O33  1  0.91965350  0.08034650  0.22394690  1.0
  O  O34  1  0.08034650  -0.08034650  0.77605310  1.0
