# generated using pymatgen
data_YbNb5Ag2O15
_symmetry_space_group_name_H-M   'P 1'
_cell_length_a   12.63733394
_cell_length_b   12.63733394
_cell_length_c   3.90126435
_cell_angle_alpha   90.00000000
_cell_angle_beta   90.00000000
_cell_angle_gamma   90.00000000
_symmetry_Int_Tables_number   1
_chemical_formula_structural   YbNb5Ag2O15
_chemical_formula_sum   'Yb2 Nb10 Ag4 O30'
_cell_volume   623.04053622
_cell_formula_units_Z   2
loop_
 _symmetry_equiv_pos_site_id
 _symmetry_equiv_pos_as_xyz
  1  'x, y, z'
loop_
 _atom_site_type_symbol
 _atom_site_label
 _atom_site_symmetry_multiplicity
 _atom_site_fract_x
 _atom_site_fract_y
 _atom_site_fract_z
 _atom_site_occupancy
  Yb  Yb0  1  0.50000000  0.50000000  0.50000000  1.0
  Yb  Yb1  1  0.00000000  0.00000000  0.50000000  1.0
  Nb  Nb2  1  0.42358610  0.71177070  0.00000000  1.0
  Nb  Nb3  1  0.92358610  0.78822930  -0.00000000  1.0
  Nb  Nb4  1  0.28822930  0.42358610  0.00000000  1.0
  Nb  Nb5  1  0.78822930  0.07641390  -0.00000000  1.0
  Nb  Nb6  1  0.57641390  0.28822930  0.00000000  1.0
  Nb  Nb7  1  0.07641390  0.21177070  -0.00000000  1.0
  Nb  Nb8  1  0.71177070  0.57641390  0.00000000  1.0
  Nb  Nb9  1  0.21177070  0.92358610  0.00000000  1.0
  Nb  Nb10  1  0.50000000  0.00000000  0.00000000  1.0
  Nb  Nb11  1  0.00000000  0.50000000  0.00000000  1.0
  Ag  Ag12  1  0.31519425  0.18480575  0.50000000  1.0
  Ag  Ag13  1  0.81519425  0.31519425  0.50000000  1.0
  Ag  Ag14  1  0.68480575  0.81519425  0.50000000  1.0
  Ag  Ag15  1  0.18480575  0.68480575  0.50000000  1.0
  O  O16  1  0.41601084  0.68719202  0.50000000  1.0
  O  O17  1  0.91601084  0.81280798  0.50000000  1.0
  O  O18  1  0.31280798  0.41601084  0.50000000  1.0
  O  O19  1  0.81280798  0.08398916  0.50000000  1.0
  O  O20  1  0.58398916  0.31280798  0.50000000  1.0
  O  O21  1  0.08398916  0.18719202  0.50000000  1.0
  O  O22  1  0.68719202  0.58398916  0.50000000  1.0
  O  O23  1  0.18719202  0.91601084  0.50000000  1.0
  O  O24  1  0.49903915  0.84152390  0.00000000  1.0
  O  O25  1  -0.00096085  0.65847610  -0.00000000  1.0
  O  O26  1  0.15847610  0.49903915  -0.00000000  1.0
  O  O27  1  0.65847610  0.00096085  0.00000000  1.0
  O  O28  1  0.50096085  0.15847610  0.00000000  1.0
  O  O29  1  0.00096085  0.34152390  -0.00000000  1.0
  O  O30  1  0.84152390  0.50096085  -0.00000000  1.0
  O  O31  1  0.34152390  -0.00096085  0.00000000  1.0
  O  O32  1  0.36818622  0.55546882  -0.00000000  1.0
  O  O33  1  0.86818622  0.94453118  -0.00000000  1.0
  O  O34  1  0.44453118  0.36818622  0.00000000  1.0
  O  O35  1  0.94453118  0.13181378  0.00000000  1.0
  O  O36  1  0.63181378  0.44453118  -0.00000000  1.0
  O  O37  1  0.13181378  0.05546882  -0.00000000  1.0
  O  O38  1  0.55546882  0.63181378  0.00000000  1.0
  O  O39  1  0.05546882  0.86818622  -0.00000000  1.0
  O  O40  1  0.77573046  0.72426954  0.00000000  1.0
  O  O41  1  0.27573046  0.77573046  0.00000000  1.0
  O  O42  1  0.22426954  0.27573046  -0.00000000  1.0
  O  O43  1  0.72426954  0.22426954  -0.00000000  1.0
  O  O44  1  0.50000000  0.00000000  0.50000000  1.0
  O  O45  1  0.00000000  0.50000000  0.50000000  1.0
