# generated using pymatgen
data_SrNi9P5
_symmetry_space_group_name_H-M   'P 1'
_cell_length_a   6.51394853
_cell_length_b   6.51394853
_cell_length_c   10.83338991
_cell_angle_alpha   90.00000000
_cell_angle_beta   90.00000000
_cell_angle_gamma   120.00000000
_symmetry_Int_Tables_number   1
_chemical_formula_structural   SrNi9P5
_chemical_formula_sum   'Sr2 Ni18 P10'
_cell_volume   398.09218391
_cell_formula_units_Z   2
loop_
 _symmetry_equiv_pos_site_id
 _symmetry_equiv_pos_as_xyz
  1  'x, y, z'
loop_
 _atom_site_type_symbol
 _atom_site_label
 _atom_site_symmetry_multiplicity
 _atom_site_fract_x
 _atom_site_fract_y
 _atom_site_fract_z
 _atom_site_occupancy
  Sr  Sr0  1  -0.00000000  -0.00000000  0.50000000  1.0
  Sr  Sr1  1  0.00000000  0.00000000  0.00000000  1.0
  Ni  Ni2  1  0.53565588  0.46434412  0.39271961  1.0
  Ni  Ni3  1  0.53565588  0.46434412  0.10728039  1.0
  Ni  Ni4  1  0.53565588  0.07131175  0.39271961  1.0
  Ni  Ni5  1  0.53565588  0.07131175  0.10728039  1.0
  Ni  Ni6  1  0.46434412  0.53565588  0.89271961  1.0
  Ni  Ni7  1  0.46434412  0.53565588  0.60728039  1.0
  Ni  Ni8  1  0.46434412  0.92868825  0.89271961  1.0
  Ni  Ni9  1  0.46434412  0.92868825  0.60728039  1.0
  Ni  Ni10  1  0.92868825  0.46434412  0.39271961  1.0
  Ni  Ni11  1  0.92868825  0.46434412  0.10728039  1.0
  Ni  Ni12  1  0.07131175  0.53565588  0.89271961  1.0
  Ni  Ni13  1  0.07131175  0.53565588  0.60728039  1.0
  Ni  Ni14  1  0.20264894  0.79735106  0.25000000  1.0
  Ni  Ni15  1  0.20264894  0.40529788  0.25000000  1.0
  Ni  Ni16  1  0.79735106  0.20264894  0.75000000  1.0
  Ni  Ni17  1  0.79735106  0.59470212  0.75000000  1.0
  Ni  Ni18  1  0.59470212  0.79735106  0.25000000  1.0
  Ni  Ni19  1  0.40529788  0.20264894  0.75000000  1.0
  P  P20  1  0.82562927  0.17437073  0.25000000  1.0
  P  P21  1  0.82562927  0.65125854  0.25000000  1.0
  P  P22  1  0.17437073  0.82562927  0.75000000  1.0
  P  P23  1  0.17437073  0.34874146  0.75000000  1.0
  P  P24  1  0.34874146  0.17437073  0.25000000  1.0
  P  P25  1  0.65125854  0.82562927  0.75000000  1.0
  P  P26  1  0.33333333  0.66666667  0.43862595  1.0
  P  P27  1  0.33333333  0.66666667  0.06137405  1.0
  P  P28  1  0.66666667  0.33333333  0.93862595  1.0
  P  P29  1  0.66666667  0.33333333  0.56137405  1.0
