# generated using pymatgen
data_La2ZrCuO6
_symmetry_space_group_name_H-M   'P 1'
_cell_length_a   7.88361740
_cell_length_b   7.88714544
_cell_length_c   8.73754266
_cell_angle_alpha   90.00000000
_cell_angle_beta   92.36433763
_cell_angle_gamma   90.00000000
_symmetry_Int_Tables_number   1
_chemical_formula_structural   La2ZrCuO6
_chemical_formula_sum   'La8 Zr4 Cu4 O24'
_cell_volume   542.83123093
_cell_formula_units_Z   4
loop_
 _symmetry_equiv_pos_site_id
 _symmetry_equiv_pos_as_xyz
  1  'x, y, z'
loop_
 _atom_site_type_symbol
 _atom_site_label
 _atom_site_symmetry_multiplicity
 _atom_site_fract_x
 _atom_site_fract_y
 _atom_site_fract_z
 _atom_site_occupancy
  La  La0  1  0.79892387  0.75000000  0.25756382  1.0
  La  La1  1  0.20107613  0.25000000  0.74243618  1.0
  La  La2  1  0.77089504  0.75000000  0.69356532  1.0
  La  La3  1  0.22910496  0.25000000  0.30643468  1.0
  La  La4  1  0.28737295  0.75000000  0.70891829  1.0
  La  La5  1  0.71262705  0.25000000  0.29108171  1.0
  La  La6  1  0.28750978  0.75000000  0.26999230  1.0
  La  La7  1  0.71249022  0.25000000  0.73000770  1.0
  Zr  Zr8  1  0.50000000  0.00000000  0.00000000  1.0
  Zr  Zr9  1  0.50000000  0.50000000  0.00000000  1.0
  Zr  Zr10  1  0.00000000  0.00000000  0.00000000  1.0
  Zr  Zr11  1  0.00000000  0.50000000  0.00000000  1.0
  Cu  Cu12  1  0.50000000  0.00000000  0.50000000  1.0
  Cu  Cu13  1  0.50000000  0.50000000  0.50000000  1.0
  Cu  Cu14  1  0.00000000  0.00000000  0.50000000  1.0
  Cu  Cu15  1  0.00000000  0.50000000  0.50000000  1.0
  O  O16  1  0.94268508  0.43973032  0.77180284  1.0
  O  O17  1  0.94268508  0.06026968  0.77180284  1.0
  O  O18  1  0.05731492  0.93973032  0.22819716  1.0
  O  O19  1  0.05731492  0.56026968  0.22819716  1.0
  O  O20  1  0.75141002  0.96565966  0.45578139  1.0
  O  O21  1  0.75141002  0.53434034  0.45578139  1.0
  O  O22  1  0.24858998  0.46565966  0.54421861  1.0
  O  O23  1  0.24858998  0.03434034  0.54421861  1.0
  O  O24  1  0.56351201  0.94419645  0.77610765  1.0
  O  O25  1  0.56351201  0.55580355  0.77610765  1.0
  O  O26  1  0.43648799  0.44419645  0.22389235  1.0
  O  O27  1  0.43648799  0.05580355  0.22389235  1.0
  O  O28  1  0.24783316  0.95002225  0.92459251  1.0
  O  O29  1  0.24783316  0.54997775  0.92459251  1.0
  O  O30  1  0.75216684  0.45002225  0.07540749  1.0
  O  O31  1  0.75216684  0.04997775  0.07540749  1.0
  O  O32  1  0.91842864  0.75000000  0.95816496  1.0
  O  O33  1  0.08157136  0.25000000  0.04183504  1.0
  O  O34  1  0.52772823  0.75000000  0.08773687  1.0
  O  O35  1  0.47227177  0.25000000  0.91226313  1.0
  O  O36  1  0.47110142  0.75000000  0.49055295  1.0
  O  O37  1  0.52889858  0.25000000  0.50944705  1.0
  O  O38  1  0.03145102  0.75000000  0.53555731  1.0
  O  O39  1  0.96854898  0.25000000  0.46444269  1.0
