# generated using pymatgen
data_AgN3
_symmetry_space_group_name_H-M   'P 1'
_cell_length_a   5.99742359
_cell_length_b   6.05616787
_cell_length_c   6.99149679
_cell_angle_alpha   90.00000000
_cell_angle_beta   110.00600435
_cell_angle_gamma   90.00000000
_symmetry_Int_Tables_number   1
_chemical_formula_structural   AgN3
_chemical_formula_sum   'Ag4 N12'
_cell_volume   238.61736158
_cell_formula_units_Z   4
loop_
 _symmetry_equiv_pos_site_id
 _symmetry_equiv_pos_as_xyz
  1  'x, y, z'
loop_
 _atom_site_type_symbol
 _atom_site_label
 _atom_site_symmetry_multiplicity
 _atom_site_fract_x
 _atom_site_fract_y
 _atom_site_fract_z
 _atom_site_occupancy
  Ag  Ag0  1  0.75197892  0.33846631  0.75414008  1.0
  Ag  Ag1  1  0.75197892  0.16153369  0.25414008  1.0
  Ag  Ag2  1  0.24802108  0.83846631  0.74585992  1.0
  Ag  Ag3  1  0.24802108  0.66153369  0.24585992  1.0
  N  N4  1  0.91061971  0.70115037  0.79982959  1.0
  N  N5  1  0.91061971  0.79884963  0.29982959  1.0
  N  N6  1  0.08938029  0.20115037  0.70017041  1.0
  N  N7  1  0.08938029  0.29884963  0.20017041  1.0
  N  N8  1  0.76656926  0.83799843  0.79288984  1.0
  N  N9  1  0.76656926  0.66200157  0.29288984  1.0
  N  N10  1  0.23343074  0.33799843  0.70711016  1.0
  N  N11  1  0.23343074  0.16200157  0.20711016  1.0
  N  N12  1  0.62256234  0.97471609  0.78576840  1.0
  N  N13  1  0.62256234  0.52528391  0.28576840  1.0
  N  N14  1  0.37743766  0.47471609  0.71423160  1.0
  N  N15  1  0.37743766  0.02528391  0.21423160  1.0
