# generated using pymatgen
data_SiCl2
_symmetry_space_group_name_H-M   'P 1'
_cell_length_a   10.80273037
_cell_length_b   10.80273037
_cell_length_c   14.70435469
_cell_angle_alpha   73.05102255
_cell_angle_beta   106.94897745
_cell_angle_gamma   122.15499955
_symmetry_Int_Tables_number   1
_chemical_formula_structural   SiCl2
_chemical_formula_sum   'Si12 Cl24'
_cell_volume   1369.82539750
_cell_formula_units_Z   12
loop_
 _symmetry_equiv_pos_site_id
 _symmetry_equiv_pos_as_xyz
  1  'x, y, z'
loop_
 _atom_site_type_symbol
 _atom_site_label
 _atom_site_symmetry_multiplicity
 _atom_site_fract_x
 _atom_site_fract_y
 _atom_site_fract_z
 _atom_site_occupancy
  Si  Si0  1  0.74590610  0.17751540  0.99759502  1.0
  Si  Si1  1  0.82248460  0.25409390  0.49759502  1.0
  Si  Si2  1  1.17751540  0.74590610  0.50240498  1.0
  Si  Si3  1  0.25409390  -0.17751540  0.00240498  1.0
  Si  Si4  1  0.55440842  0.23942007  0.92289885  1.0
  Si  Si5  1  0.76057993  0.44559158  0.42289885  1.0
  Si  Si6  1  1.23942007  0.55440842  0.57710115  1.0
  Si  Si7  1  0.44559158  -0.23942007  0.07710115  1.0
  Si  Si8  1  0.33298382  0.07778056  0.98964733  1.0
  Si  Si9  1  0.92221944  0.66701618  0.48964733  1.0
  Si  Si10  1  1.07778056  0.33298382  0.51035267  1.0
  Si  Si11  1  0.66701618  -0.07778056  0.01035267  1.0
  Cl  Cl12  1  0.16595137  0.11997249  0.90514807  1.0
  Cl  Cl13  1  0.88002751  0.83404863  0.40514807  1.0
  Cl  Cl14  1  1.11997249  0.16595137  0.59485193  1.0
  Cl  Cl15  1  0.83404863  -0.11997249  0.09485193  1.0
  Cl  Cl16  1  0.45391014  -0.37129829  0.56367283  1.0
  Cl  Cl17  1  1.37129829  0.54608986  0.06367283  1.0
  Cl  Cl18  1  0.62870171  0.45391014  0.93632717  1.0
  Cl  Cl19  1  0.54608986  0.37129829  0.43632717  1.0
  Cl  Cl20  1  0.62421591  -0.12022817  0.87309803  1.0
  Cl  Cl21  1  1.12022817  0.37578409  0.37309803  1.0
  Cl  Cl22  1  0.87977183  0.62421591  0.62690197  1.0
  Cl  Cl23  1  0.37578409  0.12022817  0.12690197  1.0
  Cl  Cl24  1  0.69598270  0.08201164  0.41994440  1.0
  Cl  Cl25  1  0.91798836  0.30401730  0.91994440  1.0
  Cl  Cl26  1  1.08201164  0.69598270  0.08005560  1.0
  Cl  Cl27  1  0.30401730  -0.08201164  0.58005560  1.0
  Cl  Cl28  1  0.77616207  0.18364884  0.63611834  1.0
  Cl  Cl29  1  0.81635116  0.22383793  0.13611834  1.0
  Cl  Cl30  1  1.18364884  0.77616207  0.86388166  1.0
  Cl  Cl31  1  0.22383793  -0.18364884  0.36388166  1.0
  Cl  Cl32  1  0.50555919  0.22175152  0.77907548  1.0
  Cl  Cl33  1  0.77824848  0.49444081  0.27907548  1.0
  Cl  Cl34  1  1.22175152  0.50555919  0.72092452  1.0
  Cl  Cl35  1  0.49444081  -0.22175152  0.22092452  1.0
