# generated using pymatgen
data_TlO
_symmetry_space_group_name_H-M   'P 1'
_cell_length_a   3.52968198
_cell_length_b   3.52968198
_cell_length_c   22.46923652
_cell_angle_alpha   80.97255045
_cell_angle_beta   99.02744955
_cell_angle_gamma   90.00532715
_symmetry_Int_Tables_number   1
_chemical_formula_structural   TlO
_chemical_formula_sum   'Tl8 O8'
_cell_volume   272.95808489
_cell_formula_units_Z   8
loop_
 _symmetry_equiv_pos_site_id
 _symmetry_equiv_pos_as_xyz
  1  'x, y, z'
loop_
 _atom_site_type_symbol
 _atom_site_label
 _atom_site_symmetry_multiplicity
 _atom_site_fract_x
 _atom_site_fract_y
 _atom_site_fract_z
 _atom_site_occupancy
  Tl  Tl0  1  1.38193658  0.50231096  0.68959020  1.0
  Tl  Tl1  1  1.50231096  0.38193658  0.31040980  1.0
  Tl  Tl2  1  1.24790813  -0.37252278  0.56038794  1.0
  Tl  Tl3  1  0.62747722  0.24790813  0.43961206  1.0
  Tl  Tl4  1  0.12718968  -0.25228950  0.93960133  1.0
  Tl  Tl5  1  0.74771050  -0.87281032  0.06039867  1.0
  Tl  Tl6  1  1.00300858  -0.11872567  0.81037420  1.0
  Tl  Tl7  1  0.88127433  0.00300858  0.18962580  1.0
  O  O8  1  0.89898689  -1.02041539  0.70943583  1.0
  O  O9  1  -0.02041539  -0.10101311  0.29056417  1.0
  O  O10  1  0.64999625  0.23086783  0.95946026  1.0
  O  O11  1  1.23086783  -0.35000375  0.04053974  1.0
  O  O12  1  1.14941138  0.73043760  0.45946245  1.0
  O  O13  1  1.73043760  0.14941138  0.54053755  1.0
  O  O14  1  0.47992896  -0.60142949  0.79052000  1.0
  O  O15  1  0.39857051  -0.52007104  0.20948000  1.0
