# generated using pymatgen
data_Zr2Zn25Ni
_symmetry_space_group_name_H-M   'P 1'
_cell_length_a   11.78170555
_cell_length_b   11.78170555
_cell_length_c   11.78170555
_cell_angle_alpha   60.00000000
_cell_angle_beta   60.00000000
_cell_angle_gamma   60.00000000
_symmetry_Int_Tables_number   1
_chemical_formula_structural   Zr2Zn25Ni
_chemical_formula_sum   'Zr4 Zn50 Ni2'
_cell_volume   1156.40376364
_cell_formula_units_Z   2
loop_
 _symmetry_equiv_pos_site_id
 _symmetry_equiv_pos_as_xyz
  1  'x, y, z'
loop_
 _atom_site_type_symbol
 _atom_site_label
 _atom_site_symmetry_multiplicity
 _atom_site_fract_x
 _atom_site_fract_y
 _atom_site_fract_z
 _atom_site_occupancy
  Zr  Zr0  1  0.62500000  -0.37500000  1.12500000  1.0
  Zr  Zr1  1  0.62500000  0.12500000  0.62500000  1.0
  Zr  Zr2  1  0.62500000  -0.37500000  0.62500000  1.0
  Zr  Zr3  1  1.12500000  -0.37500000  0.62500000  1.0
  Zn  Zn4  1  0.50000000  0.50000000  -0.50000000  1.0
  Zn  Zn5  1  0.75000000  -0.25000000  0.75000000  1.0
  Zn  Zn6  1  0.78107898  -0.21892102  1.01363352  1.0
  Zn  Zn7  1  -0.57579147  0.78107898  1.01363352  1.0
  Zn  Zn8  1  -0.57579147  1.01363352  0.78107898  1.0
  Zn  Zn9  1  0.78107898  0.01363352  0.78107898  1.0
  Zn  Zn10  1  0.46892102  0.46892102  -0.17420853  1.0
  Zn  Zn11  1  0.46892102  -0.17420853  0.46892102  1.0
  Zn  Zn12  1  0.23636648  -0.17420853  0.46892102  1.0
  Zn  Zn13  1  0.23636648  0.46892102  -0.17420853  1.0
  Zn  Zn14  1  0.78107898  -0.57579147  1.01363352  1.0
  Zn  Zn15  1  -0.21892102  1.01363352  0.42420853  1.0
  Zn  Zn16  1  -0.17420853  0.46892102  0.46892102  1.0
  Zn  Zn17  1  0.23636648  0.46892102  0.46892102  1.0
  Zn  Zn18  1  1.01363352  -0.57579147  0.78107898  1.0
  Zn  Zn19  1  0.01363352  0.78107898  0.42420853  1.0
  Zn  Zn20  1  -0.21892102  0.78107898  0.42420853  1.0
  Zn  Zn21  1  0.78107898  -0.57579147  0.78107898  1.0
  Zn  Zn22  1  -0.17420853  0.23636648  0.46892102  1.0
  Zn  Zn23  1  0.46892102  0.23636648  0.46892102  1.0
  Zn  Zn24  1  0.46892102  0.46892102  0.23636648  1.0
  Zn  Zn25  1  -0.17420853  0.46892102  0.23636648  1.0
  Zn  Zn26  1  1.01363352  -0.21892102  0.78107898  1.0
  Zn  Zn27  1  -0.57579147  0.78107898  0.78107898  1.0
  Zn  Zn28  1  0.46892102  0.23636648  -0.17420853  1.0
  Zn  Zn29  1  0.46892102  -0.17420853  0.23636648  1.0
  Zn  Zn30  1  1.00886836  -0.77764355  0.75990683  1.0
  Zn  Zn31  1  0.00886836  0.75990683  0.22235645  1.0
  Zn  Zn32  1  0.02764355  0.24113164  0.24113164  1.0
  Zn  Zn33  1  0.49009317  0.24113164  0.24113164  1.0
  Zn  Zn34  1  -0.77764355  1.00886836  0.75990683  1.0
  Zn  Zn35  1  1.00886836  0.00886836  0.75990683  1.0
  Zn  Zn36  1  1.00886836  -0.24009317  1.00886836  1.0
  Zn  Zn37  1  -0.77764355  0.75990683  1.00886836  1.0
  Zn  Zn38  1  0.24113164  0.02764355  0.24113164  1.0
  Zn  Zn39  1  0.24113164  0.24113164  0.02764355  1.0
  Zn  Zn40  1  0.49009317  0.24113164  0.02764355  1.0
  Zn  Zn41  1  0.49009317  0.02764355  0.24113164  1.0
  Zn  Zn42  1  0.75990683  0.00886836  1.00886836  1.0
  Zn  Zn43  1  -0.77764355  1.00886836  1.00886836  1.0
  Zn  Zn44  1  0.24113164  0.49009317  0.02764355  1.0
  Zn  Zn45  1  0.24113164  0.02764355  0.49009317  1.0
  Zn  Zn46  1  -0.24009317  1.00886836  0.22235645  1.0
  Zn  Zn47  1  0.75990683  -0.77764355  1.00886836  1.0
  Zn  Zn48  1  1.00886836  -0.77764355  1.00886836  1.0
  Zn  Zn49  1  0.00886836  1.00886836  0.22235645  1.0
  Zn  Zn50  1  0.24113164  0.49009317  0.24113164  1.0
  Zn  Zn51  1  0.02764355  0.49009317  0.24113164  1.0
  Zn  Zn52  1  0.02764355  0.24113164  0.49009317  1.0
  Zn  Zn53  1  0.24113164  0.24113164  0.49009317  1.0
  Ni  Ni54  1  0.00000000  1.00000000  -0.00000000  1.0
  Ni  Ni55  1  0.25000000  0.25000000  0.25000000  1.0
