# generated using pymatgen
data_Lu(GeRh2)2
_symmetry_space_group_name_H-M   'P 1'
_cell_length_a   11.40543915
_cell_length_b   4.18414568
_cell_length_c   9.16154645
_cell_angle_alpha   90.00000000
_cell_angle_beta   90.00000000
_cell_angle_gamma   90.00000000
_symmetry_Int_Tables_number   1
_chemical_formula_structural   Lu(GeRh2)2
_chemical_formula_sum   'Lu4 Ge8 Rh16'
_cell_volume   437.20749350
_cell_formula_units_Z   4
loop_
 _symmetry_equiv_pos_site_id
 _symmetry_equiv_pos_as_xyz
  1  'x, y, z'
loop_
 _atom_site_type_symbol
 _atom_site_label
 _atom_site_symmetry_multiplicity
 _atom_site_fract_x
 _atom_site_fract_y
 _atom_site_fract_z
 _atom_site_occupancy
  Lu  Lu0  1  0.17474292  0.75000000  0.85405896  1.0
  Lu  Lu1  1  0.67474292  0.75000000  0.64594104  1.0
  Lu  Lu2  1  0.82525708  0.25000000  0.14594104  1.0
  Lu  Lu3  1  0.32525708  0.25000000  0.35405896  1.0
  Ge  Ge4  1  0.44065654  0.75000000  0.11861891  1.0
  Ge  Ge5  1  0.94065654  0.75000000  0.38138109  1.0
  Ge  Ge6  1  0.55934346  0.25000000  0.88138109  1.0
  Ge  Ge7  1  0.05934346  0.25000000  0.61861891  1.0
  Ge  Ge8  1  0.36142337  0.75000000  0.58587196  1.0
  Ge  Ge9  1  0.86142337  0.75000000  0.91412804  1.0
  Ge  Ge10  1  0.63857663  0.25000000  0.41412804  1.0
  Ge  Ge11  1  0.13857663  0.25000000  0.08587196  1.0
  Rh  Rh12  1  0.43839251  0.75000000  0.82890777  1.0
  Rh  Rh13  1  0.93839251  0.75000000  0.67109223  1.0
  Rh  Rh14  1  0.56160749  0.25000000  0.17109223  1.0
  Rh  Rh15  1  0.06160749  0.25000000  0.32890777  1.0
  Rh  Rh16  1  0.23143814  0.75000000  0.19339053  1.0
  Rh  Rh17  1  0.73143814  0.75000000  0.30660947  1.0
  Rh  Rh18  1  0.76856186  0.25000000  0.80660947  1.0
  Rh  Rh19  1  0.26856186  0.25000000  0.69339053  1.0
  Rh  Rh20  1  0.15578472  0.75000000  0.50457645  1.0
  Rh  Rh21  1  0.65578472  0.75000000  0.99542355  1.0
  Rh  Rh22  1  0.84421528  0.25000000  0.49542355  1.0
  Rh  Rh23  1  0.34421528  0.25000000  0.00457645  1.0
  Rh  Rh24  1  0.00047758  0.75000000  0.11601689  1.0
  Rh  Rh25  1  0.50047758  0.75000000  0.38398311  1.0
  Rh  Rh26  1  0.99952242  0.25000000  0.88398311  1.0
  Rh  Rh27  1  0.49952242  0.25000000  0.61601689  1.0
