# generated using pymatgen
data_Y(FeB)2
_symmetry_space_group_name_H-M   'P 1'
_cell_length_a   5.36610116
_cell_length_b   5.36610116
_cell_length_c   5.36610116
_cell_angle_alpha   140.72215456
_cell_angle_beta   140.72215456
_cell_angle_gamma   56.75843392
_symmetry_Int_Tables_number   1
_chemical_formula_structural   Y(FeB)2
_chemical_formula_sum   'Y1 Fe2 B2'
_cell_volume   61.42509761
_cell_formula_units_Z   1
loop_
 _symmetry_equiv_pos_site_id
 _symmetry_equiv_pos_as_xyz
  1  'x, y, z'
loop_
 _atom_site_type_symbol
 _atom_site_label
 _atom_site_symmetry_multiplicity
 _atom_site_fract_x
 _atom_site_fract_y
 _atom_site_fract_z
 _atom_site_occupancy
  Y  Y0  1  0.00000000  0.00000000  0.00000000  1.0
  Fe  Fe1  1  0.25000000  0.75000000  0.50000000  1.0
  Fe  Fe2  1  0.75000000  0.25000000  0.50000000  1.0
  B  B3  1  0.65896003  0.65896003  1.00000000  1.0
  B  B4  1  0.34103997  0.34103997  -0.00000000  1.0
