# generated using pymatgen
data_HfCuSi
_symmetry_space_group_name_H-M   'P 1'
_cell_length_a   6.45378949
_cell_length_b   3.90161259
_cell_length_c   7.28584737
_cell_angle_alpha   90.00000000
_cell_angle_beta   90.00000000
_cell_angle_gamma   90.00000000
_symmetry_Int_Tables_number   1
_chemical_formula_structural   HfCuSi
_chemical_formula_sum   'Hf4 Cu4 Si4'
_cell_volume   183.45899464
_cell_formula_units_Z   4
loop_
 _symmetry_equiv_pos_site_id
 _symmetry_equiv_pos_as_xyz
  1  'x, y, z'
loop_
 _atom_site_type_symbol
 _atom_site_label
 _atom_site_symmetry_multiplicity
 _atom_site_fract_x
 _atom_site_fract_y
 _atom_site_fract_z
 _atom_site_occupancy
  Hf  Hf0  1  0.98891231  0.75000000  0.69128210  1.0
  Hf  Hf1  1  0.48891231  0.75000000  0.80871790  1.0
  Hf  Hf2  1  0.01108769  0.25000000  0.30871790  1.0
  Hf  Hf3  1  0.51108769  0.25000000  0.19128210  1.0
  Cu  Cu4  1  0.83186788  0.75000000  0.07609849  1.0
  Cu  Cu5  1  0.33186788  0.75000000  0.42390151  1.0
  Cu  Cu6  1  0.16813212  0.25000000  0.92390151  1.0
  Cu  Cu7  1  0.66813212  0.25000000  0.57609849  1.0
  Si  Si8  1  0.72152211  0.75000000  0.39704306  1.0
  Si  Si9  1  0.22152211  0.75000000  0.10295694  1.0
  Si  Si10  1  0.27847789  0.25000000  0.60295694  1.0
  Si  Si11  1  0.77847789  0.25000000  0.89704306  1.0
