# generated using pymatgen
data_Ca(BO2)2
_symmetry_space_group_name_H-M   'P 1'
_cell_length_a   11.63451239
_cell_length_b   4.32590917
_cell_length_c   6.34927973
_cell_angle_alpha   90.00000000
_cell_angle_beta   90.00000000
_cell_angle_gamma   90.00000000
_symmetry_Int_Tables_number   1
_chemical_formula_structural   Ca(BO2)2
_chemical_formula_sum   'Ca4 B8 O16'
_cell_volume   319.55825746
_cell_formula_units_Z   4
loop_
 _symmetry_equiv_pos_site_id
 _symmetry_equiv_pos_as_xyz
  1  'x, y, z'
loop_
 _atom_site_type_symbol
 _atom_site_label
 _atom_site_symmetry_multiplicity
 _atom_site_fract_x
 _atom_site_fract_y
 _atom_site_fract_z
 _atom_site_occupancy
  Ca  Ca0  1  0.50000000  0.21875384  0.75000000  1.0
  Ca  Ca1  1  0.50000000  0.78124616  0.25000000  1.0
  Ca  Ca2  1  0.00000000  0.71875384  0.75000000  1.0
  Ca  Ca3  1  0.00000000  0.28124616  0.25000000  1.0
  B  B4  1  0.19238576  0.17414898  0.62399537  1.0
  B  B5  1  0.19238576  0.82585102  0.12399537  1.0
  B  B6  1  0.69238576  0.67414898  0.87600463  1.0
  B  B7  1  0.69238576  0.32585102  0.37600463  1.0
  B  B8  1  0.80761424  0.17414898  0.87600463  1.0
  B  B9  1  0.80761424  0.82585102  0.37600463  1.0
  B  B10  1  0.30761424  0.67414898  0.62399537  1.0
  B  B11  1  0.30761424  0.32585102  0.12399537  1.0
  O  O12  1  0.29187757  0.35224324  0.64821790  1.0
  O  O13  1  0.29187757  0.64775676  0.14821790  1.0
  O  O14  1  0.79187757  0.85224324  0.85178210  1.0
  O  O15  1  0.79187757  0.14775676  0.35178210  1.0
  O  O16  1  0.70812243  0.35224324  0.85178210  1.0
  O  O17  1  0.70812243  0.64775676  0.35178210  1.0
  O  O18  1  0.20812243  0.85224324  0.64821790  1.0
  O  O19  1  0.20812243  0.14775676  0.14821790  1.0
  O  O20  1  0.08610182  0.27383657  0.58665955  1.0
  O  O21  1  0.08610182  0.72616343  0.08665955  1.0
  O  O22  1  0.58610182  0.77383657  0.91334045  1.0
  O  O23  1  0.58610182  0.22616343  0.41334045  1.0
  O  O24  1  0.91389818  0.27383657  0.91334045  1.0
  O  O25  1  0.91389818  0.72616343  0.41334045  1.0
  O  O26  1  0.41389818  0.77383657  0.58665955  1.0
  O  O27  1  0.41389818  0.22616343  0.08665955  1.0
