# generated using pymatgen
data_LiNiAsO4
_symmetry_space_group_name_H-M   'P 1'
_cell_length_a   10.45801311
_cell_length_b   5.95371659
_cell_length_c   4.92891545
_cell_angle_alpha   90.00000000
_cell_angle_beta   90.00000000
_cell_angle_gamma   90.00000000
_symmetry_Int_Tables_number   1
_chemical_formula_structural   LiNiAsO4
_chemical_formula_sum   'Li4 Ni4 As4 O16'
_cell_volume   306.89421911
_cell_formula_units_Z   4
loop_
 _symmetry_equiv_pos_site_id
 _symmetry_equiv_pos_as_xyz
  1  'x, y, z'
loop_
 _atom_site_type_symbol
 _atom_site_label
 _atom_site_symmetry_multiplicity
 _atom_site_fract_x
 _atom_site_fract_y
 _atom_site_fract_z
 _atom_site_occupancy
  Ni  Ni0  1  0.77071234  0.25000000  0.50157605  1.0
  Ni  Ni1  1  0.27071234  0.25000000  0.99842395  1.0
  Ni  Ni2  1  0.22928766  0.75000000  0.49842395  1.0
  Ni  Ni3  1  0.72928766  0.75000000  0.00157605  1.0
  Li  Li4  1  0.00000000  0.50000000  0.00000000  1.0
  Li  Li5  1  0.00000000  0.00000000  0.00000000  1.0
  Li  Li6  1  0.50000000  0.50000000  0.50000000  1.0
  Li  Li7  1  0.50000000  0.00000000  0.50000000  1.0
  O  O8  1  0.94214917  0.25000000  0.29437881  1.0
  O  O9  1  0.44214917  0.25000000  0.20562119  1.0
  O  O10  1  0.05785083  0.75000000  0.70562119  1.0
  O  O11  1  0.55785083  0.75000000  0.79437881  1.0
  O  O12  1  0.59539158  0.25000000  0.71025572  1.0
  O  O13  1  0.09539158  0.25000000  0.78974428  1.0
  O  O14  1  0.40460842  0.75000000  0.28974428  1.0
  O  O15  1  0.90460842  0.75000000  0.21025572  1.0
  O  O16  1  0.67167658  0.47575059  0.22607064  1.0
  O  O17  1  0.67167658  0.02424941  0.22607064  1.0
  O  O18  1  0.17167658  0.47575059  0.27392936  1.0
  O  O19  1  0.17167658  0.02424941  0.27392936  1.0
  O  O20  1  0.32832342  0.97575059  0.77392936  1.0
  O  O21  1  0.32832342  0.52424941  0.77392936  1.0
  O  O22  1  0.82832342  0.97575059  0.72607064  1.0
  O  O23  1  0.82832342  0.52424941  0.72607064  1.0
  As  As24  1  0.59438767  0.25000000  0.06037454  1.0
  As  As25  1  0.09438767  0.25000000  0.43962546  1.0
  As  As26  1  0.40561233  0.75000000  0.93962546  1.0
  As  As27  1  0.90561233  0.75000000  0.56037454  1.0
