# generated using pymatgen
data_Ba3SrSb2O9
_symmetry_space_group_name_H-M   'P 1'
_cell_length_a   15.36482362
_cell_length_b   6.18406666
_cell_length_c   6.15611382
_cell_angle_alpha   119.45571311
_cell_angle_beta   92.09821545
_cell_angle_gamma   90.84789057
_symmetry_Int_Tables_number   1
_chemical_formula_structural   Ba3SrSb2O9
_chemical_formula_sum   'Ba6 Sr2 Sb4 O18'
_cell_volume   508.62163817
_cell_formula_units_Z   2
loop_
 _symmetry_equiv_pos_site_id
 _symmetry_equiv_pos_as_xyz
  1  'x, y, z'
loop_
 _atom_site_type_symbol
 _atom_site_label
 _atom_site_symmetry_multiplicity
 _atom_site_fract_x
 _atom_site_fract_y
 _atom_site_fract_z
 _atom_site_occupancy
  Ba  Ba0  1  -0.09950556  -0.66754574  -0.84652011  1.0
  Ba  Ba1  1  -0.90049444  -0.33245426  -0.15347989  1.0
  Ba  Ba2  1  -0.40734468  -0.64188382  -0.81117429  1.0
  Ba  Ba3  1  -0.59265532  -0.35811618  -0.18882571  1.0
  Ba  Ba4  1  -0.74941734  -1.00255491  -0.52211363  1.0
  Ba  Ba5  1  -0.25058266  0.00255491  -0.47788637  1.0
  Sr  Sr6  1  -0.50000000  -0.00000000  -0.50000000  1.0
  Sr  Sr7  1  -0.00000000  0.00000000  -0.50000000  1.0
  Sb  Sb8  1  -0.65639954  -0.69295703  -0.86287760  1.0
  Sb  Sb9  1  -0.34360046  -0.30704297  -0.13712240  1.0
  Sb  Sb10  1  -0.84474294  -0.64044786  -0.79902452  1.0
  Sb  Sb11  1  -0.15525706  -0.35955214  -0.20097548  1.0
  O  O12  1  -0.76734417  -0.94602967  -0.99429593  1.0
  O  O13  1  -0.23265583  -0.05397033  -0.00570407  1.0
  O  O14  1  -0.75503240  -0.49610760  -0.95208572  1.0
  O  O15  1  -0.24496760  -0.50389240  -0.04791428  1.0
  O  O16  1  -0.59332891  -0.91562420  -0.77508435  1.0
  O  O17  1  -0.40667109  -0.08437580  -0.22491565  1.0
  O  O18  1  -0.56973919  -0.41441765  -0.70493548  1.0
  O  O19  1  -0.43026081  -0.58558235  -0.29506452  1.0
  O  O20  1  -0.89553970  -0.78733115  -0.61184585  1.0
  O  O21  1  -0.10446030  -0.21266885  -0.38815415  1.0
  O  O22  1  -0.88919023  -0.30795837  -0.58405103  1.0
  O  O23  1  -0.11080977  -0.69204163  -0.41594897  1.0
  O  O24  1  -0.72873583  -0.54600175  -0.54883121  1.0
  O  O25  1  -0.27126417  -0.45399825  -0.45116879  1.0
  O  O26  1  -0.61310215  -0.82602394  -0.19936191  1.0
  O  O27  1  -0.38689785  -0.17397606  -0.80063809  1.0
  O  O28  1  -0.93622387  -0.74820086  -0.06563668  1.0
  O  O29  1  -0.06377613  -0.25179914  -0.93436332  1.0
