# generated using pymatgen
data_Cr5InSe8
_symmetry_space_group_name_H-M   'P 1'
_cell_length_a   9.67943041
_cell_length_b   9.67943041
_cell_length_c   9.02791563
_cell_angle_alpha   74.92304567
_cell_angle_beta   105.07695433
_cell_angle_gamma   158.15270439
_symmetry_Int_Tables_number   1
_chemical_formula_structural   Cr5InSe8
_chemical_formula_sum   'Cr5 In1 Se8'
_cell_volume   303.51901490
_cell_formula_units_Z   1
loop_
 _symmetry_equiv_pos_site_id
 _symmetry_equiv_pos_as_xyz
  1  'x, y, z'
loop_
 _atom_site_type_symbol
 _atom_site_label
 _atom_site_symmetry_multiplicity
 _atom_site_fract_x
 _atom_site_fract_y
 _atom_site_fract_z
 _atom_site_occupancy
  Cr  Cr0  1  0.70415276  -0.70415276  0.83358298  1.0
  Cr  Cr1  1  1.29584724  -0.29584724  0.16641702  1.0
  Cr  Cr2  1  0.65720207  -0.65720207  0.47319891  1.0
  Cr  Cr3  1  1.34279793  -0.34279793  0.52680109  1.0
  Cr  Cr4  1  0.00000000  -0.00000000  0.50000000  1.0
  In  In5  1  0.50000000  0.50000000  0.00000000  1.0
  Se  Se6  1  0.91703316  -0.91703316  0.67951370  1.0
  Se  Se7  1  1.08296684  -0.08296684  0.32048630  1.0
  Se  Se8  1  0.82963845  -0.82963845  1.01026808  1.0
  Se  Se9  1  1.17036155  -0.17036155  -0.01026808  1.0
  Se  Se10  1  0.76210574  -0.76210574  0.34503340  1.0
  Se  Se11  1  1.23789426  -0.23789426  0.65496660  1.0
  Se  Se12  1  0.57577600  -0.57577600  0.65266593  1.0
  Se  Se13  1  1.42422400  -0.42422400  0.34733407  1.0
