# generated using pymatgen
data_CsLi2Br3
_symmetry_space_group_name_H-M   'P 1'
_cell_length_a   7.67440749
_cell_length_b   7.67440749
_cell_length_c   7.67440749
_cell_angle_alpha   144.40461602
_cell_angle_beta   136.37834124
_cell_angle_gamma   57.51635925
_symmetry_Int_Tables_number   1
_chemical_formula_structural   CsLi2Br3
_chemical_formula_sum   'Cs1 Li2 Br3'
_cell_volume   179.99835325
_cell_formula_units_Z   1
loop_
 _symmetry_equiv_pos_site_id
 _symmetry_equiv_pos_as_xyz
  1  'x, y, z'
loop_
 _atom_site_type_symbol
 _atom_site_label
 _atom_site_symmetry_multiplicity
 _atom_site_fract_x
 _atom_site_fract_y
 _atom_site_fract_z
 _atom_site_occupancy
  Cs  Cs0  1  0.00000000  0.50000000  0.50000000  1.0
  Li  Li1  1  0.69115956  0.19115956  0.50000000  1.0
  Li  Li2  1  0.30884044  0.80884044  0.50000000  1.0
  Br  Br3  1  0.77936726  0.77936726  1.00000000  1.0
  Br  Br4  1  0.22063274  0.22063274  -0.00000000  1.0
  Br  Br5  1  0.50000000  -0.00000000  0.50000000  1.0
