# generated using pymatgen
data_C4SBr4
_symmetry_space_group_name_H-M   'P 1'
_cell_length_a   13.80807977
_cell_length_b   4.66183951
_cell_length_c   17.01558083
_cell_angle_alpha   90.00000000
_cell_angle_beta   90.00000000
_cell_angle_gamma   90.00000000
_symmetry_Int_Tables_number   1
_chemical_formula_structural   C4SBr4
_chemical_formula_sum   'C16 S4 Br16'
_cell_volume   1095.31083534
_cell_formula_units_Z   4
loop_
 _symmetry_equiv_pos_site_id
 _symmetry_equiv_pos_as_xyz
  1  'x, y, z'
loop_
 _atom_site_type_symbol
 _atom_site_label
 _atom_site_symmetry_multiplicity
 _atom_site_fract_x
 _atom_site_fract_y
 _atom_site_fract_z
 _atom_site_occupancy
  C  C0  1  0.58392562  0.67936404  0.83634497  1.0
  C  C1  1  0.91607438  0.67936404  0.33634497  1.0
  C  C2  1  0.08392562  0.32063596  0.83634497  1.0
  C  C3  1  0.41607438  0.32063596  0.33634497  1.0
  C  C4  1  0.49693604  0.76921591  0.80569331  1.0
  C  C5  1  0.00306396  0.76921591  0.30569331  1.0
  C  C6  1  0.99693604  0.23078409  0.80569331  1.0
  C  C7  1  0.50306396  0.23078409  0.30569331  1.0
  C  C8  1  0.49650405  0.76497070  0.72142711  1.0
  C  C9  1  0.00349595  0.76497070  0.22142711  1.0
  C  C10  1  0.99650405  0.23502930  0.72142711  1.0
  C  C11  1  0.50349595  0.23502930  0.22142711  1.0
  C  C12  1  0.58316851  0.67198755  0.69087471  1.0
  C  C13  1  0.91683149  0.67198755  0.19087471  1.0
  C  C14  1  0.08316851  0.32801245  0.69087471  1.0
  C  C15  1  0.41683149  0.32801245  0.19087471  1.0
  S  S16  1  0.66583438  0.58857078  0.76365650  1.0
  S  S17  1  0.83416562  0.58857078  0.26365650  1.0
  S  S18  1  0.16583438  0.41142922  0.76365650  1.0
  S  S19  1  0.33416562  0.41142922  0.26365650  1.0
  Br  Br20  1  0.61901980  0.64718486  0.94239813  1.0
  Br  Br21  1  0.88098020  0.64718486  0.44239813  1.0
  Br  Br22  1  0.11901980  0.35281514  0.94239813  1.0
  Br  Br23  1  0.38098020  0.35281514  0.44239813  1.0
  Br  Br24  1  0.39048720  -0.11597192  0.86729551  1.0
  Br  Br25  1  0.10951280  -0.11597192  0.36729551  1.0
  Br  Br26  1  0.89048720  1.11597192  0.86729551  1.0
  Br  Br27  1  0.60951280  1.11597192  0.36729551  1.0
  Br  Br28  1  0.38940561  -0.12699415  0.65965246  1.0
  Br  Br29  1  0.11059439  -0.12699415  0.15965246  1.0
  Br  Br30  1  0.88940561  1.12699415  0.65965246  1.0
  Br  Br31  1  0.61059439  1.12699415  0.15965246  1.0
  Br  Br32  1  0.61698844  0.62789841  0.58485729  1.0
  Br  Br33  1  0.88301156  0.62789841  0.08485729  1.0
  Br  Br34  1  0.11698844  0.37210159  0.58485729  1.0
  Br  Br35  1  0.38301156  0.37210159  0.08485729  1.0
