# generated using pymatgen
data_HfSb2
_symmetry_space_group_name_H-M   'P 1'
_cell_length_a   4.14034116
_cell_length_b   4.14034116
_cell_length_c   8.56884618
_cell_angle_alpha   90.00000000
_cell_angle_beta   90.00000000
_cell_angle_gamma   90.00000000
_symmetry_Int_Tables_number   1
_chemical_formula_structural   HfSb2
_chemical_formula_sum   'Hf2 Sb4'
_cell_volume   146.89080213
_cell_formula_units_Z   2
loop_
 _symmetry_equiv_pos_site_id
 _symmetry_equiv_pos_as_xyz
  1  'x, y, z'
loop_
 _atom_site_type_symbol
 _atom_site_label
 _atom_site_symmetry_multiplicity
 _atom_site_fract_x
 _atom_site_fract_y
 _atom_site_fract_z
 _atom_site_occupancy
  Hf  Hf0  1  0.50000000  0.00000000  0.26540911  1.0
  Hf  Hf1  1  0.00000000  0.50000000  0.73459089  1.0
  Sb  Sb2  1  0.50000000  0.00000000  0.61782252  1.0
  Sb  Sb3  1  0.00000000  0.50000000  0.38217748  1.0
  Sb  Sb4  1  0.00000000  0.00000000  0.00000000  1.0
  Sb  Sb5  1  0.50000000  0.50000000  0.00000000  1.0
