# generated using pymatgen
data_PbSe
_symmetry_space_group_name_H-M   'P 1'
_cell_length_a   6.51754125
_cell_length_b   6.51754125
_cell_length_c   4.48921612
_cell_angle_alpha   90.00000000
_cell_angle_beta   90.00000000
_cell_angle_gamma   141.30661800
_symmetry_Int_Tables_number   1
_chemical_formula_structural   PbSe
_chemical_formula_sum   'Pb2 Se2'
_cell_volume   119.21312400
_cell_formula_units_Z   2
loop_
 _symmetry_equiv_pos_site_id
 _symmetry_equiv_pos_as_xyz
  1  'x, y, z'
loop_
 _atom_site_type_symbol
 _atom_site_label
 _atom_site_symmetry_multiplicity
 _atom_site_fract_x
 _atom_site_fract_y
 _atom_site_fract_z
 _atom_site_occupancy
  Pb  Pb0  1  -0.86696081  0.86696081  0.25000000  1.0
  Pb  Pb1  1  -0.13303919  1.13303919  0.75000000  1.0
  Se  Se2  1  -0.63539689  0.63539689  0.25000000  1.0
  Se  Se3  1  -0.36460311  1.36460311  0.75000000  1.0
