# generated using pymatgen
data_KNaSe
_symmetry_space_group_name_H-M   'P 1'
_cell_length_a   8.14685591
_cell_length_b   4.83140412
_cell_length_c   8.81390259
_cell_angle_alpha   90.00000000
_cell_angle_beta   90.00000000
_cell_angle_gamma   90.00000000
_symmetry_Int_Tables_number   1
_chemical_formula_structural   KNaSe
_chemical_formula_sum   'K4 Na4 Se4'
_cell_volume   346.92184443
_cell_formula_units_Z   4
loop_
 _symmetry_equiv_pos_site_id
 _symmetry_equiv_pos_as_xyz
  1  'x, y, z'
loop_
 _atom_site_type_symbol
 _atom_site_label
 _atom_site_symmetry_multiplicity
 _atom_site_fract_x
 _atom_site_fract_y
 _atom_site_fract_z
 _atom_site_occupancy
  K  K0  1  0.98416822  0.75000000  0.68254247  1.0
  K  K1  1  0.48416822  0.75000000  0.81745753  1.0
  K  K2  1  0.01583178  0.25000000  0.31745753  1.0
  K  K3  1  0.51583178  0.25000000  0.18254247  1.0
  Na  Na4  1  0.85533962  0.75000000  0.07293327  1.0
  Na  Na5  1  0.35533962  0.75000000  0.42706673  1.0
  Na  Na6  1  0.14466038  0.25000000  0.92706673  1.0
  Na  Na7  1  0.64466038  0.25000000  0.57293327  1.0
  Se  Se8  1  0.72104502  0.75000000  0.39187670  1.0
  Se  Se9  1  0.22104502  0.75000000  0.10812330  1.0
  Se  Se10  1  0.27895498  0.25000000  0.60812330  1.0
  Se  Se11  1  0.77895498  0.25000000  0.89187670  1.0
