# generated using pymatgen
data_PH6C(NF2)3
_symmetry_space_group_name_H-M   'P 1'
_cell_length_a   7.94008505
_cell_length_b   7.94008505
_cell_length_c   7.94008505
_cell_angle_alpha   63.18470854
_cell_angle_beta   63.18470854
_cell_angle_gamma   63.18470854
_symmetry_Int_Tables_number   1
_chemical_formula_structural   PH6C(NF2)3
_chemical_formula_sum   'P2 H12 C2 N6 F12'
_cell_volume   378.95524264
_cell_formula_units_Z   2
loop_
 _symmetry_equiv_pos_site_id
 _symmetry_equiv_pos_as_xyz
  1  'x, y, z'
loop_
 _atom_site_type_symbol
 _atom_site_label
 _atom_site_symmetry_multiplicity
 _atom_site_fract_x
 _atom_site_fract_y
 _atom_site_fract_z
 _atom_site_occupancy
  P  P0  1  0.50000000  0.50000000  -0.50000000  1.0
  P  P1  1  0.00000000  0.00000000  0.00000000  1.0
  H  H2  1  0.71937914  1.00236448  -0.48911324  1.0
  H  H3  1  0.71937914  0.51088676  0.00236448  1.0
  H  H4  1  1.48911324  0.99763552  0.28062086  1.0
  H  H5  1  1.48911324  1.28062086  -0.00236448  1.0
  H  H6  1  0.99763552  1.48911324  0.28062086  1.0
  H  H7  1  0.99763552  1.28062086  0.48911324  1.0
  H  H8  1  1.28062086  0.99763552  0.48911324  1.0
  H  H9  1  1.28062086  1.48911324  -0.00236448  1.0
  H  H10  1  0.51088676  0.71937914  0.00236448  1.0
  H  H11  1  0.51088676  1.00236448  -0.28062086  1.0
  H  H12  1  1.00236448  0.71937914  -0.48911324  1.0
  H  H13  1  1.00236448  0.51088676  -0.28062086  1.0
  C  C14  1  0.74258325  0.74258325  -0.25741675  1.0
  C  C15  1  1.25741675  1.25741675  0.25741675  1.0
  N  N16  1  1.35031914  1.35031914  0.07210289  1.0
  N  N17  1  1.35031914  1.07210289  0.35031914  1.0
  N  N18  1  0.92789711  0.64968086  -0.35031914  1.0
  N  N19  1  0.64968086  0.92789711  -0.35031914  1.0
  N  N20  1  0.64968086  0.64968086  -0.07210289  1.0
  N  N21  1  1.07210289  1.35031914  0.35031914  1.0
  F  F22  1  0.35659361  0.35659361  -0.36354707  1.0
  F  F23  1  0.35659361  0.63645293  -0.64340639  1.0
  F  F24  1  0.36354707  0.64340639  -0.35659361  1.0
  F  F25  1  0.64340639  0.36354707  -0.35659361  1.0
  F  F26  1  0.64340639  0.64340639  -0.63645293  1.0
  F  F27  1  0.63645293  0.35659361  -0.64340639  1.0
  F  F28  1  1.04299287  1.04299287  0.76361107  1.0
  F  F29  1  1.04299287  1.76361107  0.04299287  1.0
  F  F30  1  1.23638893  -0.04299287  -0.04299287  1.0
  F  F31  1  0.95700713  0.23638893  -0.04299287  1.0
  F  F32  1  0.95700713  -0.04299287  0.23638893  1.0
  F  F33  1  1.76361107  1.04299287  0.04299287  1.0
