# generated using pymatgen
data_Nb2B2Mo
_symmetry_space_group_name_H-M   'P 1'
_cell_length_a   6.11243292
_cell_length_b   6.11243292
_cell_length_c   3.28500472
_cell_angle_alpha   90.00000000
_cell_angle_beta   90.00000000
_cell_angle_gamma   90.00000000
_symmetry_Int_Tables_number   1
_chemical_formula_structural   Nb2B2Mo
_chemical_formula_sum   'Nb4 B4 Mo2'
_cell_volume   122.73380831
_cell_formula_units_Z   2
loop_
 _symmetry_equiv_pos_site_id
 _symmetry_equiv_pos_as_xyz
  1  'x, y, z'
loop_
 _atom_site_type_symbol
 _atom_site_label
 _atom_site_symmetry_multiplicity
 _atom_site_fract_x
 _atom_site_fract_y
 _atom_site_fract_z
 _atom_site_occupancy
  Nb  Nb0  1  0.32103485  0.17896515  0.50000000  1.0
  Nb  Nb1  1  0.82103485  0.32103485  0.50000000  1.0
  Nb  Nb2  1  0.67896515  0.82103485  0.50000000  1.0
  Nb  Nb3  1  0.17896515  0.67896515  0.50000000  1.0
  B  B4  1  0.89196318  0.60803682  0.00000000  1.0
  B  B5  1  0.39196318  0.89196318  0.00000000  1.0
  B  B6  1  0.10803682  0.39196318  0.00000000  1.0
  B  B7  1  0.60803682  0.10803682  0.00000000  1.0
  Mo  Mo8  1  0.50000000  0.50000000  0.00000000  1.0
  Mo  Mo9  1  0.00000000  0.00000000  0.00000000  1.0
