# generated using pymatgen
data_NiH10S2(NO2)4
_symmetry_space_group_name_H-M   'P 1'
_cell_length_a   7.34068034
_cell_length_b   5.90887487
_cell_length_c   5.36483658
_cell_angle_alpha   99.14364351
_cell_angle_beta   106.32313207
_cell_angle_gamma   89.39465665
_symmetry_Int_Tables_number   1
_chemical_formula_structural   NiH10S2(NO2)4
_chemical_formula_sum   'Ni1 H10 S2 N4 O8'
_cell_volume   220.34038975
_cell_formula_units_Z   1
loop_
 _symmetry_equiv_pos_site_id
 _symmetry_equiv_pos_as_xyz
  1  'x, y, z'
loop_
 _atom_site_type_symbol
 _atom_site_label
 _atom_site_symmetry_multiplicity
 _atom_site_fract_x
 _atom_site_fract_y
 _atom_site_fract_z
 _atom_site_occupancy
  Ni  Ni0  1  0.00000000  0.00000000  0.00000000  1.0
  H  H1  1  -0.70521100  -0.20419984  -0.55903900  1.0
  H  H2  1  -0.29478900  -0.79580016  -0.44096100  1.0
  H  H3  1  -0.24775888  -0.71033713  -0.88751922  1.0
  H  H4  1  -0.75224112  -0.28966287  -0.11248078  1.0
  H  H5  1  -0.63514456  -0.07160601  -0.89949395  1.0
  H  H6  1  -0.36485544  -0.92839399  -0.10050605  1.0
  H  H7  1  -0.82091641  -0.43852147  -0.77283706  1.0
  H  H8  1  -0.17908359  -0.56147853  -0.22716294  1.0
  H  H9  1  -0.58129165  -0.39354664  -0.71967268  1.0
  H  H10  1  -0.41870835  -0.60645336  -0.28032732  1.0
  S  S11  1  -0.21966221  -0.23598915  -0.64705354  1.0
  S  S12  1  -0.78033779  -0.76401085  -0.35294646  1.0
  N  N13  1  -0.75322757  -0.17890915  -0.94283671  1.0
  N  N14  1  -0.24677243  -0.82109085  -0.05716329  1.0
  N  N15  1  -0.71319583  -0.31672565  -0.73541675  1.0
  N  N16  1  -0.28680417  -0.68327435  -0.26458325  1.0
  O  O17  1  -0.11466728  -0.26121845  -0.85473074  1.0
  O  O18  1  -0.88533272  -0.73878155  -0.14526926  1.0
  O  O19  1  -0.34325578  -0.03308258  -0.67220657  1.0
  O  O20  1  -0.65674422  -0.96691742  -0.32779343  1.0
  O  O21  1  -0.34153249  -0.44952883  -0.69533421  1.0
  O  O22  1  -0.65846751  -0.55047117  -0.30466579  1.0
  O  O23  1  -0.08079781  -0.21364026  -0.37930819  1.0
  O  O24  1  -0.91920219  -0.78635974  -0.62069181  1.0
