# generated using pymatgen
data_Na4W4O15
_symmetry_space_group_name_H-M   'P 1'
_cell_length_a   7.80509456
_cell_length_b   5.20673159
_cell_length_c   8.57609087
_cell_angle_alpha   96.99168892
_cell_angle_beta   112.05255838
_cell_angle_gamma   92.04498863
_symmetry_Int_Tables_number   1
_chemical_formula_structural   Na4W4O15
_chemical_formula_sum   'Na4 W4 O15'
_cell_volume   319.36669001
_cell_formula_units_Z   1
loop_
 _symmetry_equiv_pos_site_id
 _symmetry_equiv_pos_as_xyz
  1  'x, y, z'
loop_
 _atom_site_type_symbol
 _atom_site_label
 _atom_site_symmetry_multiplicity
 _atom_site_fract_x
 _atom_site_fract_y
 _atom_site_fract_z
 _atom_site_occupancy
  W  W0  1  -0.23851293  -0.18796923  -0.31899472  1.0
  W  W1  1  -0.76148707  -0.81203077  -0.68100528  1.0
  W  W2  1  -0.04029661  -0.34831801  -0.83941069  1.0
  W  W3  1  -0.95970339  -0.65168199  -0.16058931  1.0
  O  O4  1  -0.30175981  -0.13287625  -0.53240598  1.0
  O  O5  1  -0.69824019  -0.86712375  -0.46759402  1.0
  O  O6  1  -0.26328199  -0.49683616  -0.87315190  1.0
  O  O7  1  -0.73671801  -0.50316384  -0.12684810  1.0
  O  O8  1  -0.77199469  -0.14008186  -0.79571642  1.0
  O  O9  1  -0.22800531  -0.85991814  -0.20428358  1.0
  O  O10  1  -0.08449957  -0.32911449  -0.07369257  1.0
  O  O11  1  -0.91550043  -0.67088551  -0.92630743  1.0
  O  O12  1  -0.09901657  -0.49702074  -0.35663796  1.0
  O  O13  1  -0.90098343  -0.50297926  -0.64336204  1.0
  O  O14  1  -0.05740270  -0.02214392  -0.74801077  1.0
  O  O15  1  -0.94259730  -0.97785608  -0.25198923  1.0
  O  O16  1  -0.44706412  -0.32701474  -0.31578953  1.0
  O  O17  1  -0.55293588  -0.67298526  -0.68421047  1.0
  O  O18  1  -0.50000000  -0.00000000  0.00000000  1.0
  Na  Na19  1  -0.23335377  -0.75129955  -0.63443431  1.0
  Na  Na20  1  -0.76664623  -0.24870045  -0.36556569  1.0
  Na  Na21  1  -0.51826998  -0.32119680  -0.81886014  1.0
  Na  Na22  1  -0.48173002  -0.67880320  -0.18113986  1.0
