# generated using pymatgen
data_Ti3Zn3C
_symmetry_space_group_name_H-M   'P 1'
_cell_length_a   8.17243717
_cell_length_b   8.17243717
_cell_length_c   8.17243717
_cell_angle_alpha   60.00000000
_cell_angle_beta   60.00000000
_cell_angle_gamma   60.00000000
_symmetry_Int_Tables_number   1
_chemical_formula_structural   Ti3Zn3C
_chemical_formula_sum   'Ti12 Zn12 C4'
_cell_volume   385.95775705
_cell_formula_units_Z   4
loop_
 _symmetry_equiv_pos_site_id
 _symmetry_equiv_pos_as_xyz
  1  'x, y, z'
loop_
 _atom_site_type_symbol
 _atom_site_label
 _atom_site_symmetry_multiplicity
 _atom_site_fract_x
 _atom_site_fract_y
 _atom_site_fract_z
 _atom_site_occupancy
  Ti  Ti0  1  0.81659237  0.81659237  -0.81659237  1.0
  Ti  Ti1  1  0.18340763  1.18340763  -0.18340763  1.0
  Ti  Ti2  1  0.81659237  -0.81659237  0.81659237  1.0
  Ti  Ti3  1  0.18340763  -0.18340763  0.18340763  1.0
  Ti  Ti4  1  -0.81659237  0.81659237  0.81659237  1.0
  Ti  Ti5  1  -0.18340763  0.18340763  0.18340763  1.0
  Ti  Ti6  1  0.43340763  1.43340763  0.06659237  1.0
  Ti  Ti7  1  0.06659237  0.06659237  0.43340763  1.0
  Ti  Ti8  1  0.43340763  1.06659237  0.43340763  1.0
  Ti  Ti9  1  0.06659237  1.43340763  0.06659237  1.0
  Ti  Ti10  1  0.06659237  1.43340763  0.43340763  1.0
  Ti  Ti11  1  0.43340763  1.06659237  0.06659237  1.0
  Zn  Zn12  1  1.12500000  0.62500000  0.62500000  1.0
  Zn  Zn13  1  0.62500000  1.12500000  -0.37500000  1.0
  Zn  Zn14  1  -0.37500000  0.62500000  1.12500000  1.0
  Zn  Zn15  1  -0.37500000  0.62500000  0.62500000  1.0
  Zn  Zn16  1  -0.24524028  0.41508009  0.41508009  1.0
  Zn  Zn17  1  0.41508009  -0.24524028  0.41508009  1.0
  Zn  Zn18  1  0.41508009  1.41508009  -0.24524028  1.0
  Zn  Zn19  1  0.41508009  1.41508009  0.41508009  1.0
  Zn  Zn20  1  0.49524028  0.83491991  -0.16508009  1.0
  Zn  Zn21  1  0.83491991  0.49524028  0.83491991  1.0
  Zn  Zn22  1  0.83491991  0.83491991  -0.50475972  1.0
  Zn  Zn23  1  0.83491991  0.83491991  0.83491991  1.0
  C  C24  1  0.62500000  1.12500000  0.12500000  1.0
  C  C25  1  0.12500000  1.62500000  0.12500000  1.0
  C  C26  1  0.12500000  0.12500000  1.62500000  1.0
  C  C27  1  0.12500000  0.12500000  0.12500000  1.0
