# generated using pymatgen
data_SrCrP2O7
_symmetry_space_group_name_H-M   'P 1'
_cell_length_a   5.51189218
_cell_length_b   8.37872765
_cell_length_c   13.79133217
_cell_angle_alpha   90.00000000
_cell_angle_beta   112.82875906
_cell_angle_gamma   90.00000000
_symmetry_Int_Tables_number   1
_chemical_formula_structural   SrCrP2O7
_chemical_formula_sum   'Sr4 Cr4 P8 O28'
_cell_volume   587.02927984
_cell_formula_units_Z   4
loop_
 _symmetry_equiv_pos_site_id
 _symmetry_equiv_pos_as_xyz
  1  'x, y, z'
loop_
 _atom_site_type_symbol
 _atom_site_label
 _atom_site_symmetry_multiplicity
 _atom_site_fract_x
 _atom_site_fract_y
 _atom_site_fract_z
 _atom_site_occupancy
  Sr  Sr0  1  0.99039723  0.16160198  0.27828266  1.0
  Sr  Sr1  1  0.99039723  0.33839802  0.77828266  1.0
  Sr  Sr2  1  0.00960277  0.66160198  0.22171734  1.0
  Sr  Sr3  1  0.00960277  0.83839802  0.72171734  1.0
  Cr  Cr4  1  0.67498031  0.85556591  0.38899040  1.0
  Cr  Cr5  1  0.67498031  0.64443409  0.88899040  1.0
  Cr  Cr6  1  0.32501969  0.35556591  0.11100960  1.0
  Cr  Cr7  1  0.32501969  0.14443409  0.61100960  1.0
  P  P8  1  0.67125150  0.19815021  0.48541135  1.0
  P  P9  1  0.67125150  0.30184979  0.98541135  1.0
  P  P10  1  0.32874850  0.69815021  0.01458865  1.0
  P  P11  1  0.32874850  0.80184979  0.51458865  1.0
  P  P12  1  0.59212730  0.46299237  0.33669572  1.0
  P  P13  1  0.59212730  0.03700763  0.83669572  1.0
  P  P14  1  0.40787270  0.96299237  0.16330428  1.0
  P  P15  1  0.40787270  0.53700763  0.66330428  1.0
  O  O16  1  0.87680063  0.31439956  0.09735241  1.0
  O  O17  1  0.87680063  0.18560044  0.59735241  1.0
  O  O18  1  0.12319937  0.81439956  0.40264759  1.0
  O  O19  1  0.12319937  0.68560044  0.90264759  1.0
  O  O20  1  0.81653405  0.44166482  0.29871258  1.0
  O  O21  1  0.81653405  0.05833518  0.79871258  1.0
  O  O22  1  0.18346595  0.94166482  0.20128742  1.0
  O  O23  1  0.18346595  0.55833518  0.70128742  1.0
  O  O24  1  0.73966470  0.09726640  0.40473438  1.0
  O  O25  1  0.73966470  0.40273360  0.90473438  1.0
  O  O26  1  0.26033530  0.59726640  0.09526562  1.0
  O  O27  1  0.26033530  0.90273360  0.59526562  1.0
  O  O28  1  0.68258392  0.38435230  0.45246936  1.0
  O  O29  1  0.68258392  0.11564770  0.95246936  1.0
  O  O30  1  0.31741608  0.88435230  0.04753064  1.0
  O  O31  1  0.31741608  0.61564770  0.54753064  1.0
  O  O32  1  0.47688634  0.13716375  0.15126037  1.0
  O  O33  1  0.47688634  0.36283625  0.65126037  1.0
  O  O34  1  0.52311366  0.63716375  0.34873963  1.0
  O  O35  1  0.52311366  0.86283625  0.84873963  1.0
  O  O36  1  0.38281320  0.16602771  0.47312712  1.0
  O  O37  1  0.38281320  0.33397229  0.97312712  1.0
  O  O38  1  0.61718680  0.66602771  0.02687288  1.0
  O  O39  1  0.61718680  0.83397229  0.52687288  1.0
  O  O40  1  0.33378939  0.37845725  0.26375526  1.0
  O  O41  1  0.33378939  0.12154275  0.76375526  1.0
  O  O42  1  0.66621061  0.87845725  0.23624474  1.0
  O  O43  1  0.66621061  0.62154275  0.73624474  1.0
