# generated using pymatgen
data_ScAlCO
_symmetry_space_group_name_H-M   'P 1'
_cell_length_a   10.27541586
_cell_length_b   10.27541586
_cell_length_c   10.27541586
_cell_angle_alpha   18.40314292
_cell_angle_beta   18.40314292
_cell_angle_gamma   18.40314292
_symmetry_Int_Tables_number   1
_chemical_formula_structural   ScAlCO
_chemical_formula_sum   'Sc2 Al2 C2 O2'
_cell_volume   94.44914640
_cell_formula_units_Z   2
loop_
 _symmetry_equiv_pos_site_id
 _symmetry_equiv_pos_as_xyz
  1  'x, y, z'
loop_
 _atom_site_type_symbol
 _atom_site_label
 _atom_site_symmetry_multiplicity
 _atom_site_fract_x
 _atom_site_fract_y
 _atom_site_fract_z
 _atom_site_occupancy
  Sc  Sc0  1  1.50000000  0.50000000  0.50000000  1.0
  Sc  Sc1  1  0.00000000  0.00000000  0.00000000  1.0
  Al  Al2  1  0.76136375  0.76136375  0.76136375  1.0
  Al  Al3  1  1.23863625  1.23863625  0.23863625  1.0
  C  C4  1  0.88150330  0.88150330  0.88150330  1.0
  C  C5  1  1.11849670  1.11849670  0.11849670  1.0
  O  O6  1  0.69996352  0.69996352  0.69996352  1.0
  O  O7  1  1.30003648  1.30003648  0.30003648  1.0
