# generated using pymatgen
data_K2CuSbS3
_symmetry_space_group_name_H-M   'P 1'
_cell_length_a   6.36570184
_cell_length_b   18.21037593
_cell_length_c   7.57942527
_cell_angle_alpha   90.00000000
_cell_angle_beta   120.17636674
_cell_angle_gamma   90.00000000
_symmetry_Int_Tables_number   1
_chemical_formula_structural   K2CuSbS3
_chemical_formula_sum   'K8 Cu4 Sb4 S12'
_cell_volume   759.55205266
_cell_formula_units_Z   4
loop_
 _symmetry_equiv_pos_site_id
 _symmetry_equiv_pos_as_xyz
  1  'x, y, z'
loop_
 _atom_site_type_symbol
 _atom_site_label
 _atom_site_symmetry_multiplicity
 _atom_site_fract_x
 _atom_site_fract_y
 _atom_site_fract_z
 _atom_site_occupancy
  K  K0  1  0.91541911  0.11911574  0.35636039  1.0
  K  K1  1  0.91541911  0.38088426  0.85636039  1.0
  K  K2  1  0.08458089  0.61911574  0.14363961  1.0
  K  K3  1  0.08458089  0.88088426  0.64363961  1.0
  K  K4  1  0.64489049  0.45803597  0.28799374  1.0
  K  K5  1  0.64489049  0.04196403  0.78799374  1.0
  K  K6  1  0.35510951  0.95803597  0.21200626  1.0
  K  K7  1  0.35510951  0.54196403  0.71200626  1.0
  Cu  Cu8  1  0.61961820  0.27815871  0.06236720  1.0
  Cu  Cu9  1  0.61961820  0.22184129  0.56236720  1.0
  Cu  Cu10  1  0.38038180  0.77815871  0.43763280  1.0
  Cu  Cu11  1  0.38038180  0.72184129  0.93763280  1.0
  Sb  Sb12  1  0.76621796  0.67618356  0.49959481  1.0
  Sb  Sb13  1  0.76621796  0.82381644  0.99959481  1.0
  Sb  Sb14  1  0.23378204  0.17618356  0.00040519  1.0
  Sb  Sb15  1  0.23378204  0.32381644  0.50040519  1.0
  S  S16  1  0.83968328  0.93833696  0.18509873  1.0
  S  S17  1  0.83968328  0.56166304  0.68509873  1.0
  S  S18  1  0.16031672  0.43833696  0.31490127  1.0
  S  S19  1  0.16031672  0.06166304  0.81490127  1.0
  S  S20  1  0.79612257  0.29032428  0.40765990  1.0
  S  S21  1  0.79612257  0.20967572  0.90765990  1.0
  S  S22  1  0.20387743  0.79032428  0.09234010  1.0
  S  S23  1  0.20387743  0.70967572  0.59234010  1.0
  S  S24  1  0.40369686  0.12768169  0.35096851  1.0
  S  S25  1  0.40369686  0.37231831  0.85096851  1.0
  S  S26  1  0.59630314  0.62768169  0.14903149  1.0
  S  S27  1  0.59630314  0.87231831  0.64903149  1.0
