# generated using pymatgen
data_Na3Li3N2
_symmetry_space_group_name_H-M   'P 1'
_cell_length_a   3.84223862
_cell_length_b   4.28152319
_cell_length_c   7.30197923
_cell_angle_alpha   90.00000000
_cell_angle_beta   90.44507459
_cell_angle_gamma   90.00000000
_symmetry_Int_Tables_number   1
_chemical_formula_structural   Na3Li3N2
_chemical_formula_sum   'Na3 Li3 N2'
_cell_volume   120.11856174
_cell_formula_units_Z   1
loop_
 _symmetry_equiv_pos_site_id
 _symmetry_equiv_pos_as_xyz
  1  'x, y, z'
loop_
 _atom_site_type_symbol
 _atom_site_label
 _atom_site_symmetry_multiplicity
 _atom_site_fract_x
 _atom_site_fract_y
 _atom_site_fract_z
 _atom_site_occupancy
  Na  Na0  1  0.33656313  0.50000000  0.47830175  1.0
  Na  Na1  1  0.58985828  0.50000000  0.14173345  1.0
  Na  Na2  1  0.65298404  0.00000000  0.63754801  1.0
  Li  Li3  1  0.02009948  0.50000000  0.83065525  1.0
  Li  Li4  1  0.45183915  0.00000000  0.97625184  1.0
  Li  Li5  1  -0.01180771  0.00000000  0.27585967  1.0
  N  N6  1  0.51769494  0.50000000  0.81522556  1.0
  N  N7  1  0.48476869  0.00000000  0.28342447  1.0
