# generated using pymatgen
data_La4Mg5Ge6
_symmetry_space_group_name_H-M   'P 1'
_cell_length_a   10.37503879
_cell_length_b   10.37503879
_cell_length_c   16.23821848
_cell_angle_alpha   90.00000000
_cell_angle_beta   90.00000000
_cell_angle_gamma   154.77714900
_symmetry_Int_Tables_number   1
_chemical_formula_structural   La4Mg5Ge6
_chemical_formula_sum   'La8 Mg10 Ge12'
_cell_volume   744.85248064
_cell_formula_units_Z   2
loop_
 _symmetry_equiv_pos_site_id
 _symmetry_equiv_pos_as_xyz
  1  'x, y, z'
loop_
 _atom_site_type_symbol
 _atom_site_label
 _atom_site_symmetry_multiplicity
 _atom_site_fract_x
 _atom_site_fract_y
 _atom_site_fract_z
 _atom_site_occupancy
  La  La0  1  0.01337483  0.98662517  0.76202033  1.0
  La  La1  1  -0.01337483  0.01337483  0.26202033  1.0
  La  La2  1  0.03296269  0.96703731  0.49954161  1.0
  La  La3  1  -0.03296269  0.03296269  -0.00045839  1.0
  La  La4  1  0.16549780  0.83450220  0.96124364  1.0
  La  La5  1  -0.16549780  0.16549780  0.46124364  1.0
  La  La6  1  0.17587797  0.82412203  0.31947058  1.0
  La  La7  1  -0.17587797  0.17587797  0.81947058  1.0
  Mg  Mg8  1  0.15491712  0.84508288  0.63982737  1.0
  Mg  Mg9  1  -0.15491712  0.15491712  0.13982737  1.0
  Mg  Mg10  1  0.30162668  0.69837332  0.64259806  1.0
  Mg  Mg11  1  -0.30162668  0.30162668  0.14259806  1.0
  Mg  Mg12  1  0.34029759  0.65970241  0.99737721  1.0
  Mg  Mg13  1  -0.34029759  0.34029759  0.49737721  1.0
  Mg  Mg14  1  0.44090190  0.55909810  0.59362940  1.0
  Mg  Mg15  1  -0.44090190  0.44090190  0.09362940  1.0
  Mg  Mg16  1  -0.35050249  0.35050249  0.78266954  1.0
  Mg  Mg17  1  0.35050249  0.64949751  0.28266954  1.0
  Ge  Ge18  1  0.11337048  0.88662952  0.14428832  1.0
  Ge  Ge19  1  -0.11337048  0.11337048  0.64428832  1.0
  Ge  Ge20  1  0.22430662  0.77569338  0.78363266  1.0
  Ge  Ge21  1  -0.22430662  0.22430662  0.28363266  1.0
  Ge  Ge22  1  0.23075683  0.76924317  0.49807936  1.0
  Ge  Ge23  1  -0.23075683  0.23075683  0.99807936  1.0
  Ge  Ge24  1  0.43326920  0.56673080  0.86337179  1.0
  Ge  Ge25  1  -0.43326920  0.43326920  0.36337179  1.0
  Ge  Ge26  1  -0.44488530  0.44488530  0.91210524  1.0
  Ge  Ge27  1  0.44488530  0.55511470  0.41210524  1.0
  Ge  Ge28  1  -0.42826224  0.42826224  0.63634490  1.0
  Ge  Ge29  1  0.42826224  0.57173776  0.13634490  1.0
