# generated using pymatgen
data_H5CN6
_symmetry_space_group_name_H-M   'P 1'
_cell_length_a   8.43401584
_cell_length_b   8.69488343
_cell_length_c   3.72733357
_cell_angle_alpha   69.97691376
_cell_angle_beta   87.15999283
_cell_angle_gamma   77.45439897
_symmetry_Int_Tables_number   1
_chemical_formula_structural   H5CN6
_chemical_formula_sum   'H10 C2 N12'
_cell_volume   250.59019151
_cell_formula_units_Z   2
loop_
 _symmetry_equiv_pos_site_id
 _symmetry_equiv_pos_as_xyz
  1  'x, y, z'
loop_
 _atom_site_type_symbol
 _atom_site_label
 _atom_site_symmetry_multiplicity
 _atom_site_fract_x
 _atom_site_fract_y
 _atom_site_fract_z
 _atom_site_occupancy
  H  H0  1  -0.71224285  -0.19842488  -0.93624696  1.0
  H  H1  1  -0.28775715  -0.80157512  -0.06375304  1.0
  H  H2  1  -0.13020792  -0.80513911  -0.77849719  1.0
  H  H3  1  -0.86979208  -0.19486089  -0.22150281  1.0
  H  H4  1  -0.23725698  -0.96251838  -0.62376071  1.0
  H  H5  1  -0.76274302  -0.03748162  -0.37623929  1.0
  H  H6  1  -0.33702986  -0.61507756  -0.71400522  1.0
  H  H7  1  -0.66297014  -0.38492244  -0.28599478  1.0
  H  H8  1  -0.46961830  -0.74155438  -0.62090652  1.0
  H  H9  1  -0.53038170  -0.25844562  -0.37909348  1.0
  C  C10  1  -0.93331231  -0.57167809  -0.92379868  1.0
  C  C11  1  -0.06668769  -0.42832191  -0.07620132  1.0
  N  N12  1  -0.77568784  -0.56333500  -0.92364772  1.0
  N  N13  1  -0.22431216  -0.43666500  -0.07635228  1.0
  N  N14  1  -0.24686230  -0.83300857  -0.77723194  1.0
  N  N15  1  -0.75313770  -0.16699143  -0.22276806  1.0
  N  N16  1  -0.95090095  -0.73094360  -0.76045732  1.0
  N  N17  1  -0.04909905  -0.26905640  -0.23954268  1.0
  N  N18  1  -0.69585267  -0.72136658  -0.75468657  1.0
  N  N19  1  -0.30414733  -0.27863342  -0.24531343  1.0
  N  N20  1  -0.79998389  -0.82107602  -0.65783935  1.0
  N  N21  1  -0.20001611  -0.17892398  -0.34216065  1.0
  N  N22  1  -0.35077170  -0.73654701  -0.57340160  1.0
  N  N23  1  -0.64922830  -0.26345299  -0.42659840  1.0
