# generated using pymatgen
data_Sr5(Br4Cl)2
_symmetry_space_group_name_H-M   'P 1'
_cell_length_a   11.58044600
_cell_length_b   11.58044600
_cell_length_c   7.13753935
_cell_angle_alpha   90.00000000
_cell_angle_beta   90.00000000
_cell_angle_gamma   90.00000000
_symmetry_Int_Tables_number   1
_chemical_formula_structural   Sr5(Br4Cl)2
_chemical_formula_sum   'Sr10 Br16 Cl4'
_cell_volume   957.19205907
_cell_formula_units_Z   2
loop_
 _symmetry_equiv_pos_site_id
 _symmetry_equiv_pos_as_xyz
  1  'x, y, z'
loop_
 _atom_site_type_symbol
 _atom_site_label
 _atom_site_symmetry_multiplicity
 _atom_site_fract_x
 _atom_site_fract_y
 _atom_site_fract_z
 _atom_site_occupancy
  Sr  Sr0  1  0.65551163  0.35825273  0.75121451  1.0
  Sr  Sr1  1  0.34448837  0.64174727  0.75121451  1.0
  Sr  Sr2  1  0.85825273  0.84448837  0.75121451  1.0
  Sr  Sr3  1  0.14174727  0.15551163  0.75121451  1.0
  Sr  Sr4  1  0.84448837  0.14174727  0.24878549  1.0
  Sr  Sr5  1  0.15551163  0.85825273  0.24878549  1.0
  Sr  Sr6  1  0.64174727  0.65551163  0.24878549  1.0
  Sr  Sr7  1  0.35825273  0.34448837  0.24878549  1.0
  Sr  Sr8  1  0.00000000  0.50000000  0.14712539  1.0
  Sr  Sr9  1  0.50000000  0.00000000  0.85287461  1.0
  Br  Br10  1  0.78691491  0.40530120  0.37661628  1.0
  Br  Br11  1  0.21308509  0.59469880  0.37661628  1.0
  Br  Br12  1  0.90530120  0.71308509  0.37661628  1.0
  Br  Br13  1  0.09469880  0.28691491  0.37661628  1.0
  Br  Br14  1  0.71308509  0.09469880  0.62338372  1.0
  Br  Br15  1  0.28691491  0.90530120  0.62338372  1.0
  Br  Br16  1  0.59469880  0.78691491  0.62338372  1.0
  Br  Br17  1  0.40530120  0.21308509  0.62338372  1.0
  Br  Br18  1  0.79073220  0.59002309  0.90021820  1.0
  Br  Br19  1  0.20926780  0.40997691  0.90021820  1.0
  Br  Br20  1  0.09002309  0.70926780  0.90021820  1.0
  Br  Br21  1  0.90997691  0.29073220  0.90021820  1.0
  Br  Br22  1  0.70926780  0.90997691  0.09978180  1.0
  Br  Br23  1  0.29073220  0.09002309  0.09978180  1.0
  Br  Br24  1  0.40997691  0.79073220  0.09978180  1.0
  Br  Br25  1  0.59002309  0.20926780  0.09978180  1.0
  Cl  Cl26  1  0.50000000  0.50000000  0.00000000  1.0
  Cl  Cl27  1  0.00000000  0.00000000  0.00000000  1.0
  Cl  Cl28  1  0.50000000  0.50000000  0.50000000  1.0
  Cl  Cl29  1  0.00000000  0.00000000  0.50000000  1.0
