# generated using pymatgen
data_Na2Ni3P2(HO5)2
_symmetry_space_group_name_H-M   'P 1'
_cell_length_a   7.69684552
_cell_length_b   7.69684552
_cell_length_c   5.02390927
_cell_angle_alpha   77.43081133
_cell_angle_beta   102.56918867
_cell_angle_gamma   136.54415576
_symmetry_Int_Tables_number   1
_chemical_formula_structural   Na2Ni3P2(HO5)2
_chemical_formula_sum   'Na2 Ni3 P2 H2 O10'
_cell_volume   199.00790210
_cell_formula_units_Z   1
loop_
 _symmetry_equiv_pos_site_id
 _symmetry_equiv_pos_as_xyz
  1  'x, y, z'
loop_
 _atom_site_type_symbol
 _atom_site_label
 _atom_site_symmetry_multiplicity
 _atom_site_fract_x
 _atom_site_fract_y
 _atom_site_fract_z
 _atom_site_occupancy
  Na  Na0  1  0.73270041  0.26729959  0.28879352  1.0
  Na  Na1  1  0.26729959  -0.26729959  0.71120648  1.0
  Ni  Ni2  1  0.76901908  0.76901907  0.50000000  1.0
  Ni  Ni3  1  0.23098093  0.23098092  0.50000000  1.0
  Ni  Ni4  1  0.50000000  0.50000000  0.00000000  1.0
  P  P5  1  0.87331195  0.12668805  0.90083371  1.0
  P  P6  1  0.12668805  -0.12668805  0.09916629  1.0
  H  H7  1  0.64168825  0.35831175  0.75052596  1.0
  H  H8  1  0.35831175  -0.35831175  0.24947404  1.0
  O  O9  1  0.68465250  -0.13919718  0.78103363  1.0
  O  O10  1  1.13919718  0.31534750  0.78103363  1.0
  O  O11  1  0.86080282  0.68465250  0.21896637  1.0
  O  O12  1  0.31534750  0.13919718  0.21896637  1.0
  O  O13  1  0.90091469  0.09908531  0.22243044  1.0
  O  O14  1  0.09908531  -0.09908531  0.77756956  1.0
  O  O15  1  0.76249444  0.23750556  0.79917043  1.0
  O  O16  1  0.23750556  -0.23750556  0.20082957  1.0
  O  O17  1  0.57057283  0.42942717  0.71076328  1.0
  O  O18  1  0.42942717  -0.42942717  0.28923672  1.0
