# generated using pymatgen
data_Ca2As3Pb3ClO12
_symmetry_space_group_name_H-M   'P 1'
_cell_length_a   10.46193720
_cell_length_b   10.46193720
_cell_length_c   7.16862820
_cell_angle_alpha   90.00000000
_cell_angle_beta   90.00000000
_cell_angle_gamma   120.00000000
_symmetry_Int_Tables_number   1
_chemical_formula_structural   Ca2As3Pb3ClO12
_chemical_formula_sum   'Ca4 As6 Pb6 Cl2 O24'
_cell_volume   679.50225972
_cell_formula_units_Z   2
loop_
 _symmetry_equiv_pos_site_id
 _symmetry_equiv_pos_as_xyz
  1  'x, y, z'
loop_
 _atom_site_type_symbol
 _atom_site_label
 _atom_site_symmetry_multiplicity
 _atom_site_fract_x
 _atom_site_fract_y
 _atom_site_fract_z
 _atom_site_occupancy
  Ca  Ca0  1  0.33333333  0.66666667  0.50612947  1.0
  Ca  Ca1  1  0.33333333  0.66666667  0.99387053  1.0
  Ca  Ca2  1  0.66666667  0.33333333  0.00612947  1.0
  Ca  Ca3  1  0.66666667  0.33333333  0.49387053  1.0
  As  As4  1  0.39406970  0.97093830  0.25000000  1.0
  As  As5  1  0.97093830  0.57686860  0.75000000  1.0
  As  As6  1  0.57686860  0.60593030  0.25000000  1.0
  As  As7  1  0.02906170  0.42313140  0.25000000  1.0
  As  As8  1  0.60593030  0.02906170  0.75000000  1.0
  As  As9  1  0.42313140  0.39406970  0.75000000  1.0
  Pb  Pb10  1  0.03283888  0.76858411  0.25000000  1.0
  Pb  Pb11  1  0.76858411  0.73574523  0.75000000  1.0
  Pb  Pb12  1  0.73574523  0.96716112  0.25000000  1.0
  Pb  Pb13  1  0.23141589  0.26425477  0.25000000  1.0
  Pb  Pb14  1  0.96716112  0.23141589  0.75000000  1.0
  Pb  Pb15  1  0.26425477  0.03283888  0.75000000  1.0
  Cl  Cl16  1  0.00000000  0.00000000  0.50000000  1.0
  Cl  Cl17  1  0.00000000  0.00000000  0.00000000  1.0
  O  O18  1  0.27674260  0.91331651  0.44251831  1.0
  O  O19  1  0.27674260  0.91331651  0.05748169  1.0
  O  O20  1  0.91331651  0.63657391  0.94251831  1.0
  O  O21  1  0.91331651  0.63657391  0.55748169  1.0
  O  O22  1  0.63657391  0.72325740  0.44251831  1.0
  O  O23  1  0.63657391  0.72325740  0.05748169  1.0
  O  O24  1  0.08668349  0.36342609  0.44251831  1.0
  O  O25  1  0.08668349  0.36342609  0.05748169  1.0
  O  O26  1  0.72325740  0.08668349  0.94251831  1.0
  O  O27  1  0.72325740  0.08668349  0.55748169  1.0
  O  O28  1  0.36342609  0.27674260  0.94251831  1.0
  O  O29  1  0.36342609  0.27674260  0.55748169  1.0
  O  O30  1  0.46852511  0.85225986  0.25000000  1.0
  O  O31  1  0.85225986  0.38373476  0.75000000  1.0
  O  O32  1  0.38373476  0.53147489  0.25000000  1.0
  O  O33  1  0.14774014  0.61626524  0.25000000  1.0
  O  O34  1  0.53147489  0.14774014  0.75000000  1.0
  O  O35  1  0.61626524  0.46852511  0.75000000  1.0
  O  O36  1  0.62799951  0.47307935  0.25000000  1.0
  O  O37  1  0.47307935  0.84507984  0.75000000  1.0
  O  O38  1  0.84507984  0.37200049  0.25000000  1.0
  O  O39  1  0.52692065  0.15492016  0.25000000  1.0
  O  O40  1  0.37200049  0.52692065  0.75000000  1.0
  O  O41  1  0.15492016  0.62799951  0.75000000  1.0
