# generated using pymatgen
data_YbOF
_symmetry_space_group_name_H-M   'P 1'
_cell_length_a   5.65766455
_cell_length_b   5.45019299
_cell_length_c   5.57888921
_cell_angle_alpha   90.00000000
_cell_angle_beta   100.06492212
_cell_angle_gamma   90.00000000
_symmetry_Int_Tables_number   1
_chemical_formula_structural   YbOF
_chemical_formula_sum   'Yb4 O4 F4'
_cell_volume   169.37964264
_cell_formula_units_Z   4
loop_
 _symmetry_equiv_pos_site_id
 _symmetry_equiv_pos_as_xyz
  1  'x, y, z'
loop_
 _atom_site_type_symbol
 _atom_site_label
 _atom_site_symmetry_multiplicity
 _atom_site_fract_x
 _atom_site_fract_y
 _atom_site_fract_z
 _atom_site_occupancy
  Yb  Yb0  1  0.69789412  0.47610343  0.28851868  1.0
  Yb  Yb1  1  0.69789412  0.02389657  0.78851868  1.0
  Yb  Yb2  1  0.30210588  0.97610343  0.21148132  1.0
  Yb  Yb3  1  0.30210588  0.52389657  0.71148132  1.0
  O  O4  1  0.46365418  0.24802287  0.49064344  1.0
  O  O5  1  0.46365418  0.25197713  0.99064344  1.0
  O  O6  1  0.53634582  0.74802287  0.00935656  1.0
  O  O7  1  0.53634582  0.75197713  0.50935656  1.0
  F  F8  1  0.94821942  0.19493469  0.13698410  1.0
  F  F9  1  0.94821942  0.30506531  0.63698410  1.0
  F  F10  1  0.05178058  0.69493469  0.36301590  1.0
  F  F11  1  0.05178058  0.80506531  0.86301590  1.0
