# generated using pymatgen
data_Tl2Cu3(SeO3)6
_symmetry_space_group_name_H-M   'P 1'
_cell_length_a   4.76819504
_cell_length_b   10.57454628
_cell_length_c   9.92885641
_cell_angle_alpha   68.08085765
_cell_angle_beta   81.69993277
_cell_angle_gamma   83.21598948
_symmetry_Int_Tables_number   1
_chemical_formula_structural   Tl2Cu3(SeO3)6
_chemical_formula_sum   'Tl2 Cu3 Se6 O18'
_cell_volume   458.44693253
_cell_formula_units_Z   1
loop_
 _symmetry_equiv_pos_site_id
 _symmetry_equiv_pos_as_xyz
  1  'x, y, z'
loop_
 _atom_site_type_symbol
 _atom_site_label
 _atom_site_symmetry_multiplicity
 _atom_site_fract_x
 _atom_site_fract_y
 _atom_site_fract_z
 _atom_site_occupancy
  Tl  Tl0  1  -0.57388025  -0.82349973  -0.67998771  1.0
  Tl  Tl1  1  -0.42611975  -0.17650027  -0.32001229  1.0
  Cu  Cu2  1  -0.80232634  -0.39714545  -0.48224008  1.0
  Cu  Cu3  1  -0.19767366  -0.60285455  -0.51775992  1.0
  Cu  Cu4  1  -0.00000000  -0.50000000  0.00000000  1.0
  Se  Se5  1  -0.94755617  -0.83646285  -0.92483544  1.0
  Se  Se6  1  -0.05244383  -0.16353715  -0.07516456  1.0
  Se  Se7  1  -0.66251238  -0.83496431  -0.35036568  1.0
  Se  Se8  1  -0.33748762  -0.16503569  -0.64963432  1.0
  Se  Se9  1  -0.62848306  -0.47604872  -0.76971907  1.0
  Se  Se10  1  -0.37151694  -0.52395128  -0.23028093  1.0
  O  O11  1  -1.00759907  -0.66652937  -0.03304002  1.0
  O  O12  1  0.00759907  -0.33347063  -0.96695998  1.0
  O  O13  1  -0.90408219  -0.47400962  -0.63029334  1.0
  O  O14  1  -0.09591781  -0.52599038  -0.36970666  1.0
  O  O15  1  -0.85919312  -0.77710248  -0.50059455  1.0
  O  O16  1  -0.14080688  -0.22289752  -0.49940545  1.0
  O  O17  1  -0.75101018  -0.58058639  -0.84610258  1.0
  O  O18  1  -0.24898982  -0.41941361  -0.15389742  1.0
  O  O19  1  -0.59661840  -0.85417984  -0.89344729  1.0
  O  O20  1  -0.40338160  -0.14582016  -0.10655271  1.0
  O  O21  1  -0.48100918  -0.69905152  -0.36381884  1.0
  O  O22  1  -0.51899082  -0.30094848  -0.63618116  1.0
  O  O23  1  -0.41087879  -0.93237892  -0.41787717  1.0
  O  O24  1  -0.58912121  -0.06762108  -0.58212283  1.0
  O  O25  1  -0.38445511  -0.60721633  -0.68005598  1.0
  O  O26  1  -0.61554489  -0.39278367  -0.31994402  1.0
  O  O27  1  -0.08927166  -0.85275347  -0.74891363  1.0
  O  O28  1  -0.91072834  -0.14724653  -0.25108637  1.0
