# generated using pymatgen
data_NiSbS
_symmetry_space_group_name_H-M   'P 1'
_cell_length_a   5.95908191
_cell_length_b   5.95908191
_cell_length_c   5.95908191
_cell_angle_alpha   90.00000000
_cell_angle_beta   90.00000000
_cell_angle_gamma   90.00000000
_symmetry_Int_Tables_number   1
_chemical_formula_structural   NiSbS
_chemical_formula_sum   'Ni4 Sb4 S4'
_cell_volume   211.61091489
_cell_formula_units_Z   4
loop_
 _symmetry_equiv_pos_site_id
 _symmetry_equiv_pos_as_xyz
  1  'x, y, z'
loop_
 _atom_site_type_symbol
 _atom_site_label
 _atom_site_symmetry_multiplicity
 _atom_site_fract_x
 _atom_site_fract_y
 _atom_site_fract_z
 _atom_site_occupancy
  Ni  Ni0  1  0.47994394  0.97994394  0.52005606  1.0
  Ni  Ni1  1  0.97994394  0.52005606  0.47994394  1.0
  Ni  Ni2  1  0.52005606  0.47994394  0.97994394  1.0
  Ni  Ni3  1  0.02005606  0.02005606  0.02005606  1.0
  Sb  Sb4  1  0.12956769  0.62956769  0.87043231  1.0
  Sb  Sb5  1  0.62956769  0.87043231  0.12956769  1.0
  Sb  Sb6  1  0.87043231  0.12956769  0.62956769  1.0
  Sb  Sb7  1  0.37043231  0.37043231  0.37043231  1.0
  S  S8  1  0.88060801  0.38060801  0.11939199  1.0
  S  S9  1  0.38060801  0.11939199  0.88060801  1.0
  S  S10  1  0.11939199  0.88060801  0.38060801  1.0
  S  S11  1  0.61939199  0.61939199  0.61939199  1.0
