# generated using pymatgen
data_TiSiRu
_symmetry_space_group_name_H-M   'P 1'
_cell_length_a   6.10492960
_cell_length_b   3.97039902
_cell_length_c   7.21614385
_cell_angle_alpha   90.00000000
_cell_angle_beta   90.00000000
_cell_angle_gamma   90.00000000
_symmetry_Int_Tables_number   1
_chemical_formula_structural   TiSiRu
_chemical_formula_sum   'Ti4 Si4 Ru4'
_cell_volume   174.91215789
_cell_formula_units_Z   4
loop_
 _symmetry_equiv_pos_site_id
 _symmetry_equiv_pos_as_xyz
  1  'x, y, z'
loop_
 _atom_site_type_symbol
 _atom_site_label
 _atom_site_symmetry_multiplicity
 _atom_site_fract_x
 _atom_site_fract_y
 _atom_site_fract_z
 _atom_site_occupancy
  Ti  Ti0  1  0.01473353  0.25000000  0.81282662  1.0
  Ti  Ti1  1  0.51473353  0.25000000  0.68717338  1.0
  Ti  Ti2  1  0.98526647  0.75000000  0.18717338  1.0
  Ti  Ti3  1  0.48526647  0.75000000  0.31282662  1.0
  Si  Si4  1  0.77688798  0.25000000  0.37620791  1.0
  Si  Si5  1  0.27688798  0.25000000  0.12379209  1.0
  Si  Si6  1  0.22311202  0.75000000  0.62379209  1.0
  Si  Si7  1  0.72311202  0.75000000  0.87620791  1.0
  Ru  Ru8  1  0.16447156  0.25000000  0.44521650  1.0
  Ru  Ru9  1  0.66447156  0.25000000  0.05478350  1.0
  Ru  Ru10  1  0.83552844  0.75000000  0.55478350  1.0
  Ru  Ru11  1  0.33552844  0.75000000  0.94521650  1.0
