# generated using pymatgen
data_BAsO4
_symmetry_space_group_name_H-M   'P 1'
_cell_length_a   4.73099564
_cell_length_b   4.73099564
_cell_length_c   4.73099564
_cell_angle_alpha   121.92715014
_cell_angle_beta   121.92715014
_cell_angle_gamma   86.69327892
_symmetry_Int_Tables_number   1
_chemical_formula_structural   BAsO4
_chemical_formula_sum   'B1 As1 O4'
_cell_volume   72.56344805
_cell_formula_units_Z   1
loop_
 _symmetry_equiv_pos_site_id
 _symmetry_equiv_pos_as_xyz
  1  'x, y, z'
loop_
 _atom_site_type_symbol
 _atom_site_label
 _atom_site_symmetry_multiplicity
 _atom_site_fract_x
 _atom_site_fract_y
 _atom_site_fract_z
 _atom_site_occupancy
  B  B0  1  -0.00000000  -0.00000000  -0.00000000  1.0
  As  As1  1  0.25000000  0.75000000  0.50000000  1.0
  O  O2  1  0.27430365  0.89540771  0.93771122  1.0
  O  O3  1  1.10459229  1.04230350  1.37889594  1.0
  O  O4  1  0.95769650  0.33659244  1.06228878  1.0
  O  O5  1  0.66340756  0.72569635  0.62110406  1.0
