# generated using pymatgen
data_K2Mn2Zn4Si4O15
_symmetry_space_group_name_H-M   'P 1'
_cell_length_a   9.54683915
_cell_length_b   9.54683915
_cell_length_c   9.54683915
_cell_angle_alpha   122.84161603
_cell_angle_beta   67.02798462
_cell_angle_gamma   147.99078787
_symmetry_Int_Tables_number   1
_chemical_formula_structural   K2Mn2Zn4Si4O15
_chemical_formula_sum   'K2 Mn2 Zn4 Si4 O15'
_cell_volume   382.73803834
_cell_formula_units_Z   1
loop_
 _symmetry_equiv_pos_site_id
 _symmetry_equiv_pos_as_xyz
  1  'x, y, z'
loop_
 _atom_site_type_symbol
 _atom_site_label
 _atom_site_symmetry_multiplicity
 _atom_site_fract_x
 _atom_site_fract_y
 _atom_site_fract_z
 _atom_site_occupancy
  K  K0  1  1.42865045  1.54494923  0.88370122  1.0
  K  K1  1  0.66124802  0.54494923  0.11629878  1.0
  O  O2  1  0.81003398  1.13889136  1.16827957  1.0
  O  O3  1  0.97061179  1.13889136  0.32885738  1.0
  O  O4  1  0.81003398  0.64175441  0.67114262  1.0
  O  O5  1  0.97061179  1.64175441  0.83172043  1.0
  O  O6  1  0.35764833  0.94564581  1.11538339  1.0
  O  O7  1  0.83026242  0.94564581  0.58799748  1.0
  O  O8  1  0.35764833  0.24226494  0.41200252  1.0
  O  O9  1  0.83026242  1.24226494  0.88461661  1.0
  O  O10  1  0.36541026  0.65087305  0.71453721  1.0
  O  O11  1  0.93633584  0.65087305  0.28546279  1.0
  O  O12  1  0.34062397  0.51746989  0.17684591  1.0
  O  O13  1  0.34062397  1.16377806  0.82315409  1.0
  O  O14  1  -0.06182536  -0.06182536  -0.00000000  1.0
  O  O15  1  0.60788742  1.01570347  0.59218395  1.0
  O  O16  1  1.42351951  1.01570347  0.40781605  1.0
  Zn  Zn17  1  0.75689242  1.26137868  1.11776613  1.0
  Zn  Zn18  1  1.14361256  1.26137868  0.50448626  1.0
  Zn  Zn19  1  0.75689242  0.63912629  0.49551374  1.0
  Zn  Zn20  1  1.14361256  1.63912629  0.88223387  1.0
  Mn  Mn21  1  0.58844111  0.92976287  0.34132177  1.0
  Mn  Mn22  1  0.58844111  1.24711934  0.65867823  1.0
  Si  Si23  1  0.65518650  0.96226768  0.69291882  1.0
  Si  Si24  1  1.26934886  0.96226768  0.30708118  1.0
  Si  Si25  1  0.03599268  0.20878642  0.17279374  1.0
  Si  Si26  1  0.03599268  0.86319893  0.82720626  1.0
