# generated using pymatgen
data_CsMo3I7
_symmetry_space_group_name_H-M   'P 1'
_cell_length_a   10.94668404
_cell_length_b   10.94668404
_cell_length_c   17.46447701
_cell_angle_alpha   90.00000000
_cell_angle_beta   90.00000000
_cell_angle_gamma   120.00000000
_symmetry_Int_Tables_number   1
_chemical_formula_structural   CsMo3I7
_chemical_formula_sum   'Cs4 Mo12 I28'
_cell_volume   1812.38885422
_cell_formula_units_Z   4
loop_
 _symmetry_equiv_pos_site_id
 _symmetry_equiv_pos_as_xyz
  1  'x, y, z'
loop_
 _atom_site_type_symbol
 _atom_site_label
 _atom_site_symmetry_multiplicity
 _atom_site_fract_x
 _atom_site_fract_y
 _atom_site_fract_z
 _atom_site_occupancy
  Cs  Cs0  1  0.66666667  0.33333333  0.25000000  1.0
  Cs  Cs1  1  0.33333333  0.66666667  0.75000000  1.0
  Cs  Cs2  1  0.00000000  0.00000000  0.00000000  1.0
  Cs  Cs3  1  0.00000000  0.00000000  0.50000000  1.0
  Mo  Mo4  1  0.33534505  0.80914578  0.18779750  1.0
  Mo  Mo5  1  0.33534505  0.52619928  0.31220250  1.0
  Mo  Mo6  1  0.80914578  0.33534505  0.68779750  1.0
  Mo  Mo7  1  0.80914578  0.47380072  0.81220250  1.0
  Mo  Mo8  1  0.47380072  0.80914578  0.31220250  1.0
  Mo  Mo9  1  0.47380072  0.66465495  0.18779750  1.0
  Mo  Mo10  1  0.19085422  0.66465495  0.31220250  1.0
  Mo  Mo11  1  0.19085422  0.52619928  0.18779750  1.0
  Mo  Mo12  1  0.66465495  0.47380072  0.68779750  1.0
  Mo  Mo13  1  0.66465495  0.19085422  0.81220250  1.0
  Mo  Mo14  1  0.52619928  0.33534505  0.81220250  1.0
  Mo  Mo15  1  0.52619928  0.19085422  0.68779750  1.0
  I  I16  1  0.32685876  0.95915331  0.31759671  1.0
  I  I17  1  0.32685876  0.36770544  0.18240329  1.0
  I  I18  1  0.95915331  0.32685876  0.81759671  1.0
  I  I19  1  0.95915331  0.63229456  0.68240329  1.0
  I  I20  1  0.63229456  0.95915331  0.18240329  1.0
  I  I21  1  0.63229456  0.67314124  0.31759671  1.0
  I  I22  1  0.04084669  0.67314124  0.18240329  1.0
  I  I23  1  0.04084669  0.36770544  0.31759671  1.0
  I  I24  1  0.67314124  0.63229456  0.81759671  1.0
  I  I25  1  0.67314124  0.04084669  0.68240329  1.0
  I  I26  1  0.36770544  0.32685876  0.68240329  1.0
  I  I27  1  0.36770544  0.04084669  0.81759671  1.0
  I  I28  1  0.68773220  0.65235868  0.09611503  1.0
  I  I29  1  0.68773220  0.03537352  0.40388497  1.0
  I  I30  1  0.65235868  0.68773220  0.59611503  1.0
  I  I31  1  0.65235868  0.96462648  0.90388497  1.0
  I  I32  1  0.96462648  0.65235868  0.40388497  1.0
  I  I33  1  0.96462648  0.31226780  0.09611503  1.0
  I  I34  1  0.34764132  0.31226780  0.40388497  1.0
  I  I35  1  0.34764132  0.03537352  0.09611503  1.0
  I  I36  1  0.31226780  0.96462648  0.59611503  1.0
  I  I37  1  0.31226780  0.34764132  0.90388497  1.0
  I  I38  1  0.03537352  0.68773220  0.90388497  1.0
  I  I39  1  0.03537352  0.34764132  0.59611503  1.0
  I  I40  1  0.33333333  0.66666667  0.05447618  1.0
  I  I41  1  0.33333333  0.66666667  0.44552382  1.0
  I  I42  1  0.66666667  0.33333333  0.55447618  1.0
  I  I43  1  0.66666667  0.33333333  0.94552382  1.0
