# generated using pymatgen
data_CsIOF4
_symmetry_space_group_name_H-M   'P 1'
_cell_length_a   6.41629691
_cell_length_b   6.29618602
_cell_length_c   15.79962312
_cell_angle_alpha   90.00000000
_cell_angle_beta   90.00000000
_cell_angle_gamma   90.00000000
_symmetry_Int_Tables_number   1
_chemical_formula_structural   CsIOF4
_chemical_formula_sum   'Cs4 I4 O4 F16'
_cell_volume   638.27631684
_cell_formula_units_Z   4
loop_
 _symmetry_equiv_pos_site_id
 _symmetry_equiv_pos_as_xyz
  1  'x, y, z'
loop_
 _atom_site_type_symbol
 _atom_site_label
 _atom_site_symmetry_multiplicity
 _atom_site_fract_x
 _atom_site_fract_y
 _atom_site_fract_z
 _atom_site_occupancy
  Cs  Cs0  1  0.73808641  0.75000000  0.60543792  1.0
  Cs  Cs1  1  0.23808641  0.75000000  0.89456208  1.0
  Cs  Cs2  1  0.26191359  0.25000000  0.39456208  1.0
  Cs  Cs3  1  0.76191359  0.25000000  0.10543792  1.0
  I  I4  1  0.71542605  0.75000000  0.34064745  1.0
  I  I5  1  0.21542605  0.75000000  0.15935255  1.0
  I  I6  1  0.28457395  0.25000000  0.65935255  1.0
  I  I7  1  0.78457395  0.25000000  0.84064745  1.0
  O  O8  1  0.98705933  0.75000000  0.09099889  1.0
  O  O9  1  0.48705933  0.75000000  0.40900111  1.0
  O  O10  1  0.01294067  0.25000000  0.90900111  1.0
  O  O11  1  0.51294067  0.25000000  0.59099889  1.0
  F  F12  1  0.85400640  0.97656975  0.41387641  1.0
  F  F13  1  0.85400640  0.52343025  0.41387641  1.0
  F  F14  1  0.35400640  0.97656975  0.08612359  1.0
  F  F15  1  0.35400640  0.52343025  0.08612359  1.0
  F  F16  1  0.14599360  0.47656975  0.58612359  1.0
  F  F17  1  0.14599360  0.02343025  0.58612359  1.0
  F  F18  1  0.64599360  0.47656975  0.91387641  1.0
  F  F19  1  0.64599360  0.02343025  0.91387641  1.0
  F  F20  1  0.57973126  0.97772524  0.26405712  1.0
  F  F21  1  0.57973126  0.52227476  0.26405712  1.0
  F  F22  1  0.07973126  0.97772524  0.23594288  1.0
  F  F23  1  0.07973126  0.52227476  0.23594288  1.0
  F  F24  1  0.42026874  0.47772524  0.73594288  1.0
  F  F25  1  0.42026874  0.02227476  0.73594288  1.0
  F  F26  1  0.92026874  0.47772524  0.76405712  1.0
  F  F27  1  0.92026874  0.02227476  0.76405712  1.0
