# generated using pymatgen
data_BH9(CO)3
_symmetry_space_group_name_H-M   'P 1'
_cell_length_a   7.24914888
_cell_length_b   7.24914888
_cell_length_c   7.21441922
_cell_angle_alpha   90.00000000
_cell_angle_beta   90.00000000
_cell_angle_gamma   120.00000000
_symmetry_Int_Tables_number   1
_chemical_formula_structural   BH9(CO)3
_chemical_formula_sum   'B2 H18 C6 O6'
_cell_volume   328.32658132
_cell_formula_units_Z   2
loop_
 _symmetry_equiv_pos_site_id
 _symmetry_equiv_pos_as_xyz
  1  'x, y, z'
loop_
 _atom_site_type_symbol
 _atom_site_label
 _atom_site_symmetry_multiplicity
 _atom_site_fract_x
 _atom_site_fract_y
 _atom_site_fract_z
 _atom_site_occupancy
  B  B0  1  0.00000000  0.00000000  0.25000000  1.0
  B  B1  1  0.00000000  0.00000000  0.75000000  1.0
  H  H2  1  0.06986639  0.58108164  0.25000000  1.0
  H  H3  1  0.51121525  0.93013361  0.25000000  1.0
  H  H4  1  0.41891836  0.48878475  0.25000000  1.0
  H  H5  1  0.93013361  0.41891836  0.75000000  1.0
  H  H6  1  0.48878475  0.06986639  0.75000000  1.0
  H  H7  1  0.58108164  0.51121525  0.75000000  1.0
  H  H8  1  0.86232706  0.59261466  0.37420023  1.0
  H  H9  1  0.73028760  0.13767294  0.37420023  1.0
  H  H10  1  0.40738534  0.26971240  0.37420023  1.0
  H  H11  1  0.13767294  0.40738534  0.87420023  1.0
  H  H12  1  0.26971240  0.86232706  0.87420023  1.0
  H  H13  1  0.59261466  0.73028760  0.87420023  1.0
  H  H14  1  0.13767294  0.40738534  0.62579977  1.0
  H  H15  1  0.26971240  0.86232706  0.62579977  1.0
  H  H16  1  0.59261466  0.73028760  0.62579977  1.0
  H  H17  1  0.86232706  0.59261466  0.12579977  1.0
  H  H18  1  0.73028760  0.13767294  0.12579977  1.0
  H  H19  1  0.40738534  0.26971240  0.12579977  1.0
  C  C20  1  0.96361368  0.64800689  0.25000000  1.0
  C  C21  1  0.68439321  0.03638632  0.25000000  1.0
  C  C22  1  0.35199311  0.31560679  0.25000000  1.0
  C  C23  1  0.03638632  0.35199311  0.75000000  1.0
  C  C24  1  0.31560679  0.96361368  0.75000000  1.0
  C  C25  1  0.64800689  0.68439321  0.75000000  1.0
  O  O26  1  0.78182779  0.90637970  0.25000000  1.0
  O  O27  1  0.12455190  0.21817221  0.25000000  1.0
  O  O28  1  0.09362030  0.87544810  0.25000000  1.0
  O  O29  1  0.21817221  0.09362030  0.75000000  1.0
  O  O30  1  0.87544810  0.78182779  0.75000000  1.0
  O  O31  1  0.90637970  0.12455190  0.75000000  1.0
