# generated using pymatgen
data_Ta9(FeS3)2
_symmetry_space_group_name_H-M   'P 1'
_cell_length_a   10.41020425
_cell_length_b   10.41020425
_cell_length_c   6.60143384
_cell_angle_alpha   90.00000000
_cell_angle_beta   90.00000000
_cell_angle_gamma   120.00000000
_symmetry_Int_Tables_number   1
_chemical_formula_structural   Ta9(FeS3)2
_chemical_formula_sum   'Ta18 Fe4 S12'
_cell_volume   619.56575848
_cell_formula_units_Z   2
loop_
 _symmetry_equiv_pos_site_id
 _symmetry_equiv_pos_as_xyz
  1  'x, y, z'
loop_
 _atom_site_type_symbol
 _atom_site_label
 _atom_site_symmetry_multiplicity
 _atom_site_fract_x
 _atom_site_fract_y
 _atom_site_fract_z
 _atom_site_occupancy
  Ta  Ta0  1  0.21655931  0.74365733  0.50000000  1.0
  Ta  Ta1  1  0.74365733  0.21655931  0.50000000  1.0
  Ta  Ta2  1  0.52709802  0.78344069  0.50000000  1.0
  Ta  Ta3  1  0.25634267  0.47290198  0.50000000  1.0
  Ta  Ta4  1  0.78344069  0.52709802  0.50000000  1.0
  Ta  Ta5  1  0.47290198  0.25634267  0.50000000  1.0
  Ta  Ta6  1  0.19058810  0.73505807  0.00000000  1.0
  Ta  Ta7  1  0.73505807  0.19058810  0.00000000  1.0
  Ta  Ta8  1  0.54446997  0.80941190  0.00000000  1.0
  Ta  Ta9  1  0.26494193  0.45553003  0.00000000  1.0
  Ta  Ta10  1  0.80941190  0.54446997  0.00000000  1.0
  Ta  Ta11  1  0.45553003  0.26494193  0.00000000  1.0
  Ta  Ta12  1  0.54053747  0.54053747  0.74600182  1.0
  Ta  Ta13  1  0.54053747  0.54053747  0.25399818  1.0
  Ta  Ta14  1  0.00000000  0.45946253  0.74600182  1.0
  Ta  Ta15  1  0.00000000  0.45946253  0.25399818  1.0
  Ta  Ta16  1  0.45946253  0.00000000  0.74600182  1.0
  Ta  Ta17  1  0.45946253  0.00000000  0.25399818  1.0
  Fe  Fe18  1  0.33333333  0.66666667  0.78332928  1.0
  Fe  Fe19  1  0.33333333  0.66666667  0.21667072  1.0
  Fe  Fe20  1  0.66666667  0.33333333  0.78332928  1.0
  Fe  Fe21  1  0.66666667  0.33333333  0.21667072  1.0
  S  S22  1  0.29828658  0.29828658  0.73366771  1.0
  S  S23  1  0.29828658  0.29828658  0.26633229  1.0
  S  S24  1  0.00000000  0.70171342  0.73366771  1.0
  S  S25  1  0.00000000  0.70171342  0.26633229  1.0
  S  S26  1  0.70171342  0.00000000  0.73366771  1.0
  S  S27  1  0.70171342  0.00000000  0.26633229  1.0
  S  S28  1  0.72377967  0.72377967  0.50000000  1.0
  S  S29  1  -0.00000000  0.27622033  0.50000000  1.0
  S  S30  1  0.27622033  0.00000000  0.50000000  1.0
  S  S31  1  0.72135128  0.72135128  0.00000000  1.0
  S  S32  1  -0.00000000  0.27864872  0.00000000  1.0
  S  S33  1  0.27864872  0.00000000  0.00000000  1.0
