# generated using pymatgen
data_Na4TiAs2O9
_symmetry_space_group_name_H-M   'P 1'
_cell_length_a   8.87261795
_cell_length_b   8.87261795
_cell_length_c   7.91146433
_cell_angle_alpha   89.87656466
_cell_angle_beta   90.12343534
_cell_angle_gamma   131.65287662
_symmetry_Int_Tables_number   1
_chemical_formula_structural   Na4TiAs2O9
_chemical_formula_sum   'Na8 Ti2 As4 O18'
_cell_volume   465.35823429
_cell_formula_units_Z   2
loop_
 _symmetry_equiv_pos_site_id
 _symmetry_equiv_pos_as_xyz
  1  'x, y, z'
loop_
 _atom_site_type_symbol
 _atom_site_label
 _atom_site_symmetry_multiplicity
 _atom_site_fract_x
 _atom_site_fract_y
 _atom_site_fract_z
 _atom_site_occupancy
  Na  Na0  1  0.87465668  -0.87465668  0.28032139  1.0
  Na  Na1  1  1.12534332  -0.12534332  0.71967861  1.0
  Na  Na2  1  1.39272059  -0.39272059  0.75985106  1.0
  Na  Na3  1  0.60727941  -0.60727941  0.24014894  1.0
  Na  Na4  1  0.75462823  0.75462823  0.00000000  1.0
  Na  Na5  1  0.24537177  0.24537177  -0.00000000  1.0
  Na  Na6  1  1.50000000  0.00000000  0.50000000  1.0
  Na  Na7  1  1.00000000  -0.50000000  0.50000000  1.0
  Ti  Ti8  1  1.50000000  -0.00000000  0.00000000  1.0
  Ti  Ti9  1  1.00000000  -0.50000000  0.00000000  1.0
  As  As10  1  0.88770357  -0.88770357  0.76132248  1.0
  As  As11  1  1.11229643  -0.11229643  0.23867752  1.0
  As  As12  1  0.63059116  -0.63059116  0.72401593  1.0
  As  As13  1  1.36940884  -0.36940884  0.27598407  1.0
  O  O14  1  1.65625259  -0.05621550  0.87197393  1.0
  O  O15  1  1.05621550  -0.65625259  0.87197393  1.0
  O  O16  1  0.94378450  -0.34374741  0.12802607  1.0
  O  O17  1  1.34374741  0.05621550  0.12802607  1.0
  O  O18  1  1.48135385  0.11466674  0.78930801  1.0
  O  O19  1  0.88533326  -0.48135385  0.78930801  1.0
  O  O20  1  1.11466674  -0.51864615  0.21069199  1.0
  O  O21  1  1.51864615  -0.11466674  0.21069199  1.0
  O  O22  1  0.99272566  -0.99272566  0.78596672  1.0
  O  O23  1  1.00727434  -0.00727434  0.21403328  1.0
  O  O24  1  0.84425150  -0.84425150  0.56388934  1.0
  O  O25  1  1.15574850  -0.15574850  0.43611066  1.0
  O  O26  1  0.64258224  -0.64258224  0.50952583  1.0
  O  O27  1  1.35741776  -0.35741776  0.49047417  1.0
  O  O28  1  0.53491729  -0.53491729  0.81640839  1.0
  O  O29  1  1.46508271  -0.46508271  0.18359161  1.0
  O  O30  1  1.25821715  -0.25821715  0.93341117  1.0
  O  O31  1  0.74178285  -0.74178285  0.06658883  1.0
