# generated using pymatgen
data_C3S7O
_symmetry_space_group_name_H-M   'P 1'
_cell_length_a   9.39157993
_cell_length_b   5.03052456
_cell_length_c   12.96876431
_cell_angle_alpha   100.93873720
_cell_angle_beta   100.97629103
_cell_angle_gamma   88.57247006
_symmetry_Int_Tables_number   1
_chemical_formula_structural   C3S7O
_chemical_formula_sum   'C6 S14 O2'
_cell_volume   590.52619414
_cell_formula_units_Z   2
loop_
 _symmetry_equiv_pos_site_id
 _symmetry_equiv_pos_as_xyz
  1  'x, y, z'
loop_
 _atom_site_type_symbol
 _atom_site_label
 _atom_site_symmetry_multiplicity
 _atom_site_fract_x
 _atom_site_fract_y
 _atom_site_fract_z
 _atom_site_occupancy
  C  C0  1  -0.78241628  -0.61257919  -0.67885699  1.0
  C  C1  1  -0.21758372  -0.38742081  -0.32114301  1.0
  C  C2  1  -0.97630970  -0.67570749  -0.32089310  1.0
  C  C3  1  -0.02369030  -0.32429251  -0.67910690  1.0
  C  C4  1  -0.85058625  -0.65358883  -0.78391983  1.0
  C  C5  1  -0.14941375  -0.34641117  -0.21608017  1.0
  S  S6  1  -0.44276997  -0.82254089  -0.81965643  1.0
  S  S7  1  -0.55723003  -0.17745911  -0.18034357  1.0
  S  S8  1  -0.79740427  -0.87589059  -0.89230506  1.0
  S  S9  1  -0.20259573  -0.12410941  -0.10769494  1.0
  S  S10  1  -0.62379722  -0.77337390  -0.62476543  1.0
  S  S11  1  -0.37620278  -0.22662610  -0.37523457  1.0
  S  S12  1  -0.86561565  -0.39496349  -0.58691154  1.0
  S  S13  1  -0.13438435  -0.60503651  -0.41308846  1.0
  S  S14  1  -0.98647944  -0.51541055  -0.18638186  1.0
  S  S15  1  -0.01352056  -0.48458945  -0.81361814  1.0
  S  S16  1  -0.45645107  -0.59374035  -0.67100106  1.0
  S  S17  1  -0.54354893  -0.40625965  -0.32899894  1.0
  S  S18  1  -0.61773642  -0.69191699  -0.92079248  1.0
  S  S19  1  -0.38226358  -0.30808301  -0.07920752  1.0
  O  O20  1  -0.87771034  -0.81870889  -0.34550089  1.0
  O  O21  1  -0.12228966  -0.18129111  -0.65449911  1.0
