# generated using pymatgen
data_CsTa3(SeO6)2
_symmetry_space_group_name_H-M   'P 1'
_cell_length_a   5.59244467
_cell_length_b   5.59244467
_cell_length_c   10.96559331
_cell_angle_alpha   90.00000000
_cell_angle_beta   90.00000000
_cell_angle_gamma   120.00000000
_symmetry_Int_Tables_number   1
_chemical_formula_structural   CsTa3(SeO6)2
_chemical_formula_sum   'Cs1 Ta3 Se2 O12'
_cell_volume   297.00663945
_cell_formula_units_Z   1
loop_
 _symmetry_equiv_pos_site_id
 _symmetry_equiv_pos_as_xyz
  1  'x, y, z'
loop_
 _atom_site_type_symbol
 _atom_site_label
 _atom_site_symmetry_multiplicity
 _atom_site_fract_x
 _atom_site_fract_y
 _atom_site_fract_z
 _atom_site_occupancy
  Cs  Cs0  1  -0.00000000  -0.00000000  0.50000000  1.0
  Ta  Ta1  1  0.33333333  0.66666667  0.19497226  1.0
  Ta  Ta2  1  0.66666667  0.33333333  0.80502774  1.0
  Ta  Ta3  1  0.00000000  0.00000000  0.00000000  1.0
  Se  Se4  1  0.33333333  0.66666667  0.75348703  1.0
  Se  Se5  1  0.66666667  0.33333333  0.24651297  1.0
  O  O6  1  0.66812063  0.83406032  0.10595904  1.0
  O  O7  1  0.83406032  0.66812063  0.89404096  1.0
  O  O8  1  0.83406032  0.16593968  0.89404096  1.0
  O  O9  1  0.16593968  0.83406032  0.10595904  1.0
  O  O10  1  0.16593968  0.33187937  0.10595904  1.0
  O  O11  1  0.33187937  0.16593968  0.89404096  1.0
  O  O12  1  0.98706610  0.49353305  0.31844807  1.0
  O  O13  1  0.49353305  0.98706610  0.68155193  1.0
  O  O14  1  0.49353305  0.50646695  0.68155193  1.0
  O  O15  1  0.50646695  0.49353305  0.31844807  1.0
  O  O16  1  0.50646695  0.01293390  0.31844807  1.0
  O  O17  1  0.01293390  0.50646695  0.68155193  1.0
