# generated using pymatgen
data_Cs3MnBr5
_symmetry_space_group_name_H-M   'P 1'
_cell_length_a   10.49357404
_cell_length_b   10.49357404
_cell_length_c   10.49357404
_cell_angle_alpha   123.79414368
_cell_angle_beta   123.79414368
_cell_angle_gamma   83.54508519
_symmetry_Int_Tables_number   1
_chemical_formula_structural   Cs3MnBr5
_chemical_formula_sum   'Cs6 Mn2 Br10'
_cell_volume   764.88615437
_cell_formula_units_Z   2
loop_
 _symmetry_equiv_pos_site_id
 _symmetry_equiv_pos_as_xyz
  1  'x, y, z'
loop_
 _atom_site_type_symbol
 _atom_site_label
 _atom_site_symmetry_multiplicity
 _atom_site_fract_x
 _atom_site_fract_y
 _atom_site_fract_z
 _atom_site_occupancy
  Cs  Cs0  1  0.75000000  0.75000000  1.00000000  1.0
  Cs  Cs1  1  0.25000000  0.25000000  0.00000000  1.0
  Cs  Cs2  1  0.83631778  0.33631778  1.17263556  1.0
  Cs  Cs3  1  0.66368222  0.83631778  1.50000000  1.0
  Cs  Cs4  1  0.33631778  0.16368222  0.50000000  1.0
  Cs  Cs5  1  0.16368222  0.66368222  0.82736444  1.0
  Mn  Mn6  1  0.25000000  0.75000000  0.50000000  1.0
  Mn  Mn7  1  0.75000000  0.25000000  0.50000000  1.0
  Br  Br8  1  1.20484806  0.70484806  1.21671688  1.0
  Br  Br9  1  0.51186882  1.01186882  1.21671688  1.0
  Br  Br10  1  0.98813118  1.20484806  1.50000000  1.0
  Br  Br11  1  0.29515194  0.51186882  0.50000000  1.0
  Br  Br12  1  0.70484806  0.48813118  0.50000000  1.0
  Br  Br13  1  1.01186882  0.79515194  1.50000000  1.0
  Br  Br14  1  0.48813118  0.98813118  0.78328312  1.0
  Br  Br15  1  0.79515194  0.29515194  0.78328312  1.0
  Br  Br16  1  0.00000000  0.00000000  0.00000000  1.0
  Br  Br17  1  0.50000000  0.50000000  1.00000000  1.0
