# generated using pymatgen
data_Gd2Fe2Br
_symmetry_space_group_name_H-M   'P 1'
_cell_length_a   3.91824260
_cell_length_b   3.91824260
_cell_length_c   16.79289354
_cell_angle_alpha   90.00000000
_cell_angle_beta   90.00000000
_cell_angle_gamma   120.00000000
_symmetry_Int_Tables_number   1
_chemical_formula_structural   Gd2Fe2Br
_chemical_formula_sum   'Gd4 Fe4 Br2'
_cell_volume   223.27433864
_cell_formula_units_Z   2
loop_
 _symmetry_equiv_pos_site_id
 _symmetry_equiv_pos_as_xyz
  1  'x, y, z'
loop_
 _atom_site_type_symbol
 _atom_site_label
 _atom_site_symmetry_multiplicity
 _atom_site_fract_x
 _atom_site_fract_y
 _atom_site_fract_z
 _atom_site_occupancy
  Gd  Gd0  1  0.00000000  0.00000000  0.38956835  1.0
  Gd  Gd1  1  0.00000000  0.00000000  0.11043165  1.0
  Gd  Gd2  1  0.00000000  0.00000000  0.88956835  1.0
  Gd  Gd3  1  0.00000000  0.00000000  0.61043165  1.0
  Fe  Fe4  1  0.33333333  0.66666667  0.99718763  1.0
  Fe  Fe5  1  0.33333333  0.66666667  0.50281237  1.0
  Fe  Fe6  1  0.66666667  0.33333333  0.49718763  1.0
  Fe  Fe7  1  0.66666667  0.33333333  0.00281237  1.0
  Br  Br8  1  0.33333333  0.66666667  0.25000000  1.0
  Br  Br9  1  0.66666667  0.33333333  0.75000000  1.0
