# generated using pymatgen
data_Si
_symmetry_space_group_name_H-M   'P 1'
_cell_length_a   5.94205521
_cell_length_b   5.94205521
_cell_length_c   10.61294863
_cell_angle_alpha   90.00000000
_cell_angle_beta   90.00000000
_cell_angle_gamma   90.00000000
_symmetry_Int_Tables_number   1
_chemical_formula_structural   Si
_chemical_formula_sum   Si16
_cell_volume   374.72220340
_cell_formula_units_Z   16
loop_
 _symmetry_equiv_pos_site_id
 _symmetry_equiv_pos_as_xyz
  1  'x, y, z'
loop_
 _atom_site_type_symbol
 _atom_site_label
 _atom_site_symmetry_multiplicity
 _atom_site_fract_x
 _atom_site_fract_y
 _atom_site_fract_z
 _atom_site_occupancy
  Si  Si0  1  0.30088193  0.50000000  0.38827583  1.0
  Si  Si1  1  0.69911807  0.50000000  0.38827583  1.0
  Si  Si2  1  0.50000000  0.30088193  0.88827583  1.0
  Si  Si3  1  0.50000000  0.69911807  0.88827583  1.0
  Si  Si4  1  0.69911807  0.50000000  0.61172417  1.0
  Si  Si5  1  0.30088193  0.50000000  0.61172417  1.0
  Si  Si6  1  0.50000000  0.30088193  0.11172417  1.0
  Si  Si7  1  0.50000000  0.69911807  0.11172417  1.0
  Si  Si8  1  0.20101058  0.20101058  0.75000000  1.0
  Si  Si9  1  0.79898942  0.79898942  0.75000000  1.0
  Si  Si10  1  0.79898942  0.20101058  0.25000000  1.0
  Si  Si11  1  0.20101058  0.79898942  0.25000000  1.0
  Si  Si12  1  0.79898942  0.79898942  0.25000000  1.0
  Si  Si13  1  0.20101058  0.20101058  0.25000000  1.0
  Si  Si14  1  0.20101058  0.79898942  0.75000000  1.0
  Si  Si15  1  0.79898942  0.20101058  0.75000000  1.0
