# generated using pymatgen
data_TlSb4F13
_symmetry_space_group_name_H-M   'P 1'
_cell_length_a   7.72322696
_cell_length_b   7.72322696
_cell_length_c   7.72322696
_cell_angle_alpha   100.49879615
_cell_angle_beta   100.49879615
_cell_angle_gamma   129.46229300
_symmetry_Int_Tables_number   1
_chemical_formula_structural   TlSb4F13
_chemical_formula_sum   'Tl1 Sb4 F13'
_cell_volume   321.63070527
_cell_formula_units_Z   1
loop_
 _symmetry_equiv_pos_site_id
 _symmetry_equiv_pos_as_xyz
  1  'x, y, z'
loop_
 _atom_site_type_symbol
 _atom_site_label
 _atom_site_symmetry_multiplicity
 _atom_site_fract_x
 _atom_site_fract_y
 _atom_site_fract_z
 _atom_site_occupancy
  Tl  Tl0  1  0.75000000  0.25000000  0.50000000  1.0
  Sb  Sb1  1  1.25783170  1.44464319  1.21172164  1.0
  Sb  Sb2  1  0.95388994  1.74216830  1.18681148  1.0
  Sb  Sb3  1  1.23292155  1.04611006  0.78827836  1.0
  Sb  Sb4  1  1.55535681  0.76707845  0.81318852  1.0
  F  F5  1  0.57007030  0.51405895  0.78493486  1.0
  F  F6  1  1.21486456  0.42992970  0.94398865  1.0
  F  F7  1  0.72912408  0.78513544  1.21506514  1.0
  F  F8  1  0.48594105  1.27087592  1.05601135  1.0
  F  F9  1  1.71780481  1.87393285  1.63358663  1.0
  F  F10  1  0.91578182  1.28219519  1.15612804  1.0
  F  F11  1  1.24034622  1.08421818  0.36641337  1.0
  F  F12  1  1.12606715  0.75965378  0.84387196  1.0
  F  F13  1  1.24868849  1.51587727  1.57121189  1.0
  F  F14  1  1.32252340  1.75131151  1.26718878  1.0
  F  F15  1  0.94466538  0.67747660  0.42878811  1.0
  F  F16  1  1.48412273  1.05533462  0.73281122  1.0
  F  F17  1  0.00000000  0.00000000  0.00000000  1.0
