# generated using pymatgen
data_Rb2Ba6Sb5HO
_symmetry_space_group_name_H-M   'P 1'
_cell_length_a   15.61893402
_cell_length_b   15.61893402
_cell_length_c   15.61893402
_cell_angle_alpha   146.89260536
_cell_angle_beta   146.89260536
_cell_angle_gamma   47.52282386
_symmetry_Int_Tables_number   1
_chemical_formula_structural   Rb2Ba6Sb5HO
_chemical_formula_sum   'Rb4 Ba12 Sb10 H2 O2'
_cell_volume   1132.32744593
_cell_formula_units_Z   2
loop_
 _symmetry_equiv_pos_site_id
 _symmetry_equiv_pos_as_xyz
  1  'x, y, z'
loop_
 _atom_site_type_symbol
 _atom_site_label
 _atom_site_symmetry_multiplicity
 _atom_site_fract_x
 _atom_site_fract_y
 _atom_site_fract_z
 _atom_site_occupancy
  Rb  Rb0  1  0.33360050  0.83360050  1.16720099  1.0
  Rb  Rb1  1  0.16639950  0.33360050  0.50000000  1.0
  Rb  Rb2  1  0.83360050  0.66639950  1.50000000  1.0
  Rb  Rb3  1  0.66639950  0.16639950  0.83279901  1.0
  Ba  Ba4  1  1.14869913  0.64869913  1.18521345  1.0
  Ba  Ba5  1  0.53651431  1.03651431  1.18521345  1.0
  Ba  Ba6  1  0.96348569  1.14869913  1.50000000  1.0
  Ba  Ba7  1  0.35130087  0.53651431  0.50000000  1.0
  Ba  Ba8  1  0.64869913  0.46348569  0.50000000  1.0
  Ba  Ba9  1  1.03651431  0.85130087  1.50000000  1.0
  Ba  Ba10  1  0.46348569  0.96348569  0.81478655  1.0
  Ba  Ba11  1  0.85130087  0.35130087  0.81478655  1.0
  Ba  Ba12  1  0.90734216  0.90734216  1.00000000  1.0
  Ba  Ba13  1  0.09265784  0.09265784  -0.00000000  1.0
  Ba  Ba14  1  0.40734216  0.40734216  0.00000000  1.0
  Ba  Ba15  1  0.59265784  0.59265784  1.00000000  1.0
  Sb  Sb16  1  0.78039764  1.28039764  1.26701507  1.0
  Sb  Sb17  1  0.98661744  0.48661744  1.26701507  1.0
  Sb  Sb18  1  0.51338256  0.78039764  0.50000000  1.0
  Sb  Sb19  1  0.71960236  0.98661744  1.50000000  1.0
  Sb  Sb20  1  1.28039764  1.01338256  1.50000000  1.0
  Sb  Sb21  1  0.48661744  0.21960236  0.50000000  1.0
  Sb  Sb22  1  1.01338256  0.51338256  0.73298493  1.0
  Sb  Sb23  1  0.21960236  0.71960236  0.73298493  1.0
  Sb  Sb24  1  0.75000000  0.75000000  1.00000000  1.0
  Sb  Sb25  1  0.25000000  0.25000000  -0.00000000  1.0
  H  H26  1  0.00000000  0.00000000  0.00000000  1.0
  H  H27  1  0.50000000  0.50000000  1.00000000  1.0
  O  O28  1  0.25000000  0.75000000  0.50000000  1.0
  O  O29  1  0.75000000  0.25000000  0.50000000  1.0
