# generated using pymatgen
data_K2LiScCl6
_symmetry_space_group_name_H-M   'P 1'
_cell_length_a   10.11836374
_cell_length_b   10.11836374
_cell_length_c   10.11814941
_cell_angle_alpha   90.00000000
_cell_angle_beta   90.00000000
_cell_angle_gamma   90.00000000
_symmetry_Int_Tables_number   1
_chemical_formula_structural   K2LiScCl6
_chemical_formula_sum   'K8 Li4 Sc4 Cl24'
_cell_volume   1035.90913578
_cell_formula_units_Z   4
loop_
 _symmetry_equiv_pos_site_id
 _symmetry_equiv_pos_as_xyz
  1  'x, y, z'
loop_
 _atom_site_type_symbol
 _atom_site_label
 _atom_site_symmetry_multiplicity
 _atom_site_fract_x
 _atom_site_fract_y
 _atom_site_fract_z
 _atom_site_occupancy
  K  K0  1  0.75057184  0.74942816  0.25002816  1.0
  K  K1  1  0.75057184  0.25057184  0.74997184  1.0
  K  K2  1  0.25057184  0.24942816  0.74997184  1.0
  K  K3  1  0.25057184  0.75057184  0.25002816  1.0
  K  K4  1  0.74942816  0.75057184  0.74997184  1.0
  K  K5  1  0.74942816  0.24942816  0.25002816  1.0
  K  K6  1  0.24942816  0.25057184  0.25002816  1.0
  K  K7  1  0.24942816  0.74942816  0.74997184  1.0
  Li  Li8  1  0.50000000  0.00000000  0.00000000  1.0
  Li  Li9  1  0.00000000  0.50000000  0.00000000  1.0
  Li  Li10  1  0.00000000  0.00000000  0.50000000  1.0
  Li  Li11  1  0.50000000  0.50000000  0.50000000  1.0
  Sc  Sc12  1  0.50000000  0.00000000  0.50000000  1.0
  Sc  Sc13  1  0.00000000  0.50000000  0.50000000  1.0
  Sc  Sc14  1  0.00000000  0.00000000  0.00000000  1.0
  Sc  Sc15  1  0.50000000  0.50000000  0.00000000  1.0
  Cl  Cl16  1  0.74629860  0.00000000  0.50000000  1.0
  Cl  Cl17  1  0.24629860  0.50000000  0.50000000  1.0
  Cl  Cl18  1  0.00000000  0.74629860  0.50000000  1.0
  Cl  Cl19  1  0.00000000  0.25370140  0.50000000  1.0
  Cl  Cl20  1  0.50000000  0.24629860  0.50000000  1.0
  Cl  Cl21  1  0.50000000  0.75370140  0.50000000  1.0
  Cl  Cl22  1  0.75370140  0.50000000  0.50000000  1.0
  Cl  Cl23  1  0.25370140  0.00000000  0.50000000  1.0
  Cl  Cl24  1  0.24628703  0.00000000  0.00000000  1.0
  Cl  Cl25  1  0.74628703  0.50000000  0.00000000  1.0
  Cl  Cl26  1  0.00000000  0.24628703  0.00000000  1.0
  Cl  Cl27  1  0.00000000  0.75371297  0.00000000  1.0
  Cl  Cl28  1  0.50000000  0.74628703  0.00000000  1.0
  Cl  Cl29  1  0.50000000  0.25371297  0.00000000  1.0
  Cl  Cl30  1  0.25371297  0.50000000  0.00000000  1.0
  Cl  Cl31  1  0.75371297  0.00000000  0.00000000  1.0
  Cl  Cl32  1  0.50000000  0.00000000  0.25368365  1.0
  Cl  Cl33  1  0.50000000  0.00000000  0.74631635  1.0
  Cl  Cl34  1  0.00000000  0.50000000  0.74631635  1.0
  Cl  Cl35  1  0.00000000  0.50000000  0.25368365  1.0
  Cl  Cl36  1  0.00000000  0.00000000  0.24632431  1.0
  Cl  Cl37  1  0.00000000  0.00000000  0.75367569  1.0
  Cl  Cl38  1  0.50000000  0.50000000  0.75367569  1.0
  Cl  Cl39  1  0.50000000  0.50000000  0.24632431  1.0
