# generated using pymatgen
data_YIn2Ni9
_symmetry_space_group_name_H-M   'P 1'
_cell_length_a   8.25694449
_cell_length_b   8.25694449
_cell_length_c   4.83527651
_cell_angle_alpha   90.00000000
_cell_angle_beta   90.00000000
_cell_angle_gamma   90.00000000
_symmetry_Int_Tables_number   1
_chemical_formula_structural   YIn2Ni9
_chemical_formula_sum   'Y2 In4 Ni18'
_cell_volume   329.65528632
_cell_formula_units_Z   2
loop_
 _symmetry_equiv_pos_site_id
 _symmetry_equiv_pos_as_xyz
  1  'x, y, z'
loop_
 _atom_site_type_symbol
 _atom_site_label
 _atom_site_symmetry_multiplicity
 _atom_site_fract_x
 _atom_site_fract_y
 _atom_site_fract_z
 _atom_site_occupancy
  Y  Y0  1  0.50000000  0.50000000  0.00000000  1.0
  Y  Y1  1  0.00000000  0.00000000  0.00000000  1.0
  In  In2  1  0.87510417  0.62489583  0.00000000  1.0
  In  In3  1  0.37510417  0.87510417  0.00000000  1.0
  In  In4  1  0.12489583  0.37510417  0.00000000  1.0
  In  In5  1  0.62489583  0.12489583  0.00000000  1.0
  Ni  Ni6  1  0.32362422  0.17637578  0.75125579  1.0
  Ni  Ni7  1  0.32362422  0.17637578  0.24874421  1.0
  Ni  Ni8  1  0.82362422  0.32362422  0.75125579  1.0
  Ni  Ni9  1  0.82362422  0.32362422  0.24874421  1.0
  Ni  Ni10  1  0.67637578  0.82362422  0.75125579  1.0
  Ni  Ni11  1  0.67637578  0.82362422  0.24874421  1.0
  Ni  Ni12  1  0.17637578  0.67637578  0.75125579  1.0
  Ni  Ni13  1  0.17637578  0.67637578  0.24874421  1.0
  Ni  Ni14  1  0.43591755  0.70631131  0.50000000  1.0
  Ni  Ni15  1  0.93591755  0.79368869  0.50000000  1.0
  Ni  Ni16  1  0.29368869  0.43591755  0.50000000  1.0
  Ni  Ni17  1  0.79368869  0.06408245  0.50000000  1.0
  Ni  Ni18  1  0.56408245  0.29368869  0.50000000  1.0
  Ni  Ni19  1  0.06408245  0.20631131  0.50000000  1.0
  Ni  Ni20  1  0.70631131  0.56408245  0.50000000  1.0
  Ni  Ni21  1  0.20631131  0.93591755  0.50000000  1.0
  Ni  Ni22  1  0.50000000  0.00000000  0.50000000  1.0
  Ni  Ni23  1  0.00000000  0.50000000  0.50000000  1.0
