# generated using pymatgen
data_CaTa2O6
_symmetry_space_group_name_H-M   'P 1'
_cell_length_a   7.84399035
_cell_length_b   7.84399035
_cell_length_c   7.84399035
_cell_angle_alpha   90.00000000
_cell_angle_beta   90.00000000
_cell_angle_gamma   90.00000000
_symmetry_Int_Tables_number   1
_chemical_formula_structural   CaTa2O6
_chemical_formula_sum   'Ca4 Ta8 O24'
_cell_volume   482.62648706
_cell_formula_units_Z   4
loop_
 _symmetry_equiv_pos_site_id
 _symmetry_equiv_pos_as_xyz
  1  'x, y, z'
loop_
 _atom_site_type_symbol
 _atom_site_label
 _atom_site_symmetry_multiplicity
 _atom_site_fract_x
 _atom_site_fract_y
 _atom_site_fract_z
 _atom_site_occupancy
  Ca  Ca0  1  0.00000000  0.50000000  0.50000000  1.0
  Ca  Ca1  1  0.50000000  0.50000000  0.00000000  1.0
  Ca  Ca2  1  0.50000000  0.00000000  0.50000000  1.0
  Ca  Ca3  1  0.00000000  0.00000000  0.00000000  1.0
  Ta  Ta4  1  0.74925352  0.74925352  0.74925352  1.0
  Ta  Ta5  1  0.74925352  0.74925352  0.25074648  1.0
  Ta  Ta6  1  0.74925352  0.25074648  0.74925352  1.0
  Ta  Ta7  1  0.74925352  0.25074648  0.25074648  1.0
  Ta  Ta8  1  0.25074648  0.74925352  0.74925352  1.0
  Ta  Ta9  1  0.25074648  0.74925352  0.25074648  1.0
  Ta  Ta10  1  0.25074648  0.25074648  0.74925352  1.0
  Ta  Ta11  1  0.25074648  0.25074648  0.25074648  1.0
  O  O12  1  0.50000000  0.71085965  0.78231974  1.0
  O  O13  1  0.50000000  0.71085965  0.21768026  1.0
  O  O14  1  0.50000000  0.28914035  0.78231974  1.0
  O  O15  1  0.50000000  0.28914035  0.21768026  1.0
  O  O16  1  0.71085965  0.78231974  0.50000000  1.0
  O  O17  1  0.71085965  0.21768026  0.50000000  1.0
  O  O18  1  0.78231974  0.50000000  0.71085965  1.0
  O  O19  1  0.78231974  0.50000000  0.28914035  1.0
  O  O20  1  0.28914035  0.78231974  0.50000000  1.0
  O  O21  1  0.28914035  0.21768026  0.50000000  1.0
  O  O22  1  0.21768026  0.50000000  0.71085965  1.0
  O  O23  1  0.21768026  0.50000000  0.28914035  1.0
  O  O24  1  0.00000000  0.77608737  0.72629354  1.0
  O  O25  1  0.00000000  0.77608737  0.27370646  1.0
  O  O26  1  0.00000000  0.22391263  0.72629354  1.0
  O  O27  1  0.00000000  0.22391263  0.27370646  1.0
  O  O28  1  0.77608737  0.72629354  -0.00000000  1.0
  O  O29  1  0.77608737  0.27370646  0.00000000  1.0
  O  O30  1  0.72629354  0.00000000  0.77608737  1.0
  O  O31  1  0.72629354  0.00000000  0.22391263  1.0
  O  O32  1  0.22391263  0.72629354  0.00000000  1.0
  O  O33  1  0.22391263  0.27370646  -0.00000000  1.0
  O  O34  1  0.27370646  0.00000000  0.77608737  1.0
  O  O35  1  0.27370646  0.00000000  0.22391263  1.0
