# generated using pymatgen
data_Nb3Au2
_symmetry_space_group_name_H-M   'P 1'
_cell_length_a   8.03839705
_cell_length_b   8.03839705
_cell_length_c   8.03839705
_cell_angle_alpha   155.49857808
_cell_angle_beta   155.49857808
_cell_angle_gamma   34.92501940
_symmetry_Int_Tables_number   1
_chemical_formula_structural   Nb3Au2
_chemical_formula_sum   'Nb3 Au2'
_cell_volume   89.23317594
_cell_formula_units_Z   1
loop_
 _symmetry_equiv_pos_site_id
 _symmetry_equiv_pos_as_xyz
  1  'x, y, z'
loop_
 _atom_site_type_symbol
 _atom_site_label
 _atom_site_symmetry_multiplicity
 _atom_site_fract_x
 _atom_site_fract_y
 _atom_site_fract_z
 _atom_site_occupancy
  Nb  Nb0  1  0.59959870  0.59959870  1.00000000  1.0
  Nb  Nb1  1  0.40040130  0.40040130  0.00000000  1.0
  Nb  Nb2  1  0.00000000  0.00000000  0.00000000  1.0
  Au  Au3  1  0.80087876  0.80087876  1.00000000  1.0
  Au  Au4  1  0.19912124  0.19912124  0.00000000  1.0
