# generated using pymatgen
data_Ba3(AlSn)2
_symmetry_space_group_name_H-M   'P 1'
_cell_length_a   10.98511597
_cell_length_b   10.98511597
_cell_length_c   10.98511597
_cell_angle_alpha   155.66533915
_cell_angle_beta   152.26127446
_cell_angle_gamma   37.22809014
_symmetry_Int_Tables_number   1
_chemical_formula_structural   Ba3(AlSn)2
_chemical_formula_sum   'Ba3 Al2 Sn2'
_cell_volume   253.87977000
_cell_formula_units_Z   1
loop_
 _symmetry_equiv_pos_site_id
 _symmetry_equiv_pos_as_xyz
  1  'x, y, z'
loop_
 _atom_site_type_symbol
 _atom_site_label
 _atom_site_symmetry_multiplicity
 _atom_site_fract_x
 _atom_site_fract_y
 _atom_site_fract_z
 _atom_site_occupancy
  Ba  Ba0  1  0.81821677  0.31821677  0.50000000  1.0
  Ba  Ba1  1  0.18178323  0.68178323  0.50000000  1.0
  Ba  Ba2  1  0.00000000  0.00000000  0.00000000  1.0
  Al  Al3  1  0.56156425  0.56156425  1.00000000  1.0
  Al  Al4  1  0.43843575  0.43843575  -0.00000000  1.0
  Sn  Sn5  1  0.63605646  0.13605646  0.50000000  1.0
  Sn  Sn6  1  0.36394354  0.86394354  0.50000000  1.0
