# generated using pymatgen
data_B2Mo2Ir
_symmetry_space_group_name_H-M   'P 1'
_cell_length_a   7.39187940
_cell_length_b   9.43368236
_cell_length_c   3.24567910
_cell_angle_alpha   90.00000000
_cell_angle_beta   90.00000000
_cell_angle_gamma   90.00000000
_symmetry_Int_Tables_number   1
_chemical_formula_structural   B2Mo2Ir
_chemical_formula_sum   'B8 Mo8 Ir4'
_cell_volume   226.32977977
_cell_formula_units_Z   4
loop_
 _symmetry_equiv_pos_site_id
 _symmetry_equiv_pos_as_xyz
  1  'x, y, z'
loop_
 _atom_site_type_symbol
 _atom_site_label
 _atom_site_symmetry_multiplicity
 _atom_site_fract_x
 _atom_site_fract_y
 _atom_site_fract_z
 _atom_site_occupancy
  B  B0  1  0.38410992  0.54046805  0.50000000  1.0
  B  B1  1  0.88410992  0.95953195  0.00000000  1.0
  B  B2  1  0.61589008  0.45953195  0.50000000  1.0
  B  B3  1  0.11589008  0.04046805  0.00000000  1.0
  B  B4  1  0.37653403  0.73722575  0.50000000  1.0
  B  B5  1  0.87653403  0.76277425  0.00000000  1.0
  B  B6  1  0.62346597  0.26277425  0.50000000  1.0
  B  B7  1  0.12346597  0.23722575  0.00000000  1.0
  Mo  Mo8  1  0.30926222  0.13084465  0.50000000  1.0
  Mo  Mo9  1  0.80926222  0.36915535  0.00000000  1.0
  Mo  Mo10  1  0.69073778  0.86915535  0.50000000  1.0
  Mo  Mo11  1  0.19073778  0.63084465  0.00000000  1.0
  Mo  Mo12  1  0.07253250  0.86208600  0.50000000  1.0
  Mo  Mo13  1  0.57253250  0.63791400  0.00000000  1.0
  Mo  Mo14  1  0.92746750  0.13791400  0.50000000  1.0
  Mo  Mo15  1  0.42746750  0.36208600  0.00000000  1.0
  Ir  Ir16  1  0.87932711  0.61112950  0.50000000  1.0
  Ir  Ir17  1  0.37932711  0.88887050  0.00000000  1.0
  Ir  Ir18  1  0.12067289  0.38887050  0.50000000  1.0
  Ir  Ir19  1  0.62067289  0.11112950  0.00000000  1.0
