# generated using pymatgen
data_Nb5Si3B
_symmetry_space_group_name_H-M   'P 1'
_cell_length_a   7.65102593
_cell_length_b   7.65102593
_cell_length_c   5.28089087
_cell_angle_alpha   90.00000000
_cell_angle_beta   90.00000000
_cell_angle_gamma   120.00000000
_symmetry_Int_Tables_number   1
_chemical_formula_structural   Nb5Si3B
_chemical_formula_sum   'Nb10 Si6 B2'
_cell_volume   267.71775340
_cell_formula_units_Z   2
loop_
 _symmetry_equiv_pos_site_id
 _symmetry_equiv_pos_as_xyz
  1  'x, y, z'
loop_
 _atom_site_type_symbol
 _atom_site_label
 _atom_site_symmetry_multiplicity
 _atom_site_fract_x
 _atom_site_fract_y
 _atom_site_fract_z
 _atom_site_occupancy
  Nb  Nb0  1  0.66666667  0.33333333  0.50000000  1.0
  Nb  Nb1  1  0.33333333  0.66666667  0.50000000  1.0
  Nb  Nb2  1  0.33333333  0.66666667  0.00000000  1.0
  Nb  Nb3  1  0.66666667  0.33333333  0.00000000  1.0
  Nb  Nb4  1  0.75296633  0.75296633  0.25000000  1.0
  Nb  Nb5  1  0.24703367  -0.00000000  0.25000000  1.0
  Nb  Nb6  1  0.00000000  0.24703367  0.25000000  1.0
  Nb  Nb7  1  0.24703367  0.24703367  0.75000000  1.0
  Nb  Nb8  1  0.75296633  0.00000000  0.75000000  1.0
  Nb  Nb9  1  0.00000000  0.75296633  0.75000000  1.0
  Si  Si10  1  0.40183119  0.40183119  0.25000000  1.0
  Si  Si11  1  0.59816881  -0.00000000  0.25000000  1.0
  Si  Si12  1  -0.00000000  0.59816881  0.25000000  1.0
  Si  Si13  1  0.59816881  0.59816881  0.75000000  1.0
  Si  Si14  1  0.40183119  0.00000000  0.75000000  1.0
  Si  Si15  1  0.00000000  0.40183119  0.75000000  1.0
  B  B16  1  0.00000000  0.00000000  0.50000000  1.0
  B  B17  1  -0.00000000  -0.00000000  0.00000000  1.0
