# generated using pymatgen
data_Mn(AlTe2)2
_symmetry_space_group_name_H-M   'P 1'
_cell_length_a   7.57831505
_cell_length_b   7.57831505
_cell_length_c   7.57831505
_cell_angle_alpha   133.49275936
_cell_angle_beta   133.49275936
_cell_angle_gamma   67.88135167
_symmetry_Int_Tables_number   1
_chemical_formula_structural   Mn(AlTe2)2
_chemical_formula_sum   'Mn1 Al2 Te4'
_cell_volume   225.11976811
_cell_formula_units_Z   1
loop_
 _symmetry_equiv_pos_site_id
 _symmetry_equiv_pos_as_xyz
  1  'x, y, z'
loop_
 _atom_site_type_symbol
 _atom_site_label
 _atom_site_symmetry_multiplicity
 _atom_site_fract_x
 _atom_site_fract_y
 _atom_site_fract_z
 _atom_site_occupancy
  Mn  Mn0  1  0.00000000  0.00000000  0.00000000  1.0
  Al  Al1  1  0.25000000  0.75000000  0.50000000  1.0
  Al  Al2  1  0.75000000  0.25000000  0.50000000  1.0
  Te  Te3  1  0.38929585  0.85306252  1.00000000  1.0
  Te  Te4  1  1.14693748  1.14693748  1.53623333  1.0
  Te  Te5  1  0.61070415  0.61070415  0.46376667  1.0
  Te  Te6  1  0.85306252  0.38929585  1.00000000  1.0
