# generated using pymatgen
data_Pb2CO6
_symmetry_space_group_name_H-M   'P 1'
_cell_length_a   8.58502539
_cell_length_b   8.58502539
_cell_length_c   8.58502539
_cell_angle_alpha   33.01432953
_cell_angle_beta   33.01432953
_cell_angle_gamma   33.01432953
_symmetry_Int_Tables_number   1
_chemical_formula_structural   Pb2CO6
_chemical_formula_sum   'Pb2 C1 O6'
_cell_volume   167.16090331
_cell_formula_units_Z   1
loop_
 _symmetry_equiv_pos_site_id
 _symmetry_equiv_pos_as_xyz
  1  'x, y, z'
loop_
 _atom_site_type_symbol
 _atom_site_label
 _atom_site_symmetry_multiplicity
 _atom_site_fract_x
 _atom_site_fract_y
 _atom_site_fract_z
 _atom_site_occupancy
  C  C0  1  0.77439490  -0.22560510  -0.22560510  1.0
  Pb  Pb1  1  -0.02172469  -0.02172469  -0.02172469  1.0
  Pb  Pb2  1  0.42791928  0.42791928  -0.57208072  1.0
  O  O3  1  0.46878405  -0.07416096  -0.07416096  1.0
  O  O4  1  0.92583904  -0.07416096  -0.53121595  1.0
  O  O5  1  0.92583904  -0.53121595  -0.07416096  1.0
  O  O6  1  0.64192941  0.64192941  -0.35807059  1.0
  O  O7  1  0.33855437  0.33855437  0.33855437  1.0
  O  O8  1  0.89046460  -0.10953540  -0.10953540  1.0
