# generated using pymatgen
data_TlBiP2S7
_symmetry_space_group_name_H-M   'P 1'
_cell_length_a   9.76079651
_cell_length_b   12.80488342
_cell_length_c   9.25249512
_cell_angle_alpha   90.00000000
_cell_angle_beta   90.31304447
_cell_angle_gamma   90.00000000
_symmetry_Int_Tables_number   1
_chemical_formula_structural   TlBiP2S7
_chemical_formula_sum   'Tl4 Bi4 P8 S28'
_cell_volume   1156.41381194
_cell_formula_units_Z   4
loop_
 _symmetry_equiv_pos_site_id
 _symmetry_equiv_pos_as_xyz
  1  'x, y, z'
loop_
 _atom_site_type_symbol
 _atom_site_label
 _atom_site_symmetry_multiplicity
 _atom_site_fract_x
 _atom_site_fract_y
 _atom_site_fract_z
 _atom_site_occupancy
  Tl  Tl0  1  0.38683483  0.68443521  0.88781691  1.0
  Tl  Tl1  1  0.38683483  0.81556479  0.38781691  1.0
  Tl  Tl2  1  0.61316517  0.18443521  0.61218309  1.0
  Tl  Tl3  1  0.61316517  0.31556479  0.11218309  1.0
  Bi  Bi4  1  0.84778298  0.86329401  0.63264072  1.0
  Bi  Bi5  1  0.84778298  0.63670599  0.13264072  1.0
  Bi  Bi6  1  0.15221702  0.36329401  0.86735928  1.0
  Bi  Bi7  1  0.15221702  0.13670599  0.36735928  1.0
  P  P8  1  0.82091304  0.46611028  0.80265771  1.0
  P  P9  1  0.82091304  0.03388972  0.30265771  1.0
  P  P10  1  0.17908696  0.96611028  0.69734229  1.0
  P  P11  1  0.17908696  0.53388972  0.19734229  1.0
  P  P12  1  0.72665414  0.89105767  0.98602331  1.0
  P  P13  1  0.72665414  0.60894233  0.48602331  1.0
  P  P14  1  0.27334586  0.39105767  0.51397669  1.0
  P  P15  1  0.27334586  0.10894233  0.01397669  1.0
  S  S16  1  0.99859008  0.54986366  0.81437499  1.0
  S  S17  1  0.99859008  0.95013634  0.31437499  1.0
  S  S18  1  0.00140992  0.04986366  0.68562501  1.0
  S  S19  1  0.00140992  0.45013634  0.18562501  1.0
  S  S20  1  0.91000877  0.82450089  0.93335745  1.0
  S  S21  1  0.91000877  0.67549911  0.43335745  1.0
  S  S22  1  0.08999123  0.32450089  0.56664255  1.0
  S  S23  1  0.08999123  0.17549911  0.06664255  1.0
  S  S24  1  0.84450407  0.31166660  0.84538442  1.0
  S  S25  1  0.84450407  0.18833340  0.34538442  1.0
  S  S26  1  0.15549593  0.81166660  0.65461558  1.0
  S  S27  1  0.15549593  0.68833340  0.15461558  1.0
  S  S28  1  0.74638495  0.45778375  0.58435687  1.0
  S  S29  1  0.74638495  0.04221625  0.08435687  1.0
  S  S30  1  0.25361505  0.95778375  0.91564313  1.0
  S  S31  1  0.25361505  0.54221625  0.41564313  1.0
  S  S32  1  0.67406350  0.53183557  0.93277309  1.0
  S  S33  1  0.67406350  0.96816443  0.43277309  1.0
  S  S34  1  0.32593650  0.03183557  0.56722691  1.0
  S  S35  1  0.32593650  0.46816443  0.06722691  1.0
  S  S36  1  0.63238236  0.94171766  0.79969576  1.0
  S  S37  1  0.63238236  0.55828234  0.29969576  1.0
  S  S38  1  0.36761764  0.44171766  0.70030424  1.0
  S  S39  1  0.36761764  0.05828234  0.20030424  1.0
  S  S40  1  0.62219609  0.71040435  0.61398552  1.0
  S  S41  1  0.62219609  0.78959565  0.11398552  1.0
  S  S42  1  0.37780391  0.21040435  0.88601448  1.0
  S  S43  1  0.37780391  0.28959565  0.38601448  1.0
