# generated using pymatgen
data_SrBiS2F
_symmetry_space_group_name_H-M   'P 1'
_cell_length_a   4.05991125
_cell_length_b   4.05991125
_cell_length_c   14.21650692
_cell_angle_alpha   90.00000000
_cell_angle_beta   90.00000000
_cell_angle_gamma   90.00000000
_symmetry_Int_Tables_number   1
_chemical_formula_structural   SrBiS2F
_chemical_formula_sum   'Sr2 Bi2 S4 F2'
_cell_volume   234.32896813
_cell_formula_units_Z   2
loop_
 _symmetry_equiv_pos_site_id
 _symmetry_equiv_pos_as_xyz
  1  'x, y, z'
loop_
 _atom_site_type_symbol
 _atom_site_label
 _atom_site_symmetry_multiplicity
 _atom_site_fract_x
 _atom_site_fract_y
 _atom_site_fract_z
 _atom_site_occupancy
  Sr  Sr0  1  0.50000000  0.00000000  0.10281158  1.0
  Sr  Sr1  1  0.00000000  0.50000000  0.89718842  1.0
  Bi  Bi2  1  0.50000000  0.00000000  0.63214473  1.0
  Bi  Bi3  1  0.00000000  0.50000000  0.36785527  1.0
  S  S4  1  0.50000000  0.00000000  0.39251418  1.0
  S  S5  1  0.00000000  0.50000000  0.60748582  1.0
  S  S6  1  0.50000000  0.00000000  0.80877827  1.0
  S  S7  1  0.00000000  0.50000000  0.19122173  1.0
  F  F8  1  0.00000000  0.00000000  0.00000000  1.0
  F  F9  1  0.50000000  0.50000000  0.00000000  1.0
