# generated using pymatgen
data_KBi(PS3)2
_symmetry_space_group_name_H-M   'P 1'
_cell_length_a   6.74518447
_cell_length_b   7.64193167
_cell_length_c   10.14201921
_cell_angle_alpha   90.00000000
_cell_angle_beta   92.88451382
_cell_angle_gamma   90.00000000
_symmetry_Int_Tables_number   1
_chemical_formula_structural   KBi(PS3)2
_chemical_formula_sum   'K2 Bi2 P4 S12'
_cell_volume   522.12057646
_cell_formula_units_Z   2
loop_
 _symmetry_equiv_pos_site_id
 _symmetry_equiv_pos_as_xyz
  1  'x, y, z'
loop_
 _atom_site_type_symbol
 _atom_site_label
 _atom_site_symmetry_multiplicity
 _atom_site_fract_x
 _atom_site_fract_y
 _atom_site_fract_z
 _atom_site_occupancy
  K  K0  1  0.79862666  0.20693748  0.99444780  1.0
  K  K1  1  0.20137334  0.70693748  0.00555220  1.0
  Bi  Bi2  1  0.70866683  0.46598001  0.51297526  1.0
  Bi  Bi3  1  0.29133317  0.96598001  0.48702474  1.0
  P  P4  1  0.81629205  0.91553482  0.66826351  1.0
  P  P5  1  0.18370795  0.41553482  0.33173649  1.0
  P  P6  1  0.70591885  0.69383191  0.79322456  1.0
  P  P7  1  0.29408115  0.19383191  0.20677544  1.0
  S  S8  1  0.92072410  0.50135881  0.25266536  1.0
  S  S9  1  0.07927590  0.00135881  0.74733464  1.0
  S  S10  1  0.91211890  0.50272118  0.76798675  1.0
  S  S11  1  0.08788110  0.00272118  0.23201325  1.0
  S  S12  1  0.84648409  0.80262945  0.48352608  1.0
  S  S13  1  0.15351591  0.30262945  0.51647392  1.0
  S  S14  1  0.67841104  0.77706209  0.97671599  1.0
  S  S15  1  0.32158896  0.27706209  0.02328401  1.0
  S  S16  1  0.59775594  0.10498158  0.66744209  1.0
  S  S17  1  0.40224406  0.60498158  0.33255791  1.0
  S  S18  1  0.45242090  0.61886266  0.68404265  1.0
  S  S19  1  0.54757910  0.11886266  0.31595735  1.0
