# generated using pymatgen
data_CdCu2GeS4
_symmetry_space_group_name_H-M   'P 1'
_cell_length_a   7.76609626
_cell_length_b   6.61587226
_cell_length_c   6.35132669
_cell_angle_alpha   90.00000000
_cell_angle_beta   90.00000000
_cell_angle_gamma   90.00000000
_symmetry_Int_Tables_number   1
_chemical_formula_structural   CdCu2GeS4
_chemical_formula_sum   'Cd2 Cu4 Ge2 S8'
_cell_volume   326.32799509
_cell_formula_units_Z   2
loop_
 _symmetry_equiv_pos_site_id
 _symmetry_equiv_pos_as_xyz
  1  'x, y, z'
loop_
 _atom_site_type_symbol
 _atom_site_label
 _atom_site_symmetry_multiplicity
 _atom_site_fract_x
 _atom_site_fract_y
 _atom_site_fract_z
 _atom_site_occupancy
  Cd  Cd0  1  0.50000000  0.65670601  0.00793580  1.0
  Cd  Cd1  1  0.00000000  0.34329399  0.50793580  1.0
  Cu  Cu2  1  0.24920500  0.17127286  0.00902281  1.0
  Cu  Cu3  1  0.74920500  0.82872714  0.50902281  1.0
  Cu  Cu4  1  0.75079500  0.17127286  0.00902281  1.0
  Cu  Cu5  1  0.25079500  0.82872714  0.50902281  1.0
  Ge  Ge6  1  0.50000000  0.32310914  0.50537844  1.0
  Ge  Ge7  1  0.00000000  0.67689086  0.00537844  1.0
  S  S8  1  0.26851425  0.15446988  0.37242290  1.0
  S  S9  1  0.76851425  0.84553012  0.87242290  1.0
  S  S10  1  0.73148575  0.15446988  0.37242290  1.0
  S  S11  1  0.23148575  0.84553012  0.87242290  1.0
  S  S12  1  0.50000000  0.29556652  0.86415620  1.0
  S  S13  1  0.00000000  0.70443348  0.36415620  1.0
  S  S14  1  0.50000000  0.65664842  0.41213814  1.0
  S  S15  1  0.00000000  0.34335158  0.91213814  1.0
