# generated using pymatgen
data_K2FeF5
_symmetry_space_group_name_H-M   'P 1'
_cell_length_a   7.57688585
_cell_length_b   5.79377378
_cell_length_c   11.70957837
_cell_angle_alpha   90.00000000
_cell_angle_beta   90.00000000
_cell_angle_gamma   90.00000000
_symmetry_Int_Tables_number   1
_chemical_formula_structural   K2FeF5
_chemical_formula_sum   'K8 Fe4 F20'
_cell_volume   514.03600062
_cell_formula_units_Z   4
loop_
 _symmetry_equiv_pos_site_id
 _symmetry_equiv_pos_as_xyz
  1  'x, y, z'
loop_
 _atom_site_type_symbol
 _atom_site_label
 _atom_site_symmetry_multiplicity
 _atom_site_fract_x
 _atom_site_fract_y
 _atom_site_fract_z
 _atom_site_occupancy
  F  F0  1  0.72615274  0.75000000  0.90608308  1.0
  F  F1  1  0.22615274  0.75000000  0.59391692  1.0
  F  F2  1  0.27384726  0.25000000  0.09391692  1.0
  F  F3  1  0.77384726  0.25000000  0.40608308  1.0
  F  F4  1  0.00000000  0.00000000  0.00000000  1.0
  F  F5  1  0.00000000  0.50000000  0.00000000  1.0
  F  F6  1  0.50000000  0.00000000  0.50000000  1.0
  F  F7  1  0.50000000  0.50000000  0.50000000  1.0
  F  F8  1  0.96474497  0.75000000  0.19835810  1.0
  F  F9  1  0.46474497  0.75000000  0.30164190  1.0
  F  F10  1  0.03525503  0.25000000  0.80164190  1.0
  F  F11  1  0.53525503  0.25000000  0.69835810  1.0
  F  F12  1  0.67352808  0.99306155  0.11087782  1.0
  F  F13  1  0.67352808  0.50693845  0.11087782  1.0
  F  F14  1  0.17352808  0.99306155  0.38912218  1.0
  F  F15  1  0.17352808  0.50693845  0.38912218  1.0
  F  F16  1  0.32647192  0.49306155  0.88912218  1.0
  F  F17  1  0.32647192  0.00693845  0.88912218  1.0
  F  F18  1  0.82647192  0.49306155  0.61087782  1.0
  F  F19  1  0.82647192  0.00693845  0.61087782  1.0
  Fe  Fe20  1  0.82581514  0.75000000  0.06147166  1.0
  Fe  Fe21  1  0.32581514  0.75000000  0.43852834  1.0
  Fe  Fe22  1  0.17418486  0.25000000  0.93852834  1.0
  Fe  Fe23  1  0.67418486  0.25000000  0.56147166  1.0
  K  K24  1  0.83704892  0.75000000  0.41511502  1.0
  K  K25  1  0.33704892  0.75000000  0.08488498  1.0
  K  K26  1  0.16295108  0.25000000  0.58488498  1.0
  K  K27  1  0.66295108  0.25000000  0.91511502  1.0
  K  K28  1  0.51608827  0.75000000  0.72334750  1.0
  K  K29  1  0.01608827  0.75000000  0.77665250  1.0
  K  K30  1  0.48391173  0.25000000  0.27665250  1.0
  K  K31  1  0.98391173  0.25000000  0.22334750  1.0
