# generated using pymatgen
data_V(CO)6
_symmetry_space_group_name_H-M   'P 1'
_cell_length_a   12.92550546
_cell_length_b   11.40243130
_cell_length_c   6.95604070
_cell_angle_alpha   90.00000000
_cell_angle_beta   90.00000000
_cell_angle_gamma   90.00000000
_symmetry_Int_Tables_number   1
_chemical_formula_structural   V(CO)6
_chemical_formula_sum   'V4 C24 O24'
_cell_volume   1025.19649867
_cell_formula_units_Z   4
loop_
 _symmetry_equiv_pos_site_id
 _symmetry_equiv_pos_as_xyz
  1  'x, y, z'
loop_
 _atom_site_type_symbol
 _atom_site_label
 _atom_site_symmetry_multiplicity
 _atom_site_fract_x
 _atom_site_fract_y
 _atom_site_fract_z
 _atom_site_occupancy
  V  V0  1  0.87363282  0.25000000  0.44599945  1.0
  V  V1  1  0.37363282  0.25000000  0.05400055  1.0
  V  V2  1  0.12636718  0.75000000  0.55400055  1.0
  V  V3  1  0.62636718  0.75000000  0.94599945  1.0
  C  C4  1  0.97109895  0.36602287  0.33478643  1.0
  C  C5  1  0.97109895  0.13397713  0.33478643  1.0
  C  C6  1  0.47109895  0.36602287  0.16521357  1.0
  C  C7  1  0.47109895  0.13397713  0.16521357  1.0
  C  C8  1  0.02890105  0.86602287  0.66521357  1.0
  C  C9  1  0.02890105  0.63397713  0.66521357  1.0
  C  C10  1  0.52890105  0.86602287  0.83478643  1.0
  C  C11  1  0.52890105  0.63397713  0.83478643  1.0
  C  C12  1  0.77709368  0.36708401  0.55858518  1.0
  C  C13  1  0.77709368  0.13291599  0.55858518  1.0
  C  C14  1  0.27709368  0.36708401  0.94141482  1.0
  C  C15  1  0.27709368  0.13291599  0.94141482  1.0
  C  C16  1  0.22290632  0.86708401  0.44141482  1.0
  C  C17  1  0.22290632  0.63291599  0.44141482  1.0
  C  C18  1  0.72290632  0.86708401  0.05858518  1.0
  C  C19  1  0.72290632  0.63291599  0.05858518  1.0
  C  C20  1  0.95485079  0.25000000  0.69131741  1.0
  C  C21  1  0.45485079  0.25000000  0.80868259  1.0
  C  C22  1  0.04514921  0.75000000  0.30868259  1.0
  C  C23  1  0.54514921  0.75000000  0.19131741  1.0
  C  C24  1  0.79148009  0.25000000  0.20192575  1.0
  C  C25  1  0.29148009  0.25000000  0.29807425  1.0
  C  C26  1  0.20851991  0.75000000  0.79807425  1.0
  C  C27  1  0.70851991  0.75000000  0.70192575  1.0
  O  O28  1  0.77979583  0.93351198  0.12585059  1.0
  O  O29  1  0.77979583  0.56648802  0.12585059  1.0
  O  O30  1  0.27979583  0.93351198  0.37414941  1.0
  O  O31  1  0.27979583  0.56648802  0.37414941  1.0
  O  O32  1  0.22020417  0.43351198  0.87414941  1.0
  O  O33  1  0.22020417  0.06648802  0.87414941  1.0
  O  O34  1  0.72020417  0.43351198  0.62585059  1.0
  O  O35  1  0.72020417  0.06648802  0.62585059  1.0
  O  O36  1  0.52970989  0.43147484  0.23033292  1.0
  O  O37  1  0.52970989  0.06852516  0.23033292  1.0
  O  O38  1  0.02970989  0.43147484  0.26966708  1.0
  O  O39  1  0.02970989  0.06852516  0.26966708  1.0
  O  O40  1  0.47029011  0.93147484  0.76966708  1.0
  O  O41  1  0.47029011  0.56852516  0.76966708  1.0
  O  O42  1  0.97029011  0.93147484  0.73033292  1.0
  O  O43  1  0.97029011  0.56852516  0.73033292  1.0
  O  O44  1  0.74419406  0.25000000  0.06139147  1.0
  O  O45  1  0.24419406  0.25000000  0.43860853  1.0
  O  O46  1  0.25580594  0.75000000  0.93860853  1.0
  O  O47  1  0.75580594  0.75000000  0.56139147  1.0
  O  O48  1  0.50106760  0.25000000  0.66703617  1.0
  O  O49  1  0.00106760  0.25000000  0.83296383  1.0
  O  O50  1  0.49893240  0.75000000  0.33296383  1.0
  O  O51  1  0.99893240  0.75000000  0.16703617  1.0
