# generated using pymatgen
data_Na4Al3(SiO4)3
_symmetry_space_group_name_H-M   'P 1'
_cell_length_a   9.70626033
_cell_length_b   9.70626033
_cell_length_c   9.70626033
_cell_angle_alpha   90.00000000
_cell_angle_beta   90.00000000
_cell_angle_gamma   90.00000000
_symmetry_Int_Tables_number   1
_chemical_formula_structural   Na4Al3(SiO4)3
_chemical_formula_sum   'Na8 Al6 Si6 O24'
_cell_volume   914.44124282
_cell_formula_units_Z   2
loop_
 _symmetry_equiv_pos_site_id
 _symmetry_equiv_pos_as_xyz
  1  'x, y, z'
loop_
 _atom_site_type_symbol
 _atom_site_label
 _atom_site_symmetry_multiplicity
 _atom_site_fract_x
 _atom_site_fract_y
 _atom_site_fract_z
 _atom_site_occupancy
  Na  Na0  1  0.30763511  0.30763511  0.69236489  1.0
  Na  Na1  1  0.30763511  0.69236489  0.30763511  1.0
  Na  Na2  1  0.80763511  0.80763511  0.19236489  1.0
  Na  Na3  1  0.80763511  0.19236489  0.80763511  1.0
  Na  Na4  1  0.69236489  0.30763511  0.30763511  1.0
  Na  Na5  1  0.69236489  0.69236489  0.69236489  1.0
  Na  Na6  1  0.19236489  0.80763511  0.80763511  1.0
  Na  Na7  1  0.19236489  0.19236489  0.19236489  1.0
  Al  Al8  1  0.50000000  0.00000000  0.00000000  1.0
  Al  Al9  1  0.00000000  0.50000000  0.50000000  1.0
  Al  Al10  1  0.00000000  0.50000000  0.00000000  1.0
  Al  Al11  1  0.50000000  0.50000000  0.00000000  1.0
  Al  Al12  1  0.00000000  0.00000000  0.50000000  1.0
  Al  Al13  1  0.50000000  0.00000000  0.50000000  1.0
  Si  Si14  1  0.25000000  0.00000000  0.50000000  1.0
  Si  Si15  1  0.75000000  0.00000000  0.50000000  1.0
  Si  Si16  1  0.50000000  0.25000000  0.00000000  1.0
  Si  Si17  1  0.50000000  0.75000000  0.00000000  1.0
  Si  Si18  1  0.00000000  0.50000000  0.25000000  1.0
  Si  Si19  1  0.00000000  0.50000000  0.75000000  1.0
  O  O20  1  0.36436304  0.09806202  0.58176668  1.0
  O  O21  1  0.36436304  0.90193798  0.41823332  1.0
  O  O22  1  0.86436304  0.91823332  0.40193798  1.0
  O  O23  1  0.86436304  0.08176668  0.59806202  1.0
  O  O24  1  0.41823332  0.36436304  0.90193798  1.0
  O  O25  1  0.41823332  0.63563696  0.09806202  1.0
  O  O26  1  0.91823332  0.59806202  0.13563696  1.0
  O  O27  1  0.91823332  0.40193798  0.86436304  1.0
  O  O28  1  0.09806202  0.41823332  0.63563696  1.0
  O  O29  1  0.09806202  0.58176668  0.36436304  1.0
  O  O30  1  0.59806202  0.86436304  0.08176668  1.0
  O  O31  1  0.59806202  0.13563696  0.91823332  1.0
  O  O32  1  0.63563696  0.09806202  0.41823332  1.0
  O  O33  1  0.63563696  0.90193798  0.58176668  1.0
  O  O34  1  0.13563696  0.91823332  0.59806202  1.0
  O  O35  1  0.13563696  0.08176668  0.40193798  1.0
  O  O36  1  0.58176668  0.36436304  0.09806202  1.0
  O  O37  1  0.58176668  0.63563696  0.90193798  1.0
  O  O38  1  0.08176668  0.59806202  0.86436304  1.0
  O  O39  1  0.08176668  0.40193798  0.13563696  1.0
  O  O40  1  0.90193798  0.41823332  0.36436304  1.0
  O  O41  1  0.90193798  0.58176668  0.63563696  1.0
  O  O42  1  0.40193798  0.86436304  0.91823332  1.0
  O  O43  1  0.40193798  0.13563696  0.08176668  1.0
