# generated using pymatgen
data_Rb2Cd3S4
_symmetry_space_group_name_H-M   'P 1'
_cell_length_a   14.42085510
_cell_length_b   10.74597828
_cell_length_c   6.71318625
_cell_angle_alpha   90.00000000
_cell_angle_beta   90.00000000
_cell_angle_gamma   90.00000000
_symmetry_Int_Tables_number   1
_chemical_formula_structural   Rb2Cd3S4
_chemical_formula_sum   'Rb8 Cd12 S16'
_cell_volume   1040.31693430
_cell_formula_units_Z   4
loop_
 _symmetry_equiv_pos_site_id
 _symmetry_equiv_pos_as_xyz
  1  'x, y, z'
loop_
 _atom_site_type_symbol
 _atom_site_label
 _atom_site_symmetry_multiplicity
 _atom_site_fract_x
 _atom_site_fract_y
 _atom_site_fract_z
 _atom_site_occupancy
  Rb  Rb0  1  0.96589531  0.25000000  0.52225328  1.0
  Rb  Rb1  1  0.46589531  0.25000000  0.97774672  1.0
  Rb  Rb2  1  0.03410469  0.75000000  0.47774672  1.0
  Rb  Rb3  1  0.53410469  0.75000000  0.02225328  1.0
  Rb  Rb4  1  0.00000000  0.50000000  0.00000000  1.0
  Rb  Rb5  1  0.00000000  -0.00000000  0.00000000  1.0
  Rb  Rb6  1  0.50000000  0.50000000  0.50000000  1.0
  Rb  Rb7  1  0.50000000  0.00000000  0.50000000  1.0
  Cd  Cd8  1  0.74675154  0.90626750  0.32370266  1.0
  Cd  Cd9  1  0.74675154  0.59373250  0.32370266  1.0
  Cd  Cd10  1  0.24675154  0.90626750  0.17629734  1.0
  Cd  Cd11  1  0.24675154  0.59373250  0.17629734  1.0
  Cd  Cd12  1  0.25324846  0.40626750  0.67629734  1.0
  Cd  Cd13  1  0.25324846  0.09373250  0.67629734  1.0
  Cd  Cd14  1  0.75324846  0.40626750  0.82370266  1.0
  Cd  Cd15  1  0.75324846  0.09373250  0.82370266  1.0
  Cd  Cd16  1  0.70747294  0.25000000  0.26109849  1.0
  Cd  Cd17  1  0.20747294  0.25000000  0.23890151  1.0
  Cd  Cd18  1  0.29252706  0.75000000  0.73890151  1.0
  Cd  Cd19  1  0.79252706  0.75000000  0.76109849  1.0
  S  S20  1  0.64141155  0.46176368  0.10883373  1.0
  S  S21  1  0.64141155  0.03823632  0.10883373  1.0
  S  S22  1  0.14141155  0.46176368  0.39116627  1.0
  S  S23  1  0.14141155  0.03823632  0.39116627  1.0
  S  S24  1  0.35858845  0.96176368  0.89116627  1.0
  S  S25  1  0.35858845  0.53823632  0.89116627  1.0
  S  S26  1  0.85858845  0.96176368  0.60883373  1.0
  S  S27  1  0.85858845  0.53823632  0.60883373  1.0
  S  S28  1  0.85612119  0.25000000  0.04506467  1.0
  S  S29  1  0.35612119  0.25000000  0.45493533  1.0
  S  S30  1  0.14387881  0.75000000  0.95493533  1.0
  S  S31  1  0.64387881  0.75000000  0.54506467  1.0
  S  S32  1  0.65427354  0.25000000  0.61779718  1.0
  S  S33  1  0.15427354  0.25000000  0.88220282  1.0
  S  S34  1  0.34572646  0.75000000  0.38220282  1.0
  S  S35  1  0.84572646  0.75000000  0.11779718  1.0
