# generated using pymatgen
data_Be2TlBO3F2
_symmetry_space_group_name_H-M   'P 1'
_cell_length_a   7.34021475
_cell_length_b   7.34021475
_cell_length_c   7.34021475
_cell_angle_alpha   35.45381419
_cell_angle_beta   35.45381419
_cell_angle_gamma   35.45381419
_symmetry_Int_Tables_number   1
_chemical_formula_structural   Be2TlBO3F2
_chemical_formula_sum   'Be2 Tl1 B1 O3 F2'
_cell_volume   118.90060872
_cell_formula_units_Z   1
loop_
 _symmetry_equiv_pos_site_id
 _symmetry_equiv_pos_as_xyz
  1  'x, y, z'
loop_
 _atom_site_type_symbol
 _atom_site_label
 _atom_site_symmetry_multiplicity
 _atom_site_fract_x
 _atom_site_fract_y
 _atom_site_fract_z
 _atom_site_occupancy
  Be  Be0  1  0.69401897  0.69401897  0.69401897  1.0
  Be  Be1  1  1.30598103  1.30598103  0.30598103  1.0
  Tl  Tl2  1  1.50000000  0.50000000  0.50000000  1.0
  B  B3  1  0.00000000  0.00000000  0.00000000  1.0
  O  O4  1  0.69156814  0.00000000  -0.69156814  1.0
  O  O5  1  -0.00000000  0.30843186  -0.30843186  1.0
  O  O6  1  0.30843186  -0.30843186  0.00000000  1.0
  F  F7  1  0.76967233  0.76967233  0.76967233  1.0
  F  F8  1  1.23032767  1.23032767  0.23032767  1.0
