# generated using pymatgen
data_Zr(Zn10Cu)2
_symmetry_space_group_name_H-M   'P 1'
_cell_length_a   9.89504708
_cell_length_b   9.89504708
_cell_length_c   9.89504708
_cell_angle_alpha   60.00000000
_cell_angle_beta   60.00000000
_cell_angle_gamma   60.00000000
_symmetry_Int_Tables_number   1
_chemical_formula_structural   Zr(Zn10Cu)2
_chemical_formula_sum   'Zr2 Zn40 Cu4'
_cell_volume   685.07575381
_cell_formula_units_Z   2
loop_
 _symmetry_equiv_pos_site_id
 _symmetry_equiv_pos_as_xyz
  1  'x, y, z'
loop_
 _atom_site_type_symbol
 _atom_site_label
 _atom_site_symmetry_multiplicity
 _atom_site_fract_x
 _atom_site_fract_y
 _atom_site_fract_z
 _atom_site_occupancy
  Zr  Zr0  1  0.50000000  -0.50000000  0.50000000  1.0
  Zr  Zr1  1  0.75000000  0.75000000  0.75000000  1.0
  Zn  Zn2  1  0.56799687  1.30382387  0.30382387  1.0
  Zn  Zn3  1  0.30382387  1.56799687  -0.17564462  1.0
  Zn  Zn4  1  0.30382387  -0.17564462  0.56799687  1.0
  Zn  Zn5  1  -0.17564462  0.30382387  0.30382387  1.0
  Zn  Zn6  1  0.30382387  1.30382387  0.56799687  1.0
  Zn  Zn7  1  0.56799687  0.82435538  0.30382387  1.0
  Zn  Zn8  1  -0.17564462  1.56799687  0.30382387  1.0
  Zn  Zn9  1  0.30382387  1.30382387  -0.17564462  1.0
  Zn  Zn10  1  0.30382387  1.56799687  0.30382387  1.0
  Zn  Zn11  1  -0.17564462  0.30382387  0.56799687  1.0
  Zn  Zn12  1  0.56799687  1.30382387  -0.17564462  1.0
  Zn  Zn13  1  0.30382387  -0.17564462  0.30382387  1.0
  Zn  Zn14  1  0.68200313  0.94617613  0.94617613  1.0
  Zn  Zn15  1  0.94617613  0.68200313  -0.57435538  1.0
  Zn  Zn16  1  0.94617613  0.42564462  0.68200313  1.0
  Zn  Zn17  1  0.42564462  0.94617613  -0.05382387  1.0
  Zn  Zn18  1  0.94617613  0.94617613  0.68200313  1.0
  Zn  Zn19  1  0.68200313  -0.57435538  0.94617613  1.0
  Zn  Zn20  1  -0.57435538  0.68200313  0.94617613  1.0
  Zn  Zn21  1  0.94617613  0.94617613  -0.57435538  1.0
  Zn  Zn22  1  0.94617613  0.68200313  0.94617613  1.0
  Zn  Zn23  1  0.42564462  0.94617613  -0.31799687  1.0
  Zn  Zn24  1  0.68200313  0.94617613  -0.57435538  1.0
  Zn  Zn25  1  0.94617613  0.42564462  0.94617613  1.0
  Zn  Zn26  1  0.86228265  0.86228265  -0.86228265  1.0
  Zn  Zn27  1  0.13771735  1.13771735  -0.13771735  1.0
  Zn  Zn28  1  0.86228265  -0.86228265  0.86228265  1.0
  Zn  Zn29  1  0.13771735  -0.13771735  0.13771735  1.0
  Zn  Zn30  1  -0.86228265  0.86228265  0.86228265  1.0
  Zn  Zn31  1  -0.13771735  0.13771735  0.13771735  1.0
  Zn  Zn32  1  0.38771735  1.38771735  0.11228265  1.0
  Zn  Zn33  1  0.11228265  0.11228265  0.38771735  1.0
  Zn  Zn34  1  0.38771735  1.11228265  0.38771735  1.0
  Zn  Zn35  1  0.11228265  1.38771735  0.11228265  1.0
  Zn  Zn36  1  0.11228265  1.38771735  0.38771735  1.0
  Zn  Zn37  1  0.38771735  1.11228265  0.11228265  1.0
  Zn  Zn38  1  1.12500000  0.62500000  0.62500000  1.0
  Zn  Zn39  1  0.62500000  1.12500000  -0.37500000  1.0
  Zn  Zn40  1  -0.37500000  0.62500000  1.12500000  1.0
  Zn  Zn41  1  -0.37500000  0.62500000  0.62500000  1.0
  Cu  Cu42  1  0.62500000  1.12500000  0.12500000  1.0
  Cu  Cu43  1  0.12500000  1.62500000  0.12500000  1.0
  Cu  Cu44  1  0.12500000  0.12500000  1.62500000  1.0
  Cu  Cu45  1  0.12500000  0.12500000  0.12500000  1.0
