# generated using pymatgen
data_Cs2SrTa6Cl18
_symmetry_space_group_name_H-M   'P 1'
_cell_length_a   10.48727088
_cell_length_b   10.48727088
_cell_length_c   10.48727088
_cell_angle_alpha   55.30771838
_cell_angle_beta   55.30771838
_cell_angle_gamma   55.30771838
_symmetry_Int_Tables_number   1
_chemical_formula_structural   Cs2SrTa6Cl18
_chemical_formula_sum   'Cs2 Sr1 Ta6 Cl18'
_cell_volume   726.66252989
_cell_formula_units_Z   1
loop_
 _symmetry_equiv_pos_site_id
 _symmetry_equiv_pos_as_xyz
  1  'x, y, z'
loop_
 _atom_site_type_symbol
 _atom_site_label
 _atom_site_symmetry_multiplicity
 _atom_site_fract_x
 _atom_site_fract_y
 _atom_site_fract_z
 _atom_site_occupancy
  Cs  Cs0  1  0.27489226  0.27489226  0.27489226  1.0
  Cs  Cs1  1  0.72510774  -0.27489226  -0.27489226  1.0
  Sr  Sr2  1  -0.00000000  0.00000000  0.00000000  1.0
  Ta  Ta3  1  0.64332079  0.41806849  -0.69477632  1.0
  Ta  Ta4  1  0.69477632  0.35667921  -0.41806849  1.0
  Ta  Ta5  1  0.58193151  0.69477632  -0.64332079  1.0
  Ta  Ta6  1  0.35667921  0.58193151  -0.30522368  1.0
  Ta  Ta7  1  0.30522368  0.64332079  -0.58193151  1.0
  Ta  Ta8  1  0.41806849  0.30522368  -0.35667921  1.0
  Cl  Cl9  1  0.57336255  0.16960280  -0.56200573  1.0
  Cl  Cl10  1  0.56200573  0.42663745  -0.16960280  1.0
  Cl  Cl11  1  0.83039720  0.56200573  -0.57336255  1.0
  Cl  Cl12  1  0.42663745  0.83039720  -0.43799427  1.0
  Cl  Cl13  1  0.43799427  0.57336255  -0.83039720  1.0
  Cl  Cl14  1  0.16960280  0.43799427  -0.42663745  1.0
  Cl  Cl15  1  0.36659050  0.90162141  -0.76962920  1.0
  Cl  Cl16  1  0.76962920  -0.36659050  0.09837859  1.0
  Cl  Cl17  1  1.09837859  -0.23037080  -0.36659050  1.0
  Cl  Cl18  1  0.63340950  0.09837859  -0.23037080  1.0
  Cl  Cl19  1  0.23037080  0.36659050  -0.09837859  1.0
  Cl  Cl20  1  0.90162141  0.23037080  -0.63340950  1.0
  Cl  Cl21  1  0.31769778  0.05197281  -0.17777593  1.0
  Cl  Cl22  1  1.17777593  -0.31769778  -0.05197281  1.0
  Cl  Cl23  1  0.94802719  0.17777593  -0.31769778  1.0
  Cl  Cl24  1  0.68230222  -0.05197281  0.17777593  1.0
  Cl  Cl25  1  0.82222407  -0.68230222  0.05197281  1.0
  Cl  Cl26  1  1.05197281  -0.17777593  -0.68230222  1.0
