# generated using pymatgen
data_K2SO4
_symmetry_space_group_name_H-M   'P 1'
_cell_length_a   7.58771867
_cell_length_b   5.87030614
_cell_length_c   10.24639639
_cell_angle_alpha   90.00000000
_cell_angle_beta   90.00000000
_cell_angle_gamma   90.00000000
_symmetry_Int_Tables_number   1
_chemical_formula_structural   K2SO4
_chemical_formula_sum   'K8 S4 O16'
_cell_volume   456.39735957
_cell_formula_units_Z   4
loop_
 _symmetry_equiv_pos_site_id
 _symmetry_equiv_pos_as_xyz
  1  'x, y, z'
loop_
 _atom_site_type_symbol
 _atom_site_label
 _atom_site_symmetry_multiplicity
 _atom_site_fract_x
 _atom_site_fract_y
 _atom_site_fract_z
 _atom_site_occupancy
  K  K0  1  0.50534357  0.75000000  0.70227474  1.0
  K  K1  1  0.00534357  0.75000000  0.79772526  1.0
  K  K2  1  0.49465643  0.25000000  0.29772526  1.0
  K  K3  1  0.99465643  0.25000000  0.20227474  1.0
  K  K4  1  0.82671975  0.75000000  0.41497829  1.0
  K  K5  1  0.32671975  0.75000000  0.08502171  1.0
  K  K6  1  0.17328025  0.25000000  0.58502171  1.0
  K  K7  1  0.67328025  0.25000000  0.91497829  1.0
  S  S8  1  0.76980302  0.75000000  0.08145518  1.0
  S  S9  1  0.26980302  0.75000000  0.41854482  1.0
  S  S10  1  0.23019698  0.25000000  0.91854482  1.0
  S  S11  1  0.73019698  0.25000000  0.58145518  1.0
  O  O12  1  0.70450179  0.95899195  0.15104980  1.0
  O  O13  1  0.70450179  0.54100805  0.15104980  1.0
  O  O14  1  0.20450179  0.95899195  0.34895020  1.0
  O  O15  1  0.20450179  0.54100805  0.34895020  1.0
  O  O16  1  0.29549821  0.45899195  0.84895020  1.0
  O  O17  1  0.29549821  0.04100805  0.84895020  1.0
  O  O18  1  0.79549821  0.45899195  0.65104980  1.0
  O  O19  1  0.79549821  0.04100805  0.65104980  1.0
  O  O20  1  0.19692318  0.75000000  0.55539853  1.0
  O  O21  1  0.69692318  0.75000000  0.94460147  1.0
  O  O22  1  0.80307682  0.25000000  0.44460147  1.0
  O  O23  1  0.30307682  0.25000000  0.05539853  1.0
  O  O24  1  0.96633075  0.75000000  0.07861365  1.0
  O  O25  1  0.46633075  0.75000000  0.42138635  1.0
  O  O26  1  0.03366925  0.25000000  0.92138635  1.0
  O  O27  1  0.53366925  0.25000000  0.57861365  1.0
