# generated using pymatgen
data_K2(NbCl3)3
_symmetry_space_group_name_H-M   'P 1'
_cell_length_a   9.93284559
_cell_length_b   9.93284559
_cell_length_c   9.82123504
_cell_angle_alpha   77.65890513
_cell_angle_beta   102.34109487
_cell_angle_gamma   61.65230886
_symmetry_Int_Tables_number   1
_chemical_formula_structural   K2(NbCl3)3
_chemical_formula_sum   'K4 Nb6 Cl18'
_cell_volume   775.06201473
_cell_formula_units_Z   2
loop_
 _symmetry_equiv_pos_site_id
 _symmetry_equiv_pos_as_xyz
  1  'x, y, z'
loop_
 _atom_site_type_symbol
 _atom_site_label
 _atom_site_symmetry_multiplicity
 _atom_site_fract_x
 _atom_site_fract_y
 _atom_site_fract_z
 _atom_site_occupancy
  K  K0  1  0.73073650  -0.05236341  0.67234918  1.0
  K  K1  1  1.05236341  0.26926350  0.67234918  1.0
  K  K2  1  0.94763659  -0.26926350  0.32765082  1.0
  K  K3  1  1.26926350  0.05236341  0.32765082  1.0
  Nb  Nb4  1  0.45512366  -0.28310209  0.85889969  1.0
  Nb  Nb5  1  1.28310209  0.54487634  0.85889969  1.0
  Nb  Nb6  1  0.71689791  -0.54487634  0.14110031  1.0
  Nb  Nb7  1  1.54487634  0.28310209  0.14110031  1.0
  Nb  Nb8  1  0.62693445  -0.62693445  0.87925508  1.0
  Nb  Nb9  1  0.37306555  -0.37306555  0.12074492  1.0
  Cl  Cl10  1  0.78551518  -0.78551518  0.72984227  1.0
  Cl  Cl11  1  0.21448482  -0.21448482  0.27015773  1.0
  Cl  Cl12  1  0.70316230  -0.29683770  0.00000000  1.0
  Cl  Cl13  1  1.29683770  0.29683770  0.00000000  1.0
  Cl  Cl14  1  0.59533204  -0.39289629  0.69307289  1.0
  Cl  Cl15  1  1.39289629  0.40466796  0.69307289  1.0
  Cl  Cl16  1  0.60710371  -0.40466796  0.30692711  1.0
  Cl  Cl17  1  1.40466796  0.39289629  0.30692711  1.0
  Cl  Cl18  1  0.29979998  -0.09500945  0.97601089  1.0
  Cl  Cl19  1  1.09500945  0.70020002  0.97601089  1.0
  Cl  Cl20  1  0.90499055  -0.70020002  0.02398911  1.0
  Cl  Cl21  1  1.70020002  0.09500945  0.02398911  1.0
  Cl  Cl22  1  1.39542581  -0.00665546  0.67571715  1.0
  Cl  Cl23  1  1.00665546  -0.39542581  0.67571715  1.0
  Cl  Cl24  1  0.99334454  0.39542581  0.32428285  1.0
  Cl  Cl25  1  0.60457419  0.00665546  0.32428285  1.0
  Cl  Cl26  1  0.81033606  -0.81033606  0.33103384  1.0
  Cl  Cl27  1  0.18966394  -0.18966394  0.66896616  1.0
