# generated using pymatgen
data_K8Tl11
_symmetry_space_group_name_H-M   'P 1'
_cell_length_a   18.25304212
_cell_length_b   18.25304212
_cell_length_c   18.25304212
_cell_angle_alpha   32.42408548
_cell_angle_beta   32.42408548
_cell_angle_gamma   32.42408548
_symmetry_Int_Tables_number   1
_chemical_formula_structural   K8Tl11
_chemical_formula_sum   'K16 Tl22'
_cell_volume   1554.44670210
_cell_formula_units_Z   2
loop_
 _symmetry_equiv_pos_site_id
 _symmetry_equiv_pos_as_xyz
  1  'x, y, z'
loop_
 _atom_site_type_symbol
 _atom_site_label
 _atom_site_symmetry_multiplicity
 _atom_site_fract_x
 _atom_site_fract_y
 _atom_site_fract_z
 _atom_site_occupancy
  K  K0  1  0.58581195  0.15312425  -0.17337870  1.0
  K  K1  1  1.08581195  0.32662130  -0.34687575  1.0
  K  K2  1  0.67337870  0.34687575  -0.08581195  1.0
  K  K3  1  1.17337870  0.41418805  -0.15312425  1.0
  K  K4  1  0.84687575  0.17337870  0.41418805  1.0
  K  K5  1  0.34687575  0.91418805  -0.32662130  1.0
  K  K6  1  1.41418805  -0.15312425  0.17337870  1.0
  K  K7  1  0.91418805  0.67337870  -0.65312425  1.0
  K  K8  1  0.82662130  -0.41418805  0.15312425  1.0
  K  K9  1  1.32662130  -0.34687575  0.08581195  1.0
  K  K10  1  0.65312425  0.08581195  0.32662130  1.0
  K  K11  1  1.15312425  -0.17337870  -0.41418805  1.0
  K  K12  1  0.92076903  -0.07923097  -0.07923097  1.0
  K  K13  1  0.42076903  0.42076903  0.42076903  1.0
  K  K14  1  0.57923097  0.57923097  -0.42076903  1.0
  K  K15  1  1.07923097  0.07923097  0.07923097  1.0
  Tl  Tl16  1  0.58569358  -0.01333365  0.27238625  1.0
  Tl  Tl17  1  1.08569358  0.77238625  -0.51333365  1.0
  Tl  Tl18  1  0.22761375  0.51333365  -0.08569358  1.0
  Tl  Tl19  1  0.72761375  0.41430642  0.01333365  1.0
  Tl  Tl20  1  1.01333365  0.72761375  -0.58569358  1.0
  Tl  Tl21  1  0.51333365  0.91430642  -0.77238625  1.0
  Tl  Tl22  1  0.41430642  1.01333365  -0.27238625  1.0
  Tl  Tl23  1  0.91430642  0.22761375  -0.48666635  1.0
  Tl  Tl24  1  1.27238625  -0.41430642  -0.01333365  1.0
  Tl  Tl25  1  0.77238625  0.48666635  0.08569358  1.0
  Tl  Tl26  1  0.48666635  1.08569358  -0.22761375  1.0
  Tl  Tl27  1  0.98666635  0.27238625  -0.41430642  1.0
  Tl  Tl28  1  0.53189197  0.75000000  -0.03189197  1.0
  Tl  Tl29  1  1.03189197  -0.53189197  0.25000000  1.0
  Tl  Tl30  1  0.25000000  1.03189197  -0.53189197  1.0
  Tl  Tl31  1  0.75000000  0.96810803  -0.46810803  1.0
  Tl  Tl32  1  0.46810803  0.25000000  0.03189197  1.0
  Tl  Tl33  1  0.96810803  0.53189197  -0.25000000  1.0
  Tl  Tl34  1  0.80223595  0.80223595  -0.19776405  1.0
  Tl  Tl35  1  0.30223595  0.30223595  0.30223595  1.0
  Tl  Tl36  1  0.69776405  0.69776405  -0.30223595  1.0
  Tl  Tl37  1  0.19776405  0.19776405  0.19776405  1.0
