# generated using pymatgen
data_CuHgSCl
_symmetry_space_group_name_H-M   'P 1'
_cell_length_a   9.98890739
_cell_length_b   4.07332588
_cell_length_c   9.28712370
_cell_angle_alpha   90.00000000
_cell_angle_beta   90.00000000
_cell_angle_gamma   90.00000000
_symmetry_Int_Tables_number   1
_chemical_formula_structural   CuHgSCl
_chemical_formula_sum   'Cu4 Hg4 S4 Cl4'
_cell_volume   377.87518518
_cell_formula_units_Z   4
loop_
 _symmetry_equiv_pos_site_id
 _symmetry_equiv_pos_as_xyz
  1  'x, y, z'
loop_
 _atom_site_type_symbol
 _atom_site_label
 _atom_site_symmetry_multiplicity
 _atom_site_fract_x
 _atom_site_fract_y
 _atom_site_fract_z
 _atom_site_occupancy
  Cu  Cu0  1  0.41259756  0.50000000  0.29012554  1.0
  Cu  Cu1  1  0.91259756  0.50000000  0.70987446  1.0
  Cu  Cu2  1  0.58740244  0.50000000  0.70987446  1.0
  Cu  Cu3  1  0.08740244  0.50000000  0.29012554  1.0
  Hg  Hg4  1  0.25000000  0.00000000  0.71458901  1.0
  Hg  Hg5  1  0.75000000  0.00000000  0.28541099  1.0
  Hg  Hg6  1  0.50000000  0.00000000  0.00000000  1.0
  Hg  Hg7  1  0.00000000  0.00000000  0.00000000  1.0
  S  S8  1  0.99170860  0.00000000  0.25927639  1.0
  S  S9  1  0.49170860  0.00000000  0.74072361  1.0
  S  S10  1  0.00829140  0.00000000  0.74072361  1.0
  S  S11  1  0.50829140  0.00000000  0.25927639  1.0
  Cl  Cl12  1  0.25000000  0.50000000  0.07462466  1.0
  Cl  Cl13  1  0.75000000  0.50000000  0.92537534  1.0
  Cl  Cl14  1  0.25000000  0.50000000  0.47127694  1.0
  Cl  Cl15  1  0.75000000  0.50000000  0.52872306  1.0
