# generated using pymatgen
data_Ta4Cr
_symmetry_space_group_name_H-M   'P 1'
_cell_length_a   6.50783261
_cell_length_b   6.50783261
_cell_length_c   6.50783261
_cell_angle_alpha   60.00000000
_cell_angle_beta   60.00000000
_cell_angle_gamma   60.00000000
_symmetry_Int_Tables_number   1
_chemical_formula_structural   Ta4Cr
_chemical_formula_sum   'Ta8 Cr2'
_cell_volume   194.89204961
_cell_formula_units_Z   2
loop_
 _symmetry_equiv_pos_site_id
 _symmetry_equiv_pos_as_xyz
  1  'x, y, z'
loop_
 _atom_site_type_symbol
 _atom_site_label
 _atom_site_symmetry_multiplicity
 _atom_site_fract_x
 _atom_site_fract_y
 _atom_site_fract_z
 _atom_site_occupancy
  Ta  Ta0  1  -0.10602354  0.89397646  0.31807063  1.0
  Ta  Ta1  1  0.89397646  -0.68192937  0.89397646  1.0
  Ta  Ta2  1  0.35602354  0.35602354  0.35602354  1.0
  Ta  Ta3  1  -0.06807063  0.35602354  0.35602354  1.0
  Ta  Ta4  1  -0.68192937  0.89397646  0.89397646  1.0
  Ta  Ta5  1  0.89397646  -0.10602354  0.89397646  1.0
  Ta  Ta6  1  0.35602354  -0.06807063  0.35602354  1.0
  Ta  Ta7  1  0.35602354  0.35602354  -0.06807063  1.0
  Cr  Cr8  1  0.50000000  0.50000000  -0.50000000  1.0
  Cr  Cr9  1  0.75000000  -0.25000000  0.75000000  1.0
