# generated using pymatgen
data_La3Ta(ClO2)3
_symmetry_space_group_name_H-M   'P 1'
_cell_length_a   9.65399726
_cell_length_b   9.65399726
_cell_length_c   5.39240198
_cell_angle_alpha   90.00000000
_cell_angle_beta   90.00000000
_cell_angle_gamma   120.00000000
_symmetry_Int_Tables_number   1
_chemical_formula_structural   La3Ta(ClO2)3
_chemical_formula_sum   'La6 Ta2 Cl6 O12'
_cell_volume   435.23842813
_cell_formula_units_Z   2
loop_
 _symmetry_equiv_pos_site_id
 _symmetry_equiv_pos_as_xyz
  1  'x, y, z'
loop_
 _atom_site_type_symbol
 _atom_site_label
 _atom_site_symmetry_multiplicity
 _atom_site_fract_x
 _atom_site_fract_y
 _atom_site_fract_z
 _atom_site_occupancy
  La  La0  1  0.68534873  0.59679446  0.25000000  1.0
  La  La1  1  0.59679446  0.91144572  0.75000000  1.0
  La  La2  1  0.91144572  0.31465127  0.25000000  1.0
  La  La3  1  0.40320554  0.08855428  0.25000000  1.0
  La  La4  1  0.31465127  0.40320554  0.75000000  1.0
  La  La5  1  0.08855428  0.68534873  0.75000000  1.0
  Ta  Ta6  1  0.33333333  0.66666667  0.25000000  1.0
  Ta  Ta7  1  0.66666667  0.33333333  0.75000000  1.0
  Cl  Cl8  1  0.05050370  0.80905774  0.25000000  1.0
  Cl  Cl9  1  0.80905774  0.75855404  0.75000000  1.0
  Cl  Cl10  1  0.75855404  0.94949630  0.25000000  1.0
  Cl  Cl11  1  0.19094226  0.24144596  0.25000000  1.0
  Cl  Cl12  1  0.94949630  0.19094226  0.75000000  1.0
  Cl  Cl13  1  0.24144596  0.05050370  0.75000000  1.0
  O  O14  1  0.36515045  0.84074182  0.48431588  1.0
  O  O15  1  0.36515045  0.84074182  0.01568412  1.0
  O  O16  1  0.84074182  0.47559137  0.98431588  1.0
  O  O17  1  0.84074182  0.47559137  0.51568412  1.0
  O  O18  1  0.47559137  0.63484955  0.48431588  1.0
  O  O19  1  0.47559137  0.63484955  0.01568412  1.0
  O  O20  1  0.15925818  0.52440863  0.48431588  1.0
  O  O21  1  0.15925818  0.52440863  0.01568412  1.0
  O  O22  1  0.63484955  0.15925818  0.98431588  1.0
  O  O23  1  0.63484955  0.15925818  0.51568412  1.0
  O  O24  1  0.52440863  0.36515045  0.98431588  1.0
  O  O25  1  0.52440863  0.36515045  0.51568412  1.0
