# generated using pymatgen
data_Cs2Pd(ICl2)2
_symmetry_space_group_name_H-M   'P 1'
_cell_length_a   7.42383772
_cell_length_b   7.42383772
_cell_length_c   7.42383772
_cell_angle_alpha   111.69834697
_cell_angle_beta   111.69834697
_cell_angle_gamma   105.10329897
_symmetry_Int_Tables_number   1
_chemical_formula_structural   Cs2Pd(ICl2)2
_chemical_formula_sum   'Cs2 Pd1 I2 Cl4'
_cell_volume   313.60675476
_cell_formula_units_Z   1
loop_
 _symmetry_equiv_pos_site_id
 _symmetry_equiv_pos_as_xyz
  1  'x, y, z'
loop_
 _atom_site_type_symbol
 _atom_site_label
 _atom_site_symmetry_multiplicity
 _atom_site_fract_x
 _atom_site_fract_y
 _atom_site_fract_z
 _atom_site_occupancy
  Cs  Cs0  1  1.25000000  0.75000000  0.50000000  1.0
  Cs  Cs1  1  0.75000000  1.25000000  0.50000000  1.0
  Pd  Pd2  1  0.00000000  0.00000000  0.00000000  1.0
  I  I3  1  0.65890097  0.65890097  0.00000000  1.0
  I  I4  1  0.34109903  0.34109903  0.00000000  1.0
  Cl  Cl5  1  0.80227234  0.80227234  0.60454468  1.0
  Cl  Cl6  1  1.19772766  0.80227234  1.00000000  1.0
  Cl  Cl7  1  0.80227234  1.19772766  1.00000000  1.0
  Cl  Cl8  1  0.19772766  0.19772766  0.39545532  1.0
