# generated using pymatgen
data_BaPt2S3
_symmetry_space_group_name_H-M   'P 1'
_cell_length_a   6.87061014
_cell_length_b   6.87061014
_cell_length_c   12.42060856
_cell_angle_alpha   90.00000000
_cell_angle_beta   90.00000000
_cell_angle_gamma   90.00000000
_symmetry_Int_Tables_number   1
_chemical_formula_structural   BaPt2S3
_chemical_formula_sum   'Ba4 Pt8 S12'
_cell_volume   586.31835105
_cell_formula_units_Z   4
loop_
 _symmetry_equiv_pos_site_id
 _symmetry_equiv_pos_as_xyz
  1  'x, y, z'
loop_
 _atom_site_type_symbol
 _atom_site_label
 _atom_site_symmetry_multiplicity
 _atom_site_fract_x
 _atom_site_fract_y
 _atom_site_fract_z
 _atom_site_occupancy
  Ba  Ba0  1  0.31893729  0.68106271  0.25000000  1.0
  Ba  Ba1  1  0.81893729  0.81893729  0.50000000  1.0
  Ba  Ba2  1  0.68106271  0.31893729  0.75000000  1.0
  Ba  Ba3  1  0.18106271  0.18106271  0.00000000  1.0
  Pt  Pt4  1  0.49589228  0.74963528  0.87484485  1.0
  Pt  Pt5  1  0.99589228  0.75036472  0.87515515  1.0
  Pt  Pt6  1  0.25036472  0.50410772  0.62515515  1.0
  Pt  Pt7  1  0.75036472  0.99589228  0.12484485  1.0
  Pt  Pt8  1  0.50410772  0.25036472  0.37484485  1.0
  Pt  Pt9  1  0.00410772  0.24963528  0.37515515  1.0
  Pt  Pt10  1  0.74963528  0.49589228  0.12515515  1.0
  Pt  Pt11  1  0.24963528  0.00410772  0.62484485  1.0
  S  S12  1  0.24633888  0.66603620  0.99569144  1.0
  S  S13  1  0.74633888  0.83396380  0.75430856  1.0
  S  S14  1  0.33396380  0.75366112  0.50430856  1.0
  S  S15  1  0.83396380  0.74633888  0.24569144  1.0
  S  S16  1  0.75366112  0.33396380  0.49569144  1.0
  S  S17  1  0.25366112  0.16603620  0.25430856  1.0
  S  S18  1  0.66603620  0.24633888  0.00430856  1.0
  S  S19  1  0.16603620  0.25366112  0.74569144  1.0
  S  S20  1  0.75403748  0.24596252  0.25000000  1.0
  S  S21  1  0.25403748  0.25403748  0.50000000  1.0
  S  S22  1  0.24596252  0.75403748  0.75000000  1.0
  S  S23  1  0.74596252  0.74596252  0.00000000  1.0
