# generated using pymatgen
data_Hg4GeS6
_symmetry_space_group_name_H-M   'P 1'
_cell_length_a   7.30691406
_cell_length_b   7.30691406
_cell_length_c   12.70604550
_cell_angle_alpha   73.02678490
_cell_angle_beta   106.97321510
_cell_angle_gamma   119.78448015
_symmetry_Int_Tables_number   1
_chemical_formula_structural   Hg4GeS6
_chemical_formula_sum   'Hg8 Ge2 S12'
_cell_volume   554.23736334
_cell_formula_units_Z   2
loop_
 _symmetry_equiv_pos_site_id
 _symmetry_equiv_pos_as_xyz
  1  'x, y, z'
loop_
 _atom_site_type_symbol
 _atom_site_label
 _atom_site_symmetry_multiplicity
 _atom_site_fract_x
 _atom_site_fract_y
 _atom_site_fract_z
 _atom_site_occupancy
  Hg  Hg0  1  1.07699561  -0.20277150  0.70488683  1.0
  Hg  Hg1  1  1.20277150  -0.07699561  0.20488683  1.0
  Hg  Hg2  1  0.70572458  0.09705943  0.70136102  1.0
  Hg  Hg3  1  0.90294057  0.29427542  0.20136102  1.0
  Hg  Hg4  1  1.20468398  -0.44201057  0.51074105  1.0
  Hg  Hg5  1  1.44201057  -0.20468398  0.01074105  1.0
  Hg  Hg6  1  0.31054308  0.29913131  0.85769467  1.0
  Hg  Hg7  1  0.70086869  0.68945692  0.35769467  1.0
  Ge  Ge8  1  0.84721216  0.69354317  0.95090600  1.0
  Ge  Ge9  1  0.30645683  0.15278784  0.45090600  1.0
  S  S10  1  0.42699307  0.03684867  0.81968833  1.0
  S  S11  1  0.96315133  0.57300693  0.31968833  1.0
  S  S12  1  0.98772207  0.97934919  0.50126975  1.0
  S  S13  1  0.02065081  0.01227793  0.00126975  1.0
  S  S14  1  0.73591947  0.72628459  0.76601646  1.0
  S  S15  1  0.27371541  0.26408053  0.26601646  1.0
  S  S16  1  0.50562997  0.45399419  0.52484318  1.0
  S  S17  1  0.54600581  0.49437003  0.02484318  1.0
  S  S18  1  1.02455209  -0.50157015  0.00753258  1.0
  S  S19  1  1.50157015  -0.02455209  0.50753258  1.0
  S  S20  1  1.06911200  -0.56937025  0.69816013  1.0
  S  S21  1  1.56937025  -0.06911200  0.19816013  1.0
