# generated using pymatgen
data_Mg2Si
_symmetry_space_group_name_H-M   'P 1'
_cell_length_a   7.03721717
_cell_length_b   4.18682966
_cell_length_c   8.03919205
_cell_angle_alpha   90.00000000
_cell_angle_beta   90.00000000
_cell_angle_gamma   90.00000000
_symmetry_Int_Tables_number   1
_chemical_formula_structural   Mg2Si
_chemical_formula_sum   'Mg8 Si4'
_cell_volume   236.86377662
_cell_formula_units_Z   4
loop_
 _symmetry_equiv_pos_site_id
 _symmetry_equiv_pos_as_xyz
  1  'x, y, z'
loop_
 _atom_site_type_symbol
 _atom_site_label
 _atom_site_symmetry_multiplicity
 _atom_site_fract_x
 _atom_site_fract_y
 _atom_site_fract_z
 _atom_site_occupancy
  Mg  Mg0  1  0.86052955  0.75000000  0.06071530  1.0
  Mg  Mg1  1  0.36052955  0.75000000  0.43928470  1.0
  Mg  Mg2  1  0.13947045  0.25000000  0.93928470  1.0
  Mg  Mg3  1  0.63947045  0.25000000  0.56071530  1.0
  Mg  Mg4  1  0.96738483  0.75000000  0.66504038  1.0
  Mg  Mg5  1  0.46738483  0.75000000  0.83495962  1.0
  Mg  Mg6  1  0.03261517  0.25000000  0.33495962  1.0
  Mg  Mg7  1  0.53261517  0.25000000  0.16504038  1.0
  Si  Si8  1  0.74683430  0.75000000  0.37352715  1.0
  Si  Si9  1  0.24683430  0.75000000  0.12647285  1.0
  Si  Si10  1  0.25316570  0.25000000  0.62647285  1.0
  Si  Si11  1  0.75316570  0.25000000  0.87352715  1.0
