# generated using pymatgen
data_ScH3NCl3
_symmetry_space_group_name_H-M   'P 1'
_cell_length_a   7.26811596
_cell_length_b   9.39121641
_cell_length_c   9.43793699
_cell_angle_alpha   74.03475434
_cell_angle_beta   76.78444492
_cell_angle_gamma   82.68910225
_symmetry_Int_Tables_number   1
_chemical_formula_structural   ScH3NCl3
_chemical_formula_sum   'Sc4 H12 N4 Cl12'
_cell_volume   601.52236645
_cell_formula_units_Z   4
loop_
 _symmetry_equiv_pos_site_id
 _symmetry_equiv_pos_as_xyz
  1  'x, y, z'
loop_
 _atom_site_type_symbol
 _atom_site_label
 _atom_site_symmetry_multiplicity
 _atom_site_fract_x
 _atom_site_fract_y
 _atom_site_fract_z
 _atom_site_occupancy
  Sc  Sc0  1  0.92096636  0.80505031  0.56008950  1.0
  Sc  Sc1  1  0.07903364  0.19494969  0.43991050  1.0
  Sc  Sc2  1  0.60123718  0.69238722  0.94738465  1.0
  Sc  Sc3  1  0.39876282  0.30761278  0.05261535  1.0
  H  H4  1  0.79724626  0.23992130  0.99345339  1.0
  H  H5  1  0.20275374  0.76007870  0.00654661  1.0
  H  H6  1  0.75798496  0.58411265  0.48806481  1.0
  H  H7  1  0.24201504  0.41588735  0.51193519  1.0
  H  H8  1  0.75486058  0.73229114  0.34576809  1.0
  H  H9  1  0.24513942  0.26770886  0.65423191  1.0
  H  H10  1  0.72005511  0.23817185  0.84318938  1.0
  H  H11  1  0.27994489  0.76182815  0.15681062  1.0
  H  H12  1  0.69706013  0.09386912  0.99054322  1.0
  H  H13  1  0.30293987  0.90613088  0.00945678  1.0
  H  H14  1  0.59169411  0.71926373  0.50017333  1.0
  H  H15  1  0.40830589  0.28073627  0.49982667  1.0
  N  N16  1  0.73332672  0.69786012  0.46127901  1.0
  N  N17  1  0.26667328  0.30213988  0.53872099  1.0
  N  N18  1  0.68851703  0.20812790  0.95907189  1.0
  N  N19  1  0.31148297  0.79187210  0.04092811  1.0
  Cl  Cl20  1  0.90594788  0.59783993  0.79578017  1.0
  Cl  Cl21  1  0.09405212  0.40216007  0.20421983  1.0
  Cl  Cl22  1  0.80246977  0.31267730  0.56545028  1.0
  Cl  Cl23  1  0.19753023  0.68732270  0.43454972  1.0
  Cl  Cl24  1  0.75194787  0.81972738  0.07204403  1.0
  Cl  Cl25  1  0.24805213  0.18027262  0.92795597  1.0
  Cl  Cl26  1  0.60636061  0.89638140  0.71090323  1.0
  Cl  Cl27  1  0.39363939  0.10361860  0.28909677  1.0
  Cl  Cl28  1  0.41723160  0.53899361  0.84197292  1.0
  Cl  Cl29  1  0.58276840  0.46100639  0.15802708  1.0
  Cl  Cl30  1  0.09886159  0.96676788  0.65224209  1.0
  Cl  Cl31  1  0.90113841  0.03323212  0.34775791  1.0
