# generated using pymatgen
data_Gd4Fe
_symmetry_space_group_name_H-M   'P 1'
_cell_length_a   7.53956919
_cell_length_b   7.53956919
_cell_length_c   7.53956919
_cell_angle_alpha   60.00000000
_cell_angle_beta   60.00000000
_cell_angle_gamma   60.00000000
_symmetry_Int_Tables_number   1
_chemical_formula_structural   Gd4Fe
_chemical_formula_sum   'Gd8 Fe2'
_cell_volume   303.05719193
_cell_formula_units_Z   2
loop_
 _symmetry_equiv_pos_site_id
 _symmetry_equiv_pos_as_xyz
  1  'x, y, z'
loop_
 _atom_site_type_symbol
 _atom_site_label
 _atom_site_symmetry_multiplicity
 _atom_site_fract_x
 _atom_site_fract_y
 _atom_site_fract_z
 _atom_site_occupancy
  Gd  Gd0  1  -0.11604615  0.88395385  0.34813844  1.0
  Gd  Gd1  1  0.88395385  -0.65186156  0.88395385  1.0
  Gd  Gd2  1  0.36604615  0.36604615  0.36604615  1.0
  Gd  Gd3  1  -0.09813844  0.36604615  0.36604615  1.0
  Gd  Gd4  1  -0.65186156  0.88395385  0.88395385  1.0
  Gd  Gd5  1  0.88395385  -0.11604615  0.88395385  1.0
  Gd  Gd6  1  0.36604615  -0.09813844  0.36604615  1.0
  Gd  Gd7  1  0.36604615  0.36604615  -0.09813844  1.0
  Fe  Fe8  1  0.50000000  0.50000000  -0.50000000  1.0
  Fe  Fe9  1  0.75000000  -0.25000000  0.75000000  1.0
