# generated using pymatgen
data_FeO2
_symmetry_space_group_name_H-M   'P 1'
_cell_length_a   2.78517429
_cell_length_b   4.29348358
_cell_length_c   4.51035926
_cell_angle_alpha   90.00000000
_cell_angle_beta   90.00000000
_cell_angle_gamma   90.00000000
_symmetry_Int_Tables_number   1
_chemical_formula_structural   FeO2
_chemical_formula_sum   'Fe2 O4'
_cell_volume   53.93532738
_cell_formula_units_Z   2
loop_
 _symmetry_equiv_pos_site_id
 _symmetry_equiv_pos_as_xyz
  1  'x, y, z'
loop_
 _atom_site_type_symbol
 _atom_site_label
 _atom_site_symmetry_multiplicity
 _atom_site_fract_x
 _atom_site_fract_y
 _atom_site_fract_z
 _atom_site_occupancy
  Fe  Fe0  1  0.50000000  0.75000438  0.13594042  1.0
  Fe  Fe1  1  0.00000000  0.24999562  0.63594042  1.0
  O  O2  1  0.50000000  1.02096487  0.46534024  1.0
  O  O3  1  0.00000000  -0.02096487  -0.03465976  1.0
  O  O4  1  0.50000000  0.47902659  0.80651934  1.0
  O  O5  1  0.00000000  0.52097341  0.30651934  1.0
