# generated using pymatgen
data_LaPb2
_symmetry_space_group_name_H-M   'P 1'
_cell_length_a   6.41670495
_cell_length_b   6.41670495
_cell_length_c   6.41670495
_cell_angle_alpha   142.87488575
_cell_angle_beta   142.87488575
_cell_angle_gamma   53.51310559
_symmetry_Int_Tables_number   1
_chemical_formula_structural   LaPb2
_chemical_formula_sum   'La1 Pb2'
_cell_volume   95.63006693
_cell_formula_units_Z   1
loop_
 _symmetry_equiv_pos_site_id
 _symmetry_equiv_pos_as_xyz
  1  'x, y, z'
loop_
 _atom_site_type_symbol
 _atom_site_label
 _atom_site_symmetry_multiplicity
 _atom_site_fract_x
 _atom_site_fract_y
 _atom_site_fract_z
 _atom_site_occupancy
  La  La0  1  0.00000000  0.00000000  0.00000000  1.0
  Pb  Pb1  1  0.68464945  0.68464945  1.00000000  1.0
  Pb  Pb2  1  0.31535055  0.31535055  -0.00000000  1.0
