# generated using pymatgen
data_KNb8O14
_symmetry_space_group_name_H-M   'P 1'
_cell_length_a   9.42060572
_cell_length_b   10.32345646
_cell_length_c   5.94381027
_cell_angle_alpha   90.00000000
_cell_angle_beta   90.00000000
_cell_angle_gamma   90.00000000
_symmetry_Int_Tables_number   1
_chemical_formula_structural   KNb8O14
_chemical_formula_sum   'K2 Nb16 O28'
_cell_volume   578.05464596
_cell_formula_units_Z   2
loop_
 _symmetry_equiv_pos_site_id
 _symmetry_equiv_pos_as_xyz
  1  'x, y, z'
loop_
 _atom_site_type_symbol
 _atom_site_label
 _atom_site_symmetry_multiplicity
 _atom_site_fract_x
 _atom_site_fract_y
 _atom_site_fract_z
 _atom_site_occupancy
  K  K0  1  0.50000000  0.50000000  0.50000000  1.0
  K  K1  1  0.00000000  0.00000000  0.50000000  1.0
  Nb  Nb2  1  0.37240426  0.92435398  0.73641882  1.0
  Nb  Nb3  1  0.37240426  0.92435398  0.26358118  1.0
  Nb  Nb4  1  0.87240426  0.57564602  0.73641882  1.0
  Nb  Nb5  1  0.87240426  0.57564602  0.26358118  1.0
  Nb  Nb6  1  0.62759574  0.07564602  0.73641882  1.0
  Nb  Nb7  1  0.62759574  0.07564602  0.26358118  1.0
  Nb  Nb8  1  0.12759574  0.42435398  0.73641882  1.0
  Nb  Nb9  1  0.12759574  0.42435398  0.26358118  1.0
  Nb  Nb10  1  0.12119191  0.66602797  0.50000000  1.0
  Nb  Nb11  1  0.62119191  0.83397203  0.50000000  1.0
  Nb  Nb12  1  0.87880809  0.33397203  0.50000000  1.0
  Nb  Nb13  1  0.37880809  0.16602797  0.50000000  1.0
  Nb  Nb14  1  0.38885689  0.66286896  0.00000000  1.0
  Nb  Nb15  1  0.88885689  0.83713104  0.00000000  1.0
  Nb  Nb16  1  0.61114311  0.33713104  0.00000000  1.0
  Nb  Nb17  1  0.11114311  0.16286896  0.00000000  1.0
  O  O18  1  0.49548661  0.74819150  0.74964140  1.0
  O  O19  1  0.49548661  0.74819150  0.25035860  1.0
  O  O20  1  0.99548661  0.75180850  0.74964140  1.0
  O  O21  1  0.99548661  0.75180850  0.25035860  1.0
  O  O22  1  0.50451339  0.25180850  0.74964140  1.0
  O  O23  1  0.50451339  0.25180850  0.25035860  1.0
  O  O24  1  0.00451339  0.24819150  0.74964140  1.0
  O  O25  1  0.00451339  0.24819150  0.25035860  1.0
  O  O26  1  0.25304038  0.58928695  0.75427152  1.0
  O  O27  1  0.25304038  0.58928695  0.24572848  1.0
  O  O28  1  0.75304038  0.91071305  0.75427152  1.0
  O  O29  1  0.75304038  0.91071305  0.24572848  1.0
  O  O30  1  0.74695962  0.41071305  0.75427152  1.0
  O  O31  1  0.74695962  0.41071305  0.24572848  1.0
  O  O32  1  0.24695962  0.08928695  0.75427152  1.0
  O  O33  1  0.24695962  0.08928695  0.24572848  1.0
  O  O34  1  0.24833806  0.84222469  0.50000000  1.0
  O  O35  1  0.74833806  0.65777531  0.50000000  1.0
  O  O36  1  0.75166194  0.15777531  0.50000000  1.0
  O  O37  1  0.25166194  0.34222469  0.50000000  1.0
  O  O38  1  0.26727234  0.82230557  0.00000000  1.0
  O  O39  1  0.76727234  0.67769443  0.00000000  1.0
  O  O40  1  0.73272766  0.17769443  0.00000000  1.0
  O  O41  1  0.23272766  0.32230557  0.00000000  1.0
  O  O42  1  0.50000000  0.00000000  0.00000000  1.0
  O  O43  1  0.00000000  0.50000000  0.00000000  1.0
  O  O44  1  0.50000000  0.50000000  0.00000000  1.0
  O  O45  1  0.00000000  0.00000000  0.00000000  1.0
