# generated using pymatgen
data_H2CN2
_symmetry_space_group_name_H-M   'P 1'
_cell_length_a   8.14827139
_cell_length_b   8.12155044
_cell_length_c   7.10423784
_cell_angle_alpha   90.00000000
_cell_angle_beta   90.00000000
_cell_angle_gamma   90.00000000
_symmetry_Int_Tables_number   1
_chemical_formula_structural   H2CN2
_chemical_formula_sum   'H16 C8 N16'
_cell_volume   470.13428461
_cell_formula_units_Z   8
loop_
 _symmetry_equiv_pos_site_id
 _symmetry_equiv_pos_as_xyz
  1  'x, y, z'
loop_
 _atom_site_type_symbol
 _atom_site_label
 _atom_site_symmetry_multiplicity
 _atom_site_fract_x
 _atom_site_fract_y
 _atom_site_fract_z
 _atom_site_occupancy
  H  H0  1  0.38630469  0.47353680  0.21761552  1.0
  H  H1  1  0.38630469  0.02646320  0.71761552  1.0
  H  H2  1  0.88630469  0.47353680  0.28238448  1.0
  H  H3  1  0.88630469  0.02646320  0.78238448  1.0
  H  H4  1  0.61369531  0.97353680  0.28238448  1.0
  H  H5  1  0.61369531  0.52646320  0.78238448  1.0
  H  H6  1  0.11369531  0.97353680  0.21761552  1.0
  H  H7  1  0.11369531  0.52646320  0.71761552  1.0
  H  H8  1  0.26955885  0.36291517  0.04389757  1.0
  H  H9  1  0.26955885  0.13708483  0.54389757  1.0
  H  H10  1  0.76955885  0.36291517  0.45610243  1.0
  H  H11  1  0.76955885  0.13708483  0.95610243  1.0
  H  H12  1  0.73044115  0.86291517  0.45610243  1.0
  H  H13  1  0.73044115  0.63708483  0.95610243  1.0
  H  H14  1  0.23044115  0.86291517  0.04389757  1.0
  H  H15  1  0.23044115  0.63708483  0.54389757  1.0
  C  C16  1  0.48494228  0.25953650  0.12411620  1.0
  C  C17  1  0.48494228  0.24046350  0.62411620  1.0
  C  C18  1  0.98494228  0.25953650  0.37588380  1.0
  C  C19  1  0.98494228  0.24046350  0.87588380  1.0
  C  C20  1  0.51505772  0.75953650  0.37588380  1.0
  C  C21  1  0.51505772  0.74046350  0.87588380  1.0
  C  C22  1  0.01505772  0.75953650  0.12411620  1.0
  C  C23  1  0.01505772  0.74046350  0.62411620  1.0
  N  N24  1  0.58699274  0.15672094  0.12011275  1.0
  N  N25  1  0.58699274  0.34327906  0.62011275  1.0
  N  N26  1  1.08699274  0.15672094  0.37988725  1.0
  N  N27  1  1.08699274  0.34327906  0.87988725  1.0
  N  N28  1  0.41300726  0.65672094  0.37988725  1.0
  N  N29  1  0.41300726  0.84327906  0.87988725  1.0
  N  N30  1  -0.08699274  0.65672094  0.12011275  1.0
  N  N31  1  -0.08699274  0.84327906  0.62011275  1.0
  N  N32  1  0.37264163  0.37306163  0.12878462  1.0
  N  N33  1  0.37264163  0.12693837  0.62878462  1.0
  N  N34  1  0.87264163  0.37306163  0.37121538  1.0
  N  N35  1  0.87264163  0.12693837  0.87121538  1.0
  N  N36  1  0.62735837  0.87306163  0.37121538  1.0
  N  N37  1  0.62735837  0.62693837  0.87121538  1.0
  N  N38  1  0.12735837  0.87306163  0.12878462  1.0
  N  N39  1  0.12735837  0.62693837  0.62878462  1.0
