# generated using pymatgen
data_Na3BP2
_symmetry_space_group_name_H-M   'P 1'
_cell_length_a   6.97358267
_cell_length_b   9.35873612
_cell_length_c   9.18071710
_cell_angle_alpha   90.00000000
_cell_angle_beta   110.92530747
_cell_angle_gamma   90.00000000
_symmetry_Int_Tables_number   1
_chemical_formula_structural   Na3BP2
_chemical_formula_sum   'Na12 B4 P8'
_cell_volume   559.65244285
_cell_formula_units_Z   4
loop_
 _symmetry_equiv_pos_site_id
 _symmetry_equiv_pos_as_xyz
  1  'x, y, z'
loop_
 _atom_site_type_symbol
 _atom_site_label
 _atom_site_symmetry_multiplicity
 _atom_site_fract_x
 _atom_site_fract_y
 _atom_site_fract_z
 _atom_site_occupancy
  Na  Na0  1  0.71984777  0.02457869  0.38987817  1.0
  Na  Na1  1  0.71984777  0.47542131  0.88987817  1.0
  Na  Na2  1  0.28015223  0.52457869  0.11012183  1.0
  Na  Na3  1  0.28015223  0.97542131  0.61012183  1.0
  Na  Na4  1  0.23506941  0.21689815  0.31798974  1.0
  Na  Na5  1  0.23506941  0.28310185  0.81798974  1.0
  Na  Na6  1  0.76493059  0.71689815  0.18201026  1.0
  Na  Na7  1  0.76493059  0.78310185  0.68201026  1.0
  Na  Na8  1  0.74196885  0.43177537  0.47626399  1.0
  Na  Na9  1  0.74196885  0.06822463  0.97626399  1.0
  Na  Na10  1  0.25803115  0.93177537  0.02373601  1.0
  Na  Na11  1  0.25803115  0.56822463  0.52373601  1.0
  B  B12  1  0.72549171  0.32894075  0.18221506  1.0
  B  B13  1  0.72549171  0.17105925  0.68221506  1.0
  B  B14  1  0.27450829  0.82894075  0.31778494  1.0
  B  B15  1  0.27450829  0.67105925  0.81778494  1.0
  P  P16  1  0.49898783  0.22270611  0.13610618  1.0
  P  P17  1  0.49898783  0.27729389  0.63610618  1.0
  P  P18  1  0.50101217  0.72270611  0.36389382  1.0
  P  P19  1  0.50101217  0.77729389  0.86389382  1.0
  P  P20  1  0.94518309  0.44185321  0.23140348  1.0
  P  P21  1  0.94518309  0.05814679  0.73140348  1.0
  P  P22  1  0.05481691  0.94185321  0.26859652  1.0
  P  P23  1  0.05481691  0.55814679  0.76859652  1.0
