# generated using pymatgen
data_Ti2Al3
_symmetry_space_group_name_H-M   'P 1'
_cell_length_a   10.25442082
_cell_length_b   10.25442082
_cell_length_c   10.25442082
_cell_angle_alpha   145.23285358
_cell_angle_beta   145.23285358
_cell_angle_gamma   49.98765509
_symmetry_Int_Tables_number   1
_chemical_formula_structural   Ti2Al3
_chemical_formula_sum   'Ti8 Al12'
_cell_volume   348.94481696
_cell_formula_units_Z   4
loop_
 _symmetry_equiv_pos_site_id
 _symmetry_equiv_pos_as_xyz
  1  'x, y, z'
loop_
 _atom_site_type_symbol
 _atom_site_label
 _atom_site_symmetry_multiplicity
 _atom_site_fract_x
 _atom_site_fract_y
 _atom_site_fract_z
 _atom_site_occupancy
  Ti  Ti0  1  1.06054600  0.29131488  0.76923112  1.0
  Ti  Ti1  1  1.22791624  0.95868512  1.26923112  1.0
  Ti  Ti2  1  0.52208376  0.29131488  0.23076888  1.0
  Ti  Ti3  1  0.68945400  0.95868512  0.73076888  1.0
  Ti  Ti4  1  0.70868512  0.47791624  0.76923112  1.0
  Ti  Ti5  1  0.04131488  0.31054600  0.26923112  1.0
  Ti  Ti6  1  0.70868512  0.93945400  1.23076888  1.0
  Ti  Ti7  1  0.04131488  0.77208376  0.73076888  1.0
  Al  Al8  1  0.52332401  0.80171480  0.72160921  1.0
  Al  Al9  1  0.66989440  0.44828520  0.22160921  1.0
  Al  Al10  1  1.08010560  0.80171480  1.27839079  1.0
  Al  Al11  1  1.22667599  0.44828520  0.77839079  1.0
  Al  Al12  1  0.19828520  0.91989440  0.72160921  1.0
  Al  Al13  1  0.55171480  0.77332401  1.22160921  1.0
  Al  Al14  1  0.19828520  0.47667599  0.27839079  1.0
  Al  Al15  1  0.55171480  0.33010560  0.77839079  1.0
  Al  Al16  1  0.87500000  0.12500000  0.75000000  1.0
  Al  Al17  1  0.37500000  0.12500000  0.25000000  1.0
  Al  Al18  1  0.87500000  0.62500000  0.75000000  1.0
  Al  Al19  1  0.87500000  1.12500000  1.25000000  1.0
