# generated using pymatgen
data_Re2P5
_symmetry_space_group_name_H-M   'P 1'
_cell_length_a   7.37979257
_cell_length_b   8.28358758
_cell_length_c   8.39245676
_cell_angle_alpha   110.21858945
_cell_angle_beta   112.22330403
_cell_angle_gamma   87.05361907
_symmetry_Int_Tables_number   1
_chemical_formula_structural   Re2P5
_chemical_formula_sum   'Re8 P20'
_cell_volume   443.80413608
_cell_formula_units_Z   4
loop_
 _symmetry_equiv_pos_site_id
 _symmetry_equiv_pos_as_xyz
  1  'x, y, z'
loop_
 _atom_site_type_symbol
 _atom_site_label
 _atom_site_symmetry_multiplicity
 _atom_site_fract_x
 _atom_site_fract_y
 _atom_site_fract_z
 _atom_site_occupancy
  Re  Re0  1  -0.94363383  -0.41190541  0.90230600  1.0
  Re  Re1  1  -0.05636617  -0.58809459  0.09769400  1.0
  Re  Re2  1  -0.82131845  -0.98028539  0.74973449  1.0
  Re  Re3  1  -0.17868155  -0.01971461  0.25026551  1.0
  Re  Re4  1  -0.57429843  -0.92208160  0.14266654  1.0
  Re  Re5  1  -0.42570157  -0.07791840  0.85733346  1.0
  Re  Re6  1  -0.30366472  -0.64181989  0.70971710  1.0
  Re  Re7  1  -0.69633528  -0.35818011  0.29028290  1.0
  P  P8  1  -0.97640133  -0.71879223  0.83159710  1.0
  P  P9  1  -0.02359867  -0.28120777  0.16840290  1.0
  P  P10  1  -0.89239651  -0.08571211  0.95199977  1.0
  P  P11  1  -0.10760349  -0.91428789  0.04800023  1.0
  P  P12  1  -0.86336951  -0.45969914  0.63257743  1.0
  P  P13  1  -0.13663049  -0.54030086  0.36742257  1.0
  P  P14  1  -0.83969056  -0.91706540  0.47936598  1.0
  P  P15  1  -0.16030944  -0.08293460  0.52063402  1.0
  P  P16  1  -0.72935073  -0.65696132  0.25936848  1.0
  P  P17  1  -0.27064927  -0.34303868  0.74063152  1.0
  P  P18  1  -0.71857569  -0.24713905  0.59563264  1.0
  P  P19  1  -0.28142431  -0.75286095  0.40436736  1.0
  P  P20  1  -0.67978221  -0.66535012  0.53561207  1.0
  P  P21  1  -0.32021779  -0.33464988  0.46438793  1.0
  P  P22  1  -0.53452804  -0.80706051  0.94465762  1.0
  P  P23  1  -0.46547196  -0.19293949  0.05534238  1.0
  P  P24  1  -0.39791718  -0.58458976  0.95334873  1.0
  P  P25  1  -0.60208282  -0.41541024  0.04665127  1.0
  P  P26  1  -0.37555133  -0.95087606  0.63718740  1.0
  P  P27  1  -0.62444867  -0.04912394  0.36281260  1.0
