# generated using pymatgen
data_CoP2W
_symmetry_space_group_name_H-M   'P 1'
_cell_length_a   3.27872189
_cell_length_b   3.27872189
_cell_length_c   11.37937036
_cell_angle_alpha   90.00000000
_cell_angle_beta   90.00000000
_cell_angle_gamma   120.00000000
_symmetry_Int_Tables_number   1
_chemical_formula_structural   CoP2W
_chemical_formula_sum   'Co2 P4 W2'
_cell_volume   105.93952581
_cell_formula_units_Z   2
loop_
 _symmetry_equiv_pos_site_id
 _symmetry_equiv_pos_as_xyz
  1  'x, y, z'
loop_
 _atom_site_type_symbol
 _atom_site_label
 _atom_site_symmetry_multiplicity
 _atom_site_fract_x
 _atom_site_fract_y
 _atom_site_fract_z
 _atom_site_occupancy
  Co  Co0  1  -0.00000000  0.00000000  0.25000000  1.0
  Co  Co1  1  0.00000000  0.00000000  0.75000000  1.0
  P  P2  1  0.33333333  0.66666667  0.35912296  1.0
  P  P3  1  0.33333333  0.66666667  0.14087704  1.0
  P  P4  1  0.66666667  0.33333333  0.85912296  1.0
  P  P5  1  0.66666667  0.33333333  0.64087704  1.0
  W  W6  1  0.00000000  -0.00000000  0.50000000  1.0
  W  W7  1  0.00000000  0.00000000  0.00000000  1.0
