# generated using pymatgen
data_HoVO4
_symmetry_space_group_name_H-M   'P 1'
_cell_length_a   5.98861898
_cell_length_b   5.98861898
_cell_length_c   5.98861898
_cell_angle_alpha   106.13897461
_cell_angle_beta   106.13897461
_cell_angle_gamma   116.36345076
_symmetry_Int_Tables_number   1
_chemical_formula_structural   HoVO4
_chemical_formula_sum   'Ho2 V2 O8'
_cell_volume   163.51737809
_cell_formula_units_Z   2
loop_
 _symmetry_equiv_pos_site_id
 _symmetry_equiv_pos_as_xyz
  1  'x, y, z'
loop_
 _atom_site_type_symbol
 _atom_site_label
 _atom_site_symmetry_multiplicity
 _atom_site_fract_x
 _atom_site_fract_y
 _atom_site_fract_z
 _atom_site_occupancy
  Ho  Ho0  1  0.25000000  0.75000000  0.50000000  1.0
  Ho  Ho1  1  0.50000000  0.50000000  -0.00000000  1.0
  V  V2  1  0.00000000  0.00000000  0.00000000  1.0
  V  V3  1  0.75000000  1.25000000  0.50000000  1.0
  O  O4  1  0.17344129  0.35762891  0.18418762  1.0
  O  O5  1  1.10762891  1.42344129  0.68418762  1.0
  O  O6  1  0.73925367  0.42344129  0.31581238  1.0
  O  O7  1  0.17344129  0.98925367  0.81581238  1.0
  O  O8  1  0.57655871  0.89237109  0.31581238  1.0
  O  O9  1  1.64237109  0.82655871  0.81581238  1.0
  O  O10  1  1.01074633  0.82655871  1.18418762  1.0
  O  O11  1  0.57655871  1.26074633  0.68418762  1.0
