# generated using pymatgen
data_Nd2Fe17N3
_symmetry_space_group_name_H-M   'P 1'
_cell_length_a   6.53278802
_cell_length_b   6.53278802
_cell_length_c   6.53278802
_cell_angle_alpha   83.44248436
_cell_angle_beta   83.44248436
_cell_angle_gamma   83.44248436
_symmetry_Int_Tables_number   1
_chemical_formula_structural   Nd2Fe17N3
_chemical_formula_sum   'Nd2 Fe17 N3'
_cell_volume   273.71664270
_cell_formula_units_Z   1
loop_
 _symmetry_equiv_pos_site_id
 _symmetry_equiv_pos_as_xyz
  1  'x, y, z'
loop_
 _atom_site_type_symbol
 _atom_site_label
 _atom_site_symmetry_multiplicity
 _atom_site_fract_x
 _atom_site_fract_y
 _atom_site_fract_z
 _atom_site_occupancy
  Nd  Nd0  1  0.65485610  0.65485610  -0.34514390  1.0
  Nd  Nd1  1  0.34514390  0.34514390  -0.65485610  1.0
  Fe  Fe2  1  0.34171987  0.34171987  -0.14109178  1.0
  Fe  Fe3  1  0.34171987  0.85890822  -0.65828013  1.0
  Fe  Fe4  1  1.14109178  -0.34171987  -0.34171987  1.0
  Fe  Fe5  1  0.65828013  0.14109178  -0.34171987  1.0
  Fe  Fe6  1  0.65828013  -0.34171987  0.14109178  1.0
  Fe  Fe7  1  0.85890822  0.34171987  -0.65828013  1.0
  Fe  Fe8  1  0.71755353  -0.00000000  0.28244647  1.0
  Fe  Fe9  1  0.71755353  -0.71755353  0.00000000  1.0
  Fe  Fe10  1  -0.00000000  0.71755353  -0.71755353  1.0
  Fe  Fe11  1  -0.00000000  0.28244647  -0.28244647  1.0
  Fe  Fe12  1  1.28244647  -0.00000000  -0.28244647  1.0
  Fe  Fe13  1  0.28244647  -0.28244647  0.00000000  1.0
  Fe  Fe14  1  1.00000000  1.50000000  0.00000000  1.0
  Fe  Fe15  1  1.00000000  -0.00000000  -0.50000000  1.0
  Fe  Fe16  1  0.50000000  -0.00000000  0.00000000  1.0
  Fe  Fe17  1  0.90611948  0.90611948  -0.09388052  1.0
  Fe  Fe18  1  1.09388052  1.09388052  0.09388052  1.0
  N  N19  1  0.50000000  1.00000000  -0.50000000  1.0
  N  N20  1  0.50000000  -0.50000000  0.00000000  1.0
  N  N21  1  0.00000000  0.50000000  -0.50000000  1.0
