# generated using pymatgen
data_KLuP2O7
_symmetry_space_group_name_H-M   'P 1'
_cell_length_a   7.71315815
_cell_length_b   10.92058722
_cell_length_c   8.68449684
_cell_angle_alpha   90.00000000
_cell_angle_beta   107.51367308
_cell_angle_gamma   90.00000000
_symmetry_Int_Tables_number   1
_chemical_formula_structural   KLuP2O7
_chemical_formula_sum   'K4 Lu4 P8 O28'
_cell_volume   697.60518489
_cell_formula_units_Z   4
loop_
 _symmetry_equiv_pos_site_id
 _symmetry_equiv_pos_as_xyz
  1  'x, y, z'
loop_
 _atom_site_type_symbol
 _atom_site_label
 _atom_site_symmetry_multiplicity
 _atom_site_fract_x
 _atom_site_fract_y
 _atom_site_fract_z
 _atom_site_occupancy
  K  K0  1  0.82632793  0.82052255  0.42652852  1.0
  K  K1  1  0.82632793  0.67947745  0.92652852  1.0
  K  K2  1  0.17367207  0.32052255  0.07347148  1.0
  K  K3  1  0.17367207  0.17947745  0.57347148  1.0
  Lu  Lu4  1  0.76534542  0.40145909  0.24689226  1.0
  Lu  Lu5  1  0.76534542  0.09854091  0.74689226  1.0
  Lu  Lu6  1  0.23465458  0.90145909  0.25310774  1.0
  Lu  Lu7  1  0.23465458  0.59854091  0.75310774  1.0
  P  P8  1  0.87164489  0.10040986  0.18591272  1.0
  P  P9  1  0.87164489  0.39959014  0.68591272  1.0
  P  P10  1  0.12835511  0.60040986  0.31408728  1.0
  P  P11  1  0.12835511  0.89959014  0.81408728  1.0
  P  P12  1  0.55871691  0.13905881  0.30631639  1.0
  P  P13  1  0.55871691  0.36094119  0.80631639  1.0
  P  P14  1  0.44128309  0.63905881  0.19368361  1.0
  P  P15  1  0.44128309  0.86094119  0.69368361  1.0
  O  O16  1  0.00707640  0.49854653  0.21415056  1.0
  O  O17  1  0.00707640  1.00145347  0.71415056  1.0
  O  O18  1  0.99292360  -0.00145347  0.28584944  1.0
  O  O19  1  0.99292360  0.50145347  0.78584944  1.0
  O  O20  1  0.92938533  0.22750470  0.26204124  1.0
  O  O21  1  0.92938533  0.27249530  0.76204124  1.0
  O  O22  1  0.07061467  0.72750470  0.23795876  1.0
  O  O23  1  0.07061467  0.77249530  0.73795876  1.0
  O  O24  1  0.86295197  0.40326676  0.50876997  1.0
  O  O25  1  0.86295197  0.09673324  0.00876997  1.0
  O  O26  1  0.13704803  0.90326676  0.99123003  1.0
  O  O27  1  0.13704803  0.59673324  0.49123003  1.0
  O  O28  1  0.66927182  0.11302739  0.48141515  1.0
  O  O29  1  0.66927182  0.38697261  0.98141515  1.0
  O  O30  1  0.33072818  0.61302739  0.01858485  1.0
  O  O31  1  0.33072818  0.88697261  0.51858485  1.0
  O  O32  1  0.66674986  0.07068156  0.19353547  1.0
  O  O33  1  0.66674986  0.42931844  0.69353547  1.0
  O  O34  1  0.33325014  0.57068156  0.30646453  1.0
  O  O35  1  0.33325014  0.92931844  0.80646453  1.0
  O  O36  1  0.54282123  0.27535474  0.25917811  1.0
  O  O37  1  0.54282123  0.22464526  0.75917811  1.0
  O  O38  1  0.45717877  0.77535474  0.24082189  1.0
  O  O39  1  0.45717877  0.72464526  0.74082189  1.0
  O  O40  1  0.37026469  0.07908532  0.25758598  1.0
  O  O41  1  0.37026469  0.42091468  0.75758598  1.0
  O  O42  1  0.62973531  0.57908532  0.24241402  1.0
  O  O43  1  0.62973531  0.92091468  0.74241402  1.0
