# generated using pymatgen
data_Sn2Pd
_symmetry_space_group_name_H-M   'P 1'
_cell_length_a   13.28433982
_cell_length_b   13.28433982
_cell_length_c   13.28433982
_cell_angle_alpha   151.26964288
_cell_angle_beta   151.26964288
_cell_angle_gamma   41.08083772
_symmetry_Int_Tables_number   1
_chemical_formula_structural   Sn2Pd
_chemical_formula_sum   'Sn16 Pd8'
_cell_volume   540.51849324
_cell_formula_units_Z   8
loop_
 _symmetry_equiv_pos_site_id
 _symmetry_equiv_pos_as_xyz
  1  'x, y, z'
loop_
 _atom_site_type_symbol
 _atom_site_label
 _atom_site_symmetry_multiplicity
 _atom_site_fract_x
 _atom_site_fract_y
 _atom_site_fract_z
 _atom_site_occupancy
  Sn  Sn0  1  0.90877155  0.90877155  0.31754309  1.0
  Sn  Sn1  1  1.40877155  1.09122845  1.00000000  1.0
  Sn  Sn2  1  0.15877155  0.65877155  0.81754309  1.0
  Sn  Sn3  1  0.65877155  0.84122845  1.50000000  1.0
  Sn  Sn4  1  0.84122845  0.34122845  1.18245691  1.0
  Sn  Sn5  1  0.34122845  0.15877155  0.50000000  1.0
  Sn  Sn6  1  1.59122845  1.59122845  1.68245691  1.0
  Sn  Sn7  1  1.09122845  1.40877155  1.00000000  1.0
  Sn  Sn8  1  0.87232244  1.37500000  0.99732244  1.0
  Sn  Sn9  1  1.37232244  1.37500000  1.49732244  1.0
  Sn  Sn10  1  1.62500000  1.62232244  1.49732244  1.0
  Sn  Sn11  1  1.12500000  1.62767756  1.00267756  1.0
  Sn  Sn12  1  0.87767756  0.87500000  0.50267756  1.0
  Sn  Sn13  1  1.37767756  0.87500000  1.00267756  1.0
  Sn  Sn14  1  1.62500000  1.12232244  0.99732244  1.0
  Sn  Sn15  1  1.12500000  1.12767756  0.50267756  1.0
  Pd  Pd16  1  0.55820555  0.55820555  1.00000000  1.0
  Pd  Pd17  1  0.05820555  0.05820555  -0.00000000  1.0
  Pd  Pd18  1  0.80820555  1.30820555  0.50000000  1.0
  Pd  Pd19  1  1.30820555  0.80820555  0.50000000  1.0
  Pd  Pd20  1  1.19179445  0.69179445  0.50000000  1.0
  Pd  Pd21  1  0.69179445  1.19179445  0.50000000  1.0
  Pd  Pd22  1  0.94179445  0.94179445  -0.00000000  1.0
  Pd  Pd23  1  1.44179445  1.44179445  1.00000000  1.0
