# generated using pymatgen
data_Cd(H3C)2
_symmetry_space_group_name_H-M   'P 1'
_cell_length_a   8.24348177
_cell_length_b   8.08853223
_cell_length_c   9.10598347
_cell_angle_alpha   90.00000000
_cell_angle_beta   124.96775689
_cell_angle_gamma   90.00000000
_symmetry_Int_Tables_number   1
_chemical_formula_structural   Cd(H3C)2
_chemical_formula_sum   'Cd4 H24 C8'
_cell_volume   497.55696126
_cell_formula_units_Z   4
loop_
 _symmetry_equiv_pos_site_id
 _symmetry_equiv_pos_as_xyz
  1  'x, y, z'
loop_
 _atom_site_type_symbol
 _atom_site_label
 _atom_site_symmetry_multiplicity
 _atom_site_fract_x
 _atom_site_fract_y
 _atom_site_fract_z
 _atom_site_occupancy
  Cd  Cd0  1  0.24765544  0.89318789  0.99931757  1.0
  Cd  Cd1  1  0.24765544  0.60681211  0.49931757  1.0
  Cd  Cd2  1  0.75234456  0.10681211  0.00068243  1.0
  Cd  Cd3  1  0.75234456  0.39318789  0.50068243  1.0
  H  H4  1  0.10817351  0.10802571  0.72303143  1.0
  H  H5  1  0.10817351  0.39197430  0.22303143  1.0
  H  H6  1  0.89182649  0.89197430  0.27696857  1.0
  H  H7  1  0.89182649  0.60802571  0.77696857  1.0
  H  H8  1  0.90637819  0.03658640  0.72760291  1.0
  H  H9  1  0.90637819  0.46341360  0.22760291  1.0
  H  H10  1  0.09362181  0.96341360  0.27239709  1.0
  H  H11  1  0.09362181  0.53658640  0.77239709  1.0
  H  H12  1  0.06921637  0.19339518  0.88117836  1.0
  H  H13  1  0.06921637  0.30660482  0.38117836  1.0
  H  H14  1  0.93078363  0.80660482  0.11882164  1.0
  H  H15  1  0.93078363  0.69339518  0.61882164  1.0
  H  H16  1  0.55074620  0.67306837  0.16716651  1.0
  H  H17  1  0.55074620  0.82693163  0.66716651  1.0
  H  H18  1  0.44925380  0.32693163  0.83283349  1.0
  H  H19  1  0.44925380  0.17306837  0.33283349  1.0
  H  H20  1  0.34905539  0.59711100  0.16990983  1.0
  H  H21  1  0.34905539  0.90288900  0.66990983  1.0
  H  H22  1  0.65094461  0.40288900  0.83009017  1.0
  H  H23  1  0.65094461  0.09711100  0.33009017  1.0
  H  H24  1  0.50858747  0.75454342  0.32492381  1.0
  H  H25  1  0.50858747  0.74545658  0.82492381  1.0
  H  H26  1  0.49141253  0.24545658  0.67507619  1.0
  H  H27  1  0.49141253  0.25454342  0.17507619  1.0
  C  C28  1  0.06044143  0.07980664  0.81087215  1.0
  C  C29  1  0.06044143  0.42019336  0.31087215  1.0
  C  C30  1  0.93955857  0.92019336  0.18912785  1.0
  C  C31  1  0.93955857  0.57980664  0.68912785  1.0
  C  C32  1  0.43626645  0.70745716  0.18783327  1.0
  C  C33  1  0.43626645  0.79254284  0.68783327  1.0
  C  C34  1  0.56373355  0.29254284  0.81216673  1.0
  C  C35  1  0.56373355  0.20745716  0.31216673  1.0
