# generated using pymatgen
data_Ca3MnNiO6
_symmetry_space_group_name_H-M   'P 1'
_cell_length_a   6.36164581
_cell_length_b   6.36164581
_cell_length_c   6.36164581
_cell_angle_alpha   92.19421994
_cell_angle_beta   92.19421994
_cell_angle_gamma   92.19421994
_symmetry_Int_Tables_number   1
_chemical_formula_structural   Ca3MnNiO6
_chemical_formula_sum   'Ca6 Mn2 Ni2 O12'
_cell_volume   256.87800728
_cell_formula_units_Z   2
loop_
 _symmetry_equiv_pos_site_id
 _symmetry_equiv_pos_as_xyz
  1  'x, y, z'
loop_
 _atom_site_type_symbol
 _atom_site_label
 _atom_site_symmetry_multiplicity
 _atom_site_fract_x
 _atom_site_fract_y
 _atom_site_fract_z
 _atom_site_occupancy
  Ca  Ca0  1  0.88923240  1.25000000  -0.38923240  1.0
  Ca  Ca1  1  1.38923240  0.11076760  -0.25000000  1.0
  Ca  Ca2  1  0.75000000  0.38923240  0.11076760  1.0
  Ca  Ca3  1  1.25000000  0.61076760  -0.11076760  1.0
  Ca  Ca4  1  1.11076760  -0.25000000  0.38923240  1.0
  Ca  Ca5  1  0.61076760  0.88923240  0.25000000  1.0
  Mn  Mn6  1  0.50000000  0.50000000  0.50000000  1.0
  Mn  Mn7  1  0.00000000  0.00000000  0.00000000  1.0
  Ni  Ni8  1  0.25000000  0.25000000  0.25000000  1.0
  Ni  Ni9  1  0.75000000  0.75000000  0.75000000  1.0
  O  O10  1  1.21176511  0.42127752  -0.45801878  1.0
  O  O11  1  0.71176511  1.04198122  -0.07872248  1.0
  O  O12  1  0.95801878  0.07872248  0.28823489  1.0
  O  O13  1  1.45801878  -0.21176511  0.57872248  1.0
  O  O14  1  1.57872248  0.45801878  -0.21176511  1.0
  O  O15  1  1.07872248  0.28823489  -0.04198122  1.0
  O  O16  1  0.78823489  0.57872248  0.45801878  1.0
  O  O17  1  1.28823489  -0.04198122  0.07872248  1.0
  O  O18  1  0.54198122  1.21176511  -0.57872248  1.0
  O  O19  1  1.04198122  0.92127752  -0.28823489  1.0
  O  O20  1  0.92127752  0.71176511  0.04198122  1.0
  O  O21  1  0.42127752  0.54198122  0.21176511  1.0
