# generated using pymatgen
data_Na3Sr3GaSb4
_symmetry_space_group_name_H-M   'P 1'
_cell_length_a   10.26636954
_cell_length_b   10.26636954
_cell_length_c   8.00955954
_cell_angle_alpha   90.00000000
_cell_angle_beta   90.00000000
_cell_angle_gamma   120.00000000
_symmetry_Int_Tables_number   1
_chemical_formula_structural   Na3Sr3GaSb4
_chemical_formula_sum   'Na6 Sr6 Ga2 Sb8'
_cell_volume   731.09371622
_cell_formula_units_Z   2
loop_
 _symmetry_equiv_pos_site_id
 _symmetry_equiv_pos_as_xyz
  1  'x, y, z'
loop_
 _atom_site_type_symbol
 _atom_site_label
 _atom_site_symmetry_multiplicity
 _atom_site_fract_x
 _atom_site_fract_y
 _atom_site_fract_z
 _atom_site_occupancy
  Na  Na0  1  0.71729602  0.85864801  0.04476863  1.0
  Na  Na1  1  0.85864801  0.71729602  0.54476863  1.0
  Na  Na2  1  0.85864801  0.14135199  0.54476863  1.0
  Na  Na3  1  0.14135199  0.85864801  0.04476863  1.0
  Na  Na4  1  0.14135199  0.28270398  0.04476863  1.0
  Na  Na5  1  0.28270398  0.14135199  0.54476863  1.0
  Sr  Sr6  1  0.96149382  0.48074691  0.22066813  1.0
  Sr  Sr7  1  0.48074691  0.96149382  0.72066813  1.0
  Sr  Sr8  1  0.48074691  0.51925309  0.72066813  1.0
  Sr  Sr9  1  0.51925309  0.48074691  0.22066813  1.0
  Sr  Sr10  1  0.51925309  0.03850618  0.22066813  1.0
  Sr  Sr11  1  0.03850618  0.51925309  0.72066813  1.0
  Ga  Ga12  1  0.33333333  0.66666667  0.34837612  1.0
  Ga  Ga13  1  0.66666667  0.33333333  0.84837612  1.0
  Sb  Sb14  1  0.62636667  0.81318334  0.44409275  1.0
  Sb  Sb15  1  0.81318334  0.62636667  0.94409275  1.0
  Sb  Sb16  1  0.81318334  0.18681666  0.94409275  1.0
  Sb  Sb17  1  0.18681666  0.81318334  0.44409275  1.0
  Sb  Sb18  1  0.18681666  0.37363333  0.44409275  1.0
  Sb  Sb19  1  0.37363333  0.18681666  0.94409275  1.0
  Sb  Sb20  1  0.33333333  0.66666667  -0.00336466  1.0
  Sb  Sb21  1  0.66666667  0.33333333  0.49663534  1.0
