# generated using pymatgen
data_La3RuO7
_symmetry_space_group_name_H-M   'P 1'
_cell_length_a   8.92262011
_cell_length_b   5.78008875
_cell_length_c   12.65983261
_cell_angle_alpha   90.00000000
_cell_angle_beta   104.40862831
_cell_angle_gamma   90.00000000
_symmetry_Int_Tables_number   1
_chemical_formula_structural   La3RuO7
_chemical_formula_sum   'La12 Ru4 O28'
_cell_volume   632.37543380
_cell_formula_units_Z   4
loop_
 _symmetry_equiv_pos_site_id
 _symmetry_equiv_pos_as_xyz
  1  'x, y, z'
loop_
 _atom_site_type_symbol
 _atom_site_label
 _atom_site_symmetry_multiplicity
 _atom_site_fract_x
 _atom_site_fract_y
 _atom_site_fract_z
 _atom_site_occupancy
  La  La0  1  0.93067136  0.01175767  0.13187149  1.0
  La  La1  1  0.93067136  0.48824233  0.63187149  1.0
  La  La2  1  0.06932864  0.51175767  0.36812851  1.0
  La  La3  1  0.06932864  0.98824233  0.86812851  1.0
  La  La4  1  0.79511549  0.98083385  0.42879747  1.0
  La  La5  1  0.79511549  0.51916615  0.92879747  1.0
  La  La6  1  0.20488451  0.48083385  0.07120253  1.0
  La  La7  1  0.20488451  0.01916615  0.57120253  1.0
  La  La8  1  0.49820647  0.48286375  0.35832802  1.0
  La  La9  1  0.49820647  0.01713625  0.85832802  1.0
  La  La10  1  0.50179353  0.98286375  0.14167198  1.0
  La  La11  1  0.50179353  0.51713625  0.64167198  1.0
  O  O12  1  0.99331091  0.25770708  0.48890506  1.0
  O  O13  1  0.99331091  0.24229292  0.98890506  1.0
  O  O14  1  0.00668909  0.75770708  0.01109494  1.0
  O  O15  1  0.00668909  0.74229292  0.51109494  1.0
  O  O16  1  0.73958932  0.14379983  0.24740315  1.0
  O  O17  1  0.73958932  0.35620017  0.74740315  1.0
  O  O18  1  0.26041068  0.64379983  0.25259685  1.0
  O  O19  1  0.26041068  0.85620017  0.75259685  1.0
  O  O20  1  0.67207959  0.23540097  0.03450818  1.0
  O  O21  1  0.67207959  0.26459903  0.53450818  1.0
  O  O22  1  0.32792041  0.73540097  0.46549182  1.0
  O  O23  1  0.32792041  0.76459903  0.96549182  1.0
  O  O24  1  0.93487965  0.44237515  0.17829635  1.0
  O  O25  1  0.93487965  0.05762485  0.67829635  1.0
  O  O26  1  0.06512035  0.94237515  0.32170365  1.0
  O  O27  1  0.06512035  0.55762485  0.82170365  1.0
  O  O28  1  0.24883903  0.10781424  0.19024163  1.0
  O  O29  1  0.24883903  0.39218576  0.69024163  1.0
  O  O30  1  0.75116097  0.60781424  0.30975837  1.0
  O  O31  1  0.75116097  0.89218576  0.80975837  1.0
  O  O32  1  0.30738254  0.23432756  0.41928516  1.0
  O  O33  1  0.30738254  0.26567244  0.91928516  1.0
  O  O34  1  0.69261746  0.73432756  0.08071484  1.0
  O  O35  1  0.69261746  0.76567244  0.58071484  1.0
  O  O36  1  0.49236484  0.42531726  0.16977400  1.0
  O  O37  1  0.49236484  0.07468274  0.66977400  1.0
  O  O38  1  0.50763516  0.92531726  0.33022600  1.0
  O  O39  1  0.50763516  0.57468274  0.83022600  1.0
  Ru  Ru40  1  0.71562201  0.44870300  0.17036579  1.0
  Ru  Ru41  1  0.71562201  0.05129700  0.67036579  1.0
  Ru  Ru42  1  0.28437799  0.94870300  0.32963421  1.0
  Ru  Ru43  1  0.28437799  0.55129700  0.82963421  1.0
