# generated using pymatgen
data_MnFeP
_symmetry_space_group_name_H-M   'P 1'
_cell_length_a   5.79399982
_cell_length_b   3.52510283
_cell_length_c   6.63402925
_cell_angle_alpha   90.00000000
_cell_angle_beta   90.00000000
_cell_angle_gamma   90.00000000
_symmetry_Int_Tables_number   1
_chemical_formula_structural   MnFeP
_chemical_formula_sum   'Mn4 Fe4 P4'
_cell_volume   135.49636664
_cell_formula_units_Z   4
loop_
 _symmetry_equiv_pos_site_id
 _symmetry_equiv_pos_as_xyz
  1  'x, y, z'
loop_
 _atom_site_type_symbol
 _atom_site_label
 _atom_site_symmetry_multiplicity
 _atom_site_fract_x
 _atom_site_fract_y
 _atom_site_fract_z
 _atom_site_occupancy
  Mn  Mn0  1  0.97024470  0.75000000  0.67292593  1.0
  Mn  Mn1  1  0.47024470  0.75000000  0.82707407  1.0
  Mn  Mn2  1  0.02975530  0.25000000  0.32707407  1.0
  Mn  Mn3  1  0.52975530  0.25000000  0.17292593  1.0
  Fe  Fe4  1  0.85184524  0.75000000  0.06269886  1.0
  Fe  Fe5  1  0.35184524  0.75000000  0.43730114  1.0
  Fe  Fe6  1  0.14815476  0.25000000  0.93730114  1.0
  Fe  Fe7  1  0.64815476  0.25000000  0.56269886  1.0
  P  P8  1  0.73058773  0.75000000  0.37581285  1.0
  P  P9  1  0.23058773  0.75000000  0.12418715  1.0
  P  P10  1  0.26941227  0.25000000  0.62418715  1.0
  P  P11  1  0.76941227  0.25000000  0.87581285  1.0
