# generated using pymatgen
data_Ba(AsO3)2
_symmetry_space_group_name_H-M   'P 1'
_cell_length_a   9.84364080
_cell_length_b   9.84364080
_cell_length_c   5.11622995
_cell_angle_alpha   76.16945959
_cell_angle_beta   103.83054041
_cell_angle_gamma   44.71987754
_symmetry_Int_Tables_number   1
_chemical_formula_structural   Ba(AsO3)2
_chemical_formula_sum   'Ba2 As4 O12'
_cell_volume   271.35628759
_cell_formula_units_Z   2
loop_
 _symmetry_equiv_pos_site_id
 _symmetry_equiv_pos_as_xyz
  1  'x, y, z'
loop_
 _atom_site_type_symbol
 _atom_site_label
 _atom_site_symmetry_multiplicity
 _atom_site_fract_x
 _atom_site_fract_y
 _atom_site_fract_z
 _atom_site_occupancy
  Ba  Ba0  1  0.85482119  0.85482119  0.25000000  1.0
  Ba  Ba1  1  1.14517881  0.14517881  0.75000000  1.0
  As  As2  1  1.46563179  0.46563179  0.25000000  1.0
  As  As3  1  0.53436821  0.53436821  0.75000000  1.0
  As  As4  1  1.31168275  0.31168275  0.25000000  1.0
  As  As5  1  0.68831725  0.68831725  0.75000000  1.0
  O  O6  1  1.28788673  0.65056330  0.38955007  1.0
  O  O7  1  1.65056330  0.28788673  0.11044993  1.0
  O  O8  1  0.71211327  0.34943670  0.61044993  1.0
  O  O9  1  1.34943670  -0.28788673  0.88955007  1.0
  O  O10  1  1.19701830  0.57136196  0.95839716  1.0
  O  O11  1  1.57136196  0.19701830  0.54160284  1.0
  O  O12  1  0.80298170  0.42863804  0.04160284  1.0
  O  O13  1  1.42863804  -0.19701830  0.45839716  1.0
  O  O14  1  1.11977571  0.41447509  0.35264587  1.0
  O  O15  1  1.41447509  0.11977571  0.14735413  1.0
  O  O16  1  0.88022429  0.58552491  0.64735413  1.0
  O  O17  1  1.58552491  -0.11977571  0.85264587  1.0
