# generated using pymatgen
data_TlPt(CN)5
_symmetry_space_group_name_H-M   'P 1'
_cell_length_a   7.95658934
_cell_length_b   7.95658934
_cell_length_c   8.23662392
_cell_angle_alpha   90.00000000
_cell_angle_beta   90.00000000
_cell_angle_gamma   90.00000000
_symmetry_Int_Tables_number   1
_chemical_formula_structural   TlPt(CN)5
_chemical_formula_sum   'Tl2 Pt2 C10 N10'
_cell_volume   521.43853683
_cell_formula_units_Z   2
loop_
 _symmetry_equiv_pos_site_id
 _symmetry_equiv_pos_as_xyz
  1  'x, y, z'
loop_
 _atom_site_type_symbol
 _atom_site_label
 _atom_site_symmetry_multiplicity
 _atom_site_fract_x
 _atom_site_fract_y
 _atom_site_fract_z
 _atom_site_occupancy
  Tl  Tl0  1  0.50000000  0.00000000  0.13154341  1.0
  Tl  Tl1  1  0.00000000  0.50000000  0.86845659  1.0
  Pt  Pt2  1  0.50000000  0.00000000  0.79921839  1.0
  Pt  Pt3  1  0.00000000  0.50000000  0.20078161  1.0
  C  C4  1  0.67853388  0.17853388  0.80304061  1.0
  C  C5  1  0.67853388  0.82146612  0.80304061  1.0
  C  C6  1  0.17853388  0.67853388  0.19695939  1.0
  C  C7  1  0.17853388  0.32146612  0.19695939  1.0
  C  C8  1  0.82146612  0.67853388  0.19695939  1.0
  C  C9  1  0.82146612  0.32146612  0.19695939  1.0
  C  C10  1  0.32146612  0.17853388  0.80304061  1.0
  C  C11  1  0.32146612  0.82146612  0.80304061  1.0
  C  C12  1  0.50000000  0.00000000  0.55381658  1.0
  C  C13  1  0.00000000  0.50000000  0.44618342  1.0
  N  N14  1  0.71812936  0.21812936  0.19802048  1.0
  N  N15  1  0.71812936  0.78187064  0.19802048  1.0
  N  N16  1  0.21812936  0.71812936  0.80197952  1.0
  N  N17  1  0.21812936  0.28187064  0.80197952  1.0
  N  N18  1  0.78187064  0.71812936  0.80197952  1.0
  N  N19  1  0.78187064  0.28187064  0.80197952  1.0
  N  N20  1  0.28187064  0.21812936  0.19802048  1.0
  N  N21  1  0.28187064  0.78187064  0.19802048  1.0
  N  N22  1  0.50000000  0.00000000  0.41297661  1.0
  N  N23  1  0.00000000  0.50000000  0.58702339  1.0
