# generated using pymatgen
data_CuP(HO)5
_symmetry_space_group_name_H-M   'P 1'
_cell_length_a   6.70840410
_cell_length_b   7.41354897
_cell_length_c   9.17490626
_cell_angle_alpha   90.00000000
_cell_angle_beta   90.00000000
_cell_angle_gamma   90.00000000
_symmetry_Int_Tables_number   1
_chemical_formula_structural   CuP(HO)5
_chemical_formula_sum   'Cu4 P4 H20 O20'
_cell_volume   456.29636818
_cell_formula_units_Z   4
loop_
 _symmetry_equiv_pos_site_id
 _symmetry_equiv_pos_as_xyz
  1  'x, y, z'
loop_
 _atom_site_type_symbol
 _atom_site_label
 _atom_site_symmetry_multiplicity
 _atom_site_fract_x
 _atom_site_fract_y
 _atom_site_fract_z
 _atom_site_occupancy
  H  H0  1  0.35627319  0.69529233  0.88520201  1.0
  H  H1  1  0.85627319  0.80470767  0.11479799  1.0
  H  H2  1  0.64372681  0.19529233  0.61479799  1.0
  H  H3  1  0.14372681  0.30470767  0.38520201  1.0
  H  H4  1  0.37651265  0.31322446  0.94139954  1.0
  H  H5  1  0.87651265  0.18677554  0.05860046  1.0
  H  H6  1  0.62348735  0.81322446  0.55860046  1.0
  H  H7  1  0.12348735  0.68677554  0.44139954  1.0
  H  H8  1  0.31615081  0.63018759  0.53668634  1.0
  H  H9  1  0.81615081  0.86981241  0.46331366  1.0
  H  H10  1  0.68384919  0.13018759  0.96331366  1.0
  H  H11  1  0.18384919  0.36981241  0.03668634  1.0
  H  H12  1  0.02418837  0.55601091  0.65835928  1.0
  H  H13  1  0.52418837  0.94398909  0.34164072  1.0
  H  H14  1  0.97581163  0.05601091  0.84164072  1.0
  H  H15  1  0.47581163  0.44398909  0.15835928  1.0
  H  H16  1  0.93070554  0.85394444  0.81980451  1.0
  H  H17  1  0.43070554  0.64605556  0.18019549  1.0
  H  H18  1  0.06929446  0.35394444  0.68019549  1.0
  H  H19  1  0.56929446  0.14605556  0.31980451  1.0
  O  O20  1  0.49569429  0.97564954  0.96365274  1.0
  O  O21  1  0.99569429  0.52435046  0.03634726  1.0
  O  O22  1  0.50430571  0.47564954  0.53634726  1.0
  O  O23  1  0.00430571  0.02435046  0.46365274  1.0
  O  O24  1  0.47986736  0.88467672  0.69166253  1.0
  O  O25  1  0.97986736  0.61532328  0.30833747  1.0
  O  O26  1  0.52013264  0.38467672  0.80833747  1.0
  O  O27  1  0.02013264  0.11532328  0.19166253  1.0
  O  O28  1  0.19350967  0.70794660  0.53708799  1.0
  O  O29  1  0.69350967  0.79205340  0.46291201  1.0
  O  O30  1  0.80649033  0.20794660  0.96291201  1.0
  O  O31  1  0.30649033  0.29205340  0.03708799  1.0
  O  O32  1  0.03828468  0.94407701  0.80743219  1.0
  O  O33  1  0.53828468  0.55592299  0.19256781  1.0
  O  O34  1  0.96171532  0.44407701  0.69256781  1.0
  O  O35  1  0.46171532  0.05592299  0.30743219  1.0
  O  O36  1  0.21405385  0.77679951  0.13902764  1.0
  O  O37  1  0.71405385  0.72320049  0.86097236  1.0
  O  O38  1  0.78594615  0.27679951  0.36097236  1.0
  O  O39  1  0.28594615  0.22320049  0.63902764  1.0
  Cu  Cu40  1  0.23186633  0.96754648  0.59602570  1.0
  Cu  Cu41  1  0.73186633  0.53245352  0.40397430  1.0
  Cu  Cu42  1  0.76813367  0.46754648  0.90397430  1.0
  Cu  Cu43  1  0.26813367  0.03245352  0.09602570  1.0
  P  P44  1  0.49169984  0.31852465  0.64822302  1.0
  P  P45  1  0.99169984  0.18147535  0.35177698  1.0
  P  P46  1  0.50830016  0.81852465  0.85177698  1.0
  P  P47  1  0.00830016  0.68147535  0.14822302  1.0
