# generated using pymatgen
data_Eu(GaS2)2
_symmetry_space_group_name_H-M   'P 1'
_cell_length_a   6.00390676
_cell_length_b   6.00390676
_cell_length_c   10.41824805
_cell_angle_alpha   90.00000000
_cell_angle_beta   90.00000000
_cell_angle_gamma   119.07005624
_symmetry_Int_Tables_number   1
_chemical_formula_structural   Eu(GaS2)2
_chemical_formula_sum   'Eu2 Ga4 S8'
_cell_volume   328.23664049
_cell_formula_units_Z   2
loop_
 _symmetry_equiv_pos_site_id
 _symmetry_equiv_pos_as_xyz
  1  'x, y, z'
loop_
 _atom_site_type_symbol
 _atom_site_label
 _atom_site_symmetry_multiplicity
 _atom_site_fract_x
 _atom_site_fract_y
 _atom_site_fract_z
 _atom_site_occupancy
  Eu  Eu0  1  0.00000000  0.00000000  0.75000000  1.0
  Eu  Eu1  1  0.00000000  0.00000000  0.25000000  1.0
  Ga  Ga2  1  -0.26716017  1.26403542  0.00000000  1.0
  Ga  Ga3  1  0.26403542  0.73283983  0.50000000  1.0
  Ga  Ga4  1  -0.26403542  1.26716017  0.50000000  1.0
  Ga  Ga5  1  0.26716017  0.73596458  0.00000000  1.0
  S  S6  1  -0.14458360  1.69029531  0.00000000  1.0
  S  S7  1  0.69029531  0.85541640  0.50000000  1.0
  S  S8  1  -0.69029531  1.14458360  0.50000000  1.0
  S  S9  1  0.14458360  0.30970469  0.00000000  1.0
  S  S10  1  -0.00000000  1.50000000  0.66795713  1.0
  S  S11  1  -0.00000000  1.50000000  0.33204287  1.0
  S  S12  1  0.50000000  1.00000000  0.16795713  1.0
  S  S13  1  0.50000000  1.00000000  0.83204287  1.0
