# generated using pymatgen
data_LiNd2HO3
_symmetry_space_group_name_H-M   'P 1'
_cell_length_a   6.80733337
_cell_length_b   6.80733337
_cell_length_c   6.80733337
_cell_angle_alpha   150.30355432
_cell_angle_beta   148.47647999
_cell_angle_gamma   43.85563110
_symmetry_Int_Tables_number   1
_chemical_formula_structural   LiNd2HO3
_chemical_formula_sum   'Li1 Nd2 H1 O3'
_cell_volume   81.47940875
_cell_formula_units_Z   1
loop_
 _symmetry_equiv_pos_site_id
 _symmetry_equiv_pos_as_xyz
  1  'x, y, z'
loop_
 _atom_site_type_symbol
 _atom_site_label
 _atom_site_symmetry_multiplicity
 _atom_site_fract_x
 _atom_site_fract_y
 _atom_site_fract_z
 _atom_site_occupancy
  Li  Li0  1  0.00000000  0.00000000  0.00000000  1.0
  Nd  Nd1  1  0.63689812  0.63689812  1.00000000  1.0
  Nd  Nd2  1  0.36310188  0.36310188  0.00000000  1.0
  H  H3  1  0.00000000  0.50000000  0.50000000  1.0
  O  O4  1  0.50000000  0.00000000  0.50000000  1.0
  O  O5  1  0.82271609  0.82271609  1.00000000  1.0
  O  O6  1  0.17728391  0.17728391  0.00000000  1.0
