# generated using pymatgen
data_TaTlO12
_symmetry_space_group_name_H-M   'P 1'
_cell_length_a   7.70555063
_cell_length_b   7.70555063
_cell_length_c   7.70555063
_cell_angle_alpha   60.00000000
_cell_angle_beta   60.00000000
_cell_angle_gamma   60.00000000
_symmetry_Int_Tables_number   1
_chemical_formula_structural   TaTlO12
_chemical_formula_sum   'Ta2 Tl2 O24'
_cell_volume   323.51620358
_cell_formula_units_Z   2
loop_
 _symmetry_equiv_pos_site_id
 _symmetry_equiv_pos_as_xyz
  1  'x, y, z'
loop_
 _atom_site_type_symbol
 _atom_site_label
 _atom_site_symmetry_multiplicity
 _atom_site_fract_x
 _atom_site_fract_y
 _atom_site_fract_z
 _atom_site_occupancy
  Ta  Ta0  1  0.50000000  0.50000000  -0.50000000  1.0
  Ta  Ta1  1  0.75000000  -0.25000000  0.75000000  1.0
  Tl  Tl2  1  0.00000000  1.00000000  -0.00000000  1.0
  Tl  Tl3  1  0.25000000  0.25000000  0.25000000  1.0
  O  O4  1  0.77264737  -0.55815641  1.01286167  1.0
  O  O5  1  -0.22735263  1.01286167  0.44184359  1.0
  O  O6  1  -0.19184359  0.47735263  0.47735263  1.0
  O  O7  1  0.23713833  0.47735263  0.47735263  1.0
  O  O8  1  -0.55815641  0.77264737  1.01286167  1.0
  O  O9  1  0.77264737  -0.22735263  1.01286167  1.0
  O  O10  1  0.77264737  0.01286167  0.77264737  1.0
  O  O11  1  -0.55815641  1.01286167  0.77264737  1.0
  O  O12  1  0.47735263  -0.19184359  0.47735263  1.0
  O  O13  1  0.47735263  0.47735263  -0.19184359  1.0
  O  O14  1  0.23713833  0.47735263  -0.19184359  1.0
  O  O15  1  0.23713833  -0.19184359  0.47735263  1.0
  O  O16  1  1.01286167  -0.22735263  0.77264737  1.0
  O  O17  1  -0.55815641  0.77264737  0.77264737  1.0
  O  O18  1  0.47735263  0.23713833  -0.19184359  1.0
  O  O19  1  0.47735263  -0.19184359  0.23713833  1.0
  O  O20  1  0.01286167  0.77264737  0.44184359  1.0
  O  O21  1  1.01286167  -0.55815641  0.77264737  1.0
  O  O22  1  0.77264737  -0.55815641  0.77264737  1.0
  O  O23  1  -0.22735263  0.77264737  0.44184359  1.0
  O  O24  1  0.47735263  0.23713833  0.47735263  1.0
  O  O25  1  -0.19184359  0.23713833  0.47735263  1.0
  O  O26  1  -0.19184359  0.47735263  0.23713833  1.0
  O  O27  1  0.47735263  0.47735263  0.23713833  1.0
