# generated using pymatgen
data_RbLuS2O9
_symmetry_space_group_name_H-M   'P 1'
_cell_length_a   10.67367178
_cell_length_b   8.49016384
_cell_length_c   10.33832469
_cell_angle_alpha   90.00000000
_cell_angle_beta   122.18586659
_cell_angle_gamma   90.00000000
_symmetry_Int_Tables_number   1
_chemical_formula_structural   RbLuS2O9
_chemical_formula_sum   'Rb4 Lu4 S8 O36'
_cell_volume   792.89748562
_cell_formula_units_Z   4
loop_
 _symmetry_equiv_pos_site_id
 _symmetry_equiv_pos_as_xyz
  1  'x, y, z'
loop_
 _atom_site_type_symbol
 _atom_site_label
 _atom_site_symmetry_multiplicity
 _atom_site_fract_x
 _atom_site_fract_y
 _atom_site_fract_z
 _atom_site_occupancy
  O  O0  1  0.93217155  0.20068364  0.17822352  1.0
  O  O1  1  0.93217155  0.29931636  0.67822352  1.0
  O  O2  1  0.06782845  0.70068364  0.32177648  1.0
  O  O3  1  0.06782845  0.79931636  0.82177648  1.0
  O  O4  1  0.85861834  0.09577170  0.48230606  1.0
  O  O5  1  0.85861834  0.40422830  0.98230606  1.0
  O  O6  1  0.14138166  0.59577170  0.01769394  1.0
  O  O7  1  0.14138166  0.90422830  0.51769394  1.0
  O  O8  1  0.67043886  0.49271130  0.47530689  1.0
  O  O9  1  0.67043886  0.00728870  0.97530689  1.0
  O  O10  1  0.32956114  0.99271130  0.02469311  1.0
  O  O11  1  0.32956114  0.50728870  0.52469311  1.0
  O  O12  1  0.59392320  0.29337627  0.26937975  1.0
  O  O13  1  0.59392320  0.20662373  0.76937975  1.0
  O  O14  1  0.40607680  0.79337627  0.23062025  1.0
  O  O15  1  0.40607680  0.70662373  0.73062025  1.0
  O  O16  1  0.56955755  0.24913704  0.49124413  1.0
  O  O17  1  0.56955755  0.25086296  0.99124413  1.0
  O  O18  1  0.43044245  0.74913704  0.00875587  1.0
  O  O19  1  0.43044245  0.75086296  0.50875587  1.0
  O  O20  1  0.40829056  0.43579498  0.28550215  1.0
  O  O21  1  0.40829056  0.06420502  0.78550215  1.0
  O  O22  1  0.59170944  0.93579498  0.21449785  1.0
  O  O23  1  0.59170944  0.56420502  0.71449785  1.0
  O  O24  1  0.85057060  0.36982351  0.29574086  1.0
  O  O25  1  0.85057060  0.13017649  0.79574086  1.0
  O  O26  1  0.14942940  0.86982351  0.20425914  1.0
  O  O27  1  0.14942940  0.63017649  0.70425914  1.0
  O  O28  1  0.95469894  0.70732090  0.47425079  1.0
  O  O29  1  0.95469894  0.79267910  0.97425079  1.0
  O  O30  1  0.04530106  0.20732090  0.02574921  1.0
  O  O31  1  0.04530106  0.29267910  0.52574921  1.0
  O  O32  1  0.89427186  0.90566843  0.28075860  1.0
  O  O33  1  0.89427186  0.59433157  0.78075860  1.0
  O  O34  1  0.10572814  0.40566843  0.21924140  1.0
  O  O35  1  0.10572814  0.09433157  0.71924140  1.0
  Lu  Lu36  1  0.74789396  0.12673533  0.22077633  1.0
  Lu  Lu37  1  0.74789396  0.37326467  0.72077633  1.0
  Lu  Lu38  1  0.25210604  0.62673533  0.27922367  1.0
  Lu  Lu39  1  0.25210604  0.87326467  0.77922367  1.0
  Rb  Rb40  1  0.28232832  0.16445205  0.45844132  1.0
  Rb  Rb41  1  0.28232832  0.33554795  0.95844132  1.0
  Rb  Rb42  1  0.71767168  0.66445205  0.04155868  1.0
  Rb  Rb43  1  0.71767168  0.83554795  0.54155868  1.0
  S  S44  1  0.98469475  0.30599298  0.09935040  1.0
  S  S45  1  0.98469475  0.19400702  0.59935040  1.0
  S  S46  1  0.01530525  0.80599298  0.40064960  1.0
  S  S47  1  0.01530525  0.69400702  0.90064960  1.0
  S  S48  1  0.56158859  0.36838688  0.37828692  1.0
  S  S49  1  0.56158859  0.13161312  0.87828692  1.0
  S  S50  1  0.43841141  0.86838688  0.12171308  1.0
  S  S51  1  0.43841141  0.63161312  0.62171308  1.0
