# generated using pymatgen
data_RbLiO
_symmetry_space_group_name_H-M   'P 1'
_cell_length_a   6.59362474
_cell_length_b   3.54168720
_cell_length_c   9.12570367
_cell_angle_alpha   90.00000000
_cell_angle_beta   90.00000000
_cell_angle_gamma   90.00000000
_symmetry_Int_Tables_number   1
_chemical_formula_structural   RbLiO
_chemical_formula_sum   'Rb4 Li4 O4'
_cell_volume   213.10850910
_cell_formula_units_Z   4
loop_
 _symmetry_equiv_pos_site_id
 _symmetry_equiv_pos_as_xyz
  1  'x, y, z'
loop_
 _atom_site_type_symbol
 _atom_site_label
 _atom_site_symmetry_multiplicity
 _atom_site_fract_x
 _atom_site_fract_y
 _atom_site_fract_z
 _atom_site_occupancy
  Rb  Rb0  1  0.99396084  0.75000000  0.17659503  1.0
  Rb  Rb1  1  0.49396084  0.75000000  0.32340497  1.0
  Rb  Rb2  1  0.00603916  0.25000000  0.82340497  1.0
  Rb  Rb3  1  0.50603916  0.25000000  0.67659503  1.0
  Li  Li4  1  0.60190705  0.75000000  0.00285074  1.0
  Li  Li5  1  0.10190705  0.75000000  0.49714926  1.0
  Li  Li6  1  0.39809295  0.25000000  0.99714926  1.0
  Li  Li7  1  0.89809295  0.25000000  0.50285074  1.0
  O  O8  1  0.81114705  0.75000000  0.54378597  1.0
  O  O9  1  0.31114705  0.75000000  0.95621403  1.0
  O  O10  1  0.18885295  0.25000000  0.45621403  1.0
  O  O11  1  0.68885295  0.25000000  0.04378597  1.0
