# generated using pymatgen
data_Zr2In5Ni
_symmetry_space_group_name_H-M   'P 1'
_cell_length_a   10.15267939
_cell_length_b   10.15267939
_cell_length_c   6.79564133
_cell_angle_alpha   90.00000000
_cell_angle_beta   90.00000000
_cell_angle_gamma   90.00000000
_symmetry_Int_Tables_number   1
_chemical_formula_structural   Zr2In5Ni
_chemical_formula_sum   'Zr8 In20 Ni4'
_cell_volume   700.47363339
_cell_formula_units_Z   4
loop_
 _symmetry_equiv_pos_site_id
 _symmetry_equiv_pos_as_xyz
  1  'x, y, z'
loop_
 _atom_site_type_symbol
 _atom_site_label
 _atom_site_symmetry_multiplicity
 _atom_site_fract_x
 _atom_site_fract_y
 _atom_site_fract_z
 _atom_site_occupancy
  Zr  Zr0  1  0.33850562  0.33850562  0.50000000  1.0
  Zr  Zr1  1  0.83850562  0.16149438  0.00000000  1.0
  Zr  Zr2  1  0.66149438  0.66149438  0.50000000  1.0
  Zr  Zr3  1  0.16149438  0.83850562  0.00000000  1.0
  Zr  Zr4  1  0.19821252  0.80178748  0.50000000  1.0
  Zr  Zr5  1  0.69821252  0.69821252  0.00000000  1.0
  Zr  Zr6  1  0.80178748  0.19821252  0.50000000  1.0
  Zr  Zr7  1  0.30178748  0.30178748  0.00000000  1.0
  In  In8  1  0.44076796  0.79905478  0.22135562  1.0
  In  In9  1  0.44076796  0.79905478  0.77864438  1.0
  In  In10  1  0.94076796  0.70094522  0.72135562  1.0
  In  In11  1  0.94076796  0.70094522  0.27864438  1.0
  In  In12  1  0.20094522  0.55923204  0.22135562  1.0
  In  In13  1  0.20094522  0.55923204  0.77864438  1.0
  In  In14  1  0.70094522  0.94076796  0.72135562  1.0
  In  In15  1  0.70094522  0.94076796  0.27864438  1.0
  In  In16  1  0.55923204  0.20094522  0.22135562  1.0
  In  In17  1  0.55923204  0.20094522  0.77864438  1.0
  In  In18  1  0.05923204  0.29905478  0.72135562  1.0
  In  In19  1  0.05923204  0.29905478  0.27864438  1.0
  In  In20  1  0.79905478  0.44076796  0.22135562  1.0
  In  In21  1  0.79905478  0.44076796  0.77864438  1.0
  In  In22  1  0.29905478  0.05923204  0.72135562  1.0
  In  In23  1  0.29905478  0.05923204  0.27864438  1.0
  In  In24  1  0.50000000  0.50000000  0.20247850  1.0
  In  In25  1  0.50000000  0.50000000  0.79752150  1.0
  In  In26  1  0.00000000  0.00000000  0.70247850  1.0
  In  In27  1  0.00000000  0.00000000  0.29752150  1.0
  Ni  Ni28  1  0.38557612  0.61442388  0.50000000  1.0
  Ni  Ni29  1  0.88557612  0.88557612  0.00000000  1.0
  Ni  Ni30  1  0.61442388  0.38557612  0.50000000  1.0
  Ni  Ni31  1  0.11442388  0.11442388  0.00000000  1.0
