# generated using pymatgen
data_HfN
_symmetry_space_group_name_H-M   'P 1'
_cell_length_a   8.52337274
_cell_length_b   8.52337274
_cell_length_c   8.52337274
_cell_angle_alpha   21.39409879
_cell_angle_beta   21.39409879
_cell_angle_gamma   21.39409879
_symmetry_Int_Tables_number   1
_chemical_formula_structural   HfN
_chemical_formula_sum   'Hf3 N3'
_cell_volume   72.18455833
_cell_formula_units_Z   3
loop_
 _symmetry_equiv_pos_site_id
 _symmetry_equiv_pos_as_xyz
  1  'x, y, z'
loop_
 _atom_site_type_symbol
 _atom_site_label
 _atom_site_symmetry_multiplicity
 _atom_site_fract_x
 _atom_site_fract_y
 _atom_site_fract_z
 _atom_site_occupancy
  Hf  Hf0  1  0.88489113  0.88489113  0.88489113  1.0
  Hf  Hf1  1  1.11510887  1.11510887  0.11510887  1.0
  Hf  Hf2  1  0.00000000  -0.00000000  0.00000000  1.0
  N  N3  1  0.72330271  0.72330271  0.72330271  1.0
  N  N4  1  1.27669729  1.27669729  0.27669729  1.0
  N  N5  1  1.50000000  0.50000000  0.50000000  1.0
