# generated using pymatgen
data_YVO4
_symmetry_space_group_name_H-M   'P 1'
_cell_length_a   6.68784875
_cell_length_b   6.68784875
_cell_length_c   6.68784875
_cell_angle_alpha   135.53150676
_cell_angle_beta   135.53150676
_cell_angle_gamma   64.70547071
_symmetry_Int_Tables_number   1
_chemical_formula_structural   YVO4
_chemical_formula_sum   'Y2 V2 O8'
_cell_volume   144.72594667
_cell_formula_units_Z   2
loop_
 _symmetry_equiv_pos_site_id
 _symmetry_equiv_pos_as_xyz
  1  'x, y, z'
loop_
 _atom_site_type_symbol
 _atom_site_label
 _atom_site_symmetry_multiplicity
 _atom_site_fract_x
 _atom_site_fract_y
 _atom_site_fract_z
 _atom_site_occupancy
  Y  Y0  1  0.25000000  0.75000000  0.50000000  1.0
  Y  Y1  1  0.50000000  0.50000000  0.00000000  1.0
  V  V2  1  0.75000000  0.25000000  0.50000000  1.0
  V  V3  1  1.00000000  1.00000000  1.00000000  1.0
  O  O4  1  0.57548644  0.47389391  0.38936846  1.0
  O  O5  1  1.08452545  1.18611798  1.61063154  1.0
  O  O6  1  0.93611798  0.82548644  0.60159253  1.0
  O  O7  1  1.22389391  1.33452545  1.39840747  1.0
  O  O8  1  1.17451356  0.77610609  1.11063154  1.0
  O  O9  1  0.66547455  1.06388202  0.88936846  1.0
  O  O10  1  0.81388202  0.42451356  0.89840747  1.0
  O  O11  1  0.52610609  0.91547455  1.10159253  1.0
