# generated using pymatgen
data_RhN2
_symmetry_space_group_name_H-M   'P 1'
_cell_length_a   4.89737610
_cell_length_b   4.88879304
_cell_length_c   4.91600519
_cell_angle_alpha   90.00000000
_cell_angle_beta   108.32770923
_cell_angle_gamma   90.00000000
_symmetry_Int_Tables_number   1
_chemical_formula_structural   RhN2
_chemical_formula_sum   'Rh4 N8'
_cell_volume   111.72974465
_cell_formula_units_Z   4
loop_
 _symmetry_equiv_pos_site_id
 _symmetry_equiv_pos_as_xyz
  1  'x, y, z'
loop_
 _atom_site_type_symbol
 _atom_site_label
 _atom_site_symmetry_multiplicity
 _atom_site_fract_x
 _atom_site_fract_y
 _atom_site_fract_z
 _atom_site_occupancy
  Rh  Rh0  1  0.23948508  0.50076389  0.73129854  1.0
  Rh  Rh1  1  0.76051492  0.00076389  0.76870146  1.0
  Rh  Rh2  1  0.76051492  0.49923611  0.26870146  1.0
  Rh  Rh3  1  0.23948508  -0.00076389  0.23129854  1.0
  N  N4  1  0.19068230  0.91279097  0.80233153  1.0
  N  N5  1  0.80931770  0.41279097  0.69766847  1.0
  N  N6  1  0.80931770  0.08720903  0.19766847  1.0
  N  N7  1  0.19068230  0.58720903  0.30233153  1.0
  N  N8  1  0.31536807  0.41554143  0.17269930  1.0
  N  N9  1  0.68463193  0.91554143  0.32730070  1.0
  N  N10  1  0.68463193  0.58445857  0.82730070  1.0
  N  N11  1  0.31536807  0.08445857  0.67269930  1.0
