# generated using pymatgen
data_Li4CO4
_symmetry_space_group_name_H-M   'P 1'
_cell_length_a   5.09910144
_cell_length_b   5.09910144
_cell_length_c   7.98773005
_cell_angle_alpha   87.59145295
_cell_angle_beta   92.40854705
_cell_angle_gamma   131.70151850
_symmetry_Int_Tables_number   1
_chemical_formula_structural   Li4CO4
_chemical_formula_sum   'Li4 C1 O4'
_cell_volume   154.89933201
_cell_formula_units_Z   1
loop_
 _symmetry_equiv_pos_site_id
 _symmetry_equiv_pos_as_xyz
  1  'x, y, z'
loop_
 _atom_site_type_symbol
 _atom_site_label
 _atom_site_symmetry_multiplicity
 _atom_site_fract_x
 _atom_site_fract_y
 _atom_site_fract_z
 _atom_site_occupancy
  Li  Li0  1  0.23889335  0.25499645  0.31550847  1.0
  Li  Li1  1  1.25499645  0.23889335  0.68449153  1.0
  Li  Li2  1  1.13379598  0.78693337  0.49880198  1.0
  Li  Li3  1  0.78693337  0.13379598  0.50119802  1.0
  C  C4  1  0.61752360  0.61752360  0.50000000  1.0
  O  O5  1  0.79547891  0.80773123  0.35436192  1.0
  O  O6  1  0.80773123  -0.20452109  0.64563808  1.0
  O  O7  1  0.53709192  0.28754519  0.49953863  1.0
  O  O8  1  1.28754519  0.53709192  0.50046137  1.0
