# generated using pymatgen
data_CdCO3
_symmetry_space_group_name_H-M   'P 1'
_cell_length_a   7.43010706
_cell_length_b   5.98924612
_cell_length_c   14.60884639
_cell_angle_alpha   90.00000000
_cell_angle_beta   119.31343399
_cell_angle_gamma   90.00000000
_symmetry_Int_Tables_number   1
_chemical_formula_structural   CdCO3
_chemical_formula_sum   'Cd8 C8 O24'
_cell_volume   566.86152383
_cell_formula_units_Z   8
loop_
 _symmetry_equiv_pos_site_id
 _symmetry_equiv_pos_as_xyz
  1  'x, y, z'
loop_
 _atom_site_type_symbol
 _atom_site_label
 _atom_site_symmetry_multiplicity
 _atom_site_fract_x
 _atom_site_fract_y
 _atom_site_fract_z
 _atom_site_occupancy
  C  C0  1  0.75263876  0.92842705  0.91341979  1.0
  C  C1  1  0.75263876  0.57157295  0.41341979  1.0
  C  C2  1  0.24736124  0.42842705  0.58658021  1.0
  C  C3  1  0.24736124  0.07157295  0.08658021  1.0
  C  C4  1  0.70222219  0.39922987  0.31871233  1.0
  C  C5  1  0.70222219  0.10077013  0.81871233  1.0
  C  C6  1  0.29777781  0.89922987  0.18128767  1.0
  C  C7  1  0.29777781  0.60077013  0.68128767  1.0
  Cd  Cd8  1  0.93826501  0.23475450  0.16679530  1.0
  Cd  Cd9  1  0.93826501  0.26524550  0.66679530  1.0
  Cd  Cd10  1  0.06173499  0.73475450  0.33320470  1.0
  Cd  Cd11  1  0.06173499  0.76524550  0.83320470  1.0
  Cd  Cd12  1  0.43381097  0.22692715  0.41599400  1.0
  Cd  Cd13  1  0.43381097  0.27307285  0.91599400  1.0
  Cd  Cd14  1  0.56618903  0.72692715  0.08400600  1.0
  Cd  Cd15  1  0.56618903  0.77307285  0.58400600  1.0
  O  O16  1  0.78385248  0.44784898  0.26316993  1.0
  O  O17  1  0.78385248  0.05215102  0.76316993  1.0
  O  O18  1  0.21614752  0.94784898  0.23683007  1.0
  O  O19  1  0.21614752  0.55215102  0.73683007  1.0
  O  O20  1  0.65301086  0.96025966  0.96202642  1.0
  O  O21  1  0.65301086  0.53974034  0.46202642  1.0
  O  O22  1  0.34698914  0.46025966  0.53797358  1.0
  O  O23  1  0.34698914  0.03974034  0.03797358  1.0
  O  O24  1  0.69936506  0.44603445  0.04129040  1.0
  O  O25  1  0.69936506  0.05396555  0.54129040  1.0
  O  O26  1  0.30063494  0.94603445  0.45870960  1.0
  O  O27  1  0.30063494  0.55396555  0.95870960  1.0
  O  O28  1  0.81959866  0.92285731  0.19896818  1.0
  O  O29  1  0.81959866  0.57714269  0.69896818  1.0
  O  O30  1  0.18040134  0.42285731  0.30103182  1.0
  O  O31  1  0.18040134  0.07714269  0.80103182  1.0
  O  O32  1  0.59079524  0.23590609  0.30910539  1.0
  O  O33  1  0.59079524  0.26409391  0.80910539  1.0
  O  O34  1  0.40920476  0.73590609  0.19089461  1.0
  O  O35  1  0.40920476  0.76409391  0.69089461  1.0
  O  O36  1  0.88645255  0.71667167  0.43226613  1.0
  O  O37  1  0.88645255  0.78332833  0.93226613  1.0
  O  O38  1  0.11354745  0.21667167  0.06773387  1.0
  O  O39  1  0.11354745  0.28332833  0.56773387  1.0
