# generated using pymatgen
data_Zr3As
_symmetry_space_group_name_H-M   'P 1'
_cell_length_a   11.02509479
_cell_length_b   11.02509479
_cell_length_c   5.47442427
_cell_angle_alpha   90.00000000
_cell_angle_beta   90.00000000
_cell_angle_gamma   90.00000000
_symmetry_Int_Tables_number   1
_chemical_formula_structural   Zr3As
_chemical_formula_sum   'Zr24 As8'
_cell_volume   665.43113387
_cell_formula_units_Z   8
loop_
 _symmetry_equiv_pos_site_id
 _symmetry_equiv_pos_as_xyz
  1  'x, y, z'
loop_
 _atom_site_type_symbol
 _atom_site_label
 _atom_site_symmetry_multiplicity
 _atom_site_fract_x
 _atom_site_fract_y
 _atom_site_fract_z
 _atom_site_occupancy
  Zr  Zr0  1  0.58335548  0.89466557  0.03767292  1.0
  Zr  Zr1  1  0.41664452  0.10533443  0.03767292  1.0
  Zr  Zr2  1  0.39466557  0.91664452  0.53767292  1.0
  Zr  Zr3  1  0.60533443  0.08335548  0.53767292  1.0
  Zr  Zr4  1  0.91664452  0.60533443  0.46232708  1.0
  Zr  Zr5  1  0.08335548  0.39466557  0.46232708  1.0
  Zr  Zr6  1  0.10533443  0.58335548  0.96232708  1.0
  Zr  Zr7  1  0.89466557  0.41664452  0.96232708  1.0
  Zr  Zr8  1  0.02606746  0.86053238  0.71653579  1.0
  Zr  Zr9  1  0.97393254  0.13946762  0.71653579  1.0
  Zr  Zr10  1  0.36053238  0.47393254  0.21653579  1.0
  Zr  Zr11  1  0.63946762  0.52606746  0.21653579  1.0
  Zr  Zr12  1  0.47393254  0.63946762  0.78346421  1.0
  Zr  Zr13  1  0.52606746  0.36053238  0.78346421  1.0
  Zr  Zr14  1  0.13946762  0.02606746  0.28346421  1.0
  Zr  Zr15  1  0.86053238  0.97393254  0.28346421  1.0
  Zr  Zr16  1  0.18118623  0.28473362  0.98868329  1.0
  Zr  Zr17  1  0.81881377  0.71526638  0.98868329  1.0
  Zr  Zr18  1  0.78473362  0.31881377  0.48868329  1.0
  Zr  Zr19  1  0.21526638  0.68118623  0.48868329  1.0
  Zr  Zr20  1  0.31881377  0.21526638  0.51131671  1.0
  Zr  Zr21  1  0.68118623  0.78473362  0.51131671  1.0
  Zr  Zr22  1  0.71526638  0.18118623  0.01131671  1.0
  Zr  Zr23  1  0.28473362  0.81881377  0.01131671  1.0
  As  As24  1  0.03996146  0.79407583  0.21187602  1.0
  As  As25  1  0.96003854  0.20592417  0.21187602  1.0
  As  As26  1  0.29407583  0.46003854  0.71187602  1.0
  As  As27  1  0.70592417  0.53996146  0.71187602  1.0
  As  As28  1  0.46003854  0.70592417  0.28812398  1.0
  As  As29  1  0.53996146  0.29407583  0.28812398  1.0
  As  As30  1  0.20592417  0.03996146  0.78812398  1.0
  As  As31  1  0.79407583  0.96003854  0.78812398  1.0
