# generated using pymatgen
data_Tb(MnGe)6
_symmetry_space_group_name_H-M   'P 1'
_cell_length_a   5.17938472
_cell_length_b   5.17938472
_cell_length_c   8.13579016
_cell_angle_alpha   90.00000000
_cell_angle_beta   90.00000000
_cell_angle_gamma   120.00000000
_symmetry_Int_Tables_number   1
_chemical_formula_structural   Tb(MnGe)6
_chemical_formula_sum   'Tb1 Mn6 Ge6'
_cell_volume   189.01084051
_cell_formula_units_Z   1
loop_
 _symmetry_equiv_pos_site_id
 _symmetry_equiv_pos_as_xyz
  1  'x, y, z'
loop_
 _atom_site_type_symbol
 _atom_site_label
 _atom_site_symmetry_multiplicity
 _atom_site_fract_x
 _atom_site_fract_y
 _atom_site_fract_z
 _atom_site_occupancy
  Tb  Tb0  1  -0.00000000  -0.00000000  -0.00000000  1.0
  Mn  Mn1  1  0.50000000  0.50000000  0.74960378  1.0
  Mn  Mn2  1  0.50000000  0.50000000  0.25039622  1.0
  Mn  Mn3  1  0.50000000  -0.00000000  0.74960378  1.0
  Mn  Mn4  1  0.50000000  0.00000000  0.25039622  1.0
  Mn  Mn5  1  0.00000000  0.50000000  0.74960378  1.0
  Mn  Mn6  1  0.00000000  0.50000000  0.25039622  1.0
  Ge  Ge7  1  0.33333333  0.66666667  0.00000000  1.0
  Ge  Ge8  1  0.66666667  0.33333333  0.00000000  1.0
  Ge  Ge9  1  0.00000000  0.00000000  0.65568156  1.0
  Ge  Ge10  1  0.00000000  0.00000000  0.34431844  1.0
  Ge  Ge11  1  0.33333333  0.66666667  0.50000000  1.0
  Ge  Ge12  1  0.66666667  0.33333333  0.50000000  1.0
