# generated using pymatgen
data_KS3
_symmetry_space_group_name_H-M   'P 1'
_cell_length_a   6.58391750
_cell_length_b   12.30850687
_cell_length_c   12.80152476
_cell_angle_alpha   90.00000000
_cell_angle_beta   106.59839312
_cell_angle_gamma   90.00000000
_symmetry_Int_Tables_number   1
_chemical_formula_structural   KS3
_chemical_formula_sum   'K8 S24'
_cell_volume   994.18407562
_cell_formula_units_Z   8
loop_
 _symmetry_equiv_pos_site_id
 _symmetry_equiv_pos_as_xyz
  1  'x, y, z'
loop_
 _atom_site_type_symbol
 _atom_site_label
 _atom_site_symmetry_multiplicity
 _atom_site_fract_x
 _atom_site_fract_y
 _atom_site_fract_z
 _atom_site_occupancy
  K  K0  1  0.79081540  0.38331956  0.07218704  1.0
  K  K1  1  0.79081540  0.11668044  0.57218704  1.0
  K  K2  1  0.20918460  0.88331956  0.42781296  1.0
  K  K3  1  0.20918460  0.61668044  0.92781296  1.0
  K  K4  1  0.28345764  0.36541452  0.49921030  1.0
  K  K5  1  0.28345764  0.13458548  0.99921030  1.0
  K  K6  1  0.71654236  0.86541452  0.00078970  1.0
  K  K7  1  0.71654236  0.63458548  0.50078970  1.0
  S  S8  1  0.94850106  0.08022482  0.15068554  1.0
  S  S9  1  0.94850106  0.41977518  0.65068554  1.0
  S  S10  1  0.05149894  0.58022482  0.34931446  1.0
  S  S11  1  0.05149894  0.91977518  0.84931446  1.0
  S  S12  1  0.86696969  0.16659292  0.26883316  1.0
  S  S13  1  0.86696969  0.33340708  0.76883316  1.0
  S  S14  1  0.13303031  0.66659292  0.23116684  1.0
  S  S15  1  0.13303031  0.83340708  0.73116684  1.0
  S  S16  1  0.78147558  0.37158520  0.49520697  1.0
  S  S17  1  0.78147558  0.12841480  0.99520697  1.0
  S  S18  1  0.21852442  0.87158520  0.00479303  1.0
  S  S19  1  0.21852442  0.62841480  0.50479303  1.0
  S  S20  1  0.72126000  0.88899553  0.44340193  1.0
  S  S21  1  0.72126000  0.61100447  0.94340193  1.0
  S  S22  1  0.27874000  0.38899553  0.05659807  1.0
  S  S23  1  0.27874000  0.11100447  0.55659807  1.0
  S  S24  1  0.55799502  0.10379288  0.27570396  1.0
  S  S25  1  0.55799502  0.39620712  0.77570396  1.0
  S  S26  1  0.44200498  0.60379288  0.22429604  1.0
  S  S27  1  0.44200498  0.89620712  0.72429604  1.0
  S  S28  1  0.42271315  0.43846195  0.21450210  1.0
  S  S29  1  0.42271315  0.06153805  0.71450210  1.0
  S  S30  1  0.57728685  0.93846195  0.28549790  1.0
  S  S31  1  0.57728685  0.56153805  0.78549790  1.0
