# generated using pymatgen
data_Y4Rh
_symmetry_space_group_name_H-M   'P 1'
_cell_length_a   7.64373217
_cell_length_b   7.64373217
_cell_length_c   7.64373217
_cell_angle_alpha   60.00000000
_cell_angle_beta   60.00000000
_cell_angle_gamma   60.00000000
_symmetry_Int_Tables_number   1
_chemical_formula_structural   Y4Rh
_chemical_formula_sum   'Y8 Rh2'
_cell_volume   315.79219096
_cell_formula_units_Z   2
loop_
 _symmetry_equiv_pos_site_id
 _symmetry_equiv_pos_as_xyz
  1  'x, y, z'
loop_
 _atom_site_type_symbol
 _atom_site_label
 _atom_site_symmetry_multiplicity
 _atom_site_fract_x
 _atom_site_fract_y
 _atom_site_fract_z
 _atom_site_occupancy
  Y  Y0  1  -0.11193164  0.88806836  0.33579492  1.0
  Y  Y1  1  0.88806836  -0.66420508  0.88806836  1.0
  Y  Y2  1  0.36193164  0.36193164  0.36193164  1.0
  Y  Y3  1  -0.08579492  0.36193164  0.36193164  1.0
  Y  Y4  1  -0.66420508  0.88806836  0.88806836  1.0
  Y  Y5  1  0.88806836  -0.11193164  0.88806836  1.0
  Y  Y6  1  0.36193164  -0.08579492  0.36193164  1.0
  Y  Y7  1  0.36193164  0.36193164  -0.08579492  1.0
  Rh  Rh8  1  0.50000000  0.50000000  -0.50000000  1.0
  Rh  Rh9  1  0.75000000  -0.25000000  0.75000000  1.0
