# generated using pymatgen
data_Gd2Ni12As7
_symmetry_space_group_name_H-M   'P 1'
_cell_length_a   9.39882452
_cell_length_b   9.39882452
_cell_length_c   3.86752784
_cell_angle_alpha   90.00000000
_cell_angle_beta   90.00000000
_cell_angle_gamma   120.00000000
_symmetry_Int_Tables_number   1
_chemical_formula_structural   Gd2Ni12As7
_chemical_formula_sum   'Gd2 Ni12 As7'
_cell_volume   295.87697009
_cell_formula_units_Z   1
loop_
 _symmetry_equiv_pos_site_id
 _symmetry_equiv_pos_as_xyz
  1  'x, y, z'
loop_
 _atom_site_type_symbol
 _atom_site_label
 _atom_site_symmetry_multiplicity
 _atom_site_fract_x
 _atom_site_fract_y
 _atom_site_fract_z
 _atom_site_occupancy
  Gd  Gd0  1  -0.00000000  -0.00000000  0.50000000  1.0
  Gd  Gd1  1  0.66666667  0.33333333  -0.00000000  1.0
  Ni  Ni2  1  0.70933711  0.61861346  0.50000000  1.0
  Ni  Ni3  1  0.90927635  0.29066289  0.50000000  1.0
  Ni  Ni4  1  0.38138654  0.09072365  0.50000000  1.0
  Ni  Ni5  1  0.23815732  0.45829299  0.50000000  1.0
  Ni  Ni6  1  0.22013568  0.76184268  0.50000000  1.0
  Ni  Ni7  1  0.54170701  0.77986432  0.50000000  1.0
  Ni  Ni8  1  0.48369866  0.53725941  -0.00000000  1.0
  Ni  Ni9  1  0.05356074  0.51630134  -0.00000000  1.0
  Ni  Ni10  1  0.46274059  0.94643926  0.00000000  1.0
  Ni  Ni11  1  0.27700572  0.22854184  -0.00000000  1.0
  Ni  Ni12  1  0.95153611  0.72299428  -0.00000000  1.0
  Ni  Ni13  1  0.77145816  0.04846389  -0.00000000  1.0
  As  As14  1  0.44049397  0.36819630  0.50000000  1.0
  As  As15  1  0.92770233  0.55950603  0.50000000  1.0
  As  As16  1  0.63180370  0.07229767  0.50000000  1.0
  As  As17  1  0.04667870  0.26412482  -0.00000000  1.0
  As  As18  1  0.21744613  0.95332130  -0.00000000  1.0
  As  As19  1  0.73587518  0.78255387  -0.00000000  1.0
  As  As20  1  0.33333333  0.66666667  -0.00000000  1.0
