# generated using pymatgen
data_CaSO6
_symmetry_space_group_name_H-M   'P 1'
_cell_length_a   10.32047522
_cell_length_b   10.32047522
_cell_length_c   5.76065995
_cell_angle_alpha   84.15942068
_cell_angle_beta   95.84057932
_cell_angle_gamma   33.47181618
_symmetry_Int_Tables_number   1
_chemical_formula_structural   CaSO6
_chemical_formula_sum   'Ca2 S2 O12'
_cell_volume   316.57151539
_cell_formula_units_Z   2
loop_
 _symmetry_equiv_pos_site_id
 _symmetry_equiv_pos_as_xyz
  1  'x, y, z'
loop_
 _atom_site_type_symbol
 _atom_site_label
 _atom_site_symmetry_multiplicity
 _atom_site_fract_x
 _atom_site_fract_y
 _atom_site_fract_z
 _atom_site_occupancy
  Ca  Ca0  1  0.30125308  0.30125308  0.75000000  1.0
  Ca  Ca1  1  0.69874692  -0.30125308  0.25000000  1.0
  S  S2  1  0.82039952  -0.17960048  0.75000000  1.0
  S  S3  1  0.17960048  0.17960048  0.25000000  1.0
  O  O4  1  0.70732029  -0.15608116  0.92837500  1.0
  O  O5  1  1.15608116  -0.70732029  0.42837500  1.0
  O  O6  1  0.84391884  -0.29267971  0.57162500  1.0
  O  O7  1  0.29267971  0.15608116  0.07162500  1.0
  O  O8  1  0.15115631  -0.05421896  0.82486767  1.0
  O  O9  1  1.05421896  -0.15115631  0.32486767  1.0
  O  O10  1  0.94578104  -0.84884369  0.67513233  1.0
  O  O11  1  0.84884369  0.05421896  0.17513233  1.0
  O  O12  1  0.64309678  0.07867966  0.61874055  1.0
  O  O13  1  0.92132034  -0.64309678  0.11874055  1.0
  O  O14  1  1.07867966  -0.35690322  0.88125945  1.0
  O  O15  1  0.35690322  -0.07867966  0.38125945  1.0
