# generated using pymatgen
data_Al6Tc
_symmetry_space_group_name_H-M   'P 1'
_cell_length_a   5.03761647
_cell_length_b   5.03761647
_cell_length_c   9.02600693
_cell_angle_alpha   90.00000000
_cell_angle_beta   90.00000000
_cell_angle_gamma   81.73841712
_symmetry_Int_Tables_number   1
_chemical_formula_structural   Al6Tc
_chemical_formula_sum   'Al12 Tc2'
_cell_volume   226.68112611
_cell_formula_units_Z   2
loop_
 _symmetry_equiv_pos_site_id
 _symmetry_equiv_pos_as_xyz
  1  'x, y, z'
loop_
 _atom_site_type_symbol
 _atom_site_label
 _atom_site_symmetry_multiplicity
 _atom_site_fract_x
 _atom_site_fract_y
 _atom_site_fract_z
 _atom_site_occupancy
  Al  Al0  1  0.32401329  1.32401329  0.50000000  1.0
  Al  Al1  1  0.32401329  1.32401329  0.00000000  1.0
  Al  Al2  1  -0.32401329  0.67598671  0.50000000  1.0
  Al  Al3  1  -0.32401329  0.67598671  -0.00000000  1.0
  Al  Al4  1  -0.86654641  0.86654641  0.89956993  1.0
  Al  Al5  1  -0.13345359  0.13345359  0.10043007  1.0
  Al  Al6  1  -0.86654641  0.86654641  0.60043007  1.0
  Al  Al7  1  -0.13345359  0.13345359  0.39956993  1.0
  Al  Al8  1  -0.60952726  0.97145812  0.25000000  1.0
  Al  Al9  1  -0.02854188  0.39047274  0.75000000  1.0
  Al  Al10  1  0.60952726  1.02854188  0.75000000  1.0
  Al  Al11  1  0.02854188  1.60952726  0.25000000  1.0
  Tc  Tc12  1  -0.54407523  0.54407523  0.75000000  1.0
  Tc  Tc13  1  -0.45592477  0.45592477  0.25000000  1.0
