# generated using pymatgen
data_Ag3SbS3
_symmetry_space_group_name_H-M   'P 1'
_cell_length_a   7.02734464
_cell_length_b   15.93898321
_cell_length_c   6.38205986
_cell_angle_alpha   90.00000000
_cell_angle_beta   116.36988178
_cell_angle_gamma   90.00000000
_symmetry_Int_Tables_number   1
_chemical_formula_structural   Ag3SbS3
_chemical_formula_sum   'Ag12 Sb4 S12'
_cell_volume   640.46332490
_cell_formula_units_Z   4
loop_
 _symmetry_equiv_pos_site_id
 _symmetry_equiv_pos_as_xyz
  1  'x, y, z'
loop_
 _atom_site_type_symbol
 _atom_site_label
 _atom_site_symmetry_multiplicity
 _atom_site_fract_x
 _atom_site_fract_y
 _atom_site_fract_z
 _atom_site_occupancy
  Ag  Ag0  1  0.93156895  0.68829751  0.69288386  1.0
  Ag  Ag1  1  0.93156895  0.81170249  0.19288386  1.0
  Ag  Ag2  1  0.06843105  0.18829751  0.80711614  1.0
  Ag  Ag3  1  0.06843105  0.31170249  0.30711614  1.0
  Ag  Ag4  1  0.51696687  0.74459165  0.80564616  1.0
  Ag  Ag5  1  0.51696687  0.75540835  0.30564616  1.0
  Ag  Ag6  1  0.48303313  0.24459165  0.69435384  1.0
  Ag  Ag7  1  0.48303313  0.25540835  0.19435384  1.0
  Ag  Ag8  1  0.40478818  0.90189913  0.97225713  1.0
  Ag  Ag9  1  0.40478818  0.59810087  0.47225713  1.0
  Ag  Ag10  1  0.59521182  0.40189913  0.52774287  1.0
  Ag  Ag11  1  0.59521182  0.09810087  0.02774287  1.0
  Sb  Sb12  1  0.80620016  0.94852135  0.66719402  1.0
  Sb  Sb13  1  0.80620016  0.55147865  0.16719402  1.0
  Sb  Sb14  1  0.19379984  0.44852135  0.83280598  1.0
  Sb  Sb15  1  0.19379984  0.05147865  0.33280598  1.0
  S  S16  1  0.94727711  0.33152079  0.63623620  1.0
  S  S17  1  0.94727711  0.16847921  0.13623620  1.0
  S  S18  1  0.05272289  0.83152079  0.86376380  1.0
  S  S19  1  0.05272289  0.66847921  0.36376380  1.0
  S  S20  1  0.77689648  0.55619262  0.76032266  1.0
  S  S21  1  0.77689648  0.94380738  0.26032266  1.0
  S  S22  1  0.22310352  0.05619262  0.73967734  1.0
  S  S23  1  0.22310352  0.44380738  0.23967734  1.0
  S  S24  1  0.47013292  0.86396646  0.55018431  1.0
  S  S25  1  0.47013292  0.63603354  0.05018431  1.0
  S  S26  1  0.52986708  0.36396646  0.94981569  1.0
  S  S27  1  0.52986708  0.13603354  0.44981569  1.0
