# generated using pymatgen
data_K2SO4
_symmetry_space_group_name_H-M   'P 1'
_cell_length_a   5.96041905
_cell_length_b   5.96041905
_cell_length_c   7.72235422
_cell_angle_alpha   90.00000000
_cell_angle_beta   90.00000000
_cell_angle_gamma   120.00000000
_symmetry_Int_Tables_number   1
_chemical_formula_structural   K2SO4
_chemical_formula_sum   'K4 S2 O8'
_cell_volume   237.59316230
_cell_formula_units_Z   2
loop_
 _symmetry_equiv_pos_site_id
 _symmetry_equiv_pos_as_xyz
  1  'x, y, z'
loop_
 _atom_site_type_symbol
 _atom_site_label
 _atom_site_symmetry_multiplicity
 _atom_site_fract_x
 _atom_site_fract_y
 _atom_site_fract_z
 _atom_site_occupancy
  K  K0  1  0.33333333  0.66666667  0.19070098  1.0
  K  K1  1  0.66666667  0.33333333  0.80929902  1.0
  K  K2  1  0.00000000  0.00000000  0.50000000  1.0
  K  K3  1  0.00000000  0.00000000  0.00000000  1.0
  S  S4  1  0.33333333  0.66666667  0.71696692  1.0
  S  S5  1  0.66666667  0.33333333  0.28303308  1.0
  O  O6  1  0.39309148  0.19654574  0.21466080  1.0
  O  O7  1  0.19654574  0.39309148  0.78533920  1.0
  O  O8  1  0.19654574  0.80345426  0.78533920  1.0
  O  O9  1  0.80345426  0.19654574  0.21466080  1.0
  O  O10  1  0.80345426  0.60690852  0.21466080  1.0
  O  O11  1  0.60690852  0.80345426  0.78533920  1.0
  O  O12  1  0.33333333  0.66666667  0.52544777  1.0
  O  O13  1  0.66666667  0.33333333  0.47455223  1.0
