# generated using pymatgen
data_Sr3Cr2O8
_symmetry_space_group_name_H-M   'P 1'
_cell_length_a   5.66345451
_cell_length_b   5.66345451
_cell_length_c   13.86280126
_cell_angle_alpha   78.04613670
_cell_angle_beta   101.95386330
_cell_angle_gamma   120.45532036
_symmetry_Int_Tables_number   1
_chemical_formula_structural   Sr3Cr2O8
_chemical_formula_sum   'Sr6 Cr4 O16'
_cell_volume   372.22302567
_cell_formula_units_Z   2
loop_
 _symmetry_equiv_pos_site_id
 _symmetry_equiv_pos_as_xyz
  1  'x, y, z'
loop_
 _atom_site_type_symbol
 _atom_site_label
 _atom_site_symmetry_multiplicity
 _atom_site_fract_x
 _atom_site_fract_y
 _atom_site_fract_z
 _atom_site_occupancy
  Sr  Sr0  1  1.64914285  -0.14705679  0.94457207  1.0
  Sr  Sr1  1  1.14705679  0.35085715  0.44457207  1.0
  Sr  Sr2  1  0.85294321  -0.35085715  0.55542793  1.0
  Sr  Sr3  1  0.35085715  0.14705679  0.05542793  1.0
  Sr  Sr4  1  0.71507552  0.71507552  0.25000000  1.0
  Sr  Sr5  1  0.28492448  0.28492448  0.75000000  1.0
  Cr  Cr6  1  0.46122454  0.05647259  0.35897161  1.0
  Cr  Cr7  1  0.94352741  -0.46122454  0.85897161  1.0
  Cr  Cr8  1  1.05647259  0.46122454  0.14102839  1.0
  Cr  Cr9  1  1.53877546  -0.05647259  0.64102839  1.0
  O  O10  1  0.67060830  -0.09103320  0.40012263  1.0
  O  O11  1  1.09103320  -0.67060830  0.90012263  1.0
  O  O12  1  0.90896680  0.67060830  0.09987737  1.0
  O  O13  1  1.32939170  0.09103320  0.59987737  1.0
  O  O14  1  0.46284878  0.15234257  0.23518653  1.0
  O  O15  1  0.84765743  -0.46284878  0.73518653  1.0
  O  O16  1  1.15234257  0.46284878  0.26481347  1.0
  O  O17  1  1.53715122  -0.15234257  0.76481347  1.0
  O  O18  1  0.60686772  0.35878264  0.41080098  1.0
  O  O19  1  0.64121736  0.39313228  0.91080098  1.0
  O  O20  1  1.35878264  -0.39313228  0.08919902  1.0
  O  O21  1  1.39313228  -0.35878264  0.58919902  1.0
  O  O22  1  1.13888850  0.84295280  0.39399635  1.0
  O  O23  1  0.15704720  -0.13888850  0.89399635  1.0
  O  O24  1  1.84295280  0.13888850  0.10600365  1.0
  O  O25  1  0.86111150  -0.84295280  0.60600365  1.0
