# generated using pymatgen
data_Ni(TePd)2
_symmetry_space_group_name_H-M   'P 1'
_cell_length_a   7.07650852
_cell_length_b   7.07650852
_cell_length_c   7.07650852
_cell_angle_alpha   126.32958671
_cell_angle_beta   71.03826269
_cell_angle_gamma   137.09701098
_symmetry_Int_Tables_number   1
_chemical_formula_structural   Ni(TePd)2
_chemical_formula_sum   'Ni2 Te4 Pd4'
_cell_volume   190.47020498
_cell_formula_units_Z   2
loop_
 _symmetry_equiv_pos_site_id
 _symmetry_equiv_pos_as_xyz
  1  'x, y, z'
loop_
 _atom_site_type_symbol
 _atom_site_label
 _atom_site_symmetry_multiplicity
 _atom_site_fract_x
 _atom_site_fract_y
 _atom_site_fract_z
 _atom_site_occupancy
  Ni  Ni0  1  0.25000000  0.25000000  -0.00000000  1.0
  Ni  Ni1  1  0.75000000  0.75000000  -0.00000000  1.0
  Te  Te2  1  0.35288429  0.27937624  0.63226053  1.0
  Te  Te3  1  0.14711571  0.77937624  0.92649195  1.0
  Te  Te4  1  0.85288429  1.22062376  1.07350805  1.0
  Te  Te5  1  0.64711571  0.72062376  0.36773947  1.0
  Pd  Pd6  1  0.10301457  0.36580549  0.46882006  1.0
  Pd  Pd7  1  0.39698543  0.86580549  1.26279092  1.0
  Pd  Pd8  1  0.60301457  1.13419451  0.73720908  1.0
  Pd  Pd9  1  0.89698543  0.63419451  0.53117994  1.0
