# generated using pymatgen
data_LiAlTe2
_symmetry_space_group_name_H-M   'P 1'
_cell_length_a   7.49194706
_cell_length_b   7.49194706
_cell_length_c   7.49194706
_cell_angle_alpha   129.36996346
_cell_angle_beta   129.36996346
_cell_angle_gamma   74.41601087
_symmetry_Int_Tables_number   1
_chemical_formula_structural   LiAlTe2
_chemical_formula_sum   'Li2 Al2 Te4'
_cell_volume   244.94298176
_cell_formula_units_Z   2
loop_
 _symmetry_equiv_pos_site_id
 _symmetry_equiv_pos_as_xyz
  1  'x, y, z'
loop_
 _atom_site_type_symbol
 _atom_site_label
 _atom_site_symmetry_multiplicity
 _atom_site_fract_x
 _atom_site_fract_y
 _atom_site_fract_z
 _atom_site_occupancy
  Li  Li0  1  0.25000000  0.75000000  0.50000000  1.0
  Li  Li1  1  0.50000000  0.50000000  0.00000000  1.0
  Al  Al2  1  0.75000000  0.25000000  0.50000000  1.0
  Al  Al3  1  1.00000000  1.00000000  1.00000000  1.0
  Te  Te4  1  1.10829022  1.12500000  1.48329022  1.0
  Te  Te5  1  1.37500000  0.89170978  1.01670978  1.0
  Te  Te6  1  0.87500000  1.35829022  0.98329022  1.0
  Te  Te7  1  0.64170978  0.62500000  0.51670978  1.0
