# generated using pymatgen
data_LuCoGe
_symmetry_space_group_name_H-M   'P 1'
_cell_length_a   6.71436342
_cell_length_b   4.15996112
_cell_length_c   7.15376933
_cell_angle_alpha   90.00000000
_cell_angle_beta   90.00000000
_cell_angle_gamma   90.00000000
_symmetry_Int_Tables_number   1
_chemical_formula_structural   LuCoGe
_chemical_formula_sum   'Lu4 Co4 Ge4'
_cell_volume   199.81544198
_cell_formula_units_Z   4
loop_
 _symmetry_equiv_pos_site_id
 _symmetry_equiv_pos_as_xyz
  1  'x, y, z'
loop_
 _atom_site_type_symbol
 _atom_site_label
 _atom_site_symmetry_multiplicity
 _atom_site_fract_x
 _atom_site_fract_y
 _atom_site_fract_z
 _atom_site_occupancy
  Lu  Lu0  1  1.00623579  0.75000000  0.69737289  1.0
  Lu  Lu1  1  0.50623579  0.75000000  0.80262711  1.0
  Lu  Lu2  1  -0.00623579  0.25000000  0.30262711  1.0
  Lu  Lu3  1  0.49376421  0.25000000  0.19737289  1.0
  Co  Co4  1  0.84489868  0.75000000  0.06459527  1.0
  Co  Co5  1  0.34489868  0.75000000  0.43540473  1.0
  Co  Co6  1  0.15510132  0.25000000  0.93540473  1.0
  Co  Co7  1  0.65510132  0.25000000  0.56459527  1.0
  Ge  Ge8  1  0.70644679  0.75000000  0.39596373  1.0
  Ge  Ge9  1  0.20644679  0.75000000  0.10403627  1.0
  Ge  Ge10  1  0.29355321  0.25000000  0.60403627  1.0
  Ge  Ge11  1  0.79355321  0.25000000  0.89596373  1.0
