# generated using pymatgen
data_Yb5Ir3
_symmetry_space_group_name_H-M   'P 1'
_cell_length_a   10.84740213
_cell_length_b   10.84740213
_cell_length_c   6.12161739
_cell_angle_alpha   90.00000000
_cell_angle_beta   90.00000000
_cell_angle_gamma   90.00000000
_symmetry_Int_Tables_number   1
_chemical_formula_structural   Yb5Ir3
_chemical_formula_sum   'Yb20 Ir12'
_cell_volume   720.30704653
_cell_formula_units_Z   4
loop_
 _symmetry_equiv_pos_site_id
 _symmetry_equiv_pos_as_xyz
  1  'x, y, z'
loop_
 _atom_site_type_symbol
 _atom_site_label
 _atom_site_symmetry_multiplicity
 _atom_site_fract_x
 _atom_site_fract_y
 _atom_site_fract_z
 _atom_site_occupancy
  Yb  Yb0  1  0.08412202  0.28897833  0.35547611  1.0
  Yb  Yb1  1  0.91587798  0.28897833  0.85547611  1.0
  Yb  Yb2  1  0.08412202  0.71102167  0.85547611  1.0
  Yb  Yb3  1  0.91587798  0.71102167  0.35547611  1.0
  Yb  Yb4  1  0.78897833  0.58412202  0.85547611  1.0
  Yb  Yb5  1  0.21102167  0.58412202  0.35547611  1.0
  Yb  Yb6  1  0.78897833  0.41587798  0.35547611  1.0
  Yb  Yb7  1  0.21102167  0.41587798  0.85547611  1.0
  Yb  Yb8  1  0.41587798  0.21102167  0.64452389  1.0
  Yb  Yb9  1  0.58412202  0.21102167  0.14452389  1.0
  Yb  Yb10  1  0.41587798  0.78897833  0.14452389  1.0
  Yb  Yb11  1  0.58412202  0.78897833  0.64452389  1.0
  Yb  Yb12  1  0.71102167  0.91587798  0.14452389  1.0
  Yb  Yb13  1  0.28897833  0.91587798  0.64452389  1.0
  Yb  Yb14  1  0.71102167  0.08412202  0.64452389  1.0
  Yb  Yb15  1  0.28897833  0.08412202  0.14452389  1.0
  Yb  Yb16  1  0.00000000  0.00000000  0.50000000  1.0
  Yb  Yb17  1  0.00000000  0.00000000  0.00000000  1.0
  Yb  Yb18  1  0.50000000  0.50000000  0.00000000  1.0
  Yb  Yb19  1  0.50000000  0.50000000  0.50000000  1.0
  Ir  Ir20  1  0.15559126  0.84440874  0.25000000  1.0
  Ir  Ir21  1  0.84440874  0.84440874  0.75000000  1.0
  Ir  Ir22  1  0.15559126  0.15559126  0.75000000  1.0
  Ir  Ir23  1  0.84440874  0.15559126  0.25000000  1.0
  Ir  Ir24  1  0.34440874  0.65559126  0.75000000  1.0
  Ir  Ir25  1  0.65559126  0.65559126  0.25000000  1.0
  Ir  Ir26  1  0.34440874  0.34440874  0.25000000  1.0
  Ir  Ir27  1  0.65559126  0.34440874  0.75000000  1.0
  Ir  Ir28  1  0.00000000  0.50000000  0.10185999  1.0
  Ir  Ir29  1  0.00000000  0.50000000  0.60185999  1.0
  Ir  Ir30  1  0.50000000  0.00000000  0.89814001  1.0
  Ir  Ir31  1  0.50000000  0.00000000  0.39814001  1.0
