# generated using pymatgen
data_CaSi2Ni
_symmetry_space_group_name_H-M   'P 1'
_cell_length_a   8.70478267
_cell_length_b   8.70478267
_cell_length_c   3.91412362
_cell_angle_alpha   90.00000000
_cell_angle_beta   90.00000000
_cell_angle_gamma   152.77530172
_symmetry_Int_Tables_number   1
_chemical_formula_structural   CaSi2Ni
_chemical_formula_sum   'Ca2 Si4 Ni2'
_cell_volume   135.68246717
_cell_formula_units_Z   2
loop_
 _symmetry_equiv_pos_site_id
 _symmetry_equiv_pos_as_xyz
  1  'x, y, z'
loop_
 _atom_site_type_symbol
 _atom_site_label
 _atom_site_symmetry_multiplicity
 _atom_site_fract_x
 _atom_site_fract_y
 _atom_site_fract_z
 _atom_site_occupancy
  Ca  Ca0  1  0.39246915  0.60753085  0.75000000  1.0
  Ca  Ca1  1  -0.39246915  0.39246915  0.25000000  1.0
  Si  Si2  1  0.04076630  0.95923370  0.75000000  1.0
  Si  Si3  1  -0.04076630  0.04076630  0.25000000  1.0
  Si  Si4  1  -0.25082565  0.25082565  0.75000000  1.0
  Si  Si5  1  0.25082565  0.74917435  0.25000000  1.0
  Ni  Ni6  1  0.17716581  0.82283419  0.75000000  1.0
  Ni  Ni7  1  -0.17716581  0.17716581  0.25000000  1.0
