# generated using pymatgen
data_K2MoCl5O
_symmetry_space_group_name_H-M   'P 1'
_cell_length_a   13.85228840
_cell_length_b   9.85208033
_cell_length_c   7.25089838
_cell_angle_alpha   90.00000000
_cell_angle_beta   90.00000000
_cell_angle_gamma   90.00000000
_symmetry_Int_Tables_number   1
_chemical_formula_structural   K2MoCl5O
_chemical_formula_sum   'K8 Mo4 Cl20 O4'
_cell_volume   989.55807619
_cell_formula_units_Z   4
loop_
 _symmetry_equiv_pos_site_id
 _symmetry_equiv_pos_as_xyz
  1  'x, y, z'
loop_
 _atom_site_type_symbol
 _atom_site_label
 _atom_site_symmetry_multiplicity
 _atom_site_fract_x
 _atom_site_fract_y
 _atom_site_fract_z
 _atom_site_occupancy
  K  K0  1  0.65031566  0.49894613  0.33827020  1.0
  K  K1  1  0.65031566  0.00105387  0.33827020  1.0
  K  K2  1  0.15031566  0.49894613  0.16172980  1.0
  K  K3  1  0.15031566  0.00105387  0.16172980  1.0
  K  K4  1  0.34968434  0.99894613  0.66172980  1.0
  K  K5  1  0.34968434  0.50105387  0.66172980  1.0
  K  K6  1  0.84968434  0.99894613  0.83827020  1.0
  K  K7  1  0.84968434  0.50105387  0.83827020  1.0
  Mo  Mo8  1  0.90720526  0.25000000  0.31789616  1.0
  Mo  Mo9  1  0.40720526  0.25000000  0.18210384  1.0
  Mo  Mo10  1  0.09279474  0.75000000  0.68210384  1.0
  Mo  Mo11  1  0.59279474  0.75000000  0.81789616  1.0
  Cl  Cl12  1  0.89248432  0.49240584  0.29444727  1.0
  Cl  Cl13  1  0.89248432  0.00759416  0.29444727  1.0
  Cl  Cl14  1  0.39248432  0.49240584  0.20555273  1.0
  Cl  Cl15  1  0.39248432  0.00759416  0.20555273  1.0
  Cl  Cl16  1  0.10751568  0.99240584  0.70555273  1.0
  Cl  Cl17  1  0.10751568  0.50759416  0.70555273  1.0
  Cl  Cl18  1  0.60751568  0.99240584  0.79444727  1.0
  Cl  Cl19  1  0.60751568  0.50759416  0.79444727  1.0
  Cl  Cl20  1  0.99695620  0.25000000  0.03131629  1.0
  Cl  Cl21  1  0.49695620  0.25000000  0.46868371  1.0
  Cl  Cl22  1  0.00304380  0.75000000  0.96868371  1.0
  Cl  Cl23  1  0.50304380  0.75000000  0.53131629  1.0
  Cl  Cl24  1  0.78678769  0.25000000  0.56209654  1.0
  Cl  Cl25  1  0.28678769  0.25000000  0.93790346  1.0
  Cl  Cl26  1  0.21321231  0.75000000  0.43790346  1.0
  Cl  Cl27  1  0.71321231  0.75000000  0.06209654  1.0
  Cl  Cl28  1  0.75350670  0.25000000  0.10080461  1.0
  Cl  Cl29  1  0.25350670  0.25000000  0.39919539  1.0
  Cl  Cl30  1  0.24649330  0.75000000  0.89919539  1.0
  Cl  Cl31  1  0.74649330  0.75000000  0.60080461  1.0
  O  O32  1  1.00289141  0.25000000  0.45871965  1.0
  O  O33  1  0.50289141  0.25000000  0.04128035  1.0
  O  O34  1  -0.00289141  0.75000000  0.54128035  1.0
  O  O35  1  0.49710859  0.75000000  0.95871965  1.0
