# generated using pymatgen
data_Ga4Ge(PbS3)4
_symmetry_space_group_name_H-M   'P 1'
_cell_length_a   12.93494743
_cell_length_b   12.93494743
_cell_length_c   6.26431143
_cell_angle_alpha   90.00000000
_cell_angle_beta   90.00000000
_cell_angle_gamma   90.00000000
_symmetry_Int_Tables_number   1
_chemical_formula_structural   Ga4Ge(PbS3)4
_chemical_formula_sum   'Ga8 Ge2 Pb8 S24'
_cell_volume   1048.09989251
_cell_formula_units_Z   2
loop_
 _symmetry_equiv_pos_site_id
 _symmetry_equiv_pos_as_xyz
  1  'x, y, z'
loop_
 _atom_site_type_symbol
 _atom_site_label
 _atom_site_symmetry_multiplicity
 _atom_site_fract_x
 _atom_site_fract_y
 _atom_site_fract_z
 _atom_site_occupancy
  Ga  Ga0  1  0.26356144  0.35263239  0.45823156  1.0
  Ga  Ga1  1  0.23643856  0.85263239  0.04176844  1.0
  Ga  Ga2  1  0.64736761  0.26356144  0.54176844  1.0
  Ga  Ga3  1  0.85263239  0.76356144  0.95823156  1.0
  Ga  Ga4  1  0.73643856  0.64736761  0.45823156  1.0
  Ga  Ga5  1  0.76356144  0.14736761  0.04176844  1.0
  Ga  Ga6  1  0.35263239  0.73643856  0.54176844  1.0
  Ga  Ga7  1  0.14736761  0.23643856  0.95823156  1.0
  Ge  Ge8  1  0.50000000  0.50000000  0.50000000  1.0
  Ge  Ge9  1  0.00000000  0.00000000  -0.00000000  1.0
  Pb  Pb10  1  0.49298072  0.18323175  0.09737773  1.0
  Pb  Pb11  1  0.00701928  0.68323175  0.40262227  1.0
  Pb  Pb12  1  0.81676825  0.49298072  0.90262227  1.0
  Pb  Pb13  1  0.68323175  0.99298072  0.59737773  1.0
  Pb  Pb14  1  0.50701928  0.81676825  0.09737773  1.0
  Pb  Pb15  1  0.99298072  0.31676825  0.40262227  1.0
  Pb  Pb16  1  0.18323175  0.50701928  0.90262227  1.0
  Pb  Pb17  1  0.31676825  0.00701928  0.59737773  1.0
  S  S18  1  0.13935201  0.48064031  0.46442370  1.0
  S  S19  1  0.36064799  0.98064031  0.03557630  1.0
  S  S20  1  0.51935969  0.13935201  0.53557630  1.0
  S  S21  1  0.98064031  0.63935201  0.96442370  1.0
  S  S22  1  0.86064799  0.51935969  0.46442370  1.0
  S  S23  1  0.63935201  0.01935969  0.03557630  1.0
  S  S24  1  0.48064031  0.86064799  0.53557630  1.0
  S  S25  1  0.01935969  0.36064799  0.96442370  1.0
  S  S26  1  0.40753576  0.40267138  0.27151383  1.0
  S  S27  1  0.09246424  0.90267138  0.22848617  1.0
  S  S28  1  0.59732862  0.40753576  0.72848617  1.0
  S  S29  1  0.90267138  0.90753576  0.77151383  1.0
  S  S30  1  0.59246424  0.59732862  0.27151383  1.0
  S  S31  1  0.90753576  0.09732862  0.22848617  1.0
  S  S32  1  0.40267138  0.59246424  0.72848617  1.0
  S  S33  1  0.09732862  0.09246424  0.77151383  1.0
  S  S34  1  0.18820142  0.20663417  0.31235631  1.0
  S  S35  1  0.31179858  0.70663417  0.18764369  1.0
  S  S36  1  0.79336583  0.18820142  0.68764369  1.0
  S  S37  1  0.70663417  0.68820142  0.81235631  1.0
  S  S38  1  0.81179858  0.79336583  0.31235631  1.0
  S  S39  1  0.68820142  0.29336583  0.18764369  1.0
  S  S40  1  0.20663417  0.81179858  0.68764369  1.0
  S  S41  1  0.29336583  0.31179858  0.81235631  1.0
