# generated using pymatgen
data_Rb2Mo(OF2)2
_symmetry_space_group_name_H-M   'P 1'
_cell_length_a   7.94081965
_cell_length_b   7.94081965
_cell_length_c   7.22750723
_cell_angle_alpha   90.00000000
_cell_angle_beta   90.00000000
_cell_angle_gamma   45.82344147
_symmetry_Int_Tables_number   1
_chemical_formula_structural   Rb2Mo(OF2)2
_chemical_formula_sum   'Rb4 Mo2 O4 F8'
_cell_volume   326.85634917
_cell_formula_units_Z   2
loop_
 _symmetry_equiv_pos_site_id
 _symmetry_equiv_pos_as_xyz
  1  'x, y, z'
loop_
 _atom_site_type_symbol
 _atom_site_label
 _atom_site_symmetry_multiplicity
 _atom_site_fract_x
 _atom_site_fract_y
 _atom_site_fract_z
 _atom_site_occupancy
  Rb  Rb0  1  0.55320159  0.55205749  0.25000000  1.0
  Rb  Rb1  1  0.44794251  1.44679841  0.75000000  1.0
  Rb  Rb2  1  0.24408946  1.21634909  0.25000000  1.0
  Rb  Rb3  1  0.78365091  0.75591054  0.75000000  1.0
  Mo  Mo4  1  0.88088479  0.88608315  0.25000000  1.0
  Mo  Mo5  1  0.11391685  1.11911521  0.75000000  1.0
  O  O6  1  -0.06311733  1.29858305  0.56463843  1.0
  O  O7  1  0.70141695  1.06311733  1.06463843  1.0
  O  O8  1  0.70141695  1.06311733  0.43536157  1.0
  O  O9  1  -0.06311733  1.29858305  -0.06463843  1.0
  F  F10  1  0.13601054  1.61633315  0.42896391  1.0
  F  F11  1  0.38366685  0.86398946  0.92896391  1.0
  F  F12  1  0.38366685  0.86398946  0.57103609  1.0
  F  F13  1  0.13601054  1.61633315  0.07103609  1.0
  F  F14  1  0.06267581  0.96320394  0.25000000  1.0
  F  F15  1  1.03679606  0.93732419  0.75000000  1.0
  F  F16  1  0.78107507  0.71718707  0.25000000  1.0
  F  F17  1  0.28281293  1.21892493  0.75000000  1.0
