# generated using pymatgen
data_V5Sb4
_symmetry_space_group_name_H-M   'P 1'
_cell_length_a   7.20168599
_cell_length_b   7.20168599
_cell_length_c   7.20168599
_cell_angle_alpha   93.28765618
_cell_angle_beta   93.28765618
_cell_angle_gamma   152.28872261
_symmetry_Int_Tables_number   1
_chemical_formula_structural   V5Sb4
_chemical_formula_sum   'V5 Sb4'
_cell_volume   168.63441335
_cell_formula_units_Z   1
loop_
 _symmetry_equiv_pos_site_id
 _symmetry_equiv_pos_as_xyz
  1  'x, y, z'
loop_
 _atom_site_type_symbol
 _atom_site_label
 _atom_site_symmetry_multiplicity
 _atom_site_fract_x
 _atom_site_fract_y
 _atom_site_fract_z
 _atom_site_occupancy
  V  V0  1  0.68167287  0.61386390  0.29553677  1.0
  V  V1  1  0.61386390  0.31832713  0.93219103  1.0
  V  V2  1  1.31832713  1.38613610  1.70446323  1.0
  V  V3  1  0.38613610  0.68167287  1.06780897  1.0
  V  V4  1  0.00000000  0.00000000  0.00000000  1.0
  Sb  Sb5  1  0.93681515  0.71018407  0.64699922  1.0
  Sb  Sb6  1  0.71018407  0.06318485  0.77336892  1.0
  Sb  Sb7  1  1.06318485  1.28981593  1.35300078  1.0
  Sb  Sb8  1  0.28981593  0.93681515  1.22663108  1.0
