# generated using pymatgen
data_Sr3CoIrO6
_symmetry_space_group_name_H-M   'P 1'
_cell_length_a   6.70569360
_cell_length_b   6.70569360
_cell_length_c   6.70569360
_cell_angle_alpha   92.31464305
_cell_angle_beta   92.31464305
_cell_angle_gamma   92.31464305
_symmetry_Int_Tables_number   1
_chemical_formula_structural   Sr3CoIrO6
_chemical_formula_sum   'Sr6 Co2 Ir2 O12'
_cell_volume   300.77184160
_cell_formula_units_Z   2
loop_
 _symmetry_equiv_pos_site_id
 _symmetry_equiv_pos_as_xyz
  1  'x, y, z'
loop_
 _atom_site_type_symbol
 _atom_site_label
 _atom_site_symmetry_multiplicity
 _atom_site_fract_x
 _atom_site_fract_y
 _atom_site_fract_z
 _atom_site_occupancy
  Sr  Sr0  1  0.88511826  1.25000000  -0.38511826  1.0
  Sr  Sr1  1  1.38511826  0.11488174  -0.25000000  1.0
  Sr  Sr2  1  0.75000000  0.38511826  0.11488174  1.0
  Sr  Sr3  1  1.25000000  0.61488174  -0.11488174  1.0
  Sr  Sr4  1  1.11488174  -0.25000000  0.38511826  1.0
  Sr  Sr5  1  0.61488174  0.88511826  0.25000000  1.0
  Co  Co6  1  0.25000000  0.25000000  0.25000000  1.0
  Co  Co7  1  0.75000000  0.75000000  0.75000000  1.0
  Ir  Ir8  1  0.50000000  0.50000000  0.50000000  1.0
  Ir  Ir9  1  0.00000000  0.00000000  0.00000000  1.0
  O  O10  1  1.21120267  0.40471405  -0.46537737  1.0
  O  O11  1  0.71120267  1.03462263  -0.09528595  1.0
  O  O12  1  0.96537737  0.09528595  0.28879733  1.0
  O  O13  1  1.46537737  -0.21120267  0.59528595  1.0
  O  O14  1  1.59528595  0.46537737  -0.21120267  1.0
  O  O15  1  1.09528595  0.28879733  -0.03462263  1.0
  O  O16  1  0.78879733  0.59528595  0.46537737  1.0
  O  O17  1  1.28879733  -0.03462263  0.09528595  1.0
  O  O18  1  0.53462263  1.21120267  -0.59528595  1.0
  O  O19  1  1.03462263  0.90471405  -0.28879733  1.0
  O  O20  1  0.90471405  0.71120267  0.03462263  1.0
  O  O21  1  0.40471405  0.53462263  0.21120267  1.0
