# generated using pymatgen
data_K(SnAu)3
_symmetry_space_group_name_H-M   'P 1'
_cell_length_a   4.74518963
_cell_length_b   7.85424471
_cell_length_c   9.49026414
_cell_angle_alpha   90.00000000
_cell_angle_beta   90.00000000
_cell_angle_gamma   90.00000000
_symmetry_Int_Tables_number   1
_chemical_formula_structural   K(SnAu)3
_chemical_formula_sum   'K2 Sn6 Au6'
_cell_volume   353.70101100
_cell_formula_units_Z   2
loop_
 _symmetry_equiv_pos_site_id
 _symmetry_equiv_pos_as_xyz
  1  'x, y, z'
loop_
 _atom_site_type_symbol
 _atom_site_label
 _atom_site_symmetry_multiplicity
 _atom_site_fract_x
 _atom_site_fract_y
 _atom_site_fract_z
 _atom_site_occupancy
  K  K0  1  0.00000000  0.50000000  0.26406611  1.0
  K  K1  1  0.50000000  0.00000000  0.73593389  1.0
  Sn  Sn2  1  0.00000000  0.70176067  0.87806014  1.0
  Sn  Sn3  1  0.00000000  0.29823933  0.87806014  1.0
  Sn  Sn4  1  0.50000000  0.20176067  0.12193986  1.0
  Sn  Sn5  1  0.50000000  0.79823933  0.12193986  1.0
  Sn  Sn6  1  0.00000000  0.00000000  0.38540348  1.0
  Sn  Sn7  1  0.50000000  0.50000000  0.61459652  1.0
  Au  Au8  1  0.00000000  0.71462198  0.58358346  1.0
  Au  Au9  1  0.00000000  0.28537802  0.58358346  1.0
  Au  Au10  1  0.50000000  0.21462198  0.41641654  1.0
  Au  Au11  1  0.50000000  0.78537802  0.41641654  1.0
  Au  Au12  1  0.00000000  0.00000000  0.07060352  1.0
  Au  Au13  1  0.50000000  0.50000000  0.92939648  1.0
