# generated using pymatgen
data_Sc12Ir3Br16
_symmetry_space_group_name_H-M   'P 1'
_cell_length_a   11.43437367
_cell_length_b   8.93186880
_cell_length_c   12.20296674
_cell_angle_alpha   67.78988555
_cell_angle_beta   61.17158600
_cell_angle_gamma   79.08169423
_symmetry_Int_Tables_number   1
_chemical_formula_structural   Sc12Ir3Br16
_chemical_formula_sum   'Sc12 Ir3 Br16'
_cell_volume   1010.78771846
_cell_formula_units_Z   1
loop_
 _symmetry_equiv_pos_site_id
 _symmetry_equiv_pos_as_xyz
  1  'x, y, z'
loop_
 _atom_site_type_symbol
 _atom_site_label
 _atom_site_symmetry_multiplicity
 _atom_site_fract_x
 _atom_site_fract_y
 _atom_site_fract_z
 _atom_site_occupancy
  Sc  Sc0  1  0.09047642  -0.91589945  0.64697729  1.0
  Sc  Sc1  1  -0.09047642  -0.08410055  0.35302271  1.0
  Sc  Sc2  1  -0.21147710  -0.85790034  0.67551141  1.0
  Sc  Sc3  1  0.21147710  -0.14209966  0.32448859  1.0
  Sc  Sc4  1  0.21184850  -0.77818389  0.32456155  1.0
  Sc  Sc5  1  -0.21184850  -0.22181611  0.67543845  1.0
  Sc  Sc6  1  -0.08728524  -0.59878730  0.73252831  1.0
  Sc  Sc7  1  0.08728524  -0.40121270  0.26747169  1.0
  Sc  Sc8  1  0.21734385  -0.54229091  0.47962118  1.0
  Sc  Sc9  1  -0.21734385  -0.45770909  0.52037882  1.0
  Sc  Sc10  1  0.09036014  -0.27994936  0.64702381  1.0
  Sc  Sc11  1  -0.09036014  -0.72005064  0.35297619  1.0
  Ir  Ir12  1  -0.00025414  -0.65978671  0.50022345  1.0
  Ir  Ir13  1  0.00025414  -0.34021329  0.49977655  1.0
  Ir  Ir14  1  -0.00000000  0.00000000  0.50000000  1.0
  Br  Br15  1  -0.14265060  -0.92520912  0.87937071  1.0
  Br  Br16  1  0.14265060  -0.07479088  0.12062929  1.0
  Br  Br17  1  0.40809764  -0.92440599  0.16339374  1.0
  Br  Br18  1  -0.40809764  -0.07559401  0.83660626  1.0
  Br  Br19  1  0.35513930  -0.83277929  0.46725773  1.0
  Br  Br20  1  -0.35513930  -0.16722071  0.53274227  1.0
  Br  Br21  1  0.15217355  -0.66327791  0.74701316  1.0
  Br  Br22  1  -0.15217355  -0.33672209  0.25298684  1.0
  Br  Br23  1  -0.35544103  -0.56305615  0.79451984  1.0
  Br  Br24  1  0.35544103  -0.43694385  0.20548016  1.0
  Br  Br25  1  -0.14238407  -0.39675697  0.87924371  1.0
  Br  Br26  1  0.14238407  -0.60324303  0.12075629  1.0
  Br  Br27  1  0.35608760  -0.30544149  0.46594316  1.0
  Br  Br28  1  -0.35608760  -0.69455851  0.53405684  1.0
  Br  Br29  1  0.17560965  -0.18864758  0.78265091  1.0
  Br  Br30  1  -0.17560965  -0.81135242  0.21734909  1.0
