# generated using pymatgen
data_Cs2TeOF4
_symmetry_space_group_name_H-M   'P 1'
_cell_length_a   8.45568804
_cell_length_b   8.45568804
_cell_length_c   7.31048816
_cell_angle_alpha   90.00000000
_cell_angle_beta   90.00000000
_cell_angle_gamma   132.00833837
_symmetry_Int_Tables_number   1
_chemical_formula_structural   Cs2TeOF4
_chemical_formula_sum   'Cs4 Te2 O2 F8'
_cell_volume   388.38354622
_cell_formula_units_Z   2
loop_
 _symmetry_equiv_pos_site_id
 _symmetry_equiv_pos_as_xyz
  1  'x, y, z'
loop_
 _atom_site_type_symbol
 _atom_site_label
 _atom_site_symmetry_multiplicity
 _atom_site_fract_x
 _atom_site_fract_y
 _atom_site_fract_z
 _atom_site_occupancy
  Cs  Cs0  1  -0.56731545  0.56731545  0.25000000  1.0
  Cs  Cs1  1  -0.43268455  1.43268455  0.75000000  1.0
  Cs  Cs2  1  -0.24577484  1.24577484  0.25000000  1.0
  Cs  Cs3  1  -0.75422516  0.75422516  0.75000000  1.0
  Te  Te4  1  -0.88617292  0.88617292  0.25000000  1.0
  Te  Te5  1  -0.11382708  1.11382708  0.75000000  1.0
  O  O6  1  -0.76508776  0.76508776  0.25000000  1.0
  O  O7  1  -0.23491224  1.23491224  0.75000000  1.0
  F  F8  1  -0.11192947  1.66384012  0.45400795  1.0
  F  F9  1  -0.11192947  1.66384012  0.04599205  1.0
  F  F10  1  -0.33615988  0.88807053  0.95400795  1.0
  F  F11  1  -0.33615988  0.88807053  0.54599205  1.0
  F  F12  1  -0.66384012  1.11192947  0.45400795  1.0
  F  F13  1  -0.66384012  1.11192947  0.04599205  1.0
  F  F14  1  0.11192947  1.33615988  0.95400795  1.0
  F  F15  1  0.11192947  1.33615988  0.54599205  1.0
