# generated using pymatgen
data_LiSi
_symmetry_space_group_name_H-M   'P 1'
_cell_length_a   6.89259914
_cell_length_b   6.89259914
_cell_length_c   6.89259914
_cell_angle_alpha   103.02451176
_cell_angle_beta   103.02451176
_cell_angle_gamma   123.31655140
_symmetry_Int_Tables_number   1
_chemical_formula_structural   LiSi
_chemical_formula_sum   'Li8 Si8'
_cell_volume   240.83553760
_cell_formula_units_Z   8
loop_
 _symmetry_equiv_pos_site_id
 _symmetry_equiv_pos_as_xyz
  1  'x, y, z'
loop_
 _atom_site_type_symbol
 _atom_site_label
 _atom_site_symmetry_multiplicity
 _atom_site_fract_x
 _atom_site_fract_y
 _atom_site_fract_z
 _atom_site_occupancy
  Li  Li0  1  0.53778790  0.55902048  0.76268147  1.0
  Li  Li1  1  0.95366099  1.47489356  1.26268147  1.0
  Li  Li2  1  1.22489356  0.46221210  1.02123257  1.0
  Li  Li3  1  1.30902048  1.04633901  0.52123257  1.0
  Li  Li4  1  0.79633901  0.77510644  1.23731853  1.0
  Li  Li5  1  1.21221210  0.69097952  0.73731853  1.0
  Li  Li6  1  0.44097952  1.20366099  0.97876743  1.0
  Li  Li7  1  1.52510644  1.78778790  1.47876743  1.0
  Si  Si8  1  1.95253969  1.88165750  1.70025502  1.0
  Si  Si9  1  0.56859752  0.99771533  1.20025502  1.0
  Si  Si10  1  0.74771533  1.04746031  0.92911781  1.0
  Si  Si11  1  0.63165750  0.43140248  0.42911781  1.0
  Si  Si12  1  1.18140248  1.25228467  0.29974498  1.0
  Si  Si13  1  0.79746031  0.36834250  0.79974498  1.0
  Si  Si14  1  1.11834250  0.81859752  1.07088219  1.0
  Si  Si15  1  1.00228467  1.20253969  1.57088219  1.0
