# generated using pymatgen
data_Hf2Mn
_symmetry_space_group_name_H-M   'P 1'
_cell_length_a   8.51319448
_cell_length_b   8.51319448
_cell_length_c   8.51319448
_cell_angle_alpha   60.00000000
_cell_angle_beta   60.00000000
_cell_angle_gamma   60.00000000
_symmetry_Int_Tables_number   1
_chemical_formula_structural   Hf2Mn
_chemical_formula_sum   'Hf16 Mn8'
_cell_volume   436.27735003
_cell_formula_units_Z   8
loop_
 _symmetry_equiv_pos_site_id
 _symmetry_equiv_pos_as_xyz
  1  'x, y, z'
loop_
 _atom_site_type_symbol
 _atom_site_label
 _atom_site_symmetry_multiplicity
 _atom_site_fract_x
 _atom_site_fract_y
 _atom_site_fract_z
 _atom_site_occupancy
  Hf  Hf0  1  1.12500000  0.62500000  0.62500000  1.0
  Hf  Hf1  1  0.62500000  1.12500000  -0.37500000  1.0
  Hf  Hf2  1  -0.37500000  0.62500000  1.12500000  1.0
  Hf  Hf3  1  -0.37500000  0.62500000  0.62500000  1.0
  Hf  Hf4  1  0.81065461  0.81065461  -0.81065461  1.0
  Hf  Hf5  1  0.18934539  1.18934539  -0.18934539  1.0
  Hf  Hf6  1  0.81065461  -0.81065461  0.81065461  1.0
  Hf  Hf7  1  0.18934539  -0.18934539  0.18934539  1.0
  Hf  Hf8  1  -0.81065461  0.81065461  0.81065461  1.0
  Hf  Hf9  1  -0.18934539  0.18934539  0.18934539  1.0
  Hf  Hf10  1  0.43934539  1.43934539  0.06065461  1.0
  Hf  Hf11  1  0.06065461  0.06065461  0.43934539  1.0
  Hf  Hf12  1  0.43934539  1.06065461  0.43934539  1.0
  Hf  Hf13  1  0.06065461  1.43934539  0.06065461  1.0
  Hf  Hf14  1  0.06065461  1.43934539  0.43934539  1.0
  Hf  Hf15  1  0.43934539  1.06065461  0.06065461  1.0
  Mn  Mn16  1  -0.24194616  0.41398205  0.41398205  1.0
  Mn  Mn17  1  0.41398205  -0.24194616  0.41398205  1.0
  Mn  Mn18  1  0.41398205  1.41398205  -0.24194616  1.0
  Mn  Mn19  1  0.41398205  1.41398205  0.41398205  1.0
  Mn  Mn20  1  0.49194616  0.83601795  -0.16398205  1.0
  Mn  Mn21  1  0.83601795  0.49194616  0.83601795  1.0
  Mn  Mn22  1  0.83601795  0.83601795  -0.50805384  1.0
  Mn  Mn23  1  0.83601795  0.83601795  0.83601795  1.0
