# generated using pymatgen
data_CaCoSO
_symmetry_space_group_name_H-M   'P 1'
_cell_length_a   3.74642765
_cell_length_b   3.74642765
_cell_length_c   10.92999436
_cell_angle_alpha   90.00000000
_cell_angle_beta   90.00000000
_cell_angle_gamma   120.00000000
_symmetry_Int_Tables_number   1
_chemical_formula_structural   CaCoSO
_chemical_formula_sum   'Ca2 Co2 S2 O2'
_cell_volume   132.85725297
_cell_formula_units_Z   2
loop_
 _symmetry_equiv_pos_site_id
 _symmetry_equiv_pos_as_xyz
  1  'x, y, z'
loop_
 _atom_site_type_symbol
 _atom_site_label
 _atom_site_symmetry_multiplicity
 _atom_site_fract_x
 _atom_site_fract_y
 _atom_site_fract_z
 _atom_site_occupancy
  Ca  Ca0  1  0.66666667  0.33333333  0.76679315  1.0
  Ca  Ca1  1  0.33333333  0.66666667  0.26679315  1.0
  Co  Co2  1  0.00000000  0.00000000  0.50301352  1.0
  Co  Co3  1  -0.00000000  -0.00000000  0.00301352  1.0
  S  S4  1  0.33333333  0.66666667  0.57402091  1.0
  S  S5  1  0.66666667  0.33333333  0.07402091  1.0
  O  O6  1  -0.00000000  -0.00000000  0.83277243  1.0
  O  O7  1  0.00000000  -0.00000000  0.33277243  1.0
