# generated using pymatgen
data_Cs9FeO4
_symmetry_space_group_name_H-M   'P 1'
_cell_length_a   12.72450187
_cell_length_b   12.72450187
_cell_length_c   12.72450187
_cell_angle_alpha   104.96155376
_cell_angle_beta   104.96155376
_cell_angle_gamma   118.92460684
_symmetry_Int_Tables_number   1
_chemical_formula_structural   Cs9FeO4
_chemical_formula_sum   'Cs18 Fe2 O8'
_cell_volume   1553.13733253
_cell_formula_units_Z   2
loop_
 _symmetry_equiv_pos_site_id
 _symmetry_equiv_pos_as_xyz
  1  'x, y, z'
loop_
 _atom_site_type_symbol
 _atom_site_label
 _atom_site_symmetry_multiplicity
 _atom_site_fract_x
 _atom_site_fract_y
 _atom_site_fract_z
 _atom_site_occupancy
  Cs  Cs0  1  0.25000000  0.98008261  0.73008261  1.0
  Cs  Cs1  1  0.75000000  1.48008261  0.73008261  1.0
  Cs  Cs2  1  0.48008261  0.75000000  0.73008261  1.0
  Cs  Cs3  1  0.98008261  1.25000000  0.73008261  1.0
  Cs  Cs4  1  1.51991739  1.25000000  1.26991739  1.0
  Cs  Cs5  1  1.01991739  0.75000000  1.26991739  1.0
  Cs  Cs6  1  0.75000000  1.01991739  0.26991739  1.0
  Cs  Cs7  1  0.25000000  0.51991739  0.26991739  1.0
  Cs  Cs8  1  0.82945500  0.32945500  1.15891000  1.0
  Cs  Cs9  1  0.67054500  0.82945500  0.50000000  1.0
  Cs  Cs10  1  1.32945500  1.17054500  1.50000000  1.0
  Cs  Cs11  1  0.17054500  0.67054500  0.84109000  1.0
  Cs  Cs12  1  1.41681620  0.91681620  1.33363239  1.0
  Cs  Cs13  1  0.08318380  0.41681620  0.50000000  1.0
  Cs  Cs14  1  0.91681620  0.58318380  1.50000000  1.0
  Cs  Cs15  1  0.58318380  1.08318380  0.66636761  1.0
  Cs  Cs16  1  0.50000000  0.50000000  0.00000000  1.0
  Cs  Cs17  1  -0.00000000  -0.00000000  -0.00000000  1.0
  Fe  Fe18  1  0.75000000  1.25000000  0.50000000  1.0
  Fe  Fe19  1  0.25000000  0.75000000  0.50000000  1.0
  O  O20  1  1.76814352  1.26814352  1.37043363  1.0
  O  O21  1  1.10229011  0.60229011  1.37043363  1.0
  O  O22  1  0.39770989  0.76814352  0.50000000  1.0
  O  O23  1  0.73185648  1.10229011  0.50000000  1.0
  O  O24  1  1.26814352  0.89770989  1.50000000  1.0
  O  O25  1  1.60229011  1.23185648  1.50000000  1.0
  O  O26  1  0.89770989  1.39770989  0.62956637  1.0
  O  O27  1  0.23185648  0.73185648  0.62956637  1.0
