# generated using pymatgen
data_TaBRu
_symmetry_space_group_name_H-M   'P 1'
_cell_length_a   8.94501625
_cell_length_b   15.53957058
_cell_length_c   3.16672825
_cell_angle_alpha   90.00000000
_cell_angle_beta   90.00000000
_cell_angle_gamma   90.00000000
_symmetry_Int_Tables_number   1
_chemical_formula_structural   TaBRu
_chemical_formula_sum   'Ta12 B12 Ru12'
_cell_volume   440.18064589
_cell_formula_units_Z   12
loop_
 _symmetry_equiv_pos_site_id
 _symmetry_equiv_pos_as_xyz
  1  'x, y, z'
loop_
 _atom_site_type_symbol
 _atom_site_label
 _atom_site_symmetry_multiplicity
 _atom_site_fract_x
 _atom_site_fract_y
 _atom_site_fract_z
 _atom_site_occupancy
  Ta  Ta0  1  0.31402702  0.79602518  0.50000000  1.0
  Ta  Ta1  1  0.81402702  0.70397482  0.50000000  1.0
  Ta  Ta2  1  0.68597298  0.20397482  0.50000000  1.0
  Ta  Ta3  1  0.18597298  0.29602518  0.50000000  1.0
  Ta  Ta4  1  0.19844469  0.50452122  0.50000000  1.0
  Ta  Ta5  1  0.69844469  0.99547878  0.50000000  1.0
  Ta  Ta6  1  0.80155531  0.49547878  0.50000000  1.0
  Ta  Ta7  1  0.30155531  0.00452122  0.50000000  1.0
  Ta  Ta8  1  0.01447359  0.90518766  0.50000000  1.0
  Ta  Ta9  1  0.51447359  0.59481234  0.50000000  1.0
  Ta  Ta10  1  0.98552641  0.09481234  0.50000000  1.0
  Ta  Ta11  1  0.48552641  0.40518766  0.50000000  1.0
  B  B12  1  0.10923523  0.66767926  0.50000000  1.0
  B  B13  1  0.60923523  0.83232074  0.50000000  1.0
  B  B14  1  0.89076477  0.33232074  0.50000000  1.0
  B  B15  1  0.39076477  0.16767926  0.50000000  1.0
  B  B16  1  0.39519811  0.50325040  0.00000000  1.0
  B  B17  1  0.89519811  0.99674960  0.00000000  1.0
  B  B18  1  0.60480189  0.49674960  0.00000000  1.0
  B  B19  1  0.10480189  0.00325040  0.00000000  1.0
  B  B20  1  0.21417208  0.90061639  0.00000000  1.0
  B  B21  1  0.71417208  0.59938361  0.00000000  1.0
  B  B22  1  0.78582792  0.09938361  0.00000000  1.0
  B  B23  1  0.28582792  0.40061639  0.00000000  1.0
  Ru  Ru24  1  0.48362990  0.90460024  0.00000000  1.0
  Ru  Ru25  1  0.98362990  0.59539976  0.00000000  1.0
  Ru  Ru26  1  0.51637010  0.09539976  0.00000000  1.0
  Ru  Ru27  1  0.01637010  0.40460024  0.00000000  1.0
  Ru  Ru28  1  0.27897864  0.64370392  0.00000000  1.0
  Ru  Ru29  1  0.77897864  0.85629608  0.00000000  1.0
  Ru  Ru30  1  0.72102136  0.35629608  0.00000000  1.0
  Ru  Ru31  1  0.22102136  0.14370392  0.00000000  1.0
  Ru  Ru32  1  0.06404103  0.76509071  0.00000000  1.0
  Ru  Ru33  1  0.56404103  0.73490929  0.00000000  1.0
  Ru  Ru34  1  0.93595897  0.23490929  0.00000000  1.0
  Ru  Ru35  1  0.43595897  0.26509071  0.00000000  1.0
