# generated using pymatgen
data_Y2InCu2
_symmetry_space_group_name_H-M   'P 1'
_cell_length_a   7.56924730
_cell_length_b   7.56924730
_cell_length_c   3.73003033
_cell_angle_alpha   90.00000000
_cell_angle_beta   90.00000000
_cell_angle_gamma   90.00000000
_symmetry_Int_Tables_number   1
_chemical_formula_structural   Y2InCu2
_chemical_formula_sum   'Y4 In2 Cu4'
_cell_volume   213.70651057
_cell_formula_units_Z   2
loop_
 _symmetry_equiv_pos_site_id
 _symmetry_equiv_pos_as_xyz
  1  'x, y, z'
loop_
 _atom_site_type_symbol
 _atom_site_label
 _atom_site_symmetry_multiplicity
 _atom_site_fract_x
 _atom_site_fract_y
 _atom_site_fract_z
 _atom_site_occupancy
  Y  Y0  1  0.32654383  0.17345617  0.50000000  1.0
  Y  Y1  1  0.82654383  0.32654383  0.50000000  1.0
  Y  Y2  1  0.67345617  0.82654383  0.50000000  1.0
  Y  Y3  1  0.17345617  0.67345617  0.50000000  1.0
  In  In4  1  0.50000000  0.50000000  0.00000000  1.0
  In  In5  1  0.00000000  0.00000000  0.00000000  1.0
  Cu  Cu6  1  0.88042948  0.61957052  0.00000000  1.0
  Cu  Cu7  1  0.38042948  0.88042948  0.00000000  1.0
  Cu  Cu8  1  0.11957052  0.38042948  0.00000000  1.0
  Cu  Cu9  1  0.61957052  0.11957052  0.00000000  1.0
