# generated using pymatgen
data_Li5In4
_symmetry_space_group_name_H-M   'P 1'
_cell_length_a   4.80189211
_cell_length_b   4.80189211
_cell_length_c   8.87829357
_cell_angle_alpha   90.00000000
_cell_angle_beta   90.00000000
_cell_angle_gamma   120.00000000
_symmetry_Int_Tables_number   1
_chemical_formula_structural   Li5In4
_chemical_formula_sum   'Li5 In4'
_cell_volume   177.29028115
_cell_formula_units_Z   1
loop_
 _symmetry_equiv_pos_site_id
 _symmetry_equiv_pos_as_xyz
  1  'x, y, z'
loop_
 _atom_site_type_symbol
 _atom_site_label
 _atom_site_symmetry_multiplicity
 _atom_site_fract_x
 _atom_site_fract_y
 _atom_site_fract_z
 _atom_site_occupancy
  Li  Li0  1  0.33333333  0.66666667  0.12326794  1.0
  Li  Li1  1  0.66666667  0.33333333  0.87673206  1.0
  Li  Li2  1  0.33333333  0.66666667  0.45486289  1.0
  Li  Li3  1  0.66666667  0.33333333  0.54513711  1.0
  Li  Li4  1  0.00000000  0.00000000  0.00000000  1.0
  In  In5  1  0.33333333  0.66666667  0.79778672  1.0
  In  In6  1  0.66666667  0.33333333  0.20221328  1.0
  In  In7  1  0.00000000  0.00000000  0.33233512  1.0
  In  In8  1  0.00000000  0.00000000  0.66766488  1.0
