# generated using pymatgen
data_Ba3(AlN2)2
_symmetry_space_group_name_H-M   'P 1'
_cell_length_a   6.24743987
_cell_length_b   10.29770763
_cell_length_c   10.14388627
_cell_angle_alpha   90.00000000
_cell_angle_beta   90.00000000
_cell_angle_gamma   90.00000000
_symmetry_Int_Tables_number   1
_chemical_formula_structural   Ba3(AlN2)2
_chemical_formula_sum   'Ba12 Al8 N16'
_cell_volume   652.59991696
_cell_formula_units_Z   4
loop_
 _symmetry_equiv_pos_site_id
 _symmetry_equiv_pos_as_xyz
  1  'x, y, z'
loop_
 _atom_site_type_symbol
 _atom_site_label
 _atom_site_symmetry_multiplicity
 _atom_site_fract_x
 _atom_site_fract_y
 _atom_site_fract_z
 _atom_site_occupancy
  Ba  Ba0  1  0.88504182  0.84497358  0.08655345  1.0
  Ba  Ba1  1  0.88504182  0.65502642  0.41344655  1.0
  Ba  Ba2  1  0.38504182  0.84497358  0.91344655  1.0
  Ba  Ba3  1  0.38504182  0.65502642  0.58655345  1.0
  Ba  Ba4  1  0.11495818  0.34497358  0.58655345  1.0
  Ba  Ba5  1  0.11495818  0.15502642  0.91344655  1.0
  Ba  Ba6  1  0.61495818  0.34497358  0.41344655  1.0
  Ba  Ba7  1  0.61495818  0.15502642  0.08655345  1.0
  Ba  Ba8  1  0.25000000  0.00000000  0.59134376  1.0
  Ba  Ba9  1  0.25000000  0.50000000  0.90865624  1.0
  Ba  Ba10  1  0.75000000  0.00000000  0.40865624  1.0
  Ba  Ba11  1  0.75000000  0.50000000  0.09134376  1.0
  Al  Al12  1  0.32654381  0.75000000  0.25000000  1.0
  Al  Al13  1  0.82654381  0.75000000  0.75000000  1.0
  Al  Al14  1  0.67345619  0.25000000  0.75000000  1.0
  Al  Al15  1  0.17345619  0.25000000  0.25000000  1.0
  Al  Al16  1  0.25000000  0.00000000  0.26770940  1.0
  Al  Al17  1  0.25000000  0.50000000  0.23229060  1.0
  Al  Al18  1  0.75000000  0.00000000  0.73229060  1.0
  Al  Al19  1  0.75000000  0.50000000  0.76770940  1.0
  N  N20  1  0.46556876  0.90066413  0.17174560  1.0
  N  N21  1  0.46556876  0.59933587  0.32825440  1.0
  N  N22  1  0.96556876  0.90066413  0.82825440  1.0
  N  N23  1  0.96556876  0.59933587  0.67174560  1.0
  N  N24  1  0.53443124  0.40066413  0.67174560  1.0
  N  N25  1  0.53443124  0.09933587  0.82825440  1.0
  N  N26  1  0.03443124  0.40066413  0.32825440  1.0
  N  N27  1  0.03443124  0.09933587  0.17174560  1.0
  N  N28  1  0.14177692  0.64480248  0.13363459  1.0
  N  N29  1  0.14177692  0.85519752  0.36636541  1.0
  N  N30  1  0.64177692  0.64480248  0.86636541  1.0
  N  N31  1  0.64177692  0.85519752  0.63363459  1.0
  N  N32  1  0.85822308  0.14480248  0.63363459  1.0
  N  N33  1  0.85822308  0.35519752  0.86636541  1.0
  N  N34  1  0.35822308  0.14480248  0.36636541  1.0
  N  N35  1  0.35822308  0.35519752  0.13363459  1.0
