# generated using pymatgen
data_ScTl(MoO4)2
_symmetry_space_group_name_H-M   'P 1'
_cell_length_a   5.87292939
_cell_length_b   5.87292939
_cell_length_c   7.68036373
_cell_angle_alpha   90.00000000
_cell_angle_beta   90.00000000
_cell_angle_gamma   120.00000000
_symmetry_Int_Tables_number   1
_chemical_formula_structural   ScTl(MoO4)2
_chemical_formula_sum   'Sc1 Tl1 Mo2 O8'
_cell_volume   229.41508898
_cell_formula_units_Z   1
loop_
 _symmetry_equiv_pos_site_id
 _symmetry_equiv_pos_as_xyz
  1  'x, y, z'
loop_
 _atom_site_type_symbol
 _atom_site_label
 _atom_site_symmetry_multiplicity
 _atom_site_fract_x
 _atom_site_fract_y
 _atom_site_fract_z
 _atom_site_occupancy
  Sc  Sc0  1  0.00000000  0.00000000  0.50000000  1.0
  Tl  Tl1  1  0.00000000  0.00000000  0.00000000  1.0
  Mo  Mo2  1  0.33333333  0.66666667  0.26267353  1.0
  Mo  Mo3  1  0.66666667  0.33333333  0.73732647  1.0
  O  O4  1  0.66787230  0.83393615  0.33632333  1.0
  O  O5  1  0.83393615  0.66787230  0.66367667  1.0
  O  O6  1  0.83393615  0.16606385  0.66367667  1.0
  O  O7  1  0.16606385  0.83393615  0.33632333  1.0
  O  O8  1  0.16606385  0.33212770  0.33632333  1.0
  O  O9  1  0.33212770  0.16606385  0.66367667  1.0
  O  O10  1  0.33333333  0.66666667  0.03697877  1.0
  O  O11  1  0.66666667  0.33333333  0.96302123  1.0
