# generated using pymatgen
data_LuPS4
_symmetry_space_group_name_H-M   'P 1'
_cell_length_a   8.94710568
_cell_length_b   6.52831320
_cell_length_c   12.59515691
_cell_angle_alpha   90.00000000
_cell_angle_beta   119.94563873
_cell_angle_gamma   90.00000000
_symmetry_Int_Tables_number   1
_chemical_formula_structural   LuPS4
_chemical_formula_sum   'Lu4 P4 S16'
_cell_volume   637.46361354
_cell_formula_units_Z   4
loop_
 _symmetry_equiv_pos_site_id
 _symmetry_equiv_pos_as_xyz
  1  'x, y, z'
loop_
 _atom_site_type_symbol
 _atom_site_label
 _atom_site_symmetry_multiplicity
 _atom_site_fract_x
 _atom_site_fract_y
 _atom_site_fract_z
 _atom_site_occupancy
  Lu  Lu0  1  0.55291016  0.17888595  0.16366009  1.0
  Lu  Lu1  1  0.55291016  0.32111405  0.66366009  1.0
  Lu  Lu2  1  0.44708984  0.67888595  0.33633991  1.0
  Lu  Lu3  1  0.44708984  0.82111405  0.83633991  1.0
  P  P4  1  0.67788367  0.23008247  0.45900745  1.0
  P  P5  1  0.67788367  0.26991753  0.95900745  1.0
  P  P6  1  0.32211633  0.73008247  0.04099255  1.0
  P  P7  1  0.32211633  0.76991753  0.54099255  1.0
  S  S8  1  0.83111878  0.25576982  0.14237864  1.0
  S  S9  1  0.83111878  0.24423018  0.64237864  1.0
  S  S10  1  0.16888122  0.75576982  0.35762136  1.0
  S  S11  1  0.16888122  0.74423018  0.85762136  1.0
  S  S12  1  0.72802122  0.44987956  0.36244094  1.0
  S  S13  1  0.72802122  0.05012044  0.86244094  1.0
  S  S14  1  0.27197878  0.94987956  0.13755906  1.0
  S  S15  1  0.27197878  0.55012044  0.63755906  1.0
  S  S16  1  0.70798149  0.96179679  0.38249659  1.0
  S  S17  1  0.70798149  0.53820321  0.88249659  1.0
  S  S18  1  0.29201851  0.46179679  0.11750341  1.0
  S  S19  1  0.29201851  0.03820321  0.61750341  1.0
  S  S20  1  0.42187508  0.27197246  0.41288914  1.0
  S  S21  1  0.42187508  0.22802754  0.91288914  1.0
  S  S22  1  0.57812492  0.77197246  0.08711086  1.0
  S  S23  1  0.57812492  0.72802754  0.58711086  1.0
