# generated using pymatgen
data_RbLuP2O7
_symmetry_space_group_name_H-M   'P 1'
_cell_length_a   7.86981590
_cell_length_b   10.93339617
_cell_length_c   8.76984682
_cell_angle_alpha   90.00000000
_cell_angle_beta   106.13065385
_cell_angle_gamma   90.00000000
_symmetry_Int_Tables_number   1
_chemical_formula_structural   RbLuP2O7
_chemical_formula_sum   'Rb4 Lu4 P8 O28'
_cell_volume   724.88331734
_cell_formula_units_Z   4
loop_
 _symmetry_equiv_pos_site_id
 _symmetry_equiv_pos_as_xyz
  1  'x, y, z'
loop_
 _atom_site_type_symbol
 _atom_site_label
 _atom_site_symmetry_multiplicity
 _atom_site_fract_x
 _atom_site_fract_y
 _atom_site_fract_z
 _atom_site_occupancy
  Rb  Rb0  1  0.81396848  0.82111754  0.43462596  1.0
  Rb  Rb1  1  0.81396848  0.67888246  0.93462596  1.0
  Rb  Rb2  1  0.18603152  0.32111754  0.06537404  1.0
  Rb  Rb3  1  0.18603152  0.17888246  0.56537404  1.0
  Lu  Lu4  1  0.76324375  0.40036915  0.24640517  1.0
  Lu  Lu5  1  0.76324375  0.09963085  0.74640517  1.0
  Lu  Lu6  1  0.23675625  0.90036915  0.25359483  1.0
  Lu  Lu7  1  0.23675625  0.59963085  0.75359483  1.0
  P  P8  1  0.87238134  0.09925990  0.18090868  1.0
  P  P9  1  0.87238134  0.40074010  0.68090868  1.0
  P  P10  1  0.12761866  0.59925990  0.31909132  1.0
  P  P11  1  0.12761866  0.90074010  0.81909132  1.0
  P  P12  1  0.56850398  0.13317504  0.31152109  1.0
  P  P13  1  0.56850398  0.36682496  0.81152109  1.0
  P  P14  1  0.43149602  0.63317504  0.18847891  1.0
  P  P15  1  0.43149602  0.86682496  0.68847891  1.0
  O  O16  1  1.00039932  0.50217740  0.22228083  1.0
  O  O17  1  1.00039932  -0.00217740  0.72228083  1.0
  O  O18  1  -0.00039932  1.00217740  0.27771917  1.0
  O  O19  1  -0.00039932  0.49782260  0.77771917  1.0
  O  O20  1  0.92289230  0.22823501  0.25022962  1.0
  O  O21  1  0.92289230  0.27176499  0.75022962  1.0
  O  O22  1  0.07710770  0.72823501  0.24977038  1.0
  O  O23  1  0.07710770  0.77176499  0.74977038  1.0
  O  O24  1  0.85533529  0.40729402  0.50405583  1.0
  O  O25  1  0.85533529  0.09270598  1.00405583  1.0
  O  O26  1  0.14466471  0.90729402  -0.00405583  1.0
  O  O27  1  0.14466471  0.59270598  0.49594417  1.0
  O  O28  1  0.67271379  0.10834174  0.48395818  1.0
  O  O29  1  0.67271379  0.39165826  0.98395818  1.0
  O  O30  1  0.32728621  0.60834174  0.01604182  1.0
  O  O31  1  0.32728621  0.89165826  0.51604182  1.0
  O  O32  1  0.67776812  0.06398970  0.20143496  1.0
  O  O33  1  0.67776812  0.43601030  0.70143496  1.0
  O  O34  1  0.32223188  0.56398970  0.29856504  1.0
  O  O35  1  0.32223188  0.93601030  0.79856504  1.0
  O  O36  1  0.55375124  0.26908772  0.26442604  1.0
  O  O37  1  0.55375124  0.23091228  0.76442604  1.0
  O  O38  1  0.44624876  0.76908772  0.23557396  1.0
  O  O39  1  0.44624876  0.73091228  0.73557396  1.0
  O  O40  1  0.38559617  0.07248274  0.26443767  1.0
  O  O41  1  0.38559617  0.42751726  0.76443767  1.0
  O  O42  1  0.61440383  0.57248274  0.23556233  1.0
  O  O43  1  0.61440383  0.92751726  0.73556233  1.0
