# generated using pymatgen
data_Eu2ZnGe3
_symmetry_space_group_name_H-M   'P 1'
_cell_length_a   6.12750080
_cell_length_b   6.12750080
_cell_length_c   8.57032026
_cell_angle_alpha   68.05845142
_cell_angle_beta   111.94154858
_cell_angle_gamma   92.52500133
_symmetry_Int_Tables_number   1
_chemical_formula_structural   Eu2ZnGe3
_chemical_formula_sum   'Eu4 Zn2 Ge6'
_cell_volume   275.14221962
_cell_formula_units_Z   2
loop_
 _symmetry_equiv_pos_site_id
 _symmetry_equiv_pos_as_xyz
  1  'x, y, z'
loop_
 _atom_site_type_symbol
 _atom_site_label
 _atom_site_symmetry_multiplicity
 _atom_site_fract_x
 _atom_site_fract_y
 _atom_site_fract_z
 _atom_site_occupancy
  Eu  Eu0  1  1.24194731  -0.24194731  -0.00023225  1.0
  Eu  Eu1  1  0.75805269  0.24194731  0.00023225  1.0
  Eu  Eu2  1  1.25155946  0.25155946  0.50000000  1.0
  Eu  Eu3  1  0.74844054  0.74844054  0.50000000  1.0
  Zn  Zn4  1  0.35775518  -0.35775518  0.66838293  1.0
  Zn  Zn5  1  0.64224482  0.35775518  0.33161707  1.0
  Ge  Ge6  1  0.14194805  -0.14194805  0.33785280  1.0
  Ge  Ge7  1  0.85805195  0.14194805  0.66214720  1.0
  Ge  Ge8  1  0.85899219  0.63306400  0.16842429  1.0
  Ge  Ge9  1  0.63306400  -0.14100781  0.83157571  1.0
  Ge  Ge10  1  1.14100781  0.36693600  0.83157571  1.0
  Ge  Ge11  1  0.36693600  0.14100781  0.16842429  1.0
