# generated using pymatgen
data_SiP2
_symmetry_space_group_name_H-M   'P 1'
_cell_length_a   10.32311581
_cell_length_b   3.45280401
_cell_length_c   15.39100047
_cell_angle_alpha   90.00000000
_cell_angle_beta   90.00000000
_cell_angle_gamma   90.00000000
_symmetry_Int_Tables_number   1
_chemical_formula_structural   SiP2
_chemical_formula_sum   'Si8 P16'
_cell_volume   548.59213732
_cell_formula_units_Z   8
loop_
 _symmetry_equiv_pos_site_id
 _symmetry_equiv_pos_as_xyz
  1  'x, y, z'
loop_
 _atom_site_type_symbol
 _atom_site_label
 _atom_site_symmetry_multiplicity
 _atom_site_fract_x
 _atom_site_fract_y
 _atom_site_fract_z
 _atom_site_occupancy
  Si  Si0  1  0.87693757  0.75000000  0.66499627  1.0
  Si  Si1  1  0.37693757  0.75000000  0.83500373  1.0
  Si  Si2  1  0.12306243  0.25000000  0.33500373  1.0
  Si  Si3  1  0.62306243  0.25000000  0.16499627  1.0
  Si  Si4  1  0.83921852  0.75000000  0.26834999  1.0
  Si  Si5  1  0.33921852  0.75000000  0.23165001  1.0
  Si  Si6  1  0.16078148  0.25000000  0.73165001  1.0
  Si  Si7  1  0.66078148  0.25000000  0.76834999  1.0
  P  P8  1  0.99462574  0.75000000  0.37346775  1.0
  P  P9  1  0.49462574  0.75000000  0.12653225  1.0
  P  P10  1  0.00537426  0.25000000  0.62653225  1.0
  P  P11  1  0.50537426  0.25000000  0.87346775  1.0
  P  P12  1  0.90677313  0.75000000  0.12340434  1.0
  P  P13  1  0.40677313  0.75000000  0.37659566  1.0
  P  P14  1  0.09322687  0.25000000  0.87659566  1.0
  P  P15  1  0.59322687  0.25000000  0.62340434  1.0
  P  P16  1  0.79408978  0.75000000  0.80175499  1.0
  P  P17  1  0.29408978  0.75000000  0.69824501  1.0
  P  P18  1  0.20591022  0.25000000  0.19824501  1.0
  P  P19  1  0.70591022  0.25000000  0.30175499  1.0
  P  P20  1  0.70961654  0.75000000  0.56782130  1.0
  P  P21  1  0.20961654  0.75000000  0.93217870  1.0
  P  P22  1  0.29038346  0.25000000  0.43217870  1.0
  P  P23  1  0.79038346  0.25000000  0.06782130  1.0
