# generated using pymatgen
data_Ag5GeO4
_symmetry_space_group_name_H-M   'P 1'
_cell_length_a   6.53430210
_cell_length_b   10.01331460
_cell_length_c   11.22784042
_cell_angle_alpha   90.00000000
_cell_angle_beta   124.45573910
_cell_angle_gamma   90.00000000
_symmetry_Int_Tables_number   1
_chemical_formula_structural   Ag5GeO4
_chemical_formula_sum   'Ag20 Ge4 O16'
_cell_volume   605.75555207
_cell_formula_units_Z   4
loop_
 _symmetry_equiv_pos_site_id
 _symmetry_equiv_pos_as_xyz
  1  'x, y, z'
loop_
 _atom_site_type_symbol
 _atom_site_label
 _atom_site_symmetry_multiplicity
 _atom_site_fract_x
 _atom_site_fract_y
 _atom_site_fract_z
 _atom_site_occupancy
  Ag  Ag0  1  0.92925148  0.91596922  0.09169949  1.0
  Ag  Ag1  1  0.92925148  0.58403078  0.59169949  1.0
  Ag  Ag2  1  0.07074852  0.41596922  0.40830051  1.0
  Ag  Ag3  1  0.07074852  0.08403078  0.90830051  1.0
  Ag  Ag4  1  0.80153460  0.37779560  0.07563909  1.0
  Ag  Ag5  1  0.80153460  0.12220440  0.57563909  1.0
  Ag  Ag6  1  0.19846540  0.87779560  0.42436091  1.0
  Ag  Ag7  1  0.19846540  0.62220440  0.92436091  1.0
  Ag  Ag8  1  0.65082236  0.87482056  0.44215760  1.0
  Ag  Ag9  1  0.65082236  0.62517944  0.94215760  1.0
  Ag  Ag10  1  0.34917764  0.37482056  0.05784240  1.0
  Ag  Ag11  1  0.34917764  0.12517944  0.55784240  1.0
  Ag  Ag12  1  0.60037060  0.35531900  0.38080590  1.0
  Ag  Ag13  1  0.60037060  0.14468100  0.88080590  1.0
  Ag  Ag14  1  0.39962940  0.85531900  0.11919410  1.0
  Ag  Ag15  1  0.39962940  0.64468100  0.61919410  1.0
  Ag  Ag16  1  0.32449554  0.09362673  0.30223339  1.0
  Ag  Ag17  1  0.32449554  0.40637327  0.80223339  1.0
  Ag  Ag18  1  0.67550446  0.59362673  0.19776661  1.0
  Ag  Ag19  1  0.67550446  0.90637327  0.69776661  1.0
  Ge  Ge20  1  0.75139102  0.11351698  0.24139524  1.0
  Ge  Ge21  1  0.75139102  0.38648302  0.74139524  1.0
  Ge  Ge22  1  0.24860898  0.61351698  0.25860476  1.0
  Ge  Ge23  1  0.24860898  0.88648302  0.75860476  1.0
  O  O24  1  0.92007716  0.21112272  0.40383271  1.0
  O  O25  1  0.92007716  0.28887728  0.90383271  1.0
  O  O26  1  0.07992284  0.71112272  0.09616729  1.0
  O  O27  1  0.07992284  0.78887728  0.59616729  1.0
  O  O28  1  0.88247567  0.13868511  0.13880907  1.0
  O  O29  1  0.88247567  0.36131489  0.63880907  1.0
  O  O30  1  0.11752433  0.63868511  0.36119093  1.0
  O  O31  1  0.11752433  0.86131489  0.86119093  1.0
  O  O32  1  0.77920993  0.93821702  0.28011899  1.0
  O  O33  1  0.77920993  0.56178298  0.78011899  1.0
  O  O34  1  0.22079007  0.43821702  0.21988101  1.0
  O  O35  1  0.22079007  0.06178298  0.71988101  1.0
  O  O36  1  0.43025310  0.15634833  0.14271728  1.0
  O  O37  1  0.43025310  0.34365167  0.64271728  1.0
  O  O38  1  0.56974690  0.65634833  0.35728272  1.0
  O  O39  1  0.56974690  0.84365167  0.85728272  1.0
