# generated using pymatgen
data_ZrTiAs
_symmetry_space_group_name_H-M   'P 1'
_cell_length_a   7.91733405
_cell_length_b   7.91733405
_cell_length_c   7.91733405
_cell_angle_alpha   152.31037353
_cell_angle_beta   152.31037353
_cell_angle_gamma   39.56022644
_symmetry_Int_Tables_number   1
_chemical_formula_structural   ZrTiAs
_chemical_formula_sum   'Zr2 Ti2 As2'
_cell_volume   106.96594305
_cell_formula_units_Z   2
loop_
 _symmetry_equiv_pos_site_id
 _symmetry_equiv_pos_as_xyz
  1  'x, y, z'
loop_
 _atom_site_type_symbol
 _atom_site_label
 _atom_site_symmetry_multiplicity
 _atom_site_fract_x
 _atom_site_fract_y
 _atom_site_fract_z
 _atom_site_occupancy
  Zr  Zr0  1  0.67902473  0.67902473  1.00000000  1.0
  Zr  Zr1  1  0.32097527  0.32097527  -0.00000000  1.0
  Ti  Ti2  1  0.50000000  0.00000000  0.50000000  1.0
  Ti  Ti3  1  0.00000000  0.50000000  0.50000000  1.0
  As  As4  1  0.87051366  0.87051366  1.00000000  1.0
  As  As5  1  0.12948634  0.12948634  -0.00000000  1.0
