# generated using pymatgen
data_CaAlH5
_symmetry_space_group_name_H-M   'P 1'
_cell_length_a   8.34718666
_cell_length_b   6.95846688
_cell_length_c   12.37557116
_cell_angle_alpha   90.00000000
_cell_angle_beta   128.39672791
_cell_angle_gamma   90.00000000
_symmetry_Int_Tables_number   1
_chemical_formula_structural   CaAlH5
_chemical_formula_sum   'Ca8 Al8 H40'
_cell_volume   563.35845738
_cell_formula_units_Z   8
loop_
 _symmetry_equiv_pos_site_id
 _symmetry_equiv_pos_as_xyz
  1  'x, y, z'
loop_
 _atom_site_type_symbol
 _atom_site_label
 _atom_site_symmetry_multiplicity
 _atom_site_fract_x
 _atom_site_fract_y
 _atom_site_fract_z
 _atom_site_occupancy
  Ca  Ca0  1  0.78218344  -0.23093721  0.04339213  1.0
  Ca  Ca1  1  0.78218344  0.73093721  0.54339213  1.0
  Ca  Ca2  1  0.21781656  1.23093721  0.95660787  1.0
  Ca  Ca3  1  0.21781656  0.26906279  0.45660787  1.0
  Ca  Ca4  1  0.65886130  0.23052897  0.34891035  1.0
  Ca  Ca5  1  0.65886130  0.26947103  0.84891035  1.0
  Ca  Ca6  1  0.34113870  0.76947103  0.65108965  1.0
  Ca  Ca7  1  0.34113870  0.73052897  0.15108965  1.0
  Al  Al8  1  0.19544328  0.30857718  0.68991917  1.0
  Al  Al9  1  0.19544328  0.19142282  0.18991917  1.0
  Al  Al10  1  0.80455672  0.69142282  0.31008083  1.0
  Al  Al11  1  0.80455672  0.80857718  0.81008083  1.0
  Al  Al12  1  0.78620339  0.28038483  0.15724183  1.0
  Al  Al13  1  0.78620339  0.21961517  0.65724183  1.0
  Al  Al14  1  0.21379661  0.71961517  0.84275817  1.0
  Al  Al15  1  0.21379661  0.78038483  0.34275817  1.0
  H  H16  1  0.95141408  0.80573487  0.27536983  1.0
  H  H17  1  0.95141408  0.69426513  0.77536983  1.0
  H  H18  1  0.04858592  0.19426513  0.72463017  1.0
  H  H19  1  0.04858592  0.30573487  0.22463017  1.0
  H  H20  1  0.60839984  0.70905623  0.13787763  1.0
  H  H21  1  0.60839984  0.79094377  0.63787763  1.0
  H  H22  1  0.39160016  0.29094377  0.86212237  1.0
  H  H23  1  0.39160016  0.20905623  0.36212237  1.0
  H  H24  1  0.88926535  0.14478455  0.30315501  1.0
  H  H25  1  0.88926535  0.35521545  0.80315501  1.0
  H  H26  1  0.11073465  0.85521545  0.69684499  1.0
  H  H27  1  0.11073465  0.64478455  0.19684499  1.0
  H  H28  1  0.27005183  0.59797220  0.45431320  1.0
  H  H29  1  0.27005183  0.90202780  0.95431320  1.0
  H  H30  1  0.72994817  0.40202780  0.54568680  1.0
  H  H31  1  0.72994817  0.09797220  0.04568680  1.0
  H  H32  1  0.56052853  0.28663368  0.13020952  1.0
  H  H33  1  0.56052853  0.21336632  0.63020952  1.0
  H  H34  1  0.43947147  0.71336632  0.86979048  1.0
  H  H35  1  0.43947147  0.78663368  0.36979048  1.0
  H  H36  1  0.00444960  0.30466847  0.51685558  1.0
  H  H37  1  0.00444960  0.19533153  0.01685558  1.0
  H  H38  1  0.99555040  0.69533153  0.48314442  1.0
  H  H39  1  0.99555040  0.80466847  0.98314442  1.0
  H  H40  1  0.30701177  0.11406236  0.66386167  1.0
  H  H41  1  0.30701177  0.38593764  0.16386167  1.0
  H  H42  1  0.69298823  0.88593764  0.33613833  1.0
  H  H43  1  0.69298823  0.61406236  0.83613833  1.0
  H  H44  1  0.26398241  0.94343056  0.46273255  1.0
  H  H45  1  0.26398241  0.55656944  0.96273255  1.0
  H  H46  1  0.73601759  0.05656944  0.53726745  1.0
  H  H47  1  0.73601759  0.44343056  0.03726745  1.0
  H  H48  1  0.88487801  0.47047521  0.28796993  1.0
  H  H49  1  0.88487801  0.02952479  0.78796993  1.0
  H  H50  1  0.11512199  0.52952479  0.71203007  1.0
  H  H51  1  0.11512199  0.97047521  0.21203007  1.0
  H  H52  1  0.35134528  0.43640939  0.66379414  1.0
  H  H53  1  0.35134528  0.06359061  0.16379414  1.0
  H  H54  1  0.64865472  0.56359061  0.33620586  1.0
  H  H55  1  0.64865472  0.93640939  0.83620586  1.0
