# generated using pymatgen
data_La3HfGa5O14
_symmetry_space_group_name_H-M   'P 1'
_cell_length_a   8.36776522
_cell_length_b   8.36776522
_cell_length_c   5.20216707
_cell_angle_alpha   90.00000000
_cell_angle_beta   90.00000000
_cell_angle_gamma   120.00000000
_symmetry_Int_Tables_number   1
_chemical_formula_structural   La3HfGa5O14
_chemical_formula_sum   'La3 Hf1 Ga5 O14'
_cell_volume   315.45244701
_cell_formula_units_Z   1
loop_
 _symmetry_equiv_pos_site_id
 _symmetry_equiv_pos_as_xyz
  1  'x, y, z'
loop_
 _atom_site_type_symbol
 _atom_site_label
 _atom_site_symmetry_multiplicity
 _atom_site_fract_x
 _atom_site_fract_y
 _atom_site_fract_z
 _atom_site_occupancy
  La  La0  1  0.42521850  0.42521850  0.00000000  1.0
  La  La1  1  0.00000000  0.57478150  0.00000000  1.0
  La  La2  1  0.57478150  0.00000000  0.00000000  1.0
  Hf  Hf3  1  -0.00000000  -0.00000000  -0.00000000  1.0
  Ga  Ga4  1  0.33333333  0.66666667  0.53082152  1.0
  Ga  Ga5  1  0.66666667  0.33333333  0.46917848  1.0
  Ga  Ga6  1  0.75336347  0.75336347  0.50000000  1.0
  Ga  Ga7  1  -0.00000000  0.24663653  0.50000000  1.0
  Ga  Ga8  1  0.24663653  0.00000000  0.50000000  1.0
  O  O9  1  0.08184948  0.85415742  0.24198029  1.0
  O  O10  1  0.85415742  0.08184948  0.75801971  1.0
  O  O11  1  0.77230794  0.91815052  0.24198029  1.0
  O  O12  1  0.14584258  0.22769206  0.24198029  1.0
  O  O13  1  0.91815052  0.77230794  0.75801971  1.0
  O  O14  1  0.22769206  0.14584258  0.75801971  1.0
  O  O15  1  0.68522873  0.54023209  0.30065395  1.0
  O  O16  1  0.54023209  0.68522873  0.69934605  1.0
  O  O17  1  0.85500336  0.31477127  0.30065395  1.0
  O  O18  1  0.45976791  0.14499664  0.30065395  1.0
  O  O19  1  0.31477127  0.85500336  0.69934605  1.0
  O  O20  1  0.14499664  0.45976791  0.69934605  1.0
  O  O21  1  0.33333333  0.66666667  0.18036473  1.0
  O  O22  1  0.66666667  0.33333333  0.81963527  1.0
