# generated using pymatgen
data_LiSn4Ir
_symmetry_space_group_name_H-M   'P 1'
_cell_length_a   7.44328860
_cell_length_b   7.44328860
_cell_length_c   7.44328860
_cell_angle_alpha   126.63990954
_cell_angle_beta   126.63990954
_cell_angle_gamma   78.83892531
_symmetry_Int_Tables_number   1
_chemical_formula_structural   LiSn4Ir
_chemical_formula_sum   'Li2 Sn8 Ir2'
_cell_volume   256.90405539
_cell_formula_units_Z   2
loop_
 _symmetry_equiv_pos_site_id
 _symmetry_equiv_pos_as_xyz
  1  'x, y, z'
loop_
 _atom_site_type_symbol
 _atom_site_label
 _atom_site_symmetry_multiplicity
 _atom_site_fract_x
 _atom_site_fract_y
 _atom_site_fract_z
 _atom_site_occupancy
  Li  Li0  1  0.00000000  0.00000000  0.00000000  1.0
  Li  Li1  1  0.50000000  0.50000000  1.00000000  1.0
  Sn  Sn2  1  1.20634547  0.70634547  1.18299846  1.0
  Sn  Sn3  1  0.47665299  0.97665299  1.18299846  1.0
  Sn  Sn4  1  1.02334701  1.20634547  1.50000000  1.0
  Sn  Sn5  1  0.29365453  0.47665299  0.50000000  1.0
  Sn  Sn6  1  0.70634547  0.52334701  0.50000000  1.0
  Sn  Sn7  1  0.97665299  0.79365453  1.50000000  1.0
  Sn  Sn8  1  0.52334701  1.02334701  0.81700154  1.0
  Sn  Sn9  1  0.79365453  0.29365453  0.81700154  1.0
  Ir  Ir10  1  0.75000000  0.75000000  1.00000000  1.0
  Ir  Ir11  1  0.25000000  0.25000000  -0.00000000  1.0
