# generated using pymatgen
data_BeO2
_symmetry_space_group_name_H-M   'P 1'
_cell_length_a   3.93441500
_cell_length_b   4.25752765
_cell_length_c   7.01720831
_cell_angle_alpha   90.00000000
_cell_angle_beta   90.00000000
_cell_angle_gamma   90.00000000
_symmetry_Int_Tables_number   1
_chemical_formula_structural   BeO2
_chemical_formula_sum   'Be4 O8'
_cell_volume   117.54441881
_cell_formula_units_Z   4
loop_
 _symmetry_equiv_pos_site_id
 _symmetry_equiv_pos_as_xyz
  1  'x, y, z'
loop_
 _atom_site_type_symbol
 _atom_site_label
 _atom_site_symmetry_multiplicity
 _atom_site_fract_x
 _atom_site_fract_y
 _atom_site_fract_z
 _atom_site_occupancy
  Be  Be0  1  0.08985999  0.62859862  0.62588289  1.0
  Be  Be1  1  0.58985999  0.87140138  0.37411711  1.0
  Be  Be2  1  0.91014001  0.12859862  0.87411711  1.0
  Be  Be3  1  0.41014001  0.37140138  0.12588289  1.0
  O  O4  1  0.39896206  0.87316812  0.58141314  1.0
  O  O5  1  0.89896206  0.62683188  0.41858686  1.0
  O  O6  1  0.60103794  0.37316812  0.91858686  1.0
  O  O7  1  0.10103794  0.12683188  0.08141314  1.0
  O  O8  1  0.82802660  0.79362907  0.77681705  1.0
  O  O9  1  0.32802660  0.70637093  0.22318295  1.0
  O  O10  1  0.17197340  0.29362907  0.72318295  1.0
  O  O11  1  0.67197340  0.20637093  0.27681705  1.0
