# generated using pymatgen
data_LaP7
_symmetry_space_group_name_H-M   'P 1'
_cell_length_a   7.04846207
_cell_length_b   11.73367921
_cell_length_c   10.34681941
_cell_angle_alpha   90.00000000
_cell_angle_beta   129.68312859
_cell_angle_gamma   90.00000000
_symmetry_Int_Tables_number   1
_chemical_formula_structural   LaP7
_chemical_formula_sum   'La4 P28'
_cell_volume   658.55722076
_cell_formula_units_Z   4
loop_
 _symmetry_equiv_pos_site_id
 _symmetry_equiv_pos_as_xyz
  1  'x, y, z'
loop_
 _atom_site_type_symbol
 _atom_site_label
 _atom_site_symmetry_multiplicity
 _atom_site_fract_x
 _atom_site_fract_y
 _atom_site_fract_z
 _atom_site_occupancy
  La  La0  1  0.88563009  0.15080406  0.28357582  1.0
  La  La1  1  0.88563009  0.34919594  0.78357582  1.0
  La  La2  1  0.11436991  0.65080406  0.21642418  1.0
  La  La3  1  0.11436991  0.84919594  0.71642418  1.0
  P  P4  1  0.68881518  0.46601693  0.09175800  1.0
  P  P5  1  0.68881518  0.03398307  0.59175800  1.0
  P  P6  1  0.31118482  0.96601693  0.40824200  1.0
  P  P7  1  0.31118482  0.53398307  0.90824200  1.0
  P  P8  1  0.83819462  0.48804396  0.49322044  1.0
  P  P9  1  0.83819462  0.01195604  0.99322044  1.0
  P  P10  1  0.16180538  0.98804396  0.00677956  1.0
  P  P11  1  0.16180538  0.51195604  0.50677956  1.0
  P  P12  1  0.73571449  0.90114590  0.32282816  1.0
  P  P13  1  0.73571449  0.59885410  0.82282816  1.0
  P  P14  1  0.26428551  0.40114590  0.17717184  1.0
  P  P15  1  0.26428551  0.09885410  0.67717184  1.0
  P  P16  1  0.70294527  0.66264476  0.45143756  1.0
  P  P17  1  0.70294527  0.83735524  0.95143756  1.0
  P  P18  1  0.29705473  0.16264476  0.04856244  1.0
  P  P19  1  0.29705473  0.33735524  0.54856244  1.0
  P  P20  1  0.68742919  0.18998165  0.47249435  1.0
  P  P21  1  0.68742919  0.31001835  0.97249435  1.0
  P  P22  1  0.31257081  0.68998165  0.02750565  1.0
  P  P23  1  0.31257081  0.81001835  0.52750565  1.0
  P  P24  1  0.63808294  0.38467493  0.26235076  1.0
  P  P25  1  0.63808294  0.11532507  0.76235076  1.0
  P  P26  1  0.36191706  0.88467493  0.23764924  1.0
  P  P27  1  0.36191706  0.61532507  0.73764924  1.0
  P  P28  1  0.28584585  0.21953140  0.24949800  1.0
  P  P29  1  0.28584585  0.28046860  0.74949800  1.0
  P  P30  1  0.71415415  0.71953140  0.25050200  1.0
  P  P31  1  0.71415415  0.78046860  0.75050200  1.0
