# generated using pymatgen
data_LaMoI4O15
_symmetry_space_group_name_H-M   'P 1'
_cell_length_a   6.95588620
_cell_length_b   14.67898220
_cell_length_c   7.34869749
_cell_angle_alpha   90.00000000
_cell_angle_beta   115.08745410
_cell_angle_gamma   90.00000000
_symmetry_Int_Tables_number   1
_chemical_formula_structural   LaMoI4O15
_chemical_formula_sum   'La2 Mo2 I8 O30'
_cell_volume   679.55524164
_cell_formula_units_Z   2
loop_
 _symmetry_equiv_pos_site_id
 _symmetry_equiv_pos_as_xyz
  1  'x, y, z'
loop_
 _atom_site_type_symbol
 _atom_site_label
 _atom_site_symmetry_multiplicity
 _atom_site_fract_x
 _atom_site_fract_y
 _atom_site_fract_z
 _atom_site_occupancy
  I  I0  1  0.97639801  0.01515216  0.73656136  1.0
  I  I1  1  0.02360199  0.51515216  0.26343864  1.0
  I  I2  1  0.72456006  0.50087118  0.63357822  1.0
  I  I3  1  0.27543994  0.00087118  0.36642178  1.0
  I  I4  1  0.66772866  0.23210015  0.46251169  1.0
  I  I5  1  0.33227134  0.73210015  0.53748831  1.0
  I  I6  1  0.26432373  0.35893792  0.79804229  1.0
  I  I7  1  0.73567627  0.85893792  0.20195771  1.0
  La  La8  1  0.59667519  0.10764179  0.93683296  1.0
  La  La9  1  0.40332481  0.60764179  0.06316704  1.0
  O  O10  1  0.97586314  0.51091791  0.59630854  1.0
  O  O11  1  0.02413686  0.01091791  0.40369146  1.0
  O  O12  1  0.95440536  0.25913919  0.49701037  1.0
  O  O13  1  0.04559464  0.75913919  0.50298963  1.0
  O  O14  1  0.90451544  0.39316546  0.22034174  1.0
  O  O15  1  0.09548456  0.89316546  0.77965826  1.0
  O  O16  1  0.92381192  0.01768576  0.96974763  1.0
  O  O17  1  0.07618808  0.51768576  0.03025237  1.0
  O  O18  1  0.91423146  0.20826293  0.12233716  1.0
  O  O19  1  0.08576854  0.70826293  0.87766284  1.0
  O  O20  1  0.75962237  0.82573786  0.84995598  1.0
  O  O21  1  0.24037763  0.32573786  0.15004402  1.0
  O  O22  1  0.76754333  0.16881350  0.70727970  1.0
  O  O23  1  0.23245667  0.66881350  0.29272030  1.0
  O  O24  1  0.68042437  0.69833278  0.55955048  1.0
  O  O25  1  0.31957563  0.19833278  0.44044952  1.0
  O  O26  1  0.60747349  0.13438892  0.28073174  1.0
  O  O27  1  0.39252651  0.63438892  0.71926826  1.0
  O  O28  1  0.45512671  0.26296276  0.89557071  1.0
  O  O29  1  0.54487329  0.76296276  0.10442929  1.0
  O  O30  1  0.49209701  0.00767342  0.62665972  1.0
  O  O31  1  0.50790299  0.50767342  0.37334028  1.0
  O  O32  1  0.43823089  0.45912163  0.91363220  1.0
  O  O33  1  0.56176911  0.95912163  0.08636780  1.0
  O  O34  1  0.27340783  0.37304658  0.53898244  1.0
  O  O35  1  0.72659217  0.87304658  0.46101756  1.0
  O  O36  1  0.22298229  0.08397749  0.83802905  1.0
  O  O37  1  0.77701771  0.58397749  0.16197095  1.0
  O  O38  1  0.73493553  0.37320194  0.68063723  1.0
  O  O39  1  0.26506447  0.87320194  0.31936277  1.0
  Mo  Mo40  1  0.88874183  0.77956867  0.71324619  1.0
  Mo  Mo41  1  0.11125817  0.27956867  0.28675381  1.0
