# generated using pymatgen
data_Rb2Pt(IO3)6
_symmetry_space_group_name_H-M   'P 1'
_cell_length_a   7.76949994
_cell_length_b   7.76949994
_cell_length_c   7.76949994
_cell_angle_alpha   97.00807156
_cell_angle_beta   97.00807156
_cell_angle_gamma   97.00807156
_symmetry_Int_Tables_number   1
_chemical_formula_structural   Rb2Pt(IO3)6
_chemical_formula_sum   'Rb2 Pt1 I6 O18'
_cell_volume   457.54228852
_cell_formula_units_Z   1
loop_
 _symmetry_equiv_pos_site_id
 _symmetry_equiv_pos_as_xyz
  1  'x, y, z'
loop_
 _atom_site_type_symbol
 _atom_site_label
 _atom_site_symmetry_multiplicity
 _atom_site_fract_x
 _atom_site_fract_y
 _atom_site_fract_z
 _atom_site_occupancy
  Rb  Rb0  1  0.82798429  0.82798429  0.82798429  1.0
  Rb  Rb1  1  0.17201571  0.17201571  0.17201571  1.0
  Pt  Pt2  1  0.50000000  0.50000000  0.50000000  1.0
  I  I3  1  1.33327686  0.14044616  -0.29524130  1.0
  I  I4  1  1.14044616  -0.29524130  0.33327686  1.0
  I  I5  1  0.70475870  0.33327686  0.14044616  1.0
  I  I6  1  0.66672314  0.85955384  0.29524130  1.0
  I  I7  1  0.85955384  1.29524130  -0.33327686  1.0
  I  I8  1  1.29524130  0.66672314  -0.14044616  1.0
  O  O9  1  1.08790455  0.09423651  -0.31336484  1.0
  O  O10  1  1.09423651  -0.31336484  0.08790455  1.0
  O  O11  1  0.68663516  0.08790455  0.09423651  1.0
  O  O12  1  0.91209545  0.90576349  0.31336484  1.0
  O  O13  1  0.90576349  1.31336484  -0.08790455  1.0
  O  O14  1  1.31336484  0.91209545  -0.09423651  1.0
  O  O15  1  1.39361738  0.29369921  -0.08390278  1.0
  O  O16  1  1.29369921  -0.08390278  0.39361738  1.0
  O  O17  1  0.91609722  0.39361738  0.29369921  1.0
  O  O18  1  0.60638262  0.70630079  0.08390278  1.0
  O  O19  1  0.70630079  1.08390278  -0.39361738  1.0
  O  O20  1  1.08390278  0.60638262  -0.29369921  1.0
  O  O21  1  1.30643466  0.32471155  -0.44786549  1.0
  O  O22  1  1.32471155  -0.44786549  0.30643466  1.0
  O  O23  1  0.55213451  0.30643466  0.32471155  1.0
  O  O24  1  0.69356534  0.67528845  0.44786549  1.0
  O  O25  1  0.67528845  1.44786549  -0.30643466  1.0
  O  O26  1  1.44786549  0.69356534  -0.32471155  1.0
