# generated using pymatgen
data_VPH5NO6
_symmetry_space_group_name_H-M   'P 1'
_cell_length_a   6.83295771
_cell_length_b   8.88491256
_cell_length_c   9.42851882
_cell_angle_alpha   90.00000000
_cell_angle_beta   90.00000000
_cell_angle_gamma   90.00000000
_symmetry_Int_Tables_number   1
_chemical_formula_structural   VPH5NO6
_chemical_formula_sum   'V4 P4 H20 N4 O24'
_cell_volume   572.40756360
_cell_formula_units_Z   4
loop_
 _symmetry_equiv_pos_site_id
 _symmetry_equiv_pos_as_xyz
  1  'x, y, z'
loop_
 _atom_site_type_symbol
 _atom_site_label
 _atom_site_symmetry_multiplicity
 _atom_site_fract_x
 _atom_site_fract_y
 _atom_site_fract_z
 _atom_site_occupancy
  V  V0  1  0.46086012  0.01782634  0.57087084  1.0
  V  V1  1  0.96086012  0.98217366  0.57087084  1.0
  V  V2  1  0.53913988  0.98217366  0.07087084  1.0
  V  V3  1  0.03913988  0.01782634  0.07087084  1.0
  P  P4  1  0.18178013  0.30187488  0.51229510  1.0
  P  P5  1  0.68178013  0.69812512  0.51229510  1.0
  P  P6  1  0.81821987  0.69812512  0.01229510  1.0
  P  P7  1  0.31821987  0.30187488  0.01229510  1.0
  H  H8  1  0.33895751  0.59631762  0.85871613  1.0
  H  H9  1  0.83895751  0.40368238  0.85871613  1.0
  H  H10  1  0.66104249  0.40368238  0.35871613  1.0
  H  H11  1  0.16104249  0.59631762  0.35871613  1.0
  H  H12  1  0.27486248  0.39205594  0.72315806  1.0
  H  H13  1  0.77486248  0.60794406  0.72315806  1.0
  H  H14  1  0.72513752  0.60794406  0.22315806  1.0
  H  H15  1  0.22513752  0.39205594  0.22315806  1.0
  H  H16  1  0.12655305  0.67745316  0.81579068  1.0
  H  H17  1  0.62655305  0.32254684  0.81579068  1.0
  H  H18  1  0.87344695  0.32254684  0.31579068  1.0
  H  H19  1  0.37344695  0.67745316  0.31579068  1.0
  H  H20  1  0.83646155  0.27860546  0.72375043  1.0
  H  H21  1  0.33646155  0.72139454  0.72375043  1.0
  H  H22  1  0.16353845  0.72139454  0.22375043  1.0
  H  H23  1  0.66353845  0.27860546  0.22375043  1.0
  H  H24  1  0.80214638  0.21624466  0.89104366  1.0
  H  H25  1  0.30214638  0.78375534  0.89104366  1.0
  H  H26  1  0.19785362  0.78375534  0.39104366  1.0
  H  H27  1  0.69785362  0.21624466  0.39104366  1.0
  N  N28  1  0.27674468  0.69540535  0.82142023  1.0
  N  N29  1  0.77674468  0.30459465  0.82142023  1.0
  N  N30  1  0.72325532  0.30459465  0.32142023  1.0
  N  N31  1  0.22325532  0.69540535  0.32142023  1.0
  O  O32  1  0.45475853  0.04624059  0.73778493  1.0
  O  O33  1  0.95475853  0.95375941  0.73778493  1.0
  O  O34  1  0.54524147  0.95375941  0.23778493  1.0
  O  O35  1  0.04524147  0.04624059  0.23778493  1.0
  O  O36  1  0.37241469  0.20679052  0.49391797  1.0
  O  O37  1  0.87241469  0.79320948  0.49391797  1.0
  O  O38  1  0.62758531  0.79320948  -0.00608203  1.0
  O  O39  1  0.12758531  0.20679052  -0.00608203  1.0
  O  O40  1  0.37468585  0.38436375  0.87615831  1.0
  O  O41  1  0.87468585  0.61563625  0.87615831  1.0
  O  O42  1  0.62531415  0.61563625  0.37615831  1.0
  O  O43  1  0.12531415  0.38436375  0.37615831  1.0
  O  O44  1  0.21952689  0.42731133  0.62876649  1.0
  O  O45  1  0.71952689  0.57268867  0.62876649  1.0
  O  O46  1  0.78047311  0.57268867  0.12876649  1.0
  O  O47  1  0.28047311  0.42731133  0.12876649  1.0
  O  O48  1  0.01138032  0.20061908  0.56812915  1.0
  O  O49  1  0.51138032  0.79938092  0.56812915  1.0
  O  O50  1  0.98861968  0.79938092  0.06812915  1.0
  O  O51  1  0.48861968  0.20061908  0.06812915  1.0
  O  O52  1  0.70162320  0.05082494  0.51679801  1.0
  O  O53  1  0.20162320  0.94917506  0.51679801  1.0
  O  O54  1  0.29837680  0.94917506  0.01679801  1.0
  O  O55  1  0.79837680  0.05082494  0.01679801  1.0
