# generated using pymatgen
data_SiH9C3Cl
_symmetry_space_group_name_H-M   'P 1'
_cell_length_a   6.72799479
_cell_length_b   8.14496725
_cell_length_c   7.22127551
_cell_angle_alpha   90.00000000
_cell_angle_beta   89.56516734
_cell_angle_gamma   90.00000000
_symmetry_Int_Tables_number   1
_chemical_formula_structural   SiH9C3Cl
_chemical_formula_sum   'Si2 H18 C6 Cl2'
_cell_volume   395.70942732
_cell_formula_units_Z   2
loop_
 _symmetry_equiv_pos_site_id
 _symmetry_equiv_pos_as_xyz
  1  'x, y, z'
loop_
 _atom_site_type_symbol
 _atom_site_label
 _atom_site_symmetry_multiplicity
 _atom_site_fract_x
 _atom_site_fract_y
 _atom_site_fract_z
 _atom_site_occupancy
  Si  Si0  1  0.68667535  0.75000000  0.31738911  1.0
  Si  Si1  1  0.31332465  0.25000000  0.68261089  1.0
  H  H2  1  0.70320566  0.94384038  0.05061402  1.0
  H  H3  1  0.29679434  0.44384038  0.94938598  1.0
  H  H4  1  0.29679434  0.05615962  0.94938598  1.0
  H  H5  1  0.70320566  0.55615962  0.05061402  1.0
  H  H6  1  0.71343274  0.05110208  0.26547458  1.0
  H  H7  1  0.28656726  0.55110208  0.73452542  1.0
  H  H8  1  0.28656726  0.94889792  0.73452542  1.0
  H  H9  1  0.71343274  0.44889792  0.26547458  1.0
  H  H10  1  0.92683043  0.94531726  0.18053383  1.0
  H  H11  1  0.07316957  0.44531726  0.81946617  1.0
  H  H12  1  0.07316957  0.05468274  0.81946617  1.0
  H  H13  1  0.92683043  0.55468274  0.18053383  1.0
  H  H14  1  0.93532825  0.75000000  0.56740553  1.0
  H  H15  1  0.06467175  0.25000000  0.43259447  1.0
  H  H16  1  0.71853047  0.85975488  0.63697188  1.0
  H  H17  1  0.28146953  0.35975488  0.36302812  1.0
  H  H18  1  0.28146953  0.14024512  0.36302812  1.0
  H  H19  1  0.71853047  0.64024512  0.63697188  1.0
  C  C20  1  0.76369938  0.94065903  0.19141826  1.0
  C  C21  1  0.23630062  0.44065903  0.80858174  1.0
  C  C22  1  0.23630062  0.05934097  0.80858174  1.0
  C  C23  1  0.76369938  0.55934097  0.19141826  1.0
  C  C24  1  0.77184867  0.75000000  0.56343016  1.0
  C  C25  1  0.22815133  0.25000000  0.43656984  1.0
  Cl  Cl26  1  0.37145025  0.75000000  0.32593807  1.0
  Cl  Cl27  1  0.62854975  0.25000000  0.67406193  1.0
