# generated using pymatgen
data_ScGe2
_symmetry_space_group_name_H-M   'P 1'
_cell_length_a   7.69397619
_cell_length_b   7.69397619
_cell_length_c   3.83147295
_cell_angle_alpha   90.00000000
_cell_angle_beta   90.00000000
_cell_angle_gamma   150.54527961
_symmetry_Int_Tables_number   1
_chemical_formula_structural   ScGe2
_chemical_formula_sum   'Sc2 Ge4'
_cell_volume   111.53189378
_cell_formula_units_Z   2
loop_
 _symmetry_equiv_pos_site_id
 _symmetry_equiv_pos_as_xyz
  1  'x, y, z'
loop_
 _atom_site_type_symbol
 _atom_site_label
 _atom_site_symmetry_multiplicity
 _atom_site_fract_x
 _atom_site_fract_y
 _atom_site_fract_z
 _atom_site_occupancy
  Sc  Sc0  1  0.39893976  0.60106024  0.75000000  1.0
  Sc  Sc1  1  -0.39893976  0.39893976  0.25000000  1.0
  Ge  Ge2  1  -0.24920283  0.24920283  0.75000000  1.0
  Ge  Ge3  1  0.24920283  0.75079717  0.25000000  1.0
  Ge  Ge4  1  0.05895559  0.94104441  0.75000000  1.0
  Ge  Ge5  1  -0.05895559  0.05895559  0.25000000  1.0
