# generated using pymatgen
data_Te2PO7
_symmetry_space_group_name_H-M   'P 1'
_cell_length_a   9.30795174
_cell_length_b   7.37142918
_cell_length_c   8.73210077
_cell_angle_alpha   90.00000000
_cell_angle_beta   90.00000000
_cell_angle_gamma   90.00000000
_symmetry_Int_Tables_number   1
_chemical_formula_structural   Te2PO7
_chemical_formula_sum   'Te8 P4 O28'
_cell_volume   599.13481794
_cell_formula_units_Z   4
loop_
 _symmetry_equiv_pos_site_id
 _symmetry_equiv_pos_as_xyz
  1  'x, y, z'
loop_
 _atom_site_type_symbol
 _atom_site_label
 _atom_site_symmetry_multiplicity
 _atom_site_fract_x
 _atom_site_fract_y
 _atom_site_fract_z
 _atom_site_occupancy
  Te  Te0  1  0.30261271  0.13704966  0.57857285  1.0
  Te  Te1  1  0.80261271  0.86295034  0.57857285  1.0
  Te  Te2  1  0.69738729  0.86295034  0.07857285  1.0
  Te  Te3  1  0.19738729  0.13704966  0.07857285  1.0
  Te  Te4  1  0.84866951  0.22525639  0.87602443  1.0
  Te  Te5  1  0.34866951  0.77474361  0.87602443  1.0
  Te  Te6  1  0.15133049  0.77474361  0.37602443  1.0
  Te  Te7  1  0.65133049  0.22525639  0.37602443  1.0
  O  O8  1  0.49379974  0.08571967  0.49227310  1.0
  O  O9  1  0.99379974  0.91428033  0.49227310  1.0
  O  O10  1  0.50620026  0.91428033  -0.00772690  1.0
  O  O11  1  0.00620026  0.08571967  -0.00772690  1.0
  O  O12  1  0.32223549  0.04592531  0.79134725  1.0
  O  O13  1  0.82223549  0.95407469  0.79134725  1.0
  O  O14  1  0.67776451  0.95407469  0.29134725  1.0
  O  O15  1  0.17776451  0.04592531  0.29134725  1.0
  O  O16  1  0.12821936  0.54122571  0.52001613  1.0
  O  O17  1  0.62821936  0.45877429  0.52001613  1.0
  O  O18  1  0.87178064  0.45877429  0.02001613  1.0
  O  O19  1  0.37178064  0.54122571  0.02001613  1.0
  O  O20  1  0.77697325  0.13648894  0.54287571  1.0
  O  O21  1  0.27697325  0.86351106  0.54287571  1.0
  O  O22  1  0.22302675  0.86351106  0.04287571  1.0
  O  O23  1  0.72302675  0.13648894  0.04287571  1.0
  O  O24  1  0.14068205  0.65884601  0.80106890  1.0
  O  O25  1  0.64068205  0.34115399  0.80106890  1.0
  O  O26  1  0.85931795  0.34115399  0.30106890  1.0
  O  O27  1  0.35931795  0.65884601  0.30106890  1.0
  O  O28  1  0.39920504  0.38415876  0.67814673  1.0
  O  O29  1  0.89920504  0.61584124  0.67814673  1.0
  O  O30  1  0.60079496  0.61584124  0.17814673  1.0
  O  O31  1  0.10079496  0.38415876  0.17814673  1.0
  O  O32  1  0.04963241  0.33805377  0.73135332  1.0
  O  O33  1  0.54963241  0.66194623  0.73135332  1.0
  O  O34  1  0.95036759  0.66194623  0.23135332  1.0
  O  O35  1  0.45036759  0.33805377  0.23135332  1.0
  P  P36  1  0.05565715  0.54173225  0.68352157  1.0
  P  P37  1  0.55565715  0.45826775  0.68352157  1.0
  P  P38  1  0.94434285  0.45826775  0.18352157  1.0
  P  P39  1  0.44434285  0.54173225  0.18352157  1.0
