# generated using pymatgen
data_Ba2InSbTe5
_symmetry_space_group_name_H-M   'P 1'
_cell_length_a   14.02315322
_cell_length_b   4.63227727
_cell_length_c   20.73852630
_cell_angle_alpha   90.00000000
_cell_angle_beta   90.00000000
_cell_angle_gamma   90.00000000
_symmetry_Int_Tables_number   1
_chemical_formula_structural   Ba2InSbTe5
_chemical_formula_sum   'Ba8 In4 Sb4 Te20'
_cell_volume   1347.15670594
_cell_formula_units_Z   4
loop_
 _symmetry_equiv_pos_site_id
 _symmetry_equiv_pos_as_xyz
  1  'x, y, z'
loop_
 _atom_site_type_symbol
 _atom_site_label
 _atom_site_symmetry_multiplicity
 _atom_site_fract_x
 _atom_site_fract_y
 _atom_site_fract_z
 _atom_site_occupancy
  Ba  Ba0  1  0.55126238  0.75000000  0.86623268  1.0
  Ba  Ba1  1  0.05126238  0.75000000  0.63376732  1.0
  Ba  Ba2  1  0.44873762  0.25000000  0.13376732  1.0
  Ba  Ba3  1  0.94873762  0.25000000  0.36623268  1.0
  Ba  Ba4  1  0.42640914  0.75000000  0.62557294  1.0
  Ba  Ba5  1  0.92640914  0.75000000  0.87442706  1.0
  Ba  Ba6  1  0.57359086  0.25000000  0.37442706  1.0
  Ba  Ba7  1  0.07359086  0.25000000  0.12557294  1.0
  In  In8  1  0.82112789  0.75000000  0.18066468  1.0
  In  In9  1  0.32112789  0.75000000  0.31933532  1.0
  In  In10  1  0.17887211  0.25000000  0.81933532  1.0
  In  In11  1  0.67887211  0.25000000  0.68066468  1.0
  Sb  Sb12  1  0.76901526  0.75000000  0.53441112  1.0
  Sb  Sb13  1  0.26901526  0.75000000  0.96558888  1.0
  Sb  Sb14  1  0.23098474  0.25000000  0.46558888  1.0
  Sb  Sb15  1  0.73098474  0.25000000  0.03441112  1.0
  Te  Te16  1  0.99762908  0.75000000  0.24421964  1.0
  Te  Te17  1  0.49762908  0.75000000  0.25578036  1.0
  Te  Te18  1  0.00237092  0.25000000  0.75578036  1.0
  Te  Te19  1  0.50237092  0.25000000  0.74421964  1.0
  Te  Te20  1  0.89658508  0.75000000  0.05113746  1.0
  Te  Te21  1  0.39658508  0.75000000  0.44886254  1.0
  Te  Te22  1  0.10341492  0.25000000  0.94886254  1.0
  Te  Te23  1  0.60341492  0.25000000  0.55113746  1.0
  Te  Te24  1  0.79487996  0.75000000  0.70267879  1.0
  Te  Te25  1  0.29487996  0.75000000  0.79732121  1.0
  Te  Te26  1  0.20512004  0.25000000  0.29732121  1.0
  Te  Te27  1  0.70512004  0.25000000  0.20267879  1.0
  Te  Te28  1  0.75928454  0.75000000  0.39494641  1.0
  Te  Te29  1  0.25928454  0.75000000  0.10505359  1.0
  Te  Te30  1  0.24071546  0.25000000  0.60505359  1.0
  Te  Te31  1  0.74071546  0.25000000  0.89494641  1.0
  Te  Te32  1  0.58990539  0.75000000  0.03499398  1.0
  Te  Te33  1  0.08990539  0.75000000  0.46500602  1.0
  Te  Te34  1  0.41009461  0.25000000  0.96500602  1.0
  Te  Te35  1  0.91009461  0.25000000  0.53499398  1.0
