# generated using pymatgen
data_H9C3N6ClO5
_symmetry_space_group_name_H-M   'P 1'
_cell_length_a   5.87778958
_cell_length_b   12.16397091
_cell_length_c   8.38844008
_cell_angle_alpha   101.11464422
_cell_angle_beta   116.84966428
_cell_angle_gamma   88.83993023
_symmetry_Int_Tables_number   1
_chemical_formula_structural   H9C3N6ClO5
_chemical_formula_sum   'H18 C6 N12 Cl2 O10'
_cell_volume   523.52601733
_cell_formula_units_Z   2
loop_
 _symmetry_equiv_pos_site_id
 _symmetry_equiv_pos_as_xyz
  1  'x, y, z'
loop_
 _atom_site_type_symbol
 _atom_site_label
 _atom_site_symmetry_multiplicity
 _atom_site_fract_x
 _atom_site_fract_y
 _atom_site_fract_z
 _atom_site_occupancy
  H  H0  1  0.68991166  0.71029684  0.69045634  1.0
  H  H1  1  0.31008834  0.28970316  0.30954366  1.0
  H  H2  1  -0.35624679  0.07775207  0.53874133  1.0
  H  H3  1  0.35624679  0.92224793  0.46125867  1.0
  H  H4  1  -0.33973433  0.21128864  0.49362964  1.0
  H  H5  1  0.33973433  0.78871136  0.50637036  1.0
  H  H6  1  -0.32830713  0.41984380  0.51002004  1.0
  H  H7  1  0.32830713  0.58015620  0.48997996  1.0
  H  H8  1  0.06050993  0.62840250  0.86663051  1.0
  H  H9  1  -0.06050993  0.37159750  0.13336949  1.0
  H  H10  1  0.41787839  0.07690981  0.92768749  1.0
  H  H11  1  -0.41787839  0.92309019  0.07231251  1.0
  H  H12  1  -0.14628972  0.86940674  0.22872331  1.0
  H  H13  1  0.14628972  0.13059326  0.77127669  1.0
  H  H14  1  0.64103397  0.29860833  1.02772176  1.0
  H  H15  1  -0.64103397  0.70139167  -0.02772176  1.0
  H  H16  1  0.43846274  0.55562136  0.68527240  1.0
  H  H17  1  -0.43846274  0.44437864  0.31472760  1.0
  C  C18  1  -0.30277448  0.87141309  0.64124508  1.0
  C  C19  1  0.30277448  0.12858691  0.35875492  1.0
  C  C20  1  0.06350048  0.79202730  0.83644576  1.0
  C  C21  1  -0.06350048  0.20797270  0.16355424  1.0
  C  C22  1  0.08742511  0.97065815  0.79411505  1.0
  C  C23  1  -0.08742511  0.02934185  0.20588495  1.0
  N  N24  1  -0.44832042  0.14074768  0.47196700  1.0
  N  N25  1  0.44832042  0.85925232  0.52803300  1.0
  N  N26  1  -0.19392920  0.78373534  0.72323516  1.0
  N  N27  1  0.19392920  0.21626466  0.27676484  1.0
  N  N28  1  -0.16436900  0.96596012  0.67368990  1.0
  N  N29  1  0.16436900  0.03403988  0.32631010  1.0
  N  N30  1  0.16490224  0.70323226  0.90680470  1.0
  N  N31  1  -0.16490224  0.29676774  0.09319530  1.0
  N  N32  1  0.20824297  0.88619844  0.87729278  1.0
  N  N33  1  -0.20824297  0.11380156  0.12270722  1.0
  N  N34  1  -0.22769401  0.93378599  0.16580368  1.0
  N  N35  1  0.22769401  0.06621401  0.83419632  1.0
  Cl  Cl36  1  0.17237223  0.36946322  0.76849672  1.0
  Cl  Cl37  1  -0.17237223  0.63053678  0.23150328  1.0
  O  O38  1  -0.44976241  0.38939841  0.38248848  1.0
  O  O39  1  0.44976241  0.61060159  0.61751152  1.0
  O  O40  1  -0.02360182  0.45044904  0.74933378  1.0
  O  O41  1  0.02360182  0.54955096  0.25066622  1.0
  O  O42  1  0.29098874  0.34867939  0.95492383  1.0
  O  O43  1  -0.29098874  0.65132061  0.04507617  1.0
  O  O44  1  -0.36833225  0.58712662  0.27027509  1.0
  O  O45  1  0.36833225  0.41287338  0.72972491  1.0
  O  O46  1  -0.04992434  0.73727698  0.36135244  1.0
  O  O47  1  0.04992434  0.26272302  0.63864756  1.0
