# generated using pymatgen
data_Gd3CuSnSe7
_symmetry_space_group_name_H-M   'P 1'
_cell_length_a   10.35842445
_cell_length_b   10.35842445
_cell_length_c   6.48827940
_cell_angle_alpha   90.00000000
_cell_angle_beta   90.00000000
_cell_angle_gamma   120.00000000
_symmetry_Int_Tables_number   1
_chemical_formula_structural   Gd3CuSnSe7
_chemical_formula_sum   'Gd6 Cu2 Sn2 Se14'
_cell_volume   602.90318792
_cell_formula_units_Z   2
loop_
 _symmetry_equiv_pos_site_id
 _symmetry_equiv_pos_as_xyz
  1  'x, y, z'
loop_
 _atom_site_type_symbol
 _atom_site_label
 _atom_site_symmetry_multiplicity
 _atom_site_fract_x
 _atom_site_fract_y
 _atom_site_fract_z
 _atom_site_occupancy
  Gd  Gd0  1  0.21038315  0.85308775  0.08632892  1.0
  Gd  Gd1  1  0.85308775  0.64270460  0.58632892  1.0
  Gd  Gd2  1  0.64270460  0.78961685  0.08632892  1.0
  Gd  Gd3  1  0.14691225  0.35729540  0.08632892  1.0
  Gd  Gd4  1  0.78961685  0.14691225  0.58632892  1.0
  Gd  Gd5  1  0.35729540  0.21038315  0.58632892  1.0
  Cu  Cu6  1  0.00000000  0.00000000  -0.00436557  1.0
  Cu  Cu7  1  0.00000000  0.00000000  0.49563443  1.0
  Sn  Sn8  1  0.33333333  0.66666667  0.65933085  1.0
  Sn  Sn9  1  0.66666667  0.33333333  0.15933085  1.0
  Se  Se10  1  0.88808780  0.73812911  0.02070780  1.0
  Se  Se11  1  0.73812911  0.85004131  0.52070780  1.0
  Se  Se12  1  0.85004131  0.11191220  0.02070780  1.0
  Se  Se13  1  0.26187089  0.14995869  0.02070780  1.0
  Se  Se14  1  0.11191220  0.26187089  0.52070780  1.0
  Se  Se15  1  0.14995869  0.88808780  0.52070780  1.0
  Se  Se16  1  0.56319230  0.48354156  0.33874377  1.0
  Se  Se17  1  0.48354156  0.92034926  0.83874377  1.0
  Se  Se18  1  0.92034926  0.43680770  0.33874377  1.0
  Se  Se19  1  0.51645844  0.07965074  0.33874377  1.0
  Se  Se20  1  0.43680770  0.51645844  0.83874377  1.0
  Se  Se21  1  0.07965074  0.56319230  0.83874377  1.0
  Se  Se22  1  0.33333333  0.66666667  0.26639327  1.0
  Se  Se23  1  0.66666667  0.33333333  0.76639327  1.0
