# generated using pymatgen
data_FePO6
_symmetry_space_group_name_H-M   'P 1'
_cell_length_a   4.95192417
_cell_length_b   9.72074222
_cell_length_c   9.52412814
_cell_angle_alpha   90.00000000
_cell_angle_beta   118.07510641
_cell_angle_gamma   90.00000000
_symmetry_Int_Tables_number   1
_chemical_formula_structural   FePO6
_chemical_formula_sum   'Fe4 P4 O24'
_cell_volume   404.51104985
_cell_formula_units_Z   4
loop_
 _symmetry_equiv_pos_site_id
 _symmetry_equiv_pos_as_xyz
  1  'x, y, z'
loop_
 _atom_site_type_symbol
 _atom_site_label
 _atom_site_symmetry_multiplicity
 _atom_site_fract_x
 _atom_site_fract_y
 _atom_site_fract_z
 _atom_site_occupancy
  P  P0  1  0.77863145  0.15109615  0.34940809  1.0
  P  P1  1  0.77863145  0.34890385  0.84940809  1.0
  P  P2  1  0.22136855  0.65109615  0.15059191  1.0
  P  P3  1  0.22136855  0.84890385  0.65059191  1.0
  O  O4  1  0.71499287  0.99321301  0.34174108  1.0
  O  O5  1  0.71499287  0.50678699  0.84174108  1.0
  O  O6  1  0.28500713  0.49321301  0.15825892  1.0
  O  O7  1  0.28500713  0.00678699  0.65825892  1.0
  O  O8  1  0.40150996  0.37983971  0.43497165  1.0
  O  O9  1  0.40150996  0.12016029  0.93497165  1.0
  O  O10  1  0.59849004  0.87983971  0.06502835  1.0
  O  O11  1  0.59849004  0.62016029  0.56502835  1.0
  O  O12  1  0.90651382  0.43038577  0.27272766  1.0
  O  O13  1  0.90651382  0.06961423  0.77272766  1.0
  O  O14  1  0.09348618  0.93038577  0.22727234  1.0
  O  O15  1  0.09348618  0.56961423  0.72727234  1.0
  O  O16  1  1.02595088  0.17209805  0.29293100  1.0
  O  O17  1  1.02595088  0.32790195  0.79293100  1.0
  O  O18  1  -0.02595088  0.67209805  0.20706900  1.0
  O  O19  1  -0.02595088  0.82790195  0.70706900  1.0
  O  O20  1  0.48217915  0.22849973  0.23255819  1.0
  O  O21  1  0.48217915  0.27150027  0.73255819  1.0
  O  O22  1  0.51782085  0.72849973  0.26744181  1.0
  O  O23  1  0.51782085  0.77150027  0.76744181  1.0
  O  O24  1  0.88246060  0.20570011  0.51910683  1.0
  O  O25  1  0.88246060  0.29429989  1.01910683  1.0
  O  O26  1  0.11753940  0.70570011  -0.01910683  1.0
  O  O27  1  0.11753940  0.79429989  0.48089317  1.0
  Fe  Fe28  1  0.83647885  0.83937133  0.25599040  1.0
  Fe  Fe29  1  0.83647885  0.66062867  0.75599040  1.0
  Fe  Fe30  1  0.16352115  0.33937133  0.24400960  1.0
  Fe  Fe31  1  0.16352115  0.16062867  0.74400960  1.0
