# generated using pymatgen
data_GdGa2Ni3
_symmetry_space_group_name_H-M   'P 1'
_cell_length_a   9.08558821
_cell_length_b   9.08558821
_cell_length_c   3.86604912
_cell_angle_alpha   90.00000000
_cell_angle_beta   90.00000000
_cell_angle_gamma   120.00000000
_symmetry_Int_Tables_number   1
_chemical_formula_structural   GdGa2Ni3
_chemical_formula_sum   'Gd3 Ga6 Ni9'
_cell_volume   276.37839938
_cell_formula_units_Z   3
loop_
 _symmetry_equiv_pos_site_id
 _symmetry_equiv_pos_as_xyz
  1  'x, y, z'
loop_
 _atom_site_type_symbol
 _atom_site_label
 _atom_site_symmetry_multiplicity
 _atom_site_fract_x
 _atom_site_fract_y
 _atom_site_fract_z
 _atom_site_occupancy
  Gd  Gd0  1  0.33333333  0.66666667  0.50000000  1.0
  Gd  Gd1  1  0.66666667  0.33333333  0.50000000  1.0
  Gd  Gd2  1  0.00000000  0.00000000  0.00000000  1.0
  Ga  Ga3  1  0.19154479  0.80845521  0.00000000  1.0
  Ga  Ga4  1  0.19154479  0.38308958  0.00000000  1.0
  Ga  Ga5  1  0.80845521  0.19154479  0.00000000  1.0
  Ga  Ga6  1  0.80845521  0.61691042  0.00000000  1.0
  Ga  Ga7  1  0.61691042  0.80845521  0.00000000  1.0
  Ga  Ga8  1  0.38308958  0.19154479  0.00000000  1.0
  Ni  Ni9  1  0.71106506  0.71106506  0.50000000  1.0
  Ni  Ni10  1  0.71106506  0.00000000  0.50000000  1.0
  Ni  Ni11  1  -0.00000000  0.71106506  0.50000000  1.0
  Ni  Ni12  1  -0.00000000  0.28893494  0.50000000  1.0
  Ni  Ni13  1  0.28893494  0.28893494  0.50000000  1.0
  Ni  Ni14  1  0.28893494  0.00000000  0.50000000  1.0
  Ni  Ni15  1  0.50000000  0.50000000  0.00000000  1.0
  Ni  Ni16  1  0.50000000  0.00000000  0.00000000  1.0
  Ni  Ni17  1  -0.00000000  0.50000000  0.00000000  1.0
