# generated using pymatgen
data_K2Ta4O11
_symmetry_space_group_name_H-M   'P 1'
_cell_length_a   12.94705856
_cell_length_b   12.94705856
_cell_length_c   12.94705856
_cell_angle_alpha   28.32343604
_cell_angle_beta   28.32343604
_cell_angle_gamma   28.32343604
_symmetry_Int_Tables_number   1
_chemical_formula_structural   K2Ta4O11
_chemical_formula_sum   'K4 Ta8 O22'
_cell_volume   431.68501934
_cell_formula_units_Z   2
loop_
 _symmetry_equiv_pos_site_id
 _symmetry_equiv_pos_as_xyz
  1  'x, y, z'
loop_
 _atom_site_type_symbol
 _atom_site_label
 _atom_site_symmetry_multiplicity
 _atom_site_fract_x
 _atom_site_fract_y
 _atom_site_fract_z
 _atom_site_occupancy
  K  K0  1  0.32642806  0.32642806  0.32642806  1.0
  K  K1  1  0.82642806  -0.17357194  -0.17357194  1.0
  K  K2  1  0.67357194  -0.32642806  -0.32642806  1.0
  K  K3  1  0.17357194  0.17357194  0.17357194  1.0
  Ta  Ta4  1  0.00000000  0.00000000  0.00000000  1.0
  Ta  Ta5  1  0.50000000  0.50000000  -0.50000000  1.0
  Ta  Ta6  1  0.11444483  0.75000000  -0.61444483  1.0
  Ta  Ta7  1  0.75000000  0.38555517  -0.88555517  1.0
  Ta  Ta8  1  0.38555517  0.11444483  -0.25000000  1.0
  Ta  Ta9  1  0.61444483  -0.11444483  0.25000000  1.0
  Ta  Ta10  1  0.88555517  0.25000000  -0.38555517  1.0
  Ta  Ta11  1  0.25000000  0.61444483  -0.11444483  1.0
  O  O12  1  0.06917288  0.76094290  -0.73506440  1.0
  O  O13  1  0.76094290  0.26493560  -0.93082712  1.0
  O  O14  1  0.26493560  0.06917288  -0.23905710  1.0
  O  O15  1  0.56917288  0.76493560  -0.73905710  1.0
  O  O16  1  0.76493560  0.26094290  -0.43082712  1.0
  O  O17  1  0.26094290  0.56917288  -0.23506440  1.0
  O  O18  1  0.93082712  0.23905710  -0.26493560  1.0
  O  O19  1  1.23905710  -0.26493560  -0.06917288  1.0
  O  O20  1  0.73506440  -0.06917288  0.23905710  1.0
  O  O21  1  0.43082712  0.23506440  -0.26094290  1.0
  O  O22  1  0.23506440  0.73905710  -0.56917288  1.0
  O  O23  1  0.73905710  0.43082712  -0.76493560  1.0
  O  O24  1  0.40647758  0.40647758  -0.59352242  1.0
  O  O25  1  0.90647758  -0.09352242  -0.09352242  1.0
  O  O26  1  0.59352242  0.59352242  -0.40647758  1.0
  O  O27  1  0.09352242  0.09352242  0.09352242  1.0
  O  O28  1  0.99411344  -0.49411344  -0.25000000  1.0
  O  O29  1  0.50588656  -0.25000000  -0.00588656  1.0
  O  O30  1  0.75000000  -0.00588656  -0.49411344  1.0
  O  O31  1  0.49411344  0.25000000  0.00588656  1.0
  O  O32  1  0.25000000  1.00588656  -0.50588656  1.0
  O  O33  1  1.00588656  -0.50588656  0.25000000  1.0
