# generated using pymatgen
data_CdI2
_symmetry_space_group_name_H-M   'P 1'
_cell_length_a   4.32810629
_cell_length_b   4.32810629
_cell_length_c   83.46271212
_cell_angle_alpha   90.00000000
_cell_angle_beta   90.00000000
_cell_angle_gamma   120.00000000
_symmetry_Int_Tables_number   1
_chemical_formula_structural   CdI2
_chemical_formula_sum   'Cd11 I22'
_cell_volume   1354.00092029
_cell_formula_units_Z   11
loop_
 _symmetry_equiv_pos_site_id
 _symmetry_equiv_pos_as_xyz
  1  'x, y, z'
loop_
 _atom_site_type_symbol
 _atom_site_label
 _atom_site_symmetry_multiplicity
 _atom_site_fract_x
 _atom_site_fract_y
 _atom_site_fract_z
 _atom_site_occupancy
  Cd  Cd0  1  0.00000000  0.00000000  0.02273296  1.0
  Cd  Cd1  1  0.00000000  0.00000000  0.20456162  1.0
  Cd  Cd2  1  0.00000000  0.00000000  0.38636445  1.0
  Cd  Cd3  1  0.00000000  0.00000000  0.56817519  1.0
  Cd  Cd4  1  0.00000000  0.00000000  0.75001302  1.0
  Cd  Cd5  1  0.00000000  0.00000000  0.84089144  1.0
  Cd  Cd6  1  0.66666667  0.33333333  0.11364134  1.0
  Cd  Cd7  1  0.66666667  0.33333333  0.29546728  1.0
  Cd  Cd8  1  0.66666667  0.33333333  0.47726711  1.0
  Cd  Cd9  1  0.66666667  0.33333333  0.65909633  1.0
  Cd  Cd10  1  0.33333333  0.66666667  0.93182399  1.0
  I  I11  1  0.00000000  0.00000000  0.13423668  1.0
  I  I12  1  0.00000000  0.00000000  0.31606617  1.0
  I  I13  1  0.00000000  0.00000000  0.49786589  1.0
  I  I14  1  0.00000000  0.00000000  0.67968752  1.0
  I  I15  1  0.00000000  0.00000000  0.91122509  1.0
  I  I16  1  0.66666667  0.33333333  0.04333050  1.0
  I  I17  1  0.66666667  0.33333333  0.22516139  1.0
  I  I18  1  0.66666667  0.33333333  0.40696201  1.0
  I  I19  1  0.66666667  0.33333333  0.58877429  1.0
  I  I20  1  0.66666667  0.33333333  0.77060267  1.0
  I  I21  1  0.66666667  0.33333333  0.86148309  1.0
  I  I22  1  0.66666667  0.33333333  0.95242124  1.0
  I  I23  1  0.33333333  0.66666667  0.00213125  1.0
  I  I24  1  0.33333333  0.66666667  0.09304075  1.0
  I  I25  1  0.33333333  0.66666667  0.18396540  1.0
  I  I26  1  0.33333333  0.66666667  0.27486997  1.0
  I  I27  1  0.33333333  0.66666667  0.36576604  1.0
  I  I28  1  0.33333333  0.66666667  0.45666986  1.0
  I  I29  1  0.33333333  0.66666667  0.54757872  1.0
  I  I30  1  0.33333333  0.66666667  0.63850520  1.0
  I  I31  1  0.33333333  0.66666667  0.72942053  1.0
  I  I32  1  0.33333333  0.66666667  0.82030103  1.0
