# generated using pymatgen
data_Lu3SbO7
_symmetry_space_group_name_H-M   'P 1'
_cell_length_a   6.40194778
_cell_length_b   6.40194778
_cell_length_c   7.43022642
_cell_angle_alpha   90.00000000
_cell_angle_beta   90.00000000
_cell_angle_gamma   109.24582385
_symmetry_Int_Tables_number   1
_chemical_formula_structural   Lu3SbO7
_chemical_formula_sum   'Lu6 Sb2 O14'
_cell_volume   287.50824411
_cell_formula_units_Z   2
loop_
 _symmetry_equiv_pos_site_id
 _symmetry_equiv_pos_as_xyz
  1  'x, y, z'
loop_
 _atom_site_type_symbol
 _atom_site_label
 _atom_site_symmetry_multiplicity
 _atom_site_fract_x
 _atom_site_fract_y
 _atom_site_fract_z
 _atom_site_occupancy
  Lu  Lu0  1  0.48765761  0.48765761  0.00000000  1.0
  Lu  Lu1  1  0.51234239  0.51234239  0.50000000  1.0
  Lu  Lu2  1  0.00073231  1.53165779  0.24769757  1.0
  Lu  Lu3  1  0.53165779  1.00073231  0.75230243  1.0
  Lu  Lu4  1  -0.53165779  0.99926769  0.25230243  1.0
  Lu  Lu5  1  -0.00073231  0.46834221  0.74769757  1.0
  Sb  Sb6  1  -0.00025589  -0.00025589  0.00000000  1.0
  Sb  Sb7  1  0.00025589  0.00025589  0.50000000  1.0
  O  O8  1  0.07852710  0.32742728  0.02923250  1.0
  O  O9  1  -0.67257272  1.07852710  0.97076750  1.0
  O  O10  1  0.67257272  0.92147290  0.47076750  1.0
  O  O11  1  -0.07852710  1.67257272  0.52923250  1.0
  O  O12  1  0.06789596  0.32294104  0.46679674  1.0
  O  O13  1  -0.67705896  1.06789596  0.53320326  1.0
  O  O14  1  0.67705896  0.93210404  0.03320326  1.0
  O  O15  1  -0.06789596  1.67705896  0.96679674  1.0
  O  O16  1  0.07438866  0.92561134  0.25000000  1.0
  O  O17  1  -0.07438866  1.07438866  0.75000000  1.0
  O  O18  1  0.36181145  0.63818855  0.25000000  1.0
  O  O19  1  -0.36181145  1.36181145  0.75000000  1.0
  O  O20  1  -0.36927396  1.36927396  0.25000000  1.0
  O  O21  1  0.36927396  0.63072604  0.75000000  1.0
