# generated using pymatgen
data_LuB2C
_symmetry_space_group_name_H-M   'P 1'
_cell_length_a   6.73261325
_cell_length_b   6.73261325
_cell_length_c   7.18875307
_cell_angle_alpha   90.00000000
_cell_angle_beta   90.00000000
_cell_angle_gamma   90.00000000
_symmetry_Int_Tables_number   1
_chemical_formula_structural   LuB2C
_chemical_formula_sum   'Lu8 B16 C8'
_cell_volume   325.85238218
_cell_formula_units_Z   8
loop_
 _symmetry_equiv_pos_site_id
 _symmetry_equiv_pos_as_xyz
  1  'x, y, z'
loop_
 _atom_site_type_symbol
 _atom_site_label
 _atom_site_symmetry_multiplicity
 _atom_site_fract_x
 _atom_site_fract_y
 _atom_site_fract_z
 _atom_site_occupancy
  Lu  Lu0  1  0.30887408  0.19112592  0.75000000  1.0
  Lu  Lu1  1  0.30887408  0.19112592  0.25000000  1.0
  Lu  Lu2  1  0.80887408  0.30887408  0.75000000  1.0
  Lu  Lu3  1  0.80887408  0.30887408  0.25000000  1.0
  Lu  Lu4  1  0.69112592  0.80887408  0.75000000  1.0
  Lu  Lu5  1  0.69112592  0.80887408  0.25000000  1.0
  Lu  Lu6  1  0.19112592  0.69112592  0.75000000  1.0
  Lu  Lu7  1  0.19112592  0.69112592  0.25000000  1.0
  B  B8  1  0.46599878  0.65305216  0.00000000  1.0
  B  B9  1  0.96599878  0.84694784  0.00000000  1.0
  B  B10  1  0.34694784  0.46599878  0.50000000  1.0
  B  B11  1  0.84694784  0.03400122  0.50000000  1.0
  B  B12  1  0.53400122  0.34694784  0.00000000  1.0
  B  B13  1  0.03400122  0.15305216  0.00000000  1.0
  B  B14  1  0.65305216  0.53400122  0.50000000  1.0
  B  B15  1  0.15305216  0.96599878  0.50000000  1.0
  B  B16  1  0.40684179  0.90333674  0.00000000  1.0
  B  B17  1  0.90684179  0.59666326  0.00000000  1.0
  B  B18  1  0.09666326  0.40684179  0.50000000  1.0
  B  B19  1  0.59666326  0.09315821  0.50000000  1.0
  B  B20  1  0.59315821  0.09666326  0.00000000  1.0
  B  B21  1  0.09315821  0.40333674  0.00000000  1.0
  B  B22  1  0.90333674  0.59315821  0.50000000  1.0
  B  B23  1  0.40333674  0.90684179  0.50000000  1.0
  C  C24  1  0.17780335  0.95985542  0.00000000  1.0
  C  C25  1  0.67780335  0.54014458  0.00000000  1.0
  C  C26  1  0.04014458  0.17780335  0.50000000  1.0
  C  C27  1  0.54014458  0.32219665  0.50000000  1.0
  C  C28  1  0.82219665  0.04014458  0.00000000  1.0
  C  C29  1  0.32219665  0.45985542  0.00000000  1.0
  C  C30  1  0.95985542  0.82219665  0.50000000  1.0
  C  C31  1  0.45985542  0.67780335  0.50000000  1.0
