# generated using pymatgen
data_Bi12PbO20
_symmetry_space_group_name_H-M   'P 1'
_cell_length_a   9.04794360
_cell_length_b   9.04794360
_cell_length_c   9.04794360
_cell_angle_alpha   109.47122063
_cell_angle_beta   109.47122063
_cell_angle_gamma   109.47122063
_symmetry_Int_Tables_number   1
_chemical_formula_structural   Bi12PbO20
_chemical_formula_sum   'Bi12 Pb1 O20'
_cell_volume   570.20072219
_cell_formula_units_Z   1
loop_
 _symmetry_equiv_pos_site_id
 _symmetry_equiv_pos_as_xyz
  1  'x, y, z'
loop_
 _atom_site_type_symbol
 _atom_site_label
 _atom_site_symmetry_multiplicity
 _atom_site_fract_x
 _atom_site_fract_y
 _atom_site_fract_z
 _atom_site_occupancy
  Bi  Bi0  1  0.49833553  0.33678963  0.19461734  1.0
  Bi  Bi1  1  1.14217230  1.30371819  0.80538266  1.0
  Bi  Bi2  1  0.19461734  0.49833553  0.33678963  1.0
  Bi  Bi3  1  1.16154590  0.85782770  1.66321037  1.0
  Bi  Bi4  1  0.33678963  0.19461734  0.49833553  1.0
  Bi  Bi5  1  0.69628181  0.83845410  0.50166447  1.0
  Bi  Bi6  1  0.85782770  1.66321037  1.16154590  1.0
  Bi  Bi7  1  0.50166447  0.69628181  0.83845410  1.0
  Bi  Bi8  1  0.83845410  0.50166447  0.69628181  1.0
  Bi  Bi9  1  0.80538266  1.14217230  1.30371819  1.0
  Bi  Bi10  1  1.30371819  0.80538266  1.14217230  1.0
  Bi  Bi11  1  1.66321037  1.16154590  0.85782770  1.0
  Pb  Pb12  1  0.00000000  0.00000000  0.00000000  1.0
  O  O13  1  0.73199555  0.62417846  0.37207297  1.0
  O  O14  1  1.25210549  1.35992257  0.62792703  1.0
  O  O15  1  0.37207297  0.73199555  0.62417846  1.0
  O  O16  1  1.10781708  0.74789451  1.37582154  1.0
  O  O17  1  0.62417846  0.37207297  0.73199555  1.0
  O  O18  1  0.64007743  0.89218292  0.26800445  1.0
  O  O19  1  0.74789451  1.37582154  1.10781708  1.0
  O  O20  1  0.26800445  0.64007743  0.89218292  1.0
  O  O21  1  0.89218292  0.26800445  0.64007743  1.0
  O  O22  1  0.62792703  1.25210549  1.35992257  1.0
  O  O23  1  1.35992257  0.62792703  1.25210549  1.0
  O  O24  1  1.37582154  1.10781708  0.74789451  1.0
  O  O25  1  0.76671095  0.76671095  0.76671095  1.0
  O  O26  1  1.00000000  1.00000000  0.23328905  1.0
  O  O27  1  1.00000000  0.23328905  1.00000000  1.0
  O  O28  1  0.23328905  1.00000000  1.00000000  1.0
  O  O29  1  0.37602898  0.37602898  0.37602898  1.0
  O  O30  1  1.00000000  1.00000000  0.62397102  1.0
  O  O31  1  1.00000000  0.62397102  1.00000000  1.0
  O  O32  1  0.62397102  1.00000000  1.00000000  1.0
