# generated using pymatgen
data_Pb(C2N3)2
_symmetry_space_group_name_H-M   'P 1'
_cell_length_a   13.77327932
_cell_length_b   3.98931442
_cell_length_c   12.78949983
_cell_angle_alpha   90.00000000
_cell_angle_beta   90.00000000
_cell_angle_gamma   90.00000000
_symmetry_Int_Tables_number   1
_chemical_formula_structural   Pb(C2N3)2
_chemical_formula_sum   'Pb4 C16 N24'
_cell_volume   702.73111323
_cell_formula_units_Z   4
loop_
 _symmetry_equiv_pos_site_id
 _symmetry_equiv_pos_as_xyz
  1  'x, y, z'
loop_
 _atom_site_type_symbol
 _atom_site_label
 _atom_site_symmetry_multiplicity
 _atom_site_fract_x
 _atom_site_fract_y
 _atom_site_fract_z
 _atom_site_occupancy
  Pb  Pb0  1  0.27699764  0.75000000  0.88146407  1.0
  Pb  Pb1  1  0.77699764  0.75000000  0.61853593  1.0
  Pb  Pb2  1  0.72300236  0.25000000  0.11853593  1.0
  Pb  Pb3  1  0.22300236  0.25000000  0.38146407  1.0
  C  C4  1  0.50166489  0.75000000  0.62802245  1.0
  C  C5  1  0.00166489  0.75000000  0.87197755  1.0
  C  C6  1  0.49833511  0.25000000  0.37197755  1.0
  C  C7  1  0.99833511  0.25000000  0.12802245  1.0
  C  C8  1  0.48910672  0.75000000  0.11923139  1.0
  C  C9  1  0.98910672  0.75000000  0.38076861  1.0
  C  C10  1  0.51089328  0.25000000  0.88076861  1.0
  C  C11  1  0.01089328  0.25000000  0.61923139  1.0
  C  C12  1  0.34405443  0.75000000  0.56613676  1.0
  C  C13  1  0.84405443  0.75000000  0.93386324  1.0
  C  C14  1  0.65594557  0.25000000  0.43386324  1.0
  C  C15  1  0.15594557  0.25000000  0.06613676  1.0
  C  C16  1  0.33386094  0.75000000  0.18756276  1.0
  C  C17  1  0.83386094  0.75000000  0.31243724  1.0
  C  C18  1  0.66613906  0.25000000  0.81243724  1.0
  C  C19  1  0.16613906  0.25000000  0.68756276  1.0
  N  N20  1  0.40798923  0.75000000  0.63851997  1.0
  N  N21  1  0.90798923  0.75000000  0.86148003  1.0
  N  N22  1  0.59201077  0.25000000  0.36148003  1.0
  N  N23  1  0.09201077  0.25000000  0.13851997  1.0
  N  N24  1  0.39534992  0.75000000  0.11232410  1.0
  N  N25  1  0.89534992  0.75000000  0.38767590  1.0
  N  N26  1  0.60465008  0.25000000  0.88767590  1.0
  N  N27  1  0.10465008  0.25000000  0.61232410  1.0
  N  N28  1  0.27798547  0.75000000  0.50641374  1.0
  N  N29  1  0.77798547  0.75000000  0.99358626  1.0
  N  N30  1  0.72201453  0.25000000  0.49358626  1.0
  N  N31  1  0.22201453  0.25000000  0.00641374  1.0
  N  N32  1  0.26987970  0.75000000  0.24962309  1.0
  N  N33  1  0.76987970  0.75000000  0.25037691  1.0
  N  N34  1  0.73012030  0.25000000  0.75037691  1.0
  N  N35  1  0.23012030  0.25000000  0.74962309  1.0
  N  N36  1  0.08701738  0.75000000  0.87146984  1.0
  N  N37  1  0.58701738  0.75000000  0.62853016  1.0
  N  N38  1  0.91298262  0.25000000  0.12853016  1.0
  N  N39  1  0.41298262  0.25000000  0.37146984  1.0
  N  N40  1  0.07473610  0.75000000  0.38452828  1.0
  N  N41  1  0.57473610  0.75000000  0.11547172  1.0
  N  N42  1  0.92526390  0.25000000  0.61547172  1.0
  N  N43  1  0.42526390  0.25000000  0.88452828  1.0
