# generated using pymatgen
data_KSi
_symmetry_space_group_name_H-M   'P 1'
_cell_length_a   11.46419931
_cell_length_b   11.46419931
_cell_length_c   11.46419931
_cell_angle_alpha   124.65984738
_cell_angle_beta   124.65984738
_cell_angle_gamma   82.10220320
_symmetry_Int_Tables_number   1
_chemical_formula_structural   KSi
_chemical_formula_sum   'K16 Si16'
_cell_volume   980.12221536
_cell_formula_units_Z   16
loop_
 _symmetry_equiv_pos_site_id
 _symmetry_equiv_pos_as_xyz
  1  'x, y, z'
loop_
 _atom_site_type_symbol
 _atom_site_label
 _atom_site_symmetry_multiplicity
 _atom_site_fract_x
 _atom_site_fract_y
 _atom_site_fract_z
 _atom_site_occupancy
  K  K0  1  0.76675151  1.37500000  0.89175151  1.0
  K  K1  1  1.26675151  1.37500000  1.39175151  1.0
  K  K2  1  1.62500000  1.51675151  1.39175151  1.0
  K  K3  1  1.12500000  1.73324849  1.10824849  1.0
  K  K4  1  0.98324849  0.87500000  0.60824849  1.0
  K  K5  1  1.48324849  0.87500000  1.10824849  1.0
  K  K6  1  1.62500000  1.01675151  0.89175151  1.0
  K  K7  1  1.12500000  1.23324849  0.60824849  1.0
  K  K8  1  0.87259900  0.87259900  0.24519799  1.0
  K  K9  1  1.37259900  1.12740100  1.00000000  1.0
  K  K10  1  0.12259900  0.62259900  0.74519799  1.0
  K  K11  1  0.62259900  0.87740100  1.50000000  1.0
  K  K12  1  0.87740100  0.37740100  1.25480201  1.0
  K  K13  1  0.37740100  0.12259900  0.50000000  1.0
  K  K14  1  1.62740100  1.62740100  1.75480201  1.0
  K  K15  1  1.12740100  1.37259900  1.00000000  1.0
  Si  Si16  1  1.51149155  1.35327105  0.96459554  1.0
  Si  Si17  1  1.01149155  1.04689601  0.15822050  1.0
  Si  Si18  1  1.60327105  1.26149155  1.46459554  1.0
  Si  Si19  1  1.10327105  1.63867551  1.34177950  1.0
  Si  Si20  1  1.23850845  0.89672895  0.53540446  1.0
  Si  Si21  1  1.73850845  1.20310399  1.34177950  1.0
  Si  Si22  1  0.14672895  0.98850845  1.03540446  1.0
  Si  Si23  1  0.64672895  0.61132449  1.15822050  1.0
  Si  Si24  1  1.88867551  1.85327105  1.84177950  1.0
  Si  Si25  1  1.38867551  1.54689601  1.03540446  1.0
  Si  Si26  1  1.29689601  0.76149155  0.65822050  1.0
  Si  Si27  1  0.79689601  1.13867551  0.53540446  1.0
  Si  Si28  1  0.86132449  1.39672895  0.65822050  1.0
  Si  Si29  1  1.36132449  1.70310399  1.46459554  1.0
  Si  Si30  1  0.45310399  0.48850845  0.84177950  1.0
  Si  Si31  1  0.95310399  0.11132449  0.96459554  1.0
