# generated using pymatgen
data_Rb2NaYCl6
_symmetry_space_group_name_H-M   'P 1'
_cell_length_a   10.79346809
_cell_length_b   10.79346809
_cell_length_c   10.79189677
_cell_angle_alpha   90.00000000
_cell_angle_beta   90.00000000
_cell_angle_gamma   90.00000000
_symmetry_Int_Tables_number   1
_chemical_formula_structural   Rb2NaYCl6
_chemical_formula_sum   'Rb8 Na4 Y4 Cl24'
_cell_volume   1257.24467792
_cell_formula_units_Z   4
loop_
 _symmetry_equiv_pos_site_id
 _symmetry_equiv_pos_as_xyz
  1  'x, y, z'
loop_
 _atom_site_type_symbol
 _atom_site_label
 _atom_site_symmetry_multiplicity
 _atom_site_fract_x
 _atom_site_fract_y
 _atom_site_fract_z
 _atom_site_occupancy
  Rb  Rb0  1  0.75069552  0.74930448  0.24973202  1.0
  Rb  Rb1  1  0.75069552  0.25069552  0.75026798  1.0
  Rb  Rb2  1  0.25069552  0.24930448  0.75026798  1.0
  Rb  Rb3  1  0.25069552  0.75069552  0.24973202  1.0
  Rb  Rb4  1  0.74930448  0.75069552  0.75026798  1.0
  Rb  Rb5  1  0.74930448  0.24930448  0.24973202  1.0
  Rb  Rb6  1  0.24930448  0.25069552  0.24973202  1.0
  Rb  Rb7  1  0.24930448  0.74930448  0.75026798  1.0
  Na  Na8  1  0.50000000  0.00000000  0.00000000  1.0
  Na  Na9  1  0.00000000  0.50000000  0.00000000  1.0
  Na  Na10  1  0.00000000  0.00000000  0.50000000  1.0
  Na  Na11  1  0.50000000  0.50000000  0.50000000  1.0
  Y  Y12  1  0.50000000  0.00000000  0.50000000  1.0
  Y  Y13  1  0.00000000  0.50000000  0.50000000  1.0
  Y  Y14  1  0.00000000  0.00000000  0.00000000  1.0
  Y  Y15  1  0.50000000  0.50000000  0.00000000  1.0
  Cl  Cl16  1  0.74371009  0.00000000  0.50000000  1.0
  Cl  Cl17  1  0.24371009  0.50000000  0.50000000  1.0
  Cl  Cl18  1  0.00000000  0.74371009  0.50000000  1.0
  Cl  Cl19  1  0.00000000  0.25628991  0.50000000  1.0
  Cl  Cl20  1  0.50000000  0.24371009  0.50000000  1.0
  Cl  Cl21  1  0.50000000  0.75628991  0.50000000  1.0
  Cl  Cl22  1  0.75628991  0.50000000  0.50000000  1.0
  Cl  Cl23  1  0.25628991  0.00000000  0.50000000  1.0
  Cl  Cl24  1  0.24375197  0.00000000  0.00000000  1.0
  Cl  Cl25  1  0.74375197  0.50000000  -0.00000000  1.0
  Cl  Cl26  1  0.00000000  0.24375197  -0.00000000  1.0
  Cl  Cl27  1  0.00000000  0.75624803  -0.00000000  1.0
  Cl  Cl28  1  0.50000000  0.74375197  0.00000000  1.0
  Cl  Cl29  1  0.50000000  0.25624803  0.00000000  1.0
  Cl  Cl30  1  0.25624803  0.50000000  -0.00000000  1.0
  Cl  Cl31  1  0.75624803  0.00000000  0.00000000  1.0
  Cl  Cl32  1  0.50000000  0.00000000  0.25619849  1.0
  Cl  Cl33  1  0.50000000  0.00000000  0.74380151  1.0
  Cl  Cl34  1  0.00000000  0.50000000  0.74380151  1.0
  Cl  Cl35  1  0.00000000  0.50000000  0.25619849  1.0
  Cl  Cl36  1  0.00000000  0.00000000  0.24371552  1.0
  Cl  Cl37  1  0.00000000  0.00000000  0.75628448  1.0
  Cl  Cl38  1  0.50000000  0.50000000  0.75628448  1.0
  Cl  Cl39  1  0.50000000  0.50000000  0.24371552  1.0
