# generated using pymatgen
data_La2SiC(NO2)2
_symmetry_space_group_name_H-M   'P 1'
_cell_length_a   6.55861331
_cell_length_b   12.92617030
_cell_length_c   6.72788744
_cell_angle_alpha   90.00000000
_cell_angle_beta   104.73194109
_cell_angle_gamma   90.00000000
_symmetry_Int_Tables_number   1
_chemical_formula_structural   La2SiC(NO2)2
_chemical_formula_sum   'La8 Si4 C4 N8 O16'
_cell_volume   551.62474164
_cell_formula_units_Z   4
loop_
 _symmetry_equiv_pos_site_id
 _symmetry_equiv_pos_as_xyz
  1  'x, y, z'
loop_
 _atom_site_type_symbol
 _atom_site_label
 _atom_site_symmetry_multiplicity
 _atom_site_fract_x
 _atom_site_fract_y
 _atom_site_fract_z
 _atom_site_occupancy
  La  La0  1  0.96363711  0.64786447  0.66372633  1.0
  La  La1  1  0.96363711  0.85213553  0.16372633  1.0
  La  La2  1  0.03636289  0.14786447  0.83627367  1.0
  La  La3  1  0.03636289  0.35213553  0.33627367  1.0
  La  La4  1  0.40981388  0.90272156  0.71517076  1.0
  La  La5  1  0.40981388  0.59727844  0.21517076  1.0
  La  La6  1  0.59018612  0.40272156  0.78482924  1.0
  La  La7  1  0.59018612  0.09727844  0.28482924  1.0
  Si  Si8  1  0.90269651  0.90192315  0.68280205  1.0
  Si  Si9  1  0.90269651  0.59807685  0.18280205  1.0
  Si  Si10  1  0.09730349  0.40192315  0.81719795  1.0
  Si  Si11  1  0.09730349  0.09807685  0.31719795  1.0
  C  C12  1  0.46635099  0.65323900  0.72109811  1.0
  C  C13  1  0.46635099  0.84676100  0.22109811  1.0
  C  C14  1  0.53364901  0.15323900  0.77890189  1.0
  C  C15  1  0.53364901  0.34676100  0.27890189  1.0
  N  N16  1  0.57037088  0.59843904  0.63236264  1.0
  N  N17  1  0.57037088  0.90156096  0.13236264  1.0
  N  N18  1  0.42962912  0.09843904  0.86763736  1.0
  N  N19  1  0.42962912  0.40156096  0.36763736  1.0
  N  N20  1  0.35997246  0.70629661  0.80944732  1.0
  N  N21  1  0.35997246  0.79370339  0.30944732  1.0
  N  N22  1  0.64002754  0.20629661  0.69055268  1.0
  N  N23  1  0.64002754  0.29370339  0.19055268  1.0
  O  O24  1  0.97977715  0.33765547  0.96692216  1.0
  O  O25  1  0.97977715  0.16234453  0.46692216  1.0
  O  O26  1  0.02022285  0.83765547  0.53307784  1.0
  O  O27  1  0.02022285  0.66234453  0.03307784  1.0
  O  O28  1  0.90012513  0.45180356  0.63959901  1.0
  O  O29  1  0.90012513  0.04819644  0.13959901  1.0
  O  O30  1  0.09987487  0.95180356  0.86040099  1.0
  O  O31  1  0.09987487  0.54819644  0.36040099  1.0
  O  O32  1  0.77806461  0.81855075  0.79440472  1.0
  O  O33  1  0.77806461  0.68144925  0.29440472  1.0
  O  O34  1  0.22193539  0.31855075  0.70559528  1.0
  O  O35  1  0.22193539  0.18144925  0.20559528  1.0
  O  O36  1  0.73129953  0.99060081  0.58409343  1.0
  O  O37  1  0.73129953  0.50939919  0.08409343  1.0
  O  O38  1  0.26870047  0.49060081  0.91590657  1.0
  O  O39  1  0.26870047  0.00939919  0.41590657  1.0
