# generated using pymatgen
data_KHF2
_symmetry_space_group_name_H-M   'P 1'
_cell_length_a   5.33779257
_cell_length_b   5.33779257
_cell_length_c   5.33779257
_cell_angle_alpha   114.78366230
_cell_angle_beta   114.78366230
_cell_angle_gamma   99.30056594
_symmetry_Int_Tables_number   1
_chemical_formula_structural   KHF2
_chemical_formula_sum   'K2 H2 F4'
_cell_volume   114.38099700
_cell_formula_units_Z   2
loop_
 _symmetry_equiv_pos_site_id
 _symmetry_equiv_pos_as_xyz
  1  'x, y, z'
loop_
 _atom_site_type_symbol
 _atom_site_label
 _atom_site_symmetry_multiplicity
 _atom_site_fract_x
 _atom_site_fract_y
 _atom_site_fract_z
 _atom_site_occupancy
  K  K0  1  0.25000000  0.25000000  -0.00000000  1.0
  K  K1  1  0.75000000  0.75000000  -0.00000000  1.0
  H  H2  1  1.00000000  0.50000000  0.50000000  1.0
  H  H3  1  0.50000000  1.00000000  0.50000000  1.0
  F  F4  1  0.85845240  0.35845240  1.21690480  1.0
  F  F5  1  0.64154760  0.85845240  0.50000000  1.0
  F  F6  1  0.35845240  0.14154760  0.50000000  1.0
  F  F7  1  1.14154760  0.64154760  0.78309520  1.0
