# generated using pymatgen
data_Ca7NbSi2N9
_symmetry_space_group_name_H-M   'P 1'
_cell_length_a   6.05177490
_cell_length_b   9.93766028
_cell_length_c   9.00854126
_cell_angle_alpha   90.00000000
_cell_angle_beta   91.91801731
_cell_angle_gamma   90.00000000
_symmetry_Int_Tables_number   1
_chemical_formula_structural   Ca7NbSi2N9
_chemical_formula_sum   'Ca14 Nb2 Si4 N18'
_cell_volume   541.47448711
_cell_formula_units_Z   2
loop_
 _symmetry_equiv_pos_site_id
 _symmetry_equiv_pos_as_xyz
  1  'x, y, z'
loop_
 _atom_site_type_symbol
 _atom_site_label
 _atom_site_symmetry_multiplicity
 _atom_site_fract_x
 _atom_site_fract_y
 _atom_site_fract_z
 _atom_site_occupancy
  Ca  Ca0  1  0.93063513  0.42184882  0.83127888  1.0
  Ca  Ca1  1  0.93063513  0.07815118  0.83127888  1.0
  Ca  Ca2  1  0.06936487  0.92184882  0.16872112  1.0
  Ca  Ca3  1  0.06936487  0.57815118  0.16872112  1.0
  Ca  Ca4  1  0.75075632  0.92261760  0.49480279  1.0
  Ca  Ca5  1  0.75075632  0.57738240  0.49480279  1.0
  Ca  Ca6  1  0.24924368  0.42261760  0.50519721  1.0
  Ca  Ca7  1  0.24924368  0.07738240  0.50519721  1.0
  Ca  Ca8  1  0.43158268  0.94317951  0.83398302  1.0
  Ca  Ca9  1  0.43158268  0.55682049  0.83398302  1.0
  Ca  Ca10  1  0.56841732  0.44317951  0.16601698  1.0
  Ca  Ca11  1  0.56841732  0.05682049  0.16601698  1.0
  Ca  Ca12  1  0.09022890  0.25000000  0.19902982  1.0
  Ca  Ca13  1  0.90977110  0.75000000  0.80097018  1.0
  Nb  Nb14  1  0.71996309  0.25000000  0.43762619  1.0
  Nb  Nb15  1  0.28003691  0.75000000  0.56237381  1.0
  Si  Si16  1  0.54140437  0.25000000  0.72181239  1.0
  Si  Si17  1  0.45859563  0.75000000  0.27818761  1.0
  Si  Si18  1  0.32397011  0.25000000  0.93820715  1.0
  Si  Si19  1  0.67602989  0.75000000  0.06179285  1.0
  N  N20  1  0.88392652  0.40130236  0.34182223  1.0
  N  N21  1  0.88392652  0.09869764  0.34182223  1.0
  N  N22  1  0.11607348  0.90130236  0.65817777  1.0
  N  N23  1  0.11607348  0.59869764  0.65817777  1.0
  N  N24  1  0.76766966  0.89974321  0.98128105  1.0
  N  N25  1  0.76766966  0.60025679  0.98128105  1.0
  N  N26  1  0.23233034  0.39974321  0.01871895  1.0
  N  N27  1  0.23233034  0.10025679  0.01871895  1.0
  N  N28  1  0.63465168  0.39057955  0.62980153  1.0
  N  N29  1  0.63465168  0.10942045  0.62980153  1.0
  N  N30  1  0.36534832  0.89057955  0.37019847  1.0
  N  N31  1  0.36534832  0.60942045  0.37019847  1.0
  N  N32  1  0.62108991  0.25000000  0.91598840  1.0
  N  N33  1  0.37891009  0.75000000  0.08401160  1.0
  N  N34  1  0.44253713  0.25000000  0.33296082  1.0
  N  N35  1  0.55746287  0.75000000  0.66703918  1.0
  N  N36  1  0.24604569  0.25000000  0.74101870  1.0
  N  N37  1  0.75395431  0.75000000  0.25898130  1.0
