# generated using pymatgen
data_ZnH4C6(NO5)2
_symmetry_space_group_name_H-M   'P 1'
_cell_length_a   9.12958287
_cell_length_b   9.12958287
_cell_length_c   10.00844643
_cell_angle_alpha   61.66683504
_cell_angle_beta   118.33316496
_cell_angle_gamma   131.04060582
_symmetry_Int_Tables_number   1
_chemical_formula_structural   ZnH4C6(NO5)2
_chemical_formula_sum   'Zn2 H8 C12 N4 O20'
_cell_volume   536.86572670
_cell_formula_units_Z   2
loop_
 _symmetry_equiv_pos_site_id
 _symmetry_equiv_pos_as_xyz
  1  'x, y, z'
loop_
 _atom_site_type_symbol
 _atom_site_label
 _atom_site_symmetry_multiplicity
 _atom_site_fract_x
 _atom_site_fract_y
 _atom_site_fract_z
 _atom_site_occupancy
  Zn  Zn0  1  0.50758090  0.50758090  0.25000000  1.0
  Zn  Zn1  1  0.49241910  0.49241910  0.75000000  1.0
  H  H2  1  0.72497919  -0.27673860  0.04209126  1.0
  H  H3  1  1.27673860  0.27502081  0.54209126  1.0
  H  H4  1  0.72326140  0.72497919  0.45790874  1.0
  H  H5  1  0.27502081  0.27673860  0.95790874  1.0
  H  H6  1  0.57300905  -0.21657581  -0.01737731  1.0
  H  H7  1  1.21657581  0.42699095  0.48262269  1.0
  H  H8  1  0.78342419  0.57300905  0.51737731  1.0
  H  H9  1  0.42699095  0.21657581  1.01737731  1.0
  C  C10  1  0.59484705  0.04477401  0.39069894  1.0
  C  C11  1  0.95522599  0.40515295  0.89069894  1.0
  C  C12  1  1.04477401  0.59484705  0.10930106  1.0
  C  C13  1  0.40515295  -0.04477401  0.60930106  1.0
  C  C14  1  0.54125471  0.17116002  0.36657289  1.0
  C  C15  1  0.82883998  0.45874529  0.86657289  1.0
  C  C16  1  1.17116002  0.54125471  0.13342711  1.0
  C  C17  1  0.45874529  -0.17116002  0.63342711  1.0
  C  C18  1  0.43244735  0.11994525  0.47722217  1.0
  C  C19  1  0.88005475  0.56755265  0.97722217  1.0
  C  C20  1  1.11994525  0.43244735  0.02277783  1.0
  C  C21  1  0.56755265  -0.11994525  0.52277783  1.0
  N  N22  1  0.68590213  0.09007747  0.27938039  1.0
  N  N23  1  0.90992253  0.31409787  0.77938039  1.0
  N  N24  1  1.09007747  0.68590213  0.22061961  1.0
  N  N25  1  0.31409787  -0.09007747  0.72061961  1.0
  O  O26  1  0.65551273  -0.25798867  0.07728024  1.0
  O  O27  1  1.25798867  0.34448727  0.57728024  1.0
  O  O28  1  0.74201133  0.65551273  0.42271976  1.0
  O  O29  1  0.34448727  0.25798867  0.92271976  1.0
  O  O30  1  0.82815050  0.07465290  0.32839383  1.0
  O  O31  1  0.92534710  0.17184950  0.82839383  1.0
  O  O32  1  1.07465290  0.82815050  0.17160617  1.0
  O  O33  1  0.17184950  -0.07465290  0.67160617  1.0
  O  O34  1  0.61397421  0.14144386  0.13721738  1.0
  O  O35  1  0.85855614  0.38602579  0.63721738  1.0
  O  O36  1  1.14144386  0.61397421  0.36278262  1.0
  O  O37  1  0.38602579  -0.14144386  0.86278262  1.0
  O  O38  1  0.58115973  0.33024799  0.26035187  1.0
  O  O39  1  0.66975201  0.41884027  0.76035187  1.0
  O  O40  1  1.33024799  0.58115973  0.23964813  1.0
  O  O41  1  0.41884027  -0.33024799  0.73964813  1.0
  O  O42  1  0.38213198  0.23487568  0.44227841  1.0
  O  O43  1  0.76512432  0.61786802  0.94227841  1.0
  O  O44  1  1.23487568  0.38213198  0.05772159  1.0
  O  O45  1  0.61786802  -0.23487568  0.55772159  1.0
