# generated using pymatgen
data_Ti2(SO4)3
_symmetry_space_group_name_H-M   'P 1'
_cell_length_a   8.96156262
_cell_length_b   8.96156262
_cell_length_c   8.96156262
_cell_angle_alpha   58.13105451
_cell_angle_beta   58.13105451
_cell_angle_gamma   58.13105451
_symmetry_Int_Tables_number   1
_chemical_formula_structural   Ti2(SO4)3
_chemical_formula_sum   'Ti4 S6 O24'
_cell_volume   487.10243594
_cell_formula_units_Z   2
loop_
 _symmetry_equiv_pos_site_id
 _symmetry_equiv_pos_as_xyz
  1  'x, y, z'
loop_
 _atom_site_type_symbol
 _atom_site_label
 _atom_site_symmetry_multiplicity
 _atom_site_fract_x
 _atom_site_fract_y
 _atom_site_fract_z
 _atom_site_occupancy
  Ti  Ti0  1  0.14571204  0.14571204  0.14571204  1.0
  Ti  Ti1  1  0.85428796  -0.14571204  -0.14571204  1.0
  Ti  Ti2  1  0.35428789  0.35428789  -0.64571211  1.0
  Ti  Ti3  1  0.64571211  0.64571211  -0.35428789  1.0
  S  S4  1  0.53954015  0.25002656  -0.03955049  1.0
  S  S5  1  1.03955049  -0.53954015  -0.25002656  1.0
  S  S6  1  0.74997344  0.03955049  -0.53954015  1.0
  S  S7  1  0.46045985  -0.25002656  0.03955049  1.0
  S  S8  1  0.96044951  -0.46045985  0.25002656  1.0
  S  S9  1  1.25002656  -0.03955049  -0.46045985  1.0
  O  O10  1  0.22391810  0.98907192  -0.62602328  1.0
  O  O11  1  0.62602328  -0.22391810  0.01092808  1.0
  O  O12  1  1.01092808  -0.37397672  -0.22391810  1.0
  O  O13  1  0.77608190  0.01092808  -0.37397672  1.0
  O  O14  1  0.37397672  0.22391810  -0.01092808  1.0
  O  O15  1  0.98907192  0.37397672  -0.77608190  1.0
  O  O16  1  0.58305221  0.20974637  -0.56458836  1.0
  O  O17  1  0.56458836  0.41694779  -0.20974637  1.0
  O  O18  1  0.79025363  0.56458836  -0.58305221  1.0
  O  O19  1  0.41694779  0.79025363  -0.43541164  1.0
  O  O20  1  0.43541164  0.58305221  -0.79025363  1.0
  O  O21  1  0.20974637  0.43541164  -0.41694779  1.0
  O  O22  1  0.29029490  0.91694022  -0.93546690  1.0
  O  O23  1  0.93546690  -0.29029490  0.08305978  1.0
  O  O24  1  1.08305978  -0.06453310  -0.29029490  1.0
  O  O25  1  0.70970510  0.08305978  -0.06453310  1.0
  O  O26  1  0.06453310  0.29029490  -0.08305978  1.0
  O  O27  1  0.91694022  0.06453310  -0.70970510  1.0
  O  O28  1  0.51092744  0.27624530  0.12594381  1.0
  O  O29  1  0.87405619  -0.51092744  -0.27624530  1.0
  O  O30  1  0.72375470  -0.12594381  -0.51092744  1.0
  O  O31  1  0.48907256  -0.27624530  -0.12594381  1.0
  O  O32  1  1.12594381  -0.48907256  0.27624530  1.0
  O  O33  1  1.27624530  0.12594381  -0.48907256  1.0
