# generated using pymatgen
data_MgTi2O4
_symmetry_space_group_name_H-M   'P 1'
_cell_length_a   6.03203098
_cell_length_b   6.03203098
_cell_length_c   8.51522329
_cell_angle_alpha   90.00000000
_cell_angle_beta   90.00000000
_cell_angle_gamma   90.00000000
_symmetry_Int_Tables_number   1
_chemical_formula_structural   MgTi2O4
_chemical_formula_sum   'Mg4 Ti8 O16'
_cell_volume   309.82978627
_cell_formula_units_Z   4
loop_
 _symmetry_equiv_pos_site_id
 _symmetry_equiv_pos_as_xyz
  1  'x, y, z'
loop_
 _atom_site_type_symbol
 _atom_site_label
 _atom_site_symmetry_multiplicity
 _atom_site_fract_x
 _atom_site_fract_y
 _atom_site_fract_z
 _atom_site_occupancy
  Mg  Mg0  1  0.24630836  0.75369164  0.75000000  1.0
  Mg  Mg1  1  0.75369164  0.24630836  0.25000000  1.0
  Mg  Mg2  1  0.25369164  0.25369164  0.50000000  1.0
  Mg  Mg3  1  0.74630836  0.74630836  0.00000000  1.0
  Ti  Ti4  1  0.49208446  0.25136201  0.87977943  1.0
  Ti  Ti5  1  0.50791554  0.74863799  0.37977943  1.0
  Ti  Ti6  1  0.75136201  0.00791554  0.62977943  1.0
  Ti  Ti7  1  0.24863799  0.99208446  0.12977943  1.0
  Ti  Ti8  1  0.74863799  0.50791554  0.62022057  1.0
  Ti  Ti9  1  0.25136201  0.49208446  0.12022057  1.0
  Ti  Ti10  1  0.00791554  0.75136201  0.37022057  1.0
  Ti  Ti11  1  0.99208446  0.24863799  0.87022057  1.0
  O  O12  1  0.98600817  0.25568739  0.63164736  1.0
  O  O13  1  0.01399183  0.74431261  0.13164736  1.0
  O  O14  1  0.75568739  0.51399183  0.38164736  1.0
  O  O15  1  0.24431261  0.48600817  0.88164736  1.0
  O  O16  1  0.74431261  0.01399183  0.86835264  1.0
  O  O17  1  0.25568739  0.98600817  0.36835264  1.0
  O  O18  1  0.51399183  0.75568739  0.61835264  1.0
  O  O19  1  0.48600817  0.24431261  0.11835264  1.0
  O  O20  1  0.74543074  0.47999156  0.86564842  1.0
  O  O21  1  0.25456926  0.52000844  0.36564842  1.0
  O  O22  1  0.97999156  0.75456926  0.61564842  1.0
  O  O23  1  0.02000844  0.24543074  0.11564842  1.0
  O  O24  1  0.52000844  0.25456926  0.63435158  1.0
  O  O25  1  0.47999156  0.74543074  0.13435158  1.0
  O  O26  1  0.75456926  0.97999156  0.38435158  1.0
  O  O27  1  0.24543074  0.02000844  0.88435158  1.0
