# generated using pymatgen
data_RbZn(PO3)3
_symmetry_space_group_name_H-M   'P 1'
_cell_length_a   6.50392509
_cell_length_b   6.50392509
_cell_length_c   6.50392509
_cell_angle_alpha   106.37739422
_cell_angle_beta   106.37739422
_cell_angle_gamma   106.37739422
_symmetry_Int_Tables_number   1
_chemical_formula_structural   RbZn(PO3)3
_chemical_formula_sum   'Rb1 Zn1 P3 O9'
_cell_volume   232.90682652
_cell_formula_units_Z   1
loop_
 _symmetry_equiv_pos_site_id
 _symmetry_equiv_pos_as_xyz
  1  'x, y, z'
loop_
 _atom_site_type_symbol
 _atom_site_label
 _atom_site_symmetry_multiplicity
 _atom_site_fract_x
 _atom_site_fract_y
 _atom_site_fract_z
 _atom_site_occupancy
  Rb  Rb0  1  0.50000000  0.50000000  0.50000000  1.0
  Zn  Zn1  1  -0.00000000  -0.00000000  -0.00000000  1.0
  P  P2  1  1.07051141  0.50000000  -0.07051141  1.0
  P  P3  1  0.50000000  0.92948859  0.07051141  1.0
  P  P4  1  0.92948859  0.07051141  0.50000000  1.0
  O  O5  1  1.64504586  0.93187003  -0.07331510  1.0
  O  O6  1  1.07331510  0.06812997  -0.64504586  1.0
  O  O7  1  1.06812997  -0.64504586  0.07331510  1.0
  O  O8  1  0.35495414  0.07331510  0.06812997  1.0
  O  O9  1  0.92668490  1.64504586  -0.06812997  1.0
  O  O10  1  0.93187003  0.92668490  0.64504586  1.0
  O  O11  1  0.65717431  1.00000000  -0.65717431  1.0
  O  O12  1  1.00000000  0.34282569  -0.34282569  1.0
  O  O13  1  0.34282569  0.65717431  -0.00000000  1.0
