# generated using pymatgen
data_Nb6Fe7
_symmetry_space_group_name_H-M   'P 1'
_cell_length_a   9.32953033
_cell_length_b   9.32953033
_cell_length_c   9.32953033
_cell_angle_alpha   30.29767923
_cell_angle_beta   30.29767923
_cell_angle_gamma   30.29767923
_symmetry_Int_Tables_number   1
_chemical_formula_structural   Nb6Fe7
_chemical_formula_sum   'Nb6 Fe7'
_cell_volume   183.15062420
_cell_formula_units_Z   1
loop_
 _symmetry_equiv_pos_site_id
 _symmetry_equiv_pos_as_xyz
  1  'x, y, z'
loop_
 _atom_site_type_symbol
 _atom_site_label
 _atom_site_symmetry_multiplicity
 _atom_site_fract_x
 _atom_site_fract_y
 _atom_site_fract_z
 _atom_site_occupancy
  Fe  Fe0  1  1.50000000  0.50000000  0.50000000  1.0
  Fe  Fe1  1  1.40777076  0.40777076  0.90802491  1.0
  Fe  Fe2  1  1.40777076  0.90802491  0.40777076  1.0
  Fe  Fe3  1  1.09197509  0.59222924  0.59222924  1.0
  Fe  Fe4  1  1.59222924  0.09197509  0.59222924  1.0
  Fe  Fe5  1  1.59222924  0.59222924  0.09197509  1.0
  Fe  Fe6  1  0.90802491  1.40777076  0.40777076  1.0
  Nb  Nb7  1  0.95104055  0.95104055  0.95104055  1.0
  Nb  Nb8  1  1.04895945  1.04895945  0.04895945  1.0
  Nb  Nb9  1  0.66637023  0.66637023  0.66637023  1.0
  Nb  Nb10  1  1.33362977  1.33362977  0.33362977  1.0
  Nb  Nb11  1  0.84832259  0.84832259  0.84832259  1.0
  Nb  Nb12  1  1.15167741  1.15167741  0.15167741  1.0
