# generated using pymatgen
data_Sc3RhC4
_symmetry_space_group_name_H-M   'P 1'
_cell_length_a   6.74650367
_cell_length_b   6.74650367
_cell_length_c   6.74650367
_cell_angle_alpha   150.77655393
_cell_angle_beta   141.17151557
_cell_angle_gamma   49.32642194
_symmetry_Int_Tables_number   1
_chemical_formula_structural   Sc3RhC4
_chemical_formula_sum   'Sc3 Rh1 C4'
_cell_volume   93.59864387
_cell_formula_units_Z   1
loop_
 _symmetry_equiv_pos_site_id
 _symmetry_equiv_pos_as_xyz
  1  'x, y, z'
loop_
 _atom_site_type_symbol
 _atom_site_label
 _atom_site_symmetry_multiplicity
 _atom_site_fract_x
 _atom_site_fract_y
 _atom_site_fract_z
 _atom_site_occupancy
  Sc  Sc0  1  0.50000000  0.50000000  1.00000000  1.0
  Sc  Sc1  1  0.81100929  0.31100929  0.50000000  1.0
  Sc  Sc2  1  0.18899071  0.68899071  0.50000000  1.0
  Rh  Rh3  1  0.00000000  0.00000000  0.00000000  1.0
  C  C4  1  0.53198830  0.87158813  0.66040016  1.0
  C  C5  1  0.78881203  0.12841187  0.66040016  1.0
  C  C6  1  1.21118797  0.87158813  1.33959984  1.0
  C  C7  1  0.46801170  0.12841187  0.33959984  1.0
