# generated using pymatgen
data_Zr(PO4)2
_symmetry_space_group_name_H-M   'P 1'
_cell_length_a   8.05310043
_cell_length_b   8.05310043
_cell_length_c   10.93879039
_cell_angle_alpha   90.00000000
_cell_angle_beta   90.00000000
_cell_angle_gamma   90.00000000
_symmetry_Int_Tables_number   1
_chemical_formula_structural   Zr(PO4)2
_chemical_formula_sum   'Zr4 P8 O32'
_cell_volume   709.40710036
_cell_formula_units_Z   4
loop_
 _symmetry_equiv_pos_site_id
 _symmetry_equiv_pos_as_xyz
  1  'x, y, z'
loop_
 _atom_site_type_symbol
 _atom_site_label
 _atom_site_symmetry_multiplicity
 _atom_site_fract_x
 _atom_site_fract_y
 _atom_site_fract_z
 _atom_site_occupancy
  Zr  Zr0  1  0.48964448  0.51035552  0.25000000  1.0
  Zr  Zr1  1  0.98964448  0.98964448  0.50000000  1.0
  Zr  Zr2  1  0.51035552  0.48964448  0.75000000  1.0
  Zr  Zr3  1  0.01035552  0.01035552  0.00000000  1.0
  O  O4  1  0.36627684  0.60634062  0.88383448  1.0
  O  O5  1  0.86627684  0.89365938  0.86616552  1.0
  O  O6  1  0.39365938  0.63372316  0.61616552  1.0
  O  O7  1  0.89365938  0.86627684  0.13383448  1.0
  O  O8  1  0.63372316  0.39365938  0.38383448  1.0
  O  O9  1  0.13372316  0.10634062  0.36616552  1.0
  O  O10  1  0.60634062  0.36627684  0.11616552  1.0
  O  O11  1  0.10634062  0.13372316  0.63383448  1.0
  O  O12  1  0.34855492  0.62414599  0.11464650  1.0
  O  O13  1  0.84855492  0.87585401  0.63535350  1.0
  O  O14  1  0.37585401  0.65144508  0.38535350  1.0
  O  O15  1  0.87585401  0.84855492  0.36464650  1.0
  O  O16  1  0.65144508  0.37585401  0.61464650  1.0
  O  O17  1  0.15144508  0.12414599  0.13535350  1.0
  O  O18  1  0.62414599  0.34855492  0.88535350  1.0
  O  O19  1  0.12414599  0.15144508  0.86464650  1.0
  O  O20  1  0.17948800  0.81865729  -0.01731741  1.0
  O  O21  1  0.67948800  0.68134271  0.76731741  1.0
  O  O22  1  0.18134271  0.82051200  0.51731741  1.0
  O  O23  1  0.68134271  0.67948800  0.23268259  1.0
  O  O24  1  0.82051200  0.18134271  0.48268259  1.0
  O  O25  1  0.32051200  0.31865729  0.26731741  1.0
  O  O26  1  0.81865729  0.17948800  1.01731741  1.0
  O  O27  1  0.31865729  0.32051200  0.73268259  1.0
  O  O28  1  0.10872973  0.51071681  0.99318127  1.0
  O  O29  1  0.60872973  0.98928319  0.75681873  1.0
  O  O30  1  0.48928319  0.89127027  0.50681873  1.0
  O  O31  1  0.98928319  0.60872973  0.24318127  1.0
  O  O32  1  0.89127027  0.48928319  0.49318127  1.0
  O  O33  1  0.39127027  0.01071681  0.25681873  1.0
  O  O34  1  0.51071681  0.10872973  0.00681873  1.0
  O  O35  1  0.01071681  0.39127027  0.74318127  1.0
  P  P36  1  0.25103915  0.64112596  0.99344067  1.0
  P  P37  1  0.75103915  0.85887404  0.75655933  1.0
  P  P38  1  0.35887404  0.74896085  0.50655933  1.0
  P  P39  1  0.85887404  0.75103915  0.24344067  1.0
  P  P40  1  0.74896085  0.35887404  0.49344067  1.0
  P  P41  1  0.24896085  0.14112596  0.25655933  1.0
  P  P42  1  0.64112596  0.25103915  0.00655933  1.0
  P  P43  1  0.14112596  0.24896085  0.74344067  1.0
