# generated using pymatgen
data_Ag(TeMo)6
_symmetry_space_group_name_H-M   'P 1'
_cell_length_a   9.60797822
_cell_length_b   9.60797822
_cell_length_c   9.74575634
_cell_angle_alpha   59.06440131
_cell_angle_beta   120.93559869
_cell_angle_gamma   152.28641559
_symmetry_Int_Tables_number   1
_chemical_formula_structural   Ag(TeMo)6
_chemical_formula_sum   'Ag1 Te6 Mo6'
_cell_volume   354.92845672
_cell_formula_units_Z   1
loop_
 _symmetry_equiv_pos_site_id
 _symmetry_equiv_pos_as_xyz
  1  'x, y, z'
loop_
 _atom_site_type_symbol
 _atom_site_label
 _atom_site_symmetry_multiplicity
 _atom_site_fract_x
 _atom_site_fract_y
 _atom_site_fract_z
 _atom_site_occupancy
  Ag  Ag0  1  0.00000000  0.00000000  0.00000000  1.0
  Te  Te1  1  0.87807697  0.12192303  0.36874936  1.0
  Te  Te2  1  0.12192303  -0.12192303  0.63125064  1.0
  Te  Te3  1  0.82270504  0.17729496  0.89207883  1.0
  Te  Te4  1  0.17729496  -0.17729496  0.10792117  1.0
  Te  Te5  1  0.45653865  -0.45653865  0.75003061  1.0
  Te  Te6  1  0.54346135  0.45653865  0.24996939  1.0
  Mo  Mo7  1  0.84546902  0.15453098  0.62176578  1.0
  Mo  Mo8  1  0.15453098  -0.15453098  0.37823422  1.0
  Mo  Mo9  1  0.71411184  0.28588816  0.31772584  1.0
  Mo  Mo10  1  0.28588816  -0.28588816  0.68227416  1.0
  Mo  Mo11  1  0.68964676  0.31035324  0.56214757  1.0
  Mo  Mo12  1  0.31035324  -0.31035324  0.43785243  1.0
