# generated using pymatgen
data_Y4CdIr
_symmetry_space_group_name_H-M   'P 1'
_cell_length_a   9.65622166
_cell_length_b   9.65622166
_cell_length_c   9.65622166
_cell_angle_alpha   60.00000000
_cell_angle_beta   60.00000000
_cell_angle_gamma   60.00000000
_symmetry_Int_Tables_number   1
_chemical_formula_structural   Y4CdIr
_chemical_formula_sum   'Y16 Cd4 Ir4'
_cell_volume   636.65870461
_cell_formula_units_Z   4
loop_
 _symmetry_equiv_pos_site_id
 _symmetry_equiv_pos_as_xyz
  1  'x, y, z'
loop_
 _atom_site_type_symbol
 _atom_site_label
 _atom_site_symmetry_multiplicity
 _atom_site_fract_x
 _atom_site_fract_y
 _atom_site_fract_z
 _atom_site_occupancy
  Y  Y0  1  0.06213119  0.43786881  0.43786881  1.0
  Y  Y1  1  0.43786881  0.43786881  0.06213119  1.0
  Y  Y2  1  0.43786881  0.06213119  0.43786881  1.0
  Y  Y3  1  0.06213119  0.06213119  0.43786881  1.0
  Y  Y4  1  0.06213119  0.43786881  0.06213119  1.0
  Y  Y5  1  0.43786881  0.06213119  0.06213119  1.0
  Y  Y6  1  -0.80977750  0.80977750  0.80977750  1.0
  Y  Y7  1  -0.19022250  0.80977750  0.19022250  1.0
  Y  Y8  1  -0.19022250  0.19022250  0.80977750  1.0
  Y  Y9  1  0.19022250  1.19022250  -0.19022250  1.0
  Y  Y10  1  0.19022250  -0.19022250  0.19022250  1.0
  Y  Y11  1  -0.19022250  0.19022250  0.19022250  1.0
  Y  Y12  1  -0.34893460  0.65106540  0.65106540  1.0
  Y  Y13  1  1.04680379  0.65106540  -0.34893460  1.0
  Y  Y14  1  -0.34893460  0.65106540  1.04680379  1.0
  Y  Y15  1  0.65106540  1.04680379  -0.34893460  1.0
  Cd  Cd16  1  0.41943220  1.41943220  0.41943220  1.0
  Cd  Cd17  1  -0.25829661  0.41943220  0.41943220  1.0
  Cd  Cd18  1  0.41943220  1.41943220  -0.25829661  1.0
  Cd  Cd19  1  0.41943220  -0.25829661  0.41943220  1.0
  Ir  Ir20  1  0.85851877  0.85851877  -0.14148123  1.0
  Ir  Ir21  1  0.42444370  0.85851877  -0.14148123  1.0
  Ir  Ir22  1  0.85851877  0.85851877  -0.57555630  1.0
  Ir  Ir23  1  0.85851877  0.42444370  -0.14148123  1.0
