# generated using pymatgen
data_K3B12H12I
_symmetry_space_group_name_H-M   'P 1'
_cell_length_a   7.06739152
_cell_length_b   7.06739152
_cell_length_c   7.06739152
_cell_angle_alpha   93.52303262
_cell_angle_beta   93.52303262
_cell_angle_gamma   93.52303262
_symmetry_Int_Tables_number   1
_chemical_formula_structural   K3B12H12I
_chemical_formula_sum   'K3 B12 H12 I1'
_cell_volume   350.91470570
_cell_formula_units_Z   1
loop_
 _symmetry_equiv_pos_site_id
 _symmetry_equiv_pos_as_xyz
  1  'x, y, z'
loop_
 _atom_site_type_symbol
 _atom_site_label
 _atom_site_symmetry_multiplicity
 _atom_site_fract_x
 _atom_site_fract_y
 _atom_site_fract_z
 _atom_site_occupancy
  K  K0  1  1.00000000  -0.50000000  -0.00000000  1.0
  K  K1  1  1.00000000  0.00000000  -0.50000000  1.0
  K  K2  1  0.50000000  0.00000000  -0.00000000  1.0
  B  B3  1  1.55986086  0.55986086  -0.26790950  1.0
  B  B4  1  1.55986086  -0.26790950  0.55986086  1.0
  B  B5  1  1.26790950  0.44013914  -0.55986086  1.0
  B  B6  1  0.44013914  1.26790950  -0.55986086  1.0
  B  B7  1  0.44013914  0.44013914  0.26790950  1.0
  B  B8  1  0.73209050  0.55986086  0.55986086  1.0
  B  B9  1  1.37916074  0.37916074  -0.34158380  1.0
  B  B10  1  1.37916074  -0.34158380  0.37916074  1.0
  B  B11  1  1.34158380  0.62083926  -0.37916074  1.0
  B  B12  1  0.62083926  1.34158380  -0.37916074  1.0
  B  B13  1  0.62083926  0.62083926  0.34158380  1.0
  B  B14  1  0.65841620  0.37916074  0.37916074  1.0
  H  H15  1  1.29225892  0.29225892  -0.22962692  1.0
  H  H16  1  1.29225892  -0.22962692  0.29225892  1.0
  H  H17  1  1.22962692  0.70774108  -0.29225892  1.0
  H  H18  1  0.70774108  1.22962692  -0.29225892  1.0
  H  H19  1  0.70774108  0.70774108  0.22962692  1.0
  H  H20  1  0.77037308  0.29225892  0.29225892  1.0
  H  H21  1  0.39757100  0.39757100  0.10289102  1.0
  H  H22  1  0.39757100  1.10289102  -0.60242900  1.0
  H  H23  1  0.89710898  0.60242900  0.60242900  1.0
  H  H24  1  1.60242900  -0.10289102  0.60242900  1.0
  H  H25  1  1.60242900  0.60242900  -0.10289102  1.0
  H  H26  1  1.10289102  0.39757100  -0.60242900  1.0
  I  I27  1  0.00000000  0.00000000  0.00000000  1.0
