# generated using pymatgen
data_Nb2Zn3O8
_symmetry_space_group_name_H-M   'P 1'
_cell_length_a   10.09120437
_cell_length_b   10.09120437
_cell_length_c   5.25186382
_cell_angle_alpha   89.84187110
_cell_angle_beta   90.15812890
_cell_angle_gamma   145.73028954
_symmetry_Int_Tables_number   1
_chemical_formula_structural   Nb2Zn3O8
_chemical_formula_sum   'Nb4 Zn6 O16'
_cell_volume   301.14446556
_cell_formula_units_Z   2
loop_
 _symmetry_equiv_pos_site_id
 _symmetry_equiv_pos_as_xyz
  1  'x, y, z'
loop_
 _atom_site_type_symbol
 _atom_site_label
 _atom_site_symmetry_multiplicity
 _atom_site_fract_x
 _atom_site_fract_y
 _atom_site_fract_z
 _atom_site_occupancy
  Nb  Nb0  1  0.27560954  0.04659107  0.76574276  1.0
  Nb  Nb1  1  0.95340893  0.72439046  0.26574276  1.0
  Nb  Nb2  1  1.04659107  0.27560954  0.73425724  1.0
  Nb  Nb3  1  0.72439046  -0.04659107  0.23425724  1.0
  Zn  Zn4  1  0.43418209  -0.12630061  0.73567755  1.0
  Zn  Zn5  1  1.12630061  0.56581791  0.23567755  1.0
  Zn  Zn6  1  0.87369939  0.43418209  0.76432245  1.0
  Zn  Zn7  1  0.56581791  0.12630061  0.26432245  1.0
  Zn  Zn8  1  0.65258485  0.65258485  0.75000000  1.0
  Zn  Zn9  1  0.34741515  0.34741515  0.25000000  1.0
  O  O10  1  0.81571012  -0.04505441  0.57169727  1.0
  O  O11  1  1.04505441  0.18428988  0.07169727  1.0
  O  O12  1  0.95494559  0.81571012  0.92830273  1.0
  O  O13  1  0.18428988  0.04505441  0.42830273  1.0
  O  O14  1  0.71852138  0.07639535  0.93870257  1.0
  O  O15  1  0.92360465  0.28147862  0.43870257  1.0
  O  O16  1  1.07639535  0.71852138  0.56129743  1.0
  O  O17  1  0.28147862  -0.07639535  0.06129743  1.0
  O  O18  1  0.54634000  0.16083769  0.63539106  1.0
  O  O19  1  0.83916231  0.45366000  0.13539106  1.0
  O  O20  1  1.16083769  0.54634000  0.86460894  1.0
  O  O21  1  0.45366000  -0.16083769  0.36460894  1.0
  O  O22  1  0.43182365  0.31484868  0.91383181  1.0
  O  O23  1  0.68515132  0.56817635  0.41383181  1.0
  O  O24  1  1.31484868  0.43182365  0.58616819  1.0
  O  O25  1  0.56817635  -0.31484868  0.08616819  1.0
