# generated using pymatgen
data_Na2Ni(H7N3)2
_symmetry_space_group_name_H-M   'P 1'
_cell_length_a   8.49316630
_cell_length_b   8.49316630
_cell_length_c   8.49316630
_cell_angle_alpha   114.41898858
_cell_angle_beta   114.41898858
_cell_angle_gamma   99.97320255
_symmetry_Int_Tables_number   1
_chemical_formula_structural   Na2Ni(H7N3)2
_chemical_formula_sum   'Na4 Ni2 H28 N12'
_cell_volume   462.13071618
_cell_formula_units_Z   2
loop_
 _symmetry_equiv_pos_site_id
 _symmetry_equiv_pos_as_xyz
  1  'x, y, z'
loop_
 _atom_site_type_symbol
 _atom_site_label
 _atom_site_symmetry_multiplicity
 _atom_site_fract_x
 _atom_site_fract_y
 _atom_site_fract_z
 _atom_site_occupancy
  Na  Na0  1  0.88476834  1.21113122  1.09589956  1.0
  Na  Na1  1  1.21113122  1.11523166  1.32636288  1.0
  Na  Na2  1  0.11523166  0.78886878  0.90410044  1.0
  Na  Na3  1  0.78886878  0.88476834  1.67363712  1.0
  Ni  Ni4  1  0.19114421  0.19114421  0.00000000  1.0
  Ni  Ni5  1  0.80885579  0.80885579  -0.00000000  1.0
  H  H6  1  1.21672247  1.45535941  0.82276360  1.0
  H  H7  1  0.36740419  0.60604113  0.82276360  1.0
  H  H8  1  1.45535941  1.63259581  1.23863694  1.0
  H  H9  1  0.60604113  0.78327753  1.23863694  1.0
  H  H10  1  0.63259581  1.39395887  1.17723640  1.0
  H  H11  1  0.78327753  1.54464059  1.17723640  1.0
  H  H12  1  1.39395887  1.21672247  1.76136306  1.0
  H  H13  1  1.54464059  1.36740419  1.76136306  1.0
  H  H14  1  1.00939083  1.37851929  0.93353632  1.0
  H  H15  1  0.55501704  0.92414549  0.93353632  1.0
  H  H16  1  1.37851929  1.44498296  1.36912845  1.0
  H  H17  1  0.92414549  0.99060917  1.36912845  1.0
  H  H18  1  0.44498296  1.07585451  1.06646368  1.0
  H  H19  1  0.99060917  0.62148071  1.06646368  1.0
  H  H20  1  1.07585451  1.00939083  1.63087155  1.0
  H  H21  1  0.62148071  0.55501704  0.63087155  1.0
  H  H22  1  1.20380120  0.48854543  1.25567623  1.0
  H  H23  1  0.76713081  1.05187504  1.25567623  1.0
  H  H24  1  0.48854543  0.23286919  0.28474423  1.0
  H  H25  1  1.05187504  0.79619880  1.28474423  1.0
  H  H26  1  0.23286919  0.94812496  0.74432377  1.0
  H  H27  1  0.79619880  0.51145457  0.74432377  1.0
  H  H28  1  0.94812496  1.20380120  1.71525577  1.0
  H  H29  1  0.51145457  0.76713081  0.71525577  1.0
  H  H30  1  0.54368267  1.15741519  0.70109785  1.0
  H  H31  1  0.15741519  0.45631733  0.61373252  1.0
  H  H32  1  0.45631733  0.84258481  1.29890215  1.0
  H  H33  1  0.84258481  0.54368267  0.38626748  1.0
  N  N34  1  0.97824401  0.23604745  0.85803570  1.0
  N  N35  1  0.62198824  0.87979169  0.85803570  1.0
  N  N36  1  0.23604745  0.37801176  0.25780344  1.0
  N  N37  1  0.87979169  1.02175599  1.25780344  1.0
  N  N38  1  0.37801176  1.12020831  1.14196430  1.0
  N  N39  1  1.02175599  0.76395255  1.14196430  1.0
  N  N40  1  1.12020831  0.97824401  1.74219656  1.0
  N  N41  1  0.76395255  0.62198824  0.74219656  1.0
  N  N42  1  0.77338187  1.45641851  1.22980038  1.0
  N  N43  1  1.45641851  1.22661813  1.68303665  1.0
  N  N44  1  0.22661813  0.54358149  0.77019962  1.0
  N  N45  1  0.54358149  0.77338187  1.31696335  1.0
