# generated using pymatgen
data_Lu2NiPb2
_symmetry_space_group_name_H-M   'P 1'
_cell_length_a   11.21728423
_cell_length_b   11.21728423
_cell_length_c   3.36236721
_cell_angle_alpha   90.00000000
_cell_angle_beta   90.00000000
_cell_angle_gamma   162.62018629
_symmetry_Int_Tables_number   1
_chemical_formula_structural   Lu2NiPb2
_chemical_formula_sum   'Lu2 Ni1 Pb2'
_cell_volume   126.37537854
_cell_formula_units_Z   1
loop_
 _symmetry_equiv_pos_site_id
 _symmetry_equiv_pos_as_xyz
  1  'x, y, z'
loop_
 _atom_site_type_symbol
 _atom_site_label
 _atom_site_symmetry_multiplicity
 _atom_site_fract_x
 _atom_site_fract_y
 _atom_site_fract_z
 _atom_site_occupancy
  Lu  Lu0  1  0.42834302  0.57165698  0.50000000  1.0
  Lu  Lu1  1  -0.42834302  0.42834302  0.50000000  1.0
  Ni  Ni2  1  0.00000000  0.00000000  0.00000000  1.0
  Pb  Pb3  1  0.18255505  0.81744495  0.00000000  1.0
  Pb  Pb4  1  -0.18255505  0.18255505  0.00000000  1.0
