# generated using pymatgen
data_K5Ta(TlAs2)2
_symmetry_space_group_name_H-M   'P 1'
_cell_length_a   18.90207915
_cell_length_b   10.73578853
_cell_length_c   7.76140186
_cell_angle_alpha   90.00000000
_cell_angle_beta   90.00000000
_cell_angle_gamma   90.00000000
_symmetry_Int_Tables_number   1
_chemical_formula_structural   K5Ta(TlAs2)2
_chemical_formula_sum   'K20 Ta4 Tl8 As16'
_cell_volume   1575.01137956
_cell_formula_units_Z   4
loop_
 _symmetry_equiv_pos_site_id
 _symmetry_equiv_pos_as_xyz
  1  'x, y, z'
loop_
 _atom_site_type_symbol
 _atom_site_label
 _atom_site_symmetry_multiplicity
 _atom_site_fract_x
 _atom_site_fract_y
 _atom_site_fract_z
 _atom_site_occupancy
  K  K0  1  0.51676814  0.25000000  0.90257357  1.0
  K  K1  1  0.01676814  0.25000000  0.59742643  1.0
  K  K2  1  0.48323186  0.75000000  0.09742643  1.0
  K  K3  1  0.98323186  0.75000000  0.40257357  1.0
  K  K4  1  0.57797537  0.47449979  0.29873547  1.0
  K  K5  1  0.57797537  0.02550021  0.29873547  1.0
  K  K6  1  0.07797537  0.47449979  0.20126453  1.0
  K  K7  1  0.07797537  0.02550021  0.20126453  1.0
  K  K8  1  0.42202463  0.97449979  0.70126453  1.0
  K  K9  1  0.42202463  0.52550021  0.70126453  1.0
  K  K10  1  0.92202463  0.97449979  0.79873547  1.0
  K  K11  1  0.92202463  0.52550021  0.79873547  1.0
  K  K12  1  0.75319607  0.44736070  0.03037858  1.0
  K  K13  1  0.75319607  0.05263930  0.03037858  1.0
  K  K14  1  0.25319607  0.44736070  0.46962142  1.0
  K  K15  1  0.25319607  0.05263930  0.46962142  1.0
  K  K16  1  0.24680393  0.94736070  0.96962142  1.0
  K  K17  1  0.24680393  0.55263930  0.96962142  1.0
  K  K18  1  0.74680393  0.94736070  0.53037858  1.0
  K  K19  1  0.74680393  0.55263930  0.53037858  1.0
  Ta  Ta20  1  0.83513178  0.25000000  0.42314945  1.0
  Ta  Ta21  1  0.33513178  0.25000000  0.07685055  1.0
  Ta  Ta22  1  0.16486822  0.75000000  0.57685055  1.0
  Ta  Ta23  1  0.66486822  0.75000000  0.92314945  1.0
  Tl  Tl24  1  0.67844916  0.25000000  0.69117006  1.0
  Tl  Tl25  1  0.17844916  0.25000000  0.80882994  1.0
  Tl  Tl26  1  0.32155084  0.75000000  0.30882994  1.0
  Tl  Tl27  1  0.82155084  0.75000000  0.19117006  1.0
  Tl  Tl28  1  0.94669957  0.25000000  0.07266684  1.0
  Tl  Tl29  1  0.44669957  0.25000000  0.42733316  1.0
  Tl  Tl30  1  0.05330043  0.75000000  0.92733316  1.0
  Tl  Tl31  1  0.55330043  0.75000000  0.57266684  1.0
  As  As32  1  0.70631748  0.25000000  0.33504312  1.0
  As  As33  1  0.20631748  0.25000000  0.16495688  1.0
  As  As34  1  0.29368252  0.75000000  0.66495688  1.0
  As  As35  1  0.79368252  0.75000000  0.83504312  1.0
  As  As36  1  0.83374010  0.25000000  0.74423554  1.0
  As  As37  1  0.33374010  0.25000000  0.75576446  1.0
  As  As38  1  0.16625990  0.75000000  0.25576446  1.0
  As  As39  1  0.66625990  0.75000000  0.24423554  1.0
  As  As40  1  0.89820401  0.43870760  0.30849056  1.0
  As  As41  1  0.89820401  0.06129240  0.30849056  1.0
  As  As42  1  0.39820401  0.43870760  0.19150944  1.0
  As  As43  1  0.39820401  0.06129240  0.19150944  1.0
  As  As44  1  0.10179599  0.93870760  0.69150944  1.0
  As  As45  1  0.10179599  0.56129240  0.69150944  1.0
  As  As46  1  0.60179599  0.93870760  0.80849056  1.0
  As  As47  1  0.60179599  0.56129240  0.80849056  1.0
