# generated using pymatgen
data_CeFe9Si4
_symmetry_space_group_name_H-M   'P 1'
_cell_length_a   7.97334837
_cell_length_b   7.97334837
_cell_length_c   7.97334837
_cell_angle_alpha   121.36523308
_cell_angle_beta   121.36523308
_cell_angle_gamma   87.65117735
_symmetry_Int_Tables_number   1
_chemical_formula_structural   CeFe9Si4
_chemical_formula_sum   'Ce2 Fe18 Si8'
_cell_volume   350.71577020
_cell_formula_units_Z   2
loop_
 _symmetry_equiv_pos_site_id
 _symmetry_equiv_pos_as_xyz
  1  'x, y, z'
loop_
 _atom_site_type_symbol
 _atom_site_label
 _atom_site_symmetry_multiplicity
 _atom_site_fract_x
 _atom_site_fract_y
 _atom_site_fract_z
 _atom_site_occupancy
  Ce  Ce0  1  0.75000000  0.75000000  1.00000000  1.0
  Ce  Ce1  1  0.25000000  0.25000000  0.00000000  1.0
  Fe  Fe2  1  0.69464292  1.19464292  1.24921561  1.0
  Fe  Fe3  1  1.05457270  0.55457270  1.24921561  1.0
  Fe  Fe4  1  0.44542730  0.69464292  0.50000000  1.0
  Fe  Fe5  1  0.80535708  1.05457270  1.50000000  1.0
  Fe  Fe6  1  1.19464292  0.94542730  1.50000000  1.0
  Fe  Fe7  1  0.55457270  0.30535708  0.50000000  1.0
  Fe  Fe8  1  0.94542730  0.44542730  0.75078439  1.0
  Fe  Fe9  1  0.30535708  0.80535708  0.75078439  1.0
  Fe  Fe10  1  0.79991292  0.93257314  1.73248606  1.0
  Fe  Fe11  1  0.70008708  0.43257314  1.13266022  1.0
  Fe  Fe12  1  0.43257314  0.29991292  0.73248606  1.0
  Fe  Fe13  1  0.06742686  0.79991292  0.86733978  1.0
  Fe  Fe14  1  0.29991292  0.56742686  0.86733978  1.0
  Fe  Fe15  1  0.20008708  0.06742686  0.26751394  1.0
  Fe  Fe16  1  0.93257314  0.20008708  1.13266022  1.0
  Fe  Fe17  1  0.56742686  0.70008708  1.26751394  1.0
  Fe  Fe18  1  0.50000000  -0.00000000  0.50000000  1.0
  Fe  Fe19  1  0.00000000  0.50000000  0.50000000  1.0
  Si  Si20  1  1.20875226  0.70875226  1.15846526  1.0
  Si  Si21  1  0.44971300  0.94971300  1.15846526  1.0
  Si  Si22  1  1.05028700  1.20875226  1.50000000  1.0
  Si  Si23  1  0.29124774  0.44971300  0.50000000  1.0
  Si  Si24  1  0.70875226  0.55028700  0.50000000  1.0
  Si  Si25  1  0.94971300  0.79124774  1.50000000  1.0
  Si  Si26  1  0.55028700  1.05028700  0.84153474  1.0
  Si  Si27  1  0.79124774  0.29124774  0.84153474  1.0
