# generated using pymatgen
data_Bi14Rh3
_symmetry_space_group_name_H-M   'P 1'
_cell_length_a   18.29553805
_cell_length_b   16.41954026
_cell_length_c   9.46492832
_cell_angle_alpha   85.48653165
_cell_angle_beta   63.46713926
_cell_angle_gamma   31.04632909
_symmetry_Int_Tables_number   1
_chemical_formula_structural   Bi14Rh3
_chemical_formula_sum   'Bi28 Rh6'
_cell_volume   986.87758580
_cell_formula_units_Z   2
loop_
 _symmetry_equiv_pos_site_id
 _symmetry_equiv_pos_as_xyz
  1  'x, y, z'
loop_
 _atom_site_type_symbol
 _atom_site_label
 _atom_site_symmetry_multiplicity
 _atom_site_fract_x
 _atom_site_fract_y
 _atom_site_fract_z
 _atom_site_occupancy
  Bi  Bi0  1  -0.19713623  0.30237780  0.43725263  1.0
  Bi  Bi1  1  1.45750579  0.43725263  0.30237780  1.0
  Bi  Bi2  1  0.43725263  1.45750579  -0.19713623  1.0
  Bi  Bi3  1  0.30237780  -0.19713623  1.45750579  1.0
  Bi  Bi4  1  0.44713623  0.94762220  0.81274737  1.0
  Bi  Bi5  1  0.79249421  0.81274737  0.94762220  1.0
  Bi  Bi6  1  0.81274737  0.79249421  0.44713623  1.0
  Bi  Bi7  1  0.94762220  0.44713623  0.79249421  1.0
  Bi  Bi8  1  -0.69112117  0.79622796  0.80808981  1.0
  Bi  Bi9  1  1.08680339  0.80808981  0.79622796  1.0
  Bi  Bi10  1  0.80808981  1.08680339  -0.69112117  1.0
  Bi  Bi11  1  0.79622796  -0.69112117  1.08680339  1.0
  Bi  Bi12  1  0.94112117  0.45377204  0.44191019  1.0
  Bi  Bi13  1  1.16319661  0.44191019  0.45377204  1.0
  Bi  Bi14  1  1.44191019  0.16319661  -0.05887883  1.0
  Bi  Bi15  1  1.45377204  -0.05887883  0.16319661  1.0
  Bi  Bi16  1  0.85419080  -0.63708064  0.71052086  1.0
  Bi  Bi17  1  1.07236898  0.71052086  0.36291936  1.0
  Bi  Bi18  1  0.71052086  1.07236898  0.85419080  1.0
  Bi  Bi19  1  0.36291936  -0.14580920  1.07236898  1.0
  Bi  Bi20  1  1.39580920  -0.11291936  0.53947914  1.0
  Bi  Bi21  1  0.17763102  1.53947914  -0.11291936  1.0
  Bi  Bi22  1  1.53947914  0.17763102  0.39580920  1.0
  Bi  Bi23  1  -0.11291936  1.39580920  0.17763102  1.0
  Bi  Bi24  1  0.78116140  -0.78116140  0.78116140  1.0
  Bi  Bi25  1  0.21883860  -0.21883860  1.21883860  1.0
  Bi  Bi26  1  1.46883860  0.03116140  0.46883860  1.0
  Bi  Bi27  1  0.03116140  1.46883860  0.03116140  1.0
  Rh  Rh28  1  -0.37500000  0.62500000  0.62500000  1.0
  Rh  Rh29  1  1.12500000  0.62500000  0.62500000  1.0
  Rh  Rh30  1  0.62500000  1.12500000  -0.37500000  1.0
  Rh  Rh31  1  0.62500000  -0.37500000  1.12500000  1.0
  Rh  Rh32  1  -0.50000000  0.50000000  0.50000000  1.0
  Rh  Rh33  1  0.75000000  0.75000000  0.75000000  1.0
