# generated using pymatgen
data_Ca3MnCoO6
_symmetry_space_group_name_H-M   'P 1'
_cell_length_a   6.36047319
_cell_length_b   6.36047319
_cell_length_c   6.36047319
_cell_angle_alpha   92.40634848
_cell_angle_beta   92.40634848
_cell_angle_gamma   92.40634848
_symmetry_Int_Tables_number   1
_chemical_formula_structural   Ca3MnCoO6
_chemical_formula_sum   'Ca6 Mn2 Co2 O12'
_cell_volume   256.61646443
_cell_formula_units_Z   2
loop_
 _symmetry_equiv_pos_site_id
 _symmetry_equiv_pos_as_xyz
  1  'x, y, z'
loop_
 _atom_site_type_symbol
 _atom_site_label
 _atom_site_symmetry_multiplicity
 _atom_site_fract_x
 _atom_site_fract_y
 _atom_site_fract_z
 _atom_site_occupancy
  Ca  Ca0  1  0.88853438  1.25000000  -0.38853438  1.0
  Ca  Ca1  1  1.38853438  0.11146562  -0.25000000  1.0
  Ca  Ca2  1  0.75000000  0.38853438  0.11146562  1.0
  Ca  Ca3  1  1.25000000  0.61146562  -0.11146562  1.0
  Ca  Ca4  1  1.11146562  -0.25000000  0.38853438  1.0
  Ca  Ca5  1  0.61146562  0.88853438  0.25000000  1.0
  Mn  Mn6  1  0.50000000  0.50000000  0.50000000  1.0
  Mn  Mn7  1  0.00000000  0.00000000  0.00000000  1.0
  Co  Co8  1  0.25000000  0.25000000  0.25000000  1.0
  Co  Co9  1  0.75000000  0.75000000  0.75000000  1.0
  O  O10  1  1.21273782  0.41613581  -0.45551161  1.0
  O  O11  1  0.71273782  1.04448839  -0.08386419  1.0
  O  O12  1  0.95551161  0.08386419  0.28726218  1.0
  O  O13  1  1.45551161  -0.21273782  0.58386419  1.0
  O  O14  1  1.58386419  0.45551161  -0.21273782  1.0
  O  O15  1  1.08386419  0.28726218  -0.04448839  1.0
  O  O16  1  0.78726218  0.58386419  0.45551161  1.0
  O  O17  1  1.28726218  -0.04448839  0.08386419  1.0
  O  O18  1  0.54448839  1.21273782  -0.58386419  1.0
  O  O19  1  1.04448839  0.91613581  -0.28726218  1.0
  O  O20  1  0.91613581  0.71273782  0.04448839  1.0
  O  O21  1  0.41613581  0.54448839  0.21273782  1.0
