# generated using pymatgen
data_NaZrS2
_symmetry_space_group_name_H-M   'P 1'
_cell_length_a   7.18717236
_cell_length_b   7.18717236
_cell_length_c   7.18717236
_cell_angle_alpha   29.61016593
_cell_angle_beta   29.61016593
_cell_angle_gamma   29.61016593
_symmetry_Int_Tables_number   1
_chemical_formula_structural   NaZrS2
_chemical_formula_sum   'Na1 Zr1 S2'
_cell_volume   80.23696137
_cell_formula_units_Z   1
loop_
 _symmetry_equiv_pos_site_id
 _symmetry_equiv_pos_as_xyz
  1  'x, y, z'
loop_
 _atom_site_type_symbol
 _atom_site_label
 _atom_site_symmetry_multiplicity
 _atom_site_fract_x
 _atom_site_fract_y
 _atom_site_fract_z
 _atom_site_occupancy
  Na  Na0  1  0.00000000  0.00000000  0.00000000  1.0
  Zr  Zr1  1  1.50000000  0.50000000  0.50000000  1.0
  S  S2  1  0.75856965  0.75856965  0.75856965  1.0
  S  S3  1  1.24143035  1.24143035  0.24143035  1.0
