# generated using pymatgen
data_LuSeClO3
_symmetry_space_group_name_H-M   'P 1'
_cell_length_a   7.36217041
_cell_length_b   6.91680990
_cell_length_c   8.71906679
_cell_angle_alpha   90.00000000
_cell_angle_beta   90.00000000
_cell_angle_gamma   90.00000000
_symmetry_Int_Tables_number   1
_chemical_formula_structural   LuSeClO3
_chemical_formula_sum   'Lu4 Se4 Cl4 O12'
_cell_volume   443.99871182
_cell_formula_units_Z   4
loop_
 _symmetry_equiv_pos_site_id
 _symmetry_equiv_pos_as_xyz
  1  'x, y, z'
loop_
 _atom_site_type_symbol
 _atom_site_label
 _atom_site_symmetry_multiplicity
 _atom_site_fract_x
 _atom_site_fract_y
 _atom_site_fract_z
 _atom_site_occupancy
  Lu  Lu0  1  0.59997414  0.75000000  0.54075770  1.0
  Lu  Lu1  1  0.09997414  0.75000000  0.95924230  1.0
  Lu  Lu2  1  0.40002586  0.25000000  0.45924230  1.0
  Lu  Lu3  1  0.90002586  0.25000000  0.04075770  1.0
  Se  Se4  1  0.71412529  0.75000000  0.13531120  1.0
  Se  Se5  1  0.21412529  0.75000000  0.36468880  1.0
  Se  Se6  1  0.28587471  0.25000000  0.86468880  1.0
  Se  Se7  1  0.78587471  0.25000000  0.63531120  1.0
  Cl  Cl8  1  0.92796124  0.75000000  0.68652088  1.0
  Cl  Cl9  1  0.42796124  0.75000000  0.81347912  1.0
  Cl  Cl10  1  0.07203876  0.25000000  0.31347912  1.0
  Cl  Cl11  1  0.57203876  0.25000000  0.18652088  1.0
  O  O12  1  0.86406688  0.92825128  0.07032058  1.0
  O  O13  1  0.86406688  0.57174872  0.07032058  1.0
  O  O14  1  0.36406688  0.92825128  0.42967942  1.0
  O  O15  1  0.36406688  0.57174872  0.42967942  1.0
  O  O16  1  0.13593312  0.42825128  0.92967942  1.0
  O  O17  1  0.13593312  0.07174872  0.92967942  1.0
  O  O18  1  0.63593312  0.42825128  0.57032058  1.0
  O  O19  1  0.63593312  0.07174872  0.57032058  1.0
  O  O20  1  0.75249290  0.75000000  0.32680895  1.0
  O  O21  1  0.25249290  0.75000000  0.17319105  1.0
  O  O22  1  0.24750710  0.25000000  0.67319105  1.0
  O  O23  1  0.74750710  0.25000000  0.82680895  1.0
