# generated using pymatgen
data_ZnS
_symmetry_space_group_name_H-M   'P 1'
_cell_length_a   3.84850276
_cell_length_b   3.84850276
_cell_length_c   44.07803585
_cell_angle_alpha   90.00000000
_cell_angle_beta   90.00000000
_cell_angle_gamma   120.00000000
_symmetry_Int_Tables_number   1
_chemical_formula_structural   ZnS
_chemical_formula_sum   'Zn14 S14'
_cell_volume   565.37482908
_cell_formula_units_Z   14
loop_
 _symmetry_equiv_pos_site_id
 _symmetry_equiv_pos_as_xyz
  1  'x, y, z'
loop_
 _atom_site_type_symbol
 _atom_site_label
 _atom_site_symmetry_multiplicity
 _atom_site_fract_x
 _atom_site_fract_y
 _atom_site_fract_z
 _atom_site_occupancy
  Zn  Zn0  1  0.00000000  0.00000000  0.42861127  1.0
  Zn  Zn1  1  0.00000000  0.00000000  0.57149816  1.0
  Zn  Zn2  1  0.00000000  0.00000000  0.78560472  1.0
  Zn  Zn3  1  0.00000000  0.00000000  0.92850446  1.0
  Zn  Zn4  1  0.66666667  0.33333333  0.07124614  1.0
  Zn  Zn5  1  0.66666667  0.33333333  0.21431721  1.0
  Zn  Zn6  1  0.66666667  0.33333333  0.35729301  1.0
  Zn  Zn7  1  0.66666667  0.33333333  0.64286578  1.0
  Zn  Zn8  1  0.66666667  0.33333333  0.85706287  1.0
  Zn  Zn9  1  0.33333333  0.66666667  -0.00018249  1.0
  Zn  Zn10  1  0.33333333  0.66666667  0.14278018  1.0
  Zn  Zn11  1  0.33333333  0.66666667  0.28585668  1.0
  Zn  Zn12  1  0.33333333  0.66666667  0.50005017  1.0
  Zn  Zn13  1  0.33333333  0.66666667  0.71425501  1.0
  S  S14  1  0.00000000  0.00000000  0.37512563  1.0
  S  S15  1  0.00000000  0.00000000  0.51799429  1.0
  S  S16  1  0.00000000  0.00000000  0.73210676  1.0
  S  S17  1  0.00000000  0.00000000  0.87500419  1.0
  S  S18  1  0.66666667  0.33333333  0.01767031  1.0
  S  S19  1  0.66666667  0.33333333  0.16073695  1.0
  S  S20  1  0.66666667  0.33333333  0.30379490  1.0
  S  S21  1  0.66666667  0.33333333  0.58934812  1.0
  S  S22  1  0.66666667  0.33333333  0.80346714  1.0
  S  S23  1  0.33333333  0.66666667  0.08920231  1.0
  S  S24  1  0.33333333  0.66666667  0.23226717  1.0
  S  S25  1  0.33333333  0.66666667  0.44645767  1.0
  S  S26  1  0.33333333  0.66666667  0.66073137  1.0
  S  S27  1  0.33333333  0.66666667  0.94633002  1.0
