# generated using pymatgen
data_Eu3SbO7
_symmetry_space_group_name_H-M   'P 1'
_cell_length_a   6.60803791
_cell_length_b   6.60803791
_cell_length_c   7.72135909
_cell_angle_alpha   90.00000000
_cell_angle_beta   90.00000000
_cell_angle_gamma   110.04987938
_symmetry_Int_Tables_number   1
_chemical_formula_structural   Eu3SbO7
_chemical_formula_sum   'Eu6 Sb2 O14'
_cell_volume   316.72826577
_cell_formula_units_Z   2
loop_
 _symmetry_equiv_pos_site_id
 _symmetry_equiv_pos_as_xyz
  1  'x, y, z'
loop_
 _atom_site_type_symbol
 _atom_site_label
 _atom_site_symmetry_multiplicity
 _atom_site_fract_x
 _atom_site_fract_y
 _atom_site_fract_z
 _atom_site_occupancy
  O  O0  1  0.07159656  0.31877697  0.47178957  1.0
  O  O1  1  0.07159656  0.31877697  0.02821043  1.0
  O  O2  1  -0.68122303  1.07159656  0.97178957  1.0
  O  O3  1  -0.68122303  1.07159656  0.52821043  1.0
  O  O4  1  0.68122303  0.92840344  0.47178957  1.0
  O  O5  1  0.68122303  0.92840344  0.02821043  1.0
  O  O6  1  -0.07159656  1.68122303  0.97178957  1.0
  O  O7  1  -0.07159656  1.68122303  0.52821043  1.0
  O  O8  1  0.06412413  0.93587587  0.25000000  1.0
  O  O9  1  -0.06412413  1.06412413  0.75000000  1.0
  O  O10  1  0.36324724  0.63675276  0.25000000  1.0
  O  O11  1  -0.36324724  1.36324724  0.75000000  1.0
  O  O12  1  -0.37057387  1.37057387  0.25000000  1.0
  O  O13  1  0.37057387  0.62942613  0.75000000  1.0
  Eu  Eu14  1  0.50000000  0.50000000  0.50000000  1.0
  Eu  Eu15  1  0.50000000  0.50000000  0.00000000  1.0
  Eu  Eu16  1  -0.00178095  1.52896546  0.25000000  1.0
  Eu  Eu17  1  0.52896546  0.99821905  0.75000000  1.0
  Eu  Eu18  1  -0.52896546  1.00178095  0.25000000  1.0
  Eu  Eu19  1  0.00178095  0.47103454  0.75000000  1.0
  Sb  Sb20  1  0.00000000  0.00000000  0.50000000  1.0
  Sb  Sb21  1  0.00000000  0.00000000  0.00000000  1.0
