# generated using pymatgen
data_SrCoAs2O7
_symmetry_space_group_name_H-M   'P 1'
_cell_length_a   5.61708317
_cell_length_b   8.44078704
_cell_length_c   14.45879012
_cell_angle_alpha   90.00000000
_cell_angle_beta   111.89664042
_cell_angle_gamma   90.00000000
_symmetry_Int_Tables_number   1
_chemical_formula_structural   SrCoAs2O7
_chemical_formula_sum   'Sr4 Co4 As8 O28'
_cell_volume   636.07353289
_cell_formula_units_Z   4
loop_
 _symmetry_equiv_pos_site_id
 _symmetry_equiv_pos_as_xyz
  1  'x, y, z'
loop_
 _atom_site_type_symbol
 _atom_site_label
 _atom_site_symmetry_multiplicity
 _atom_site_fract_x
 _atom_site_fract_y
 _atom_site_fract_z
 _atom_site_occupancy
  Sr  Sr0  1  0.98829289  0.17383704  0.28029786  1.0
  Sr  Sr1  1  0.98829289  0.32616296  0.78029786  1.0
  Sr  Sr2  1  0.01170711  0.67383704  0.21970214  1.0
  Sr  Sr3  1  0.01170711  0.82616296  0.71970214  1.0
  Co  Co4  1  0.72986729  0.85881642  0.39357093  1.0
  Co  Co5  1  0.72986729  0.64118358  0.89357093  1.0
  Co  Co6  1  0.27013271  0.35881642  0.10642907  1.0
  Co  Co7  1  0.27013271  0.14118358  0.60642907  1.0
  As  As8  1  0.66010159  0.19537304  0.48520035  1.0
  As  As9  1  0.66010159  0.30462696  0.98520035  1.0
  As  As10  1  0.33989841  0.69537304  0.01479965  1.0
  As  As11  1  0.33989841  0.80462696  0.51479965  1.0
  As  As12  1  0.58021176  0.47941890  0.33479997  1.0
  As  As13  1  0.58021176  0.02058110  0.83479997  1.0
  As  As14  1  0.41978824  0.97941890  0.16520003  1.0
  As  As15  1  0.41978824  0.52058110  0.66520003  1.0
  O  O16  1  0.91050470  0.32325690  0.09961660  1.0
  O  O17  1  0.91050470  0.17674310  0.59961660  1.0
  O  O18  1  0.08949530  0.82325690  0.40038340  1.0
  O  O19  1  0.08949530  0.67674310  0.90038340  1.0
  O  O20  1  0.82603395  0.45553652  0.29388733  1.0
  O  O21  1  0.82603395  0.04446348  0.79388733  1.0
  O  O22  1  0.17396605  0.95553652  0.20611267  1.0
  O  O23  1  0.17396605  0.54446348  0.70611267  1.0
  O  O24  1  0.72557304  0.09463623  0.39171849  1.0
  O  O25  1  0.72557304  0.40536377  0.89171849  1.0
  O  O26  1  0.27442696  0.59463623  0.10828151  1.0
  O  O27  1  0.27442696  0.90536377  0.60828151  1.0
  O  O28  1  0.68618452  0.40395883  0.46078242  1.0
  O  O29  1  0.68618452  0.09604117  0.96078242  1.0
  O  O30  1  0.31381548  0.90395883  0.03921758  1.0
  O  O31  1  0.31381548  0.59604117  0.53921758  1.0
  O  O32  1  0.50303033  0.17391500  0.15549544  1.0
  O  O33  1  0.50303033  0.32608500  0.65549544  1.0
  O  O34  1  0.49696967  0.67391500  0.34450456  1.0
  O  O35  1  0.49696967  0.82608500  0.84450456  1.0
  O  O36  1  0.34865915  0.15518952  0.47516557  1.0
  O  O37  1  0.34865915  0.34481048  0.97516557  1.0
  O  O38  1  0.65134085  0.65518952  0.02483443  1.0
  O  O39  1  0.65134085  0.84481048  0.52483443  1.0
  O  O40  1  0.29827241  0.38556734  0.26357404  1.0
  O  O41  1  0.29827241  0.11443266  0.76357404  1.0
  O  O42  1  0.70172759  0.88556734  0.23642596  1.0
  O  O43  1  0.70172759  0.61443266  0.73642596  1.0
