# generated using pymatgen
data_SiIr3
_symmetry_space_group_name_H-M   'P 1'
_cell_length_a   5.48189899
_cell_length_b   5.48189899
_cell_length_c   5.48189899
_cell_angle_alpha   122.51476190
_cell_angle_beta   122.51476190
_cell_angle_gamma   85.69683735
_symmetry_Int_Tables_number   1
_chemical_formula_structural   SiIr3
_chemical_formula_sum   'Si2 Ir6'
_cell_volume   111.71590770
_cell_formula_units_Z   2
loop_
 _symmetry_equiv_pos_site_id
 _symmetry_equiv_pos_as_xyz
  1  'x, y, z'
loop_
 _atom_site_type_symbol
 _atom_site_label
 _atom_site_symmetry_multiplicity
 _atom_site_fract_x
 _atom_site_fract_y
 _atom_site_fract_z
 _atom_site_occupancy
  Si  Si0  1  0.25000000  0.75000000  0.50000000  1.0
  Si  Si1  1  0.75000000  0.25000000  0.50000000  1.0
  Ir  Ir2  1  0.31558025  0.81558025  1.13116049  1.0
  Ir  Ir3  1  0.18441975  0.31558025  0.50000000  1.0
  Ir  Ir4  1  0.81558025  0.68441975  1.50000000  1.0
  Ir  Ir5  1  0.68441975  0.18441975  0.86883951  1.0
  Ir  Ir6  1  0.75000000  0.75000000  1.00000000  1.0
  Ir  Ir7  1  0.25000000  0.25000000  -0.00000000  1.0
