# generated using pymatgen
data_Lu2Si4Mo3
_symmetry_space_group_name_H-M   'P 1'
_cell_length_a   6.66920025
_cell_length_b   12.82369885
_cell_length_c   6.88765701
_cell_angle_alpha   90.00000000
_cell_angle_beta   90.00000000
_cell_angle_gamma   90.00000000
_symmetry_Int_Tables_number   1
_chemical_formula_structural   Lu2Si4Mo3
_chemical_formula_sum   'Lu8 Si16 Mo12'
_cell_volume   589.05870812
_cell_formula_units_Z   4
loop_
 _symmetry_equiv_pos_site_id
 _symmetry_equiv_pos_as_xyz
  1  'x, y, z'
loop_
 _atom_site_type_symbol
 _atom_site_label
 _atom_site_symmetry_multiplicity
 _atom_site_fract_x
 _atom_site_fract_y
 _atom_site_fract_z
 _atom_site_occupancy
  Lu  Lu0  1  0.49692800  0.09339488  0.33146877  1.0
  Lu  Lu1  1  0.99692800  0.40660512  0.16853123  1.0
  Lu  Lu2  1  0.50307200  0.59339488  0.66853123  1.0
  Lu  Lu3  1  0.00307200  0.90660512  0.83146877  1.0
  Lu  Lu4  1  0.50307200  0.90660512  0.66853123  1.0
  Lu  Lu5  1  0.00307200  0.59339488  0.83146877  1.0
  Lu  Lu6  1  0.49692800  0.40660512  0.33146877  1.0
  Lu  Lu7  1  0.99692800  0.09339488  0.16853123  1.0
  Si  Si8  1  0.66171885  0.54598738  0.04027752  1.0
  Si  Si9  1  0.16171885  0.95401262  0.45972248  1.0
  Si  Si10  1  0.33828115  0.04598738  0.95972248  1.0
  Si  Si11  1  0.83828115  0.45401262  0.54027752  1.0
  Si  Si12  1  0.33828115  0.45401262  0.95972248  1.0
  Si  Si13  1  0.83828115  0.04598738  0.54027752  1.0
  Si  Si14  1  0.66171885  0.95401262  0.04027752  1.0
  Si  Si15  1  0.16171885  0.54598738  0.45972248  1.0
  Si  Si16  1  0.53365577  0.75000000  0.36873477  1.0
  Si  Si17  1  0.03365577  0.75000000  0.13126523  1.0
  Si  Si18  1  0.46634423  0.25000000  0.63126523  1.0
  Si  Si19  1  0.96634423  0.25000000  0.86873477  1.0
  Si  Si20  1  0.80139485  0.75000000  0.63373584  1.0
  Si  Si21  1  0.30139485  0.75000000  0.86626416  1.0
  Si  Si22  1  0.19860515  0.25000000  0.36626416  1.0
  Si  Si23  1  0.69860515  0.25000000  0.13373584  1.0
  Mo  Mo24  1  0.82980002  0.62410536  0.33424051  1.0
  Mo  Mo25  1  0.32980002  0.87589464  0.16575949  1.0
  Mo  Mo26  1  0.17019998  0.12410536  0.66575949  1.0
  Mo  Mo27  1  0.67019998  0.37589464  0.83424051  1.0
  Mo  Mo28  1  0.17019998  0.37589464  0.66575949  1.0
  Mo  Mo29  1  0.67019998  0.12410536  0.83424051  1.0
  Mo  Mo30  1  0.82980002  0.87589464  0.33424051  1.0
  Mo  Mo31  1  0.32980002  0.62410536  0.16575949  1.0
  Mo  Mo32  1  0.66555265  0.75000000  0.99677384  1.0
  Mo  Mo33  1  0.16555265  0.75000000  0.50322616  1.0
  Mo  Mo34  1  0.33444735  0.25000000  0.00322616  1.0
  Mo  Mo35  1  0.83444735  0.25000000  0.49677384  1.0
