# generated using pymatgen
data_NbNF6
_symmetry_space_group_name_H-M   'P 1'
_cell_length_a   5.68514598
_cell_length_b   5.68514598
_cell_length_c   5.68514598
_cell_angle_alpha   65.32911076
_cell_angle_beta   65.32911076
_cell_angle_gamma   65.32911076
_symmetry_Int_Tables_number   1
_chemical_formula_structural   NbNF6
_chemical_formula_sum   'Nb1 N1 F6'
_cell_volume   145.00632525
_cell_formula_units_Z   1
loop_
 _symmetry_equiv_pos_site_id
 _symmetry_equiv_pos_as_xyz
  1  'x, y, z'
loop_
 _atom_site_type_symbol
 _atom_site_label
 _atom_site_symmetry_multiplicity
 _atom_site_fract_x
 _atom_site_fract_y
 _atom_site_fract_z
 _atom_site_occupancy
  Nb  Nb0  1  -0.00000000  0.00000000  -0.00000000  1.0
  N  N1  1  0.50000000  0.50000000  0.50000000  1.0
  F  F2  1  1.23039946  0.23039946  -0.21169650  1.0
  F  F3  1  1.23039946  -0.21169650  0.23039946  1.0
  F  F4  1  1.21169650  0.76960054  -0.23039946  1.0
  F  F5  1  0.76960054  1.21169650  -0.23039946  1.0
  F  F6  1  0.76960054  0.76960054  0.21169650  1.0
  F  F7  1  0.78830350  0.23039946  0.23039946  1.0
