# generated using pymatgen
data_CuAuSe4
_symmetry_space_group_name_H-M   'P 1'
_cell_length_a   4.49639066
_cell_length_b   7.52661946
_cell_length_c   8.18689973
_cell_angle_alpha   90.00000000
_cell_angle_beta   93.52931916
_cell_angle_gamma   90.00000000
_symmetry_Int_Tables_number   1
_chemical_formula_structural   CuAuSe4
_chemical_formula_sum   'Cu2 Au2 Se8'
_cell_volume   276.54067225
_cell_formula_units_Z   2
loop_
 _symmetry_equiv_pos_site_id
 _symmetry_equiv_pos_as_xyz
  1  'x, y, z'
loop_
 _atom_site_type_symbol
 _atom_site_label
 _atom_site_symmetry_multiplicity
 _atom_site_fract_x
 _atom_site_fract_y
 _atom_site_fract_z
 _atom_site_occupancy
  Cu  Cu0  1  0.53257001  0.75000000  0.65935450  1.0
  Cu  Cu1  1  0.46742999  0.25000000  0.34064550  1.0
  Au  Au2  1  0.00000000  0.00000000  0.00000000  1.0
  Au  Au3  1  0.00000000  0.50000000  0.00000000  1.0
  Se  Se4  1  0.89805805  0.50210600  0.69449230  1.0
  Se  Se5  1  0.89805805  -0.00210600  0.69449230  1.0
  Se  Se6  1  0.10194195  1.00210600  0.30550770  1.0
  Se  Se7  1  0.10194195  0.49789400  0.30550770  1.0
  Se  Se8  1  0.43342779  0.75000000  0.36592642  1.0
  Se  Se9  1  0.56657221  0.25000000  0.63407358  1.0
  Se  Se10  1  0.34572504  0.75000000  0.93178704  1.0
  Se  Se11  1  0.65427496  0.25000000  0.06821296  1.0
