# generated using pymatgen
data_Zr5Ir3
_symmetry_space_group_name_H-M   'P 1'
_cell_length_a   7.96664864
_cell_length_b   7.96664864
_cell_length_c   17.16400291
_cell_angle_alpha   90.00000000
_cell_angle_beta   90.00000000
_cell_angle_gamma   120.00000000
_symmetry_Int_Tables_number   1
_chemical_formula_structural   Zr5Ir3
_chemical_formula_sum   'Zr30 Ir18'
_cell_volume   943.41013641
_cell_formula_units_Z   6
loop_
 _symmetry_equiv_pos_site_id
 _symmetry_equiv_pos_as_xyz
  1  'x, y, z'
loop_
 _atom_site_type_symbol
 _atom_site_label
 _atom_site_symmetry_multiplicity
 _atom_site_fract_x
 _atom_site_fract_y
 _atom_site_fract_z
 _atom_site_occupancy
  Zr  Zr0  1  0.77097717  0.76238212  0.00697469  1.0
  Zr  Zr1  1  0.77097717  0.00859505  0.15969197  1.0
  Zr  Zr2  1  0.76238212  0.77097717  0.32635864  1.0
  Zr  Zr3  1  0.76238212  0.99140495  0.84030803  1.0
  Zr  Zr4  1  0.99140495  0.76238212  0.49302531  1.0
  Zr  Zr5  1  0.99140495  0.22902283  0.67364136  1.0
  Zr  Zr6  1  0.23761788  0.22902283  0.82635864  1.0
  Zr  Zr7  1  0.23761788  0.00859505  0.34030803  1.0
  Zr  Zr8  1  0.22902283  0.99140495  0.65969197  1.0
  Zr  Zr9  1  0.22902283  0.23761788  0.50697469  1.0
  Zr  Zr10  1  0.00859505  0.77097717  0.17364136  1.0
  Zr  Zr11  1  0.00859505  0.23761788  0.99302531  1.0
  Zr  Zr12  1  0.37628583  0.62371417  0.91666667  1.0
  Zr  Zr13  1  0.37628583  0.75257166  0.25000000  1.0
  Zr  Zr14  1  0.62371417  0.37628583  0.41666667  1.0
  Zr  Zr15  1  0.62371417  0.24742834  0.75000000  1.0
  Zr  Zr16  1  0.24742834  0.62371417  0.58333333  1.0
  Zr  Zr17  1  0.75257166  0.37628583  0.08333333  1.0
  Zr  Zr18  1  0.65527720  0.34472280  0.91666667  1.0
  Zr  Zr19  1  0.65527720  0.31055439  0.25000000  1.0
  Zr  Zr20  1  0.34472280  0.65527720  0.41666667  1.0
  Zr  Zr21  1  0.34472280  0.68944561  0.75000000  1.0
  Zr  Zr22  1  0.68944561  0.34472280  0.58333333  1.0
  Zr  Zr23  1  0.31055439  0.65527720  0.08333333  1.0
  Zr  Zr24  1  0.74971954  0.74971954  0.66666667  1.0
  Zr  Zr25  1  0.74971954  0.00000000  0.50000000  1.0
  Zr  Zr26  1  -0.00000000  0.74971954  0.83333333  1.0
  Zr  Zr27  1  -0.00000000  0.25028046  0.33333333  1.0
  Zr  Zr28  1  0.25028046  0.25028046  0.16666667  1.0
  Zr  Zr29  1  0.25028046  0.00000000  0.00000000  1.0
  Ir  Ir30  1  0.60622480  0.58425241  0.80975802  1.0
  Ir  Ir31  1  0.60622480  0.02197239  0.35690864  1.0
  Ir  Ir32  1  0.58425241  0.60622480  0.52357531  1.0
  Ir  Ir33  1  0.58425241  0.97802761  0.64309136  1.0
  Ir  Ir34  1  0.97802761  0.58425241  0.69024198  1.0
  Ir  Ir35  1  0.97802761  0.39377520  0.47642469  1.0
  Ir  Ir36  1  0.41574759  0.39377520  0.02357531  1.0
  Ir  Ir37  1  0.41574759  0.02197239  0.14309136  1.0
  Ir  Ir38  1  0.39377520  0.97802761  0.85690864  1.0
  Ir  Ir39  1  0.39377520  0.41574759  0.30975802  1.0
  Ir  Ir40  1  0.02197239  0.60622480  0.97642469  1.0
  Ir  Ir41  1  0.02197239  0.41574759  0.19024198  1.0
  Ir  Ir42  1  0.38228414  0.38228414  0.66666667  1.0
  Ir  Ir43  1  0.38228414  0.00000000  0.50000000  1.0
  Ir  Ir44  1  -0.00000000  0.38228414  0.83333333  1.0
  Ir  Ir45  1  -0.00000000  0.61771586  0.33333333  1.0
  Ir  Ir46  1  0.61771586  0.61771586  0.16666667  1.0
  Ir  Ir47  1  0.61771586  0.00000000  0.00000000  1.0
