# generated using pymatgen
data_MnH8C2S2(NO2)2
_symmetry_space_group_name_H-M   'P 1'
_cell_length_a   8.20421998
_cell_length_b   9.20305363
_cell_length_c   7.91706229
_cell_angle_alpha   90.00000000
_cell_angle_beta   117.47617943
_cell_angle_gamma   90.00000000
_symmetry_Int_Tables_number   1
_chemical_formula_structural   MnH8C2S2(NO2)2
_chemical_formula_sum   'Mn2 H16 C4 S4 N4 O8'
_cell_volume   530.34219159
_cell_formula_units_Z   2
loop_
 _symmetry_equiv_pos_site_id
 _symmetry_equiv_pos_as_xyz
  1  'x, y, z'
loop_
 _atom_site_type_symbol
 _atom_site_label
 _atom_site_symmetry_multiplicity
 _atom_site_fract_x
 _atom_site_fract_y
 _atom_site_fract_z
 _atom_site_occupancy
  Mn  Mn0  1  0.00000000  0.00000000  0.00000000  1.0
  Mn  Mn1  1  -0.00000000  0.50000000  0.50000000  1.0
  H  H2  1  0.85113898  0.19998443  0.67318191  1.0
  H  H3  1  0.85113898  0.30001557  0.17318191  1.0
  H  H4  1  0.14886102  0.69998443  0.82681809  1.0
  H  H5  1  0.14886102  0.80001557  0.32681809  1.0
  H  H6  1  0.75153577  0.44449204  0.65713756  1.0
  H  H7  1  0.75153577  0.05550796  0.15713756  1.0
  H  H8  1  0.24846423  0.94449204  0.84286244  1.0
  H  H9  1  0.24846423  0.55550796  0.34286244  1.0
  H  H10  1  0.66538740  0.38097622  0.45243867  1.0
  H  H11  1  0.66538740  0.11902378  0.95243867  1.0
  H  H12  1  0.33461260  0.88097622  0.04756133  1.0
  H  H13  1  0.33461260  0.61902378  0.54756133  1.0
  H  H14  1  0.21700015  0.54101152  0.89851883  1.0
  H  H15  1  0.21700015  0.95898848  0.39851883  1.0
  H  H16  1  0.78299985  0.04101152  0.60148117  1.0
  H  H17  1  0.78299985  0.45898848  0.10148117  1.0
  C  C18  1  0.73687003  0.71424323  0.85678922  1.0
  C  C19  1  0.73687003  0.78575677  0.35678922  1.0
  C  C20  1  0.26312997  0.21424323  0.64321078  1.0
  C  C21  1  0.26312997  0.28575677  0.14321078  1.0
  S  S22  1  0.61128557  0.56665709  0.80717986  1.0
  S  S23  1  0.61128557  0.93334291  0.30717986  1.0
  S  S24  1  0.38871443  0.06665709  0.69282014  1.0
  S  S25  1  0.38871443  0.43334291  0.19282014  1.0
  N  N26  1  0.82737131  0.82044074  0.89473259  1.0
  N  N27  1  0.82737131  0.67955926  0.39473259  1.0
  N  N28  1  0.17262869  0.32044074  0.60526741  1.0
  N  N29  1  0.17262869  0.17955926  0.10526741  1.0
  O  O30  1  0.86958964  0.09692231  0.71280598  1.0
  O  O31  1  0.86958964  0.40307769  0.21280598  1.0
  O  O32  1  0.13041036  0.59692231  0.78719402  1.0
  O  O33  1  0.13041036  0.90307769  0.28719402  1.0
  O  O34  1  0.78254562  0.38431016  0.57193869  1.0
  O  O35  1  0.78254562  0.11568984  0.07193869  1.0
  O  O36  1  0.21745438  0.88431016  0.92806131  1.0
  O  O37  1  0.21745438  0.61568984  0.42806131  1.0
