# generated using pymatgen
data_Cd4H2Se2Cl4O7
_symmetry_space_group_name_H-M   'P 1'
_cell_length_a   16.04943014
_cell_length_b   10.34387389
_cell_length_c   13.16563036
_cell_angle_alpha   85.20966025
_cell_angle_beta   39.95978186
_cell_angle_gamma   54.83055788
_symmetry_Int_Tables_number   1
_chemical_formula_structural   Cd4H2Se2Cl4O7
_chemical_formula_sum   'Cd8 H4 Se4 Cl8 O14'
_cell_volume   839.35942427
_cell_formula_units_Z   2
loop_
 _symmetry_equiv_pos_site_id
 _symmetry_equiv_pos_as_xyz
  1  'x, y, z'
loop_
 _atom_site_type_symbol
 _atom_site_label
 _atom_site_symmetry_multiplicity
 _atom_site_fract_x
 _atom_site_fract_y
 _atom_site_fract_z
 _atom_site_occupancy
  Cd  Cd0  1  1.43419030  -0.22040432  0.22040432  1.0
  Cd  Cd1  1  1.22040432  0.56580970  0.43419030  1.0
  Cd  Cd2  1  0.77959568  0.43419030  0.56580970  1.0
  Cd  Cd3  1  1.56580970  0.22040432  -0.22040432  1.0
  Cd  Cd4  1  -0.00000000  1.50000000  0.00000000  1.0
  Cd  Cd5  1  0.50000000  1.00000000  -0.50000000  1.0
  Cd  Cd6  1  1.25000000  0.25000000  0.25000000  1.0
  Cd  Cd7  1  0.75000000  0.75000000  0.75000000  1.0
  H  H8  1  0.63162782  0.57255053  0.42744947  1.0
  H  H9  1  1.42744947  0.36837218  -0.36837218  1.0
  H  H10  1  1.57255053  -0.36837218  0.36837218  1.0
  H  H11  1  1.36837218  0.42744947  0.57255053  1.0
  Se  Se12  1  1.31445015  -0.05460798  0.05460798  1.0
  Se  Se13  1  1.05460798  0.68554985  0.31445015  1.0
  Se  Se14  1  0.94539202  0.31445015  0.68554985  1.0
  Se  Se15  1  1.68554985  0.05460798  -0.05460798  1.0
  Cl  Cl16  1  0.56465632  -0.56465632  1.09192505  1.0
  Cl  Cl17  1  0.09192505  -0.09192505  1.56465632  1.0
  Cl  Cl18  1  0.43534368  -0.43534368  0.90807495  1.0
  Cl  Cl19  1  -0.09192505  0.09192505  1.43534368  1.0
  Cl  Cl20  1  0.20380938  -0.20380938  1.70837090  1.0
  Cl  Cl21  1  0.70837090  -0.70837090  1.20380938  1.0
  Cl  Cl22  1  -0.20380938  0.20380938  1.29162910  1.0
  Cl  Cl23  1  0.29162910  -0.29162910  0.79619062  1.0
  O  O24  1  1.41805634  -0.08140839  0.08140839  1.0
  O  O25  1  1.08140839  0.58194366  0.41805634  1.0
  O  O26  1  0.91859161  0.41805634  0.58194366  1.0
  O  O27  1  1.58194366  0.08140839  -0.08140839  1.0
  O  O28  1  1.12907246  0.21619902  0.19498612  1.0
  O  O29  1  1.19498612  0.45974240  0.12907246  1.0
  O  O30  1  1.21619902  0.12907246  0.45974240  1.0
  O  O31  1  1.45974240  0.19498612  0.21619902  1.0
  O  O32  1  0.87092754  0.78380098  0.80501388  1.0
  O  O33  1  0.80501388  0.54025760  0.87092754  1.0
  O  O34  1  0.78380098  0.87092754  0.54025760  1.0
  O  O35  1  0.54025760  0.80501388  0.78380098  1.0
  O  O36  1  0.63419975  0.63419975  -0.63419975  1.0
  O  O37  1  0.36580025  1.36580025  -0.36580025  1.0
