# generated using pymatgen
data_K3MnO4
_symmetry_space_group_name_H-M   'P 1'
_cell_length_a   8.34286679
_cell_length_b   8.34286679
_cell_length_c   8.34286679
_cell_angle_alpha   90.00000000
_cell_angle_beta   90.00000000
_cell_angle_gamma   90.00000000
_symmetry_Int_Tables_number   1
_chemical_formula_structural   K3MnO4
_chemical_formula_sum   'K12 Mn4 O16'
_cell_volume   580.69211439
_cell_formula_units_Z   4
loop_
 _symmetry_equiv_pos_site_id
 _symmetry_equiv_pos_as_xyz
  1  'x, y, z'
loop_
 _atom_site_type_symbol
 _atom_site_label
 _atom_site_symmetry_multiplicity
 _atom_site_fract_x
 _atom_site_fract_y
 _atom_site_fract_z
 _atom_site_occupancy
  K  K0  1  0.53022248  0.03022248  0.46977752  1.0
  K  K1  1  0.03022248  0.46977752  0.53022248  1.0
  K  K2  1  0.46977752  0.53022248  0.03022248  1.0
  K  K3  1  -0.03022248  -0.03022248  -0.03022248  1.0
  K  K4  1  0.28394828  0.78394828  0.71605172  1.0
  K  K5  1  0.78394828  0.71605172  0.28394828  1.0
  K  K6  1  0.71605172  0.28394828  0.78394828  1.0
  K  K7  1  0.21605172  0.21605172  0.21605172  1.0
  K  K8  1  0.76265145  0.26265145  0.23734855  1.0
  K  K9  1  0.26265145  0.23734855  0.76265145  1.0
  K  K10  1  0.23734855  0.76265145  0.26265145  1.0
  K  K11  1  0.73734855  0.73734855  0.73734855  1.0
  Mn  Mn12  1  0.98590258  0.48590258  0.01409742  1.0
  Mn  Mn13  1  0.48590258  0.01409742  0.98590258  1.0
  Mn  Mn14  1  0.01409742  0.98590258  0.48590258  1.0
  Mn  Mn15  1  0.51409742  0.51409742  0.51409742  1.0
  O  O16  1  0.53800953  0.99731789  0.78762566  1.0
  O  O17  1  1.03800953  0.50268211  0.21237434  1.0
  O  O18  1  0.49731789  0.71237434  0.46199047  1.0
  O  O19  1  0.99731789  0.78762566  0.53800953  1.0
  O  O20  1  0.21237434  1.03800953  0.50268211  1.0
  O  O21  1  0.71237434  0.46199047  0.49731789  1.0
  O  O22  1  0.46199047  0.49731789  0.71237434  1.0
  O  O23  1  -0.03800953  0.00268211  0.28762566  1.0
  O  O24  1  0.50268211  0.21237434  1.03800953  1.0
  O  O25  1  0.00268211  0.28762566  -0.03800953  1.0
  O  O26  1  0.78762566  0.53800953  0.99731789  1.0
  O  O27  1  0.28762566  -0.03800953  0.00268211  1.0
  O  O28  1  0.10247181  0.60247181  0.89752819  1.0
  O  O29  1  0.60247181  0.89752819  0.10247181  1.0
  O  O30  1  0.89752819  0.10247181  0.60247181  1.0
  O  O31  1  0.39752819  0.39752819  0.39752819  1.0
