# generated using pymatgen
data_Lu5(Co2Ge5)2
_symmetry_space_group_name_H-M   'P 1'
_cell_length_a   12.62852362
_cell_length_b   12.62852362
_cell_length_c   4.13722665
_cell_angle_alpha   90.00000000
_cell_angle_beta   90.00000000
_cell_angle_gamma   90.00000000
_symmetry_Int_Tables_number   1
_chemical_formula_structural   Lu5(Co2Ge5)2
_chemical_formula_sum   'Lu10 Co8 Ge20'
_cell_volume   659.80328660
_cell_formula_units_Z   2
loop_
 _symmetry_equiv_pos_site_id
 _symmetry_equiv_pos_as_xyz
  1  'x, y, z'
loop_
 _atom_site_type_symbol
 _atom_site_label
 _atom_site_symmetry_multiplicity
 _atom_site_fract_x
 _atom_site_fract_y
 _atom_site_fract_z
 _atom_site_occupancy
  Lu  Lu0  1  0.32340823  0.17659177  0.50000000  1.0
  Lu  Lu1  1  0.82340823  0.32340823  0.50000000  1.0
  Lu  Lu2  1  0.67659177  0.82340823  0.50000000  1.0
  Lu  Lu3  1  0.17659177  0.67659177  0.50000000  1.0
  Lu  Lu4  1  0.88941933  0.61058067  0.50000000  1.0
  Lu  Lu5  1  0.38941933  0.88941933  0.50000000  1.0
  Lu  Lu6  1  0.11058067  0.38941933  0.50000000  1.0
  Lu  Lu7  1  0.61058067  0.11058067  0.50000000  1.0
  Lu  Lu8  1  0.50000000  0.50000000  0.00000000  1.0
  Lu  Lu9  1  0.00000000  0.00000000  0.00000000  1.0
  Co  Co10  1  0.25492148  0.52494433  0.00000000  1.0
  Co  Co11  1  0.75492148  0.97505567  0.00000000  1.0
  Co  Co12  1  0.47505567  0.25492148  0.00000000  1.0
  Co  Co13  1  0.97505567  0.24507852  0.00000000  1.0
  Co  Co14  1  0.74507852  0.47505567  0.00000000  1.0
  Co  Co15  1  0.24507852  0.02494433  0.00000000  1.0
  Co  Co16  1  0.52494433  0.74507852  0.00000000  1.0
  Co  Co17  1  0.02494433  0.75492148  0.00000000  1.0
  Ge  Ge18  1  0.33562410  0.50614192  0.50000000  1.0
  Ge  Ge19  1  0.83562410  0.99385808  0.50000000  1.0
  Ge  Ge20  1  0.49385808  0.33562410  0.50000000  1.0
  Ge  Ge21  1  0.99385808  0.16437590  0.50000000  1.0
  Ge  Ge22  1  0.66437590  0.49385808  0.50000000  1.0
  Ge  Ge23  1  0.16437590  0.00614192  0.50000000  1.0
  Ge  Ge24  1  0.50614192  0.66437590  0.50000000  1.0
  Ge  Ge25  1  0.00614192  0.83562410  0.50000000  1.0
  Ge  Ge26  1  0.34437803  0.69907993  0.00000000  1.0
  Ge  Ge27  1  0.84437803  0.80092007  0.00000000  1.0
  Ge  Ge28  1  0.30092007  0.34437803  0.00000000  1.0
  Ge  Ge29  1  0.80092007  0.15562197  0.00000000  1.0
  Ge  Ge30  1  0.65562197  0.30092007  0.00000000  1.0
  Ge  Ge31  1  0.15562197  0.19907993  0.00000000  1.0
  Ge  Ge32  1  0.69907993  0.65562197  0.00000000  1.0
  Ge  Ge33  1  0.19907993  0.84437803  0.00000000  1.0
  Ge  Ge34  1  0.43026166  0.06973834  0.00000000  1.0
  Ge  Ge35  1  0.93026166  0.43026166  0.00000000  1.0
  Ge  Ge36  1  0.56973834  0.93026166  0.00000000  1.0
  Ge  Ge37  1  0.06973834  0.56973834  0.00000000  1.0
