# generated using pymatgen
data_HfSb2
_symmetry_space_group_name_H-M   'P 1'
_cell_length_a   9.97685188
_cell_length_b   15.11656745
_cell_length_c   3.90414106
_cell_angle_alpha   90.00000000
_cell_angle_beta   90.00000000
_cell_angle_gamma   90.00000000
_symmetry_Int_Tables_number   1
_chemical_formula_structural   HfSb2
_chemical_formula_sum   'Hf8 Sb16'
_cell_volume   588.80597876
_cell_formula_units_Z   8
loop_
 _symmetry_equiv_pos_site_id
 _symmetry_equiv_pos_as_xyz
  1  'x, y, z'
loop_
 _atom_site_type_symbol
 _atom_site_label
 _atom_site_symmetry_multiplicity
 _atom_site_fract_x
 _atom_site_fract_y
 _atom_site_fract_z
 _atom_site_occupancy
  Hf  Hf0  1  0.47802721  0.74825210  0.50000000  1.0
  Hf  Hf1  1  0.97802721  0.75174790  0.00000000  1.0
  Hf  Hf2  1  0.52197279  0.25174790  0.50000000  1.0
  Hf  Hf3  1  0.02197279  0.24825210  0.00000000  1.0
  Hf  Hf4  1  0.33342716  0.00615643  0.50000000  1.0
  Hf  Hf5  1  0.83342716  0.49384357  0.00000000  1.0
  Hf  Hf6  1  0.66657284  0.99384357  0.50000000  1.0
  Hf  Hf7  1  0.16657284  0.50615643  0.00000000  1.0
  Sb  Sb8  1  0.15939507  0.84477416  0.50000000  1.0
  Sb  Sb9  1  0.65939507  0.65522584  0.00000000  1.0
  Sb  Sb10  1  0.84060493  0.15522584  0.50000000  1.0
  Sb  Sb11  1  0.34060493  0.34477416  0.00000000  1.0
  Sb  Sb12  1  0.38112898  0.55722895  0.50000000  1.0
  Sb  Sb13  1  0.88112898  0.94277105  0.00000000  1.0
  Sb  Sb14  1  0.61887102  0.44277105  0.50000000  1.0
  Sb  Sb15  1  0.11887102  0.05722895  0.00000000  1.0
  Sb  Sb16  1  0.23278431  0.19778172  0.50000000  1.0
  Sb  Sb17  1  0.73278431  0.30221828  0.00000000  1.0
  Sb  Sb18  1  0.76721569  0.80221828  0.50000000  1.0
  Sb  Sb19  1  0.26721569  0.69778172  0.00000000  1.0
  Sb  Sb20  1  0.98725520  0.60476879  0.50000000  1.0
  Sb  Sb21  1  0.48725520  0.89523121  0.00000000  1.0
  Sb  Sb22  1  0.01274480  0.39523121  0.50000000  1.0
  Sb  Sb23  1  0.51274480  0.10476879  0.00000000  1.0
