# generated using pymatgen
data_BaTiO3
_symmetry_space_group_name_H-M   'P 1'
_cell_length_a   5.78231034
_cell_length_b   5.78231034
_cell_length_c   14.11560512
_cell_angle_alpha   90.00000000
_cell_angle_beta   90.00000000
_cell_angle_gamma   119.35916715
_symmetry_Int_Tables_number   1
_chemical_formula_structural   BaTiO3
_chemical_formula_sum   'Ba6 Ti6 O18'
_cell_volume   411.34033682
_cell_formula_units_Z   6
loop_
 _symmetry_equiv_pos_site_id
 _symmetry_equiv_pos_as_xyz
  1  'x, y, z'
loop_
 _atom_site_type_symbol
 _atom_site_label
 _atom_site_symmetry_multiplicity
 _atom_site_fract_x
 _atom_site_fract_y
 _atom_site_fract_z
 _atom_site_occupancy
  Ba  Ba0  1  0.31582622  0.64549747  0.09624206  1.0
  Ba  Ba1  1  -0.35450253  1.31582622  0.90375794  1.0
  Ba  Ba2  1  0.35450253  0.68417378  0.40375794  1.0
  Ba  Ba3  1  -0.31582622  1.35450253  0.59624206  1.0
  Ba  Ba4  1  0.00177952  0.99822048  0.25000000  1.0
  Ba  Ba5  1  -0.00177952  1.00177952  0.75000000  1.0
  Ti  Ti6  1  -0.35986847  1.29955916  0.15427843  1.0
  Ti  Ti7  1  0.29955916  0.64013153  0.84572157  1.0
  Ti  Ti8  1  -0.29955916  1.35986847  0.34572157  1.0
  Ti  Ti9  1  0.35986847  0.70044084  0.65427843  1.0
  Ti  Ti10  1  0.96562577  0.96562577  0.00000000  1.0
  Ti  Ti11  1  0.03437423  0.03437423  0.50000000  1.0
  O  O12  1  -0.16444484  1.67115815  0.08047672  1.0
  O  O13  1  0.67115815  0.83555516  0.91952328  1.0
  O  O14  1  -0.67115815  1.16444484  0.41952328  1.0
  O  O15  1  0.16444484  0.32884185  0.58047672  1.0
  O  O16  1  -0.16440929  1.66425919  0.41875306  1.0
  O  O17  1  0.66425919  0.83559071  0.58124694  1.0
  O  O18  1  -0.66425919  1.16440929  0.08124694  1.0
  O  O19  1  0.16440929  0.33574081  0.91875306  1.0
  O  O20  1  -0.02771531  1.47832278  0.25431322  1.0
  O  O21  1  0.47832278  0.97228469  0.74568678  1.0
  O  O22  1  -0.47832278  1.02771531  0.24568678  1.0
  O  O23  1  0.02771531  0.52167722  0.75431322  1.0
  O  O24  1  -0.16280492  1.16457294  0.08034281  1.0
  O  O25  1  0.16457294  0.83719508  0.91965719  1.0
  O  O26  1  -0.16457294  1.16280492  0.41965719  1.0
  O  O27  1  0.16280492  0.83542706  0.58034281  1.0
  O  O28  1  -0.47662383  1.47662383  0.25000000  1.0
  O  O29  1  0.47662383  0.52337617  0.75000000  1.0
