# generated using pymatgen
data_V2PbO6
_symmetry_space_group_name_H-M   'P 1'
_cell_length_a   9.86569912
_cell_length_b   3.65401520
_cell_length_c   13.28060724
_cell_angle_alpha   90.00000000
_cell_angle_beta   90.00000000
_cell_angle_gamma   90.00000000
_symmetry_Int_Tables_number   1
_chemical_formula_structural   V2PbO6
_chemical_formula_sum   'V8 Pb4 O24'
_cell_volume   478.75811535
_cell_formula_units_Z   4
loop_
 _symmetry_equiv_pos_site_id
 _symmetry_equiv_pos_as_xyz
  1  'x, y, z'
loop_
 _atom_site_type_symbol
 _atom_site_label
 _atom_site_symmetry_multiplicity
 _atom_site_fract_x
 _atom_site_fract_y
 _atom_site_fract_z
 _atom_site_occupancy
  V  V0  1  0.76005170  0.75000000  0.09885157  1.0
  V  V1  1  0.26005170  0.75000000  0.40114843  1.0
  V  V2  1  0.23994830  0.25000000  0.90114843  1.0
  V  V3  1  0.73994830  0.25000000  0.59885157  1.0
  V  V4  1  0.49854936  0.75000000  0.63947656  1.0
  V  V5  1  0.99854936  0.75000000  0.86052344  1.0
  V  V6  1  0.50145064  0.25000000  0.36052344  1.0
  V  V7  1  0.00145064  0.25000000  0.13947656  1.0
  Pb  Pb8  1  0.86281092  0.75000000  0.38549020  1.0
  Pb  Pb9  1  0.36281092  0.75000000  0.11450980  1.0
  Pb  Pb10  1  0.13718908  0.25000000  0.61450980  1.0
  Pb  Pb11  1  0.63718908  0.25000000  0.88549020  1.0
  O  O12  1  0.96489886  0.75000000  0.10477196  1.0
  O  O13  1  0.46489886  0.75000000  0.39522804  1.0
  O  O14  1  0.03510114  0.25000000  0.89522804  1.0
  O  O15  1  0.53510114  0.25000000  0.60477196  1.0
  O  O16  1  0.71713215  0.75000000  0.21605382  1.0
  O  O17  1  0.21713215  0.75000000  0.28394618  1.0
  O  O18  1  0.28286785  0.25000000  0.78394618  1.0
  O  O19  1  0.78286785  0.25000000  0.71605382  1.0
  O  O20  1  0.68744315  0.75000000  0.57568645  1.0
  O  O21  1  0.18744315  0.75000000  0.92431355  1.0
  O  O22  1  0.31255685  0.25000000  0.42431355  1.0
  O  O23  1  0.81255685  0.25000000  0.07568645  1.0
  O  O24  1  0.61363481  0.75000000  0.02816723  1.0
  O  O25  1  0.11363481  0.75000000  0.47183277  1.0
  O  O26  1  0.38636519  0.25000000  0.97183277  1.0
  O  O27  1  0.88636519  0.25000000  0.52816723  1.0
  O  O28  1  0.52324344  0.75000000  0.76305416  1.0
  O  O29  1  0.02324344  0.75000000  0.73694584  1.0
  O  O30  1  0.47675656  0.25000000  0.23694584  1.0
  O  O31  1  0.97675656  0.25000000  0.26305416  1.0
  O  O32  1  0.33251814  0.75000000  0.61081535  1.0
  O  O33  1  0.83251814  0.75000000  0.88918465  1.0
  O  O34  1  0.66748186  0.25000000  0.38918465  1.0
  O  O35  1  0.16748186  0.25000000  0.11081535  1.0
