# generated using pymatgen
data_Fe(BrN)2
_symmetry_space_group_name_H-M   'P 1'
_cell_length_a   5.33970066
_cell_length_b   10.46143358
_cell_length_c   3.62698303
_cell_angle_alpha   90.00000000
_cell_angle_beta   90.00000000
_cell_angle_gamma   90.00000000
_symmetry_Int_Tables_number   1
_chemical_formula_structural   Fe(BrN)2
_chemical_formula_sum   'Fe2 Br4 N4'
_cell_volume   202.60662234
_cell_formula_units_Z   2
loop_
 _symmetry_equiv_pos_site_id
 _symmetry_equiv_pos_as_xyz
  1  'x, y, z'
loop_
 _atom_site_type_symbol
 _atom_site_label
 _atom_site_symmetry_multiplicity
 _atom_site_fract_x
 _atom_site_fract_y
 _atom_site_fract_z
 _atom_site_occupancy
  Fe  Fe0  1  0.50000000  0.50000000  0.00000000  1.0
  Fe  Fe1  1  0.00000000  0.00000000  0.00000000  1.0
  Br  Br2  1  0.21255145  0.88052254  0.50000000  1.0
  Br  Br3  1  0.71255145  0.61947746  0.50000000  1.0
  Br  Br4  1  0.78744855  0.11947746  0.50000000  1.0
  Br  Br5  1  0.28744855  0.38052254  0.50000000  1.0
  N  N6  1  0.26607655  0.61123855  0.00000000  1.0
  N  N7  1  0.76607655  0.88876145  -0.00000000  1.0
  N  N8  1  0.73392345  0.38876145  0.00000000  1.0
  N  N9  1  0.23392345  0.11123855  -0.00000000  1.0
