# generated using pymatgen
data_Sr6GdGa(BO3)6
_symmetry_space_group_name_H-M   'P 1'
_cell_length_a   7.77653029
_cell_length_b   7.77653029
_cell_length_c   7.77653029
_cell_angle_alpha   105.40843013
_cell_angle_beta   105.40843013
_cell_angle_gamma   105.40843013
_symmetry_Int_Tables_number   1
_chemical_formula_structural   Sr6GdGa(BO3)6
_chemical_formula_sum   'Sr6 Gd1 Ga1 B6 O18'
_cell_volume   407.46537861
_cell_formula_units_Z   1
loop_
 _symmetry_equiv_pos_site_id
 _symmetry_equiv_pos_as_xyz
  1  'x, y, z'
loop_
 _atom_site_type_symbol
 _atom_site_label
 _atom_site_symmetry_multiplicity
 _atom_site_fract_x
 _atom_site_fract_y
 _atom_site_fract_z
 _atom_site_occupancy
  Sr  Sr0  1  0.76860514  0.66343805  0.15083921  1.0
  Sr  Sr1  1  1.33656195  -0.15083921  0.23139486  1.0
  Sr  Sr2  1  0.84916079  0.23139486  0.33656195  1.0
  Sr  Sr3  1  1.23139486  0.33656195  -0.15083921  1.0
  Sr  Sr4  1  0.66343805  1.15083921  -0.23139486  1.0
  Sr  Sr5  1  1.15083921  0.76860514  -0.33656195  1.0
  Gd  Gd6  1  0.50000000  0.50000000  0.50000000  1.0
  Ga  Ga7  1  0.00000000  0.00000000  0.00000000  1.0
  B  B8  1  1.55073237  0.79731687  -0.11758139  1.0
  B  B9  1  1.20268313  0.11758139  -0.55073237  1.0
  B  B10  1  1.11758139  -0.55073237  0.20268313  1.0
  B  B11  1  0.44926763  0.20268313  0.11758139  1.0
  B  B12  1  0.79731687  0.88241861  0.55073237  1.0
  B  B13  1  0.88241861  1.55073237  -0.20268313  1.0
  O  O14  1  0.73244129  0.92900304  0.00508025  1.0
  O  O15  1  1.07099696  -0.00508025  -0.73244129  1.0
  O  O16  1  0.99491975  -0.73244129  0.07099696  1.0
  O  O17  1  0.26755871  0.07099696  -0.00508025  1.0
  O  O18  1  0.92900304  1.00508025  -0.26755871  1.0
  O  O19  1  1.00508025  0.73244129  -0.07099696  1.0
  O  O20  1  1.48697731  0.77915263  -0.30905303  1.0
  O  O21  1  1.22084737  0.30905303  -0.48697731  1.0
  O  O22  1  1.30905303  -0.48697731  0.22084737  1.0
  O  O23  1  0.51302269  0.22084737  0.30905303  1.0
  O  O24  1  0.77915263  0.69094697  0.48697731  1.0
  O  O25  1  0.69094697  1.48697731  -0.22084737  1.0
  O  O26  1  0.56581636  0.30473231  0.04608076  1.0
  O  O27  1  0.69526769  0.95391924  0.43418364  1.0
  O  O28  1  0.95391924  1.43418364  -0.30473231  1.0
  O  O29  1  1.43418364  0.69526769  -0.04608076  1.0
  O  O30  1  1.30473231  0.04608076  -0.43418364  1.0
  O  O31  1  1.04608076  -0.43418364  0.30473231  1.0
