# generated using pymatgen
data_ZrBr
_symmetry_space_group_name_H-M   'P 1'
_cell_length_a   10.49317480
_cell_length_b   10.49317480
_cell_length_c   10.49317480
_cell_angle_alpha   19.39260698
_cell_angle_beta   19.39260698
_cell_angle_gamma   19.39260698
_symmetry_Int_Tables_number   1
_chemical_formula_structural   ZrBr
_chemical_formula_sum   'Zr2 Br2'
_cell_volume   111.36686524
_cell_formula_units_Z   2
loop_
 _symmetry_equiv_pos_site_id
 _symmetry_equiv_pos_as_xyz
  1  'x, y, z'
loop_
 _atom_site_type_symbol
 _atom_site_label
 _atom_site_symmetry_multiplicity
 _atom_site_fract_x
 _atom_site_fract_y
 _atom_site_fract_z
 _atom_site_occupancy
  Zr  Zr0  1  0.70456815  0.70456815  0.70456815  1.0
  Zr  Zr1  1  1.29543185  1.29543185  0.29543185  1.0
  Br  Br2  1  0.90081458  0.90081458  0.90081458  1.0
  Br  Br3  1  1.09918542  1.09918542  0.09918542  1.0
