# generated using pymatgen
data_ZnAsHPbO5
_symmetry_space_group_name_H-M   'P 1'
_cell_length_a   6.20900945
_cell_length_b   7.88448530
_cell_length_c   9.48364031
_cell_angle_alpha   90.00000000
_cell_angle_beta   90.00000000
_cell_angle_gamma   90.00000000
_symmetry_Int_Tables_number   1
_chemical_formula_structural   ZnAsHPbO5
_chemical_formula_sum   'Zn4 As4 H4 Pb4 O20'
_cell_volume   464.27012967
_cell_formula_units_Z   4
loop_
 _symmetry_equiv_pos_site_id
 _symmetry_equiv_pos_as_xyz
  1  'x, y, z'
loop_
 _atom_site_type_symbol
 _atom_site_label
 _atom_site_symmetry_multiplicity
 _atom_site_fract_x
 _atom_site_fract_y
 _atom_site_fract_z
 _atom_site_occupancy
  Zn  Zn0  1  0.22287566  0.72106170  0.48295580  1.0
  Zn  Zn1  1  0.72287566  0.77893830  0.51704420  1.0
  Zn  Zn2  1  0.77712434  0.22106170  0.01704420  1.0
  Zn  Zn3  1  0.27712434  0.27893830  0.98295580  1.0
  As  As4  1  0.48395192  0.63021066  0.81658777  1.0
  As  As5  1  0.98395192  0.86978934  0.18341223  1.0
  As  As6  1  0.51604808  0.13021066  0.68341223  1.0
  As  As7  1  0.01604808  0.36978934  0.31658777  1.0
  H  H8  1  0.51709774  0.50989461  0.49041997  1.0
  H  H9  1  1.01709774  0.99010539  0.50958003  1.0
  H  H10  1  0.48290226  0.00989461  1.00958003  1.0
  H  H11  1  -0.01709774  0.49010539  -0.00958003  1.0
  Pb  Pb12  1  0.03757501  0.87150496  0.82705633  1.0
  Pb  Pb13  1  0.53757501  0.62849504  0.17294367  1.0
  Pb  Pb14  1  0.96242499  0.37150496  0.67294367  1.0
  Pb  Pb15  1  0.46242499  0.12849504  0.32705633  1.0
  O  O16  1  0.49024334  0.95258886  0.57318372  1.0
  O  O17  1  0.99024334  0.54741114  0.42681628  1.0
  O  O18  1  0.50975666  0.45258886  0.92681628  1.0
  O  O19  1  0.00975666  0.04741114  0.07318372  1.0
  O  O20  1  0.43228971  0.80056348  0.92804766  1.0
  O  O21  1  0.93228971  0.69943652  0.07195234  1.0
  O  O22  1  0.56771029  0.30056348  0.57195234  1.0
  O  O23  1  0.06771029  0.19943652  0.42804766  1.0
  O  O24  1  0.25721421  0.61642432  0.70687695  1.0
  O  O25  1  0.75721421  0.88357568  0.29312305  1.0
  O  O26  1  0.74278579  0.11642432  0.79312305  1.0
  O  O27  1  0.24278579  0.38357568  0.20687695  1.0
  O  O28  1  0.22646588  0.84804262  0.27672179  1.0
  O  O29  1  0.72646588  0.65195738  0.72327821  1.0
  O  O30  1  0.77353412  0.34804262  0.22327821  1.0
  O  O31  1  0.27353412  0.15195738  0.77672179  1.0
  O  O32  1  0.00513224  0.88035046  0.55957955  1.0
  O  O33  1  0.50513224  0.61964954  0.44042045  1.0
  O  O34  1  0.99486776  0.38035046  0.94042045  1.0
  O  O35  1  0.49486776  0.11964954  0.05957955  1.0
