# generated using pymatgen
data_VCoGe
_symmetry_space_group_name_H-M   'P 1'
_cell_length_a   6.03821165
_cell_length_b   3.67934142
_cell_length_c   6.95423948
_cell_angle_alpha   90.00000000
_cell_angle_beta   90.00000000
_cell_angle_gamma   90.00000000
_symmetry_Int_Tables_number   1
_chemical_formula_structural   VCoGe
_chemical_formula_sum   'V4 Co4 Ge4'
_cell_volume   154.49985051
_cell_formula_units_Z   4
loop_
 _symmetry_equiv_pos_site_id
 _symmetry_equiv_pos_as_xyz
  1  'x, y, z'
loop_
 _atom_site_type_symbol
 _atom_site_label
 _atom_site_symmetry_multiplicity
 _atom_site_fract_x
 _atom_site_fract_y
 _atom_site_fract_z
 _atom_site_occupancy
  V  V0  1  0.97276832  0.75000000  0.68909801  1.0
  V  V1  1  0.47276832  0.75000000  0.81090199  1.0
  V  V2  1  0.02723168  0.25000000  0.31090199  1.0
  V  V3  1  0.52723168  0.25000000  0.18909801  1.0
  Co  Co4  1  0.86160713  0.75000000  0.05957819  1.0
  Co  Co5  1  0.36160713  0.75000000  0.44042181  1.0
  Co  Co6  1  0.13839287  0.25000000  0.94042181  1.0
  Co  Co7  1  0.63839287  0.25000000  0.55957819  1.0
  Ge  Ge8  1  0.74556029  0.75000000  0.37968861  1.0
  Ge  Ge9  1  0.24556029  0.75000000  0.12031139  1.0
  Ge  Ge10  1  0.25443971  0.25000000  0.62031139  1.0
  Ge  Ge11  1  0.75443971  0.25000000  0.87968861  1.0
