# generated using pymatgen
data_Sm2Ta2O9
_symmetry_space_group_name_H-M   'P 1'
_cell_length_a   6.55967827
_cell_length_b   3.85851238
_cell_length_c   16.09869277
_cell_angle_alpha   90.00000000
_cell_angle_beta   117.27223908
_cell_angle_gamma   90.00000000
_symmetry_Int_Tables_number   1
_chemical_formula_structural   Sm2Ta2O9
_chemical_formula_sum   'Sm4 Ta4 O18'
_cell_volume   362.17321180
_cell_formula_units_Z   2
loop_
 _symmetry_equiv_pos_site_id
 _symmetry_equiv_pos_as_xyz
  1  'x, y, z'
loop_
 _atom_site_type_symbol
 _atom_site_label
 _atom_site_symmetry_multiplicity
 _atom_site_fract_x
 _atom_site_fract_y
 _atom_site_fract_z
 _atom_site_occupancy
  Sm  Sm0  1  0.72435969  0.49964037  0.21923631  1.0
  Sm  Sm1  1  0.72435969  0.00035963  0.71923631  1.0
  Sm  Sm2  1  0.27564031  0.99964037  0.28076369  1.0
  Sm  Sm3  1  0.27564031  0.50035963  0.78076369  1.0
  O  O4  1  0.63424899  -0.00014595  0.43936980  1.0
  O  O5  1  0.63424899  0.50014595  0.93936980  1.0
  O  O6  1  0.36575101  0.49985405  0.06063020  1.0
  O  O7  1  0.36575101  1.00014595  0.56063020  1.0
  O  O8  1  0.00000000  0.50000000  0.50000000  1.0
  O  O9  1  0.00000000  0.00000000  0.00000000  1.0
  O  O10  1  0.31843452  0.50008373  0.41865273  1.0
  O  O11  1  0.31843452  -0.00008373  0.91865273  1.0
  O  O12  1  0.68156548  1.00008373  0.08134727  1.0
  O  O13  1  0.68156548  0.49991627  0.58134727  1.0
  O  O14  1  0.92367045  0.99962951  0.28545104  1.0
  O  O15  1  0.92367045  0.50037049  0.78545104  1.0
  O  O16  1  0.07632955  0.49962951  0.21454896  1.0
  O  O17  1  0.07632955  0.00037049  0.71454896  1.0
  O  O18  1  0.54760084  0.49975212  0.31846294  1.0
  O  O19  1  0.54760084  0.00024788  0.81846294  1.0
  O  O20  1  0.45239916  0.99975212  0.18153706  1.0
  O  O21  1  0.45239916  0.50024788  0.68153706  1.0
  Ta  Ta22  1  0.67773373  0.49984093  0.46056666  1.0
  Ta  Ta23  1  0.67773373  0.00015907  0.96056666  1.0
  Ta  Ta24  1  0.32226627  0.99984093  0.03943334  1.0
  Ta  Ta25  1  0.32226627  0.50015907  0.53943334  1.0
