# generated using pymatgen
data_Na3Ca3AlSb4
_symmetry_space_group_name_H-M   'P 1'
_cell_length_a   10.08603477
_cell_length_b   10.08603477
_cell_length_c   7.61946984
_cell_angle_alpha   90.00000000
_cell_angle_beta   90.00000000
_cell_angle_gamma   120.00000000
_symmetry_Int_Tables_number   1
_chemical_formula_structural   Na3Ca3AlSb4
_chemical_formula_sum   'Na6 Ca6 Al2 Sb8'
_cell_volume   671.26856234
_cell_formula_units_Z   2
loop_
 _symmetry_equiv_pos_site_id
 _symmetry_equiv_pos_as_xyz
  1  'x, y, z'
loop_
 _atom_site_type_symbol
 _atom_site_label
 _atom_site_symmetry_multiplicity
 _atom_site_fract_x
 _atom_site_fract_y
 _atom_site_fract_z
 _atom_site_occupancy
  Na  Na0  1  0.14238806  0.28477612  0.44957282  1.0
  Na  Na1  1  0.71522388  0.85761194  0.44957282  1.0
  Na  Na2  1  0.14238806  0.85761194  0.44957282  1.0
  Na  Na3  1  0.85761194  0.71522388  0.94957282  1.0
  Na  Na4  1  0.28477612  0.14238806  0.94957282  1.0
  Na  Na5  1  0.85761194  0.14238806  0.94957282  1.0
  Ca  Ca6  1  0.52098319  0.04196639  0.26940927  1.0
  Ca  Ca7  1  0.95803361  0.47901681  0.26940927  1.0
  Ca  Ca8  1  0.52098319  0.47901681  0.26940927  1.0
  Ca  Ca9  1  0.47901681  0.95803361  0.76940927  1.0
  Ca  Ca10  1  0.04196639  0.52098319  0.76940927  1.0
  Ca  Ca11  1  0.47901681  0.52098319  0.76940927  1.0
  Al  Al12  1  0.33333333  0.66666667  0.14365186  1.0
  Al  Al13  1  0.66666667  0.33333333  0.64365186  1.0
  Sb  Sb14  1  0.18780710  0.37561420  0.03694725  1.0
  Sb  Sb15  1  0.62438580  0.81219290  0.03694725  1.0
  Sb  Sb16  1  0.18780710  0.81219290  0.03694725  1.0
  Sb  Sb17  1  0.81219290  0.62438580  0.53694725  1.0
  Sb  Sb18  1  0.37561420  0.18780710  0.53694725  1.0
  Sb  Sb19  1  0.81219290  0.18780710  0.53694725  1.0
  Sb  Sb20  1  0.33333333  0.66666667  0.50326011  1.0
  Sb  Sb21  1  0.66666667  0.33333333  0.00326011  1.0
