# generated using pymatgen
data_MgH8C4(N3O2)2
_symmetry_space_group_name_H-M   'P 1'
_cell_length_a   7.43329304
_cell_length_b   7.41240245
_cell_length_c   9.91267292
_cell_angle_alpha   90.00000000
_cell_angle_beta   100.04973415
_cell_angle_gamma   90.00000000
_symmetry_Int_Tables_number   1
_chemical_formula_structural   MgH8C4(N3O2)2
_chemical_formula_sum   'Mg2 H16 C8 N12 O8'
_cell_volume   537.79386074
_cell_formula_units_Z   2
loop_
 _symmetry_equiv_pos_site_id
 _symmetry_equiv_pos_as_xyz
  1  'x, y, z'
loop_
 _atom_site_type_symbol
 _atom_site_label
 _atom_site_symmetry_multiplicity
 _atom_site_fract_x
 _atom_site_fract_y
 _atom_site_fract_z
 _atom_site_occupancy
  Mg  Mg0  1  -0.00000000  0.50000000  0.50000000  1.0
  Mg  Mg1  1  0.00000000  -0.00000000  0.00000000  1.0
  H  H2  1  -0.01020884  0.24565012  0.20794624  1.0
  H  H3  1  -0.01020884  0.25434988  0.70794624  1.0
  H  H4  1  0.01020884  0.74565012  0.29205376  1.0
  H  H5  1  0.01020884  0.75434988  0.79205376  1.0
  H  H6  1  0.85352766  0.31331219  0.07569567  1.0
  H  H7  1  0.85352766  0.18668781  0.57569567  1.0
  H  H8  1  0.14647234  0.81331219  0.42430433  1.0
  H  H9  1  0.14647234  0.68668781  0.92430433  1.0
  H  H10  1  0.77022400  0.87084426  0.15724421  1.0
  H  H11  1  0.77022400  0.62915574  0.65724421  1.0
  H  H12  1  0.22977600  0.37084426  0.34275579  1.0
  H  H13  1  0.22977600  0.12915574  0.84275579  1.0
  H  H14  1  0.16918331  0.20117716  0.41976213  1.0
  H  H15  1  0.16918331  0.29882284  0.91976213  1.0
  H  H16  1  0.83081669  0.70117716  0.08023787  1.0
  H  H17  1  0.83081669  0.79882284  0.58023787  1.0
  C  C18  1  0.65216799  0.97660185  0.37801343  1.0
  C  C19  1  0.65216799  0.52339815  0.87801343  1.0
  C  C20  1  0.34783201  0.47660185  0.12198657  1.0
  C  C21  1  0.34783201  0.02339815  0.62198657  1.0
  C  C22  1  0.59086744  0.46741038  0.30444056  1.0
  C  C23  1  0.59086744  0.03258962  0.80444056  1.0
  C  C24  1  0.40913256  0.96741038  0.19555944  1.0
  C  C25  1  0.40913256  0.53258962  0.69555944  1.0
  N  N26  1  0.73976709  0.47628595  0.36725538  1.0
  N  N27  1  0.73976709  0.02371405  0.86725538  1.0
  N  N28  1  0.26023291  0.97628595  0.13274462  1.0
  N  N29  1  0.26023291  0.52371405  0.63274462  1.0
  N  N30  1  0.73709696  -0.00757526  0.48968515  1.0
  N  N31  1  0.73709696  0.50757526  0.98968515  1.0
  N  N32  1  0.26290304  0.49242474  0.01031485  1.0
  N  N33  1  0.26290304  1.00757526  0.51031485  1.0
  N  N34  1  0.41986763  0.45253113  0.24919548  1.0
  N  N35  1  0.41986763  0.04746887  0.74919548  1.0
  N  N36  1  0.58013237  0.95253113  0.25080452  1.0
  N  N37  1  0.58013237  0.54746887  0.75080452  1.0
  O  O38  1  0.92383332  0.20737246  0.11719330  1.0
  O  O39  1  0.92383332  0.29262754  0.61719330  1.0
  O  O40  1  0.07616668  0.70737246  0.38280670  1.0
  O  O41  1  0.07616668  0.79262754  0.88280670  1.0
  O  O42  1  0.87798890  0.81552096  0.12748963  1.0
  O  O43  1  0.87798890  0.68447904  0.62748963  1.0
  O  O44  1  0.12201110  0.31552096  0.37251037  1.0
  O  O45  1  0.12201110  0.18447904  0.87251037  1.0
