# generated using pymatgen
data_La2Fe2Si2C
_symmetry_space_group_name_H-M   'P 1'
_cell_length_a   5.84116010
_cell_length_b   5.84116010
_cell_length_c   7.11879770
_cell_angle_alpha   55.05831375
_cell_angle_beta   124.94168625
_cell_angle_gamma   139.68509120
_symmetry_Int_Tables_number   1
_chemical_formula_structural   La2Fe2Si2C
_chemical_formula_sum   'La2 Fe2 Si2 C1'
_cell_volume   124.50852295
_cell_formula_units_Z   1
loop_
 _symmetry_equiv_pos_site_id
 _symmetry_equiv_pos_as_xyz
  1  'x, y, z'
loop_
 _atom_site_type_symbol
 _atom_site_label
 _atom_site_symmetry_multiplicity
 _atom_site_fract_x
 _atom_site_fract_y
 _atom_site_fract_z
 _atom_site_occupancy
  La  La0  1  1.44363960  -0.44363960  0.69740290  1.0
  La  La1  1  0.55636040  0.44363960  0.30259710  1.0
  Fe  Fe2  1  0.80965321  0.19034679  0.91937191  1.0
  Fe  Fe3  1  1.19034679  -0.19034679  0.08062809  1.0
  Si  Si4  1  0.81172732  -0.81172732  0.24417917  1.0
  Si  Si5  1  0.18827268  -0.18827268  0.75582083  1.0
  C  C6  1  0.00000000  0.00000000  0.00000000  1.0
