# generated using pymatgen
data_CeSO6
_symmetry_space_group_name_H-M   'P 1'
_cell_length_a   4.29824464
_cell_length_b   8.59640648
_cell_length_c   12.03200310
_cell_angle_alpha   90.00000000
_cell_angle_beta   90.00000000
_cell_angle_gamma   90.00000000
_symmetry_Int_Tables_number   1
_chemical_formula_structural   CeSO6
_chemical_formula_sum   'Ce4 S4 O24'
_cell_volume   444.57599365
_cell_formula_units_Z   4
loop_
 _symmetry_equiv_pos_site_id
 _symmetry_equiv_pos_as_xyz
  1  'x, y, z'
loop_
 _atom_site_type_symbol
 _atom_site_label
 _atom_site_symmetry_multiplicity
 _atom_site_fract_x
 _atom_site_fract_y
 _atom_site_fract_z
 _atom_site_occupancy
  O  O0  1  0.42230069  0.98219142  0.62349979  1.0
  O  O1  1  0.92230069  0.51780858  0.37650021  1.0
  O  O2  1  0.57769931  0.48219142  0.87650021  1.0
  O  O3  1  0.07769931  0.01780858  0.12349979  1.0
  O  O4  1  0.40118600  0.66311662  0.52355381  1.0
  O  O5  1  0.90118600  0.83688338  0.47644619  1.0
  O  O6  1  0.59881400  0.16311662  0.97644619  1.0
  O  O7  1  0.09881400  0.33688338  0.02355381  1.0
  O  O8  1  0.37222891  0.91726030  0.82134639  1.0
  O  O9  1  0.87222891  0.58273970  0.17865361  1.0
  O  O10  1  0.62777109  0.41726030  0.67865361  1.0
  O  O11  1  0.12777109  0.08273970  0.32134639  1.0
  O  O12  1  0.18055433  0.56178673  0.74353511  1.0
  O  O13  1  0.68055433  0.93821327  0.25646489  1.0
  O  O14  1  0.81944567  0.06178673  0.75646489  1.0
  O  O15  1  0.31944567  0.43821327  0.24353511  1.0
  O  O16  1  0.75995462  0.78679615  0.70935712  1.0
  O  O17  1  0.25995462  0.71320385  0.29064288  1.0
  O  O18  1  0.24004538  0.28679615  0.79064288  1.0
  O  O19  1  0.74004538  0.21320385  0.20935712  1.0
  O  O20  1  0.45663198  0.68668868  0.01768784  1.0
  O  O21  1  0.95663198  0.81331132  0.98231216  1.0
  O  O22  1  0.54336802  0.18668868  0.48231216  1.0
  O  O23  1  0.04336802  0.31331132  0.51768784  1.0
  Ce  Ce24  1  0.90178078  0.60616567  0.56634392  1.0
  Ce  Ce25  1  0.40178078  0.89383433  0.43365608  1.0
  Ce  Ce26  1  0.09821922  0.10616567  0.93365608  1.0
  Ce  Ce27  1  0.59821922  0.39383433  0.06634392  1.0
  S  S28  1  0.40394612  0.43721911  0.77263901  1.0
  S  S29  1  0.90394612  0.06278089  0.22736099  1.0
  S  S30  1  0.59605388  0.93721911  0.72736099  1.0
  S  S31  1  0.09605388  0.56278089  0.27263901  1.0
