# generated using pymatgen
data_MnC5BrO5
_symmetry_space_group_name_H-M   'P 1'
_cell_length_a   12.43924124
_cell_length_b   12.06914192
_cell_length_c   6.40422581
_cell_angle_alpha   90.00000000
_cell_angle_beta   90.00000000
_cell_angle_gamma   90.00000000
_symmetry_Int_Tables_number   1
_chemical_formula_structural   MnC5BrO5
_chemical_formula_sum   'Mn4 C20 Br4 O20'
_cell_volume   961.47261953
_cell_formula_units_Z   4
loop_
 _symmetry_equiv_pos_site_id
 _symmetry_equiv_pos_as_xyz
  1  'x, y, z'
loop_
 _atom_site_type_symbol
 _atom_site_label
 _atom_site_symmetry_multiplicity
 _atom_site_fract_x
 _atom_site_fract_y
 _atom_site_fract_z
 _atom_site_occupancy
  Mn  Mn0  1  0.37546591  0.25000000  0.55243008  1.0
  Mn  Mn1  1  0.87546591  0.25000000  0.94756992  1.0
  Mn  Mn2  1  0.62453409  0.75000000  0.44756992  1.0
  Mn  Mn3  1  0.12453409  0.75000000  0.05243008  1.0
  C  C4  1  0.95355235  0.35983546  0.81292280  1.0
  C  C5  1  0.95355235  0.14016454  0.81292280  1.0
  C  C6  1  0.45355235  0.35983546  0.68707720  1.0
  C  C7  1  0.45355235  0.14016454  0.68707720  1.0
  C  C8  1  0.04644765  0.85983546  0.18707720  1.0
  C  C9  1  0.04644765  0.64016454  0.18707720  1.0
  C  C10  1  0.54644765  0.85983546  0.31292280  1.0
  C  C11  1  0.54644765  0.64016454  0.31292280  1.0
  C  C12  1  0.78587373  0.35843022  0.05785042  1.0
  C  C13  1  0.78587373  0.14156978  0.05785042  1.0
  C  C14  1  0.28587373  0.35843022  0.44214958  1.0
  C  C15  1  0.28587373  0.14156978  0.44214958  1.0
  C  C16  1  0.21412627  0.85843022  0.94214958  1.0
  C  C17  1  0.21412627  0.64156978  0.94214958  1.0
  C  C18  1  0.71412627  0.85843022  0.55785042  1.0
  C  C19  1  0.71412627  0.64156978  0.55785042  1.0
  C  C20  1  0.96348014  0.25000000  0.17028648  1.0
  C  C21  1  0.46348014  0.25000000  0.32971352  1.0
  C  C22  1  0.03651986  0.75000000  0.82971352  1.0
  C  C23  1  0.53651986  0.75000000  0.67028648  1.0
  Br  Br24  1  0.75249349  0.25000000  0.63162056  1.0
  Br  Br25  1  0.25249349  0.25000000  0.86837944  1.0
  Br  Br26  1  0.24750651  0.75000000  0.36837944  1.0
  Br  Br27  1  0.74750651  0.75000000  0.13162056  1.0
  O  O28  1  0.99971296  0.92954745  0.26853010  1.0
  O  O29  1  0.99971296  0.57045255  0.26853010  1.0
  O  O30  1  0.49971296  0.92954745  0.23146990  1.0
  O  O31  1  0.49971296  0.57045255  0.23146990  1.0
  O  O32  1  0.00028704  0.42954745  0.73146990  1.0
  O  O33  1  0.00028704  0.07045255  0.73146990  1.0
  O  O34  1  0.50028704  0.42954745  0.76853010  1.0
  O  O35  1  0.50028704  0.07045255  0.76853010  1.0
  O  O36  1  0.73005216  0.42561842  0.12339681  1.0
  O  O37  1  0.73005216  0.07438158  0.12339681  1.0
  O  O38  1  0.23005216  0.42561842  0.37660319  1.0
  O  O39  1  0.23005216  0.07438158  0.37660319  1.0
  O  O40  1  0.26994784  0.92561842  0.87660319  1.0
  O  O41  1  0.26994784  0.57438158  0.87660319  1.0
  O  O42  1  0.76994784  0.92561842  0.62339681  1.0
  O  O43  1  0.76994784  0.57438158  0.62339681  1.0
  O  O44  1  0.52118593  0.25000000  0.18818617  1.0
  O  O45  1  0.02118593  0.25000000  0.31181383  1.0
  O  O46  1  0.47881407  0.75000000  0.81181383  1.0
  O  O47  1  0.97881407  0.75000000  0.68818617  1.0
