# generated using pymatgen
data_NaSc(BH4)4
_symmetry_space_group_name_H-M   'P 1'
_cell_length_a   7.31607961
_cell_length_b   7.31607961
_cell_length_c   9.23823493
_cell_angle_alpha   90.00000000
_cell_angle_beta   90.00000000
_cell_angle_gamma   111.88047161
_symmetry_Int_Tables_number   1
_chemical_formula_structural   NaSc(BH4)4
_chemical_formula_sum   'Na2 Sc2 B8 H32'
_cell_volume   458.85626001
_cell_formula_units_Z   2
loop_
 _symmetry_equiv_pos_site_id
 _symmetry_equiv_pos_as_xyz
  1  'x, y, z'
loop_
 _atom_site_type_symbol
 _atom_site_label
 _atom_site_symmetry_multiplicity
 _atom_site_fract_x
 _atom_site_fract_y
 _atom_site_fract_z
 _atom_site_occupancy
  Na  Na0  1  0.00000000  0.00000000  0.50000000  1.0
  Na  Na1  1  0.00000000  0.00000000  0.00000000  1.0
  Sc  Sc2  1  0.34645898  0.65354102  0.25000000  1.0
  Sc  Sc3  1  -0.34645898  1.34645898  0.75000000  1.0
  B  B4  1  0.22446562  0.31093232  0.25000000  1.0
  B  B5  1  -0.68906768  1.22446562  0.75000000  1.0
  B  B6  1  0.68906768  0.77553438  0.25000000  1.0
  B  B7  1  -0.22446562  1.68906768  0.75000000  1.0
  B  B8  1  0.23618346  0.76381654  0.45315466  1.0
  B  B9  1  0.23618346  0.76381654  0.04684534  1.0
  B  B10  1  -0.23618346  1.23618346  0.95315466  1.0
  B  B11  1  -0.23618346  1.23618346  0.54684534  1.0
  H  H12  1  0.09846054  0.65877882  0.37636785  1.0
  H  H13  1  0.09846054  0.65877882  0.12363215  1.0
  H  H14  1  -0.34122118  1.09846054  0.87636785  1.0
  H  H15  1  -0.34122118  1.09846054  0.62363215  1.0
  H  H16  1  0.34122118  0.90153946  0.37636785  1.0
  H  H17  1  0.34122118  0.90153946  0.12363215  1.0
  H  H18  1  -0.09846054  1.34122118  0.87636785  1.0
  H  H19  1  -0.09846054  1.34122118  0.62363215  1.0
  H  H20  1  0.32887031  0.37701961  0.35731718  1.0
  H  H21  1  0.32887031  0.37701961  0.14268282  1.0
  H  H22  1  -0.62298039  1.32887031  0.85731718  1.0
  H  H23  1  -0.62298039  1.32887031  0.64268282  1.0
  H  H24  1  0.62298039  0.67112969  0.35731718  1.0
  H  H25  1  0.62298039  0.67112969  0.14268282  1.0
  H  H26  1  -0.32887031  1.62298039  0.85731718  1.0
  H  H27  1  -0.32887031  1.62298039  0.64268282  1.0
  H  H28  1  -0.13290599  1.84307084  0.25000000  1.0
  H  H29  1  0.84307084  0.86709401  0.75000000  1.0
  H  H30  1  -0.84307084  1.13290599  0.25000000  1.0
  H  H31  1  0.13290599  0.15692916  0.75000000  1.0
  H  H32  1  0.09377162  0.37955090  0.25000000  1.0
  H  H33  1  -0.62044910  1.09377162  0.75000000  1.0
  H  H34  1  0.62044910  0.90622838  0.25000000  1.0
  H  H35  1  -0.09377162  1.62044910  0.75000000  1.0
  H  H36  1  0.18178917  0.81821083  0.93781112  1.0
  H  H37  1  0.18178917  0.81821083  0.56218888  1.0
  H  H38  1  -0.18178917  1.18178917  0.43781112  1.0
  H  H39  1  -0.18178917  1.18178917  0.06218888  1.0
  H  H40  1  0.33513506  0.66486494  0.48455277  1.0
  H  H41  1  0.33513506  0.66486494  0.01544723  1.0
  H  H42  1  -0.33513506  1.33513506  0.98455277  1.0
  H  H43  1  -0.33513506  1.33513506  0.51544723  1.0
