# generated using pymatgen
data_Lu5Mg24
_symmetry_space_group_name_H-M   'P 1'
_cell_length_a   9.66524604
_cell_length_b   9.66524604
_cell_length_c   9.66524604
_cell_angle_alpha   109.47122063
_cell_angle_beta   109.47122063
_cell_angle_gamma   109.47122063
_symmetry_Int_Tables_number   1
_chemical_formula_structural   Lu5Mg24
_chemical_formula_sum   'Lu5 Mg24'
_cell_volume   695.05128518
_cell_formula_units_Z   1
loop_
 _symmetry_equiv_pos_site_id
 _symmetry_equiv_pos_as_xyz
  1  'x, y, z'
loop_
 _atom_site_type_symbol
 _atom_site_label
 _atom_site_symmetry_multiplicity
 _atom_site_fract_x
 _atom_site_fract_y
 _atom_site_fract_z
 _atom_site_occupancy
  Lu  Lu0  1  0.37061683  0.37061683  0.37061683  1.0
  Lu  Lu1  1  1.00000000  1.00000000  0.62938317  1.0
  Lu  Lu2  1  1.00000000  0.62938317  1.00000000  1.0
  Lu  Lu3  1  0.62938317  1.00000000  1.00000000  1.0
  Lu  Lu4  1  -0.00000000  -0.00000000  -0.00000000  1.0
  Mg  Mg5  1  0.81912774  0.62878944  0.62878944  1.0
  Mg  Mg6  1  0.62878944  0.81912774  0.62878944  1.0
  Mg  Mg7  1  1.00000000  1.19033831  0.37121056  1.0
  Mg  Mg8  1  1.19033831  1.00000000  0.37121056  1.0
  Mg  Mg9  1  0.62878944  0.62878944  0.81912774  1.0
  Mg  Mg10  1  0.80966169  0.80966169  0.18087226  1.0
  Mg  Mg11  1  1.00000000  0.37121056  1.19033831  1.0
  Mg  Mg12  1  0.80966169  0.18087226  0.80966169  1.0
  Mg  Mg13  1  0.18087226  0.80966169  0.80966169  1.0
  Mg  Mg14  1  0.37121056  1.00000000  1.19033831  1.0
  Mg  Mg15  1  1.19033831  0.37121056  1.00000000  1.0
  Mg  Mg16  1  0.37121056  1.19033831  1.00000000  1.0
  Mg  Mg17  1  0.28703933  0.60927119  0.60927119  1.0
  Mg  Mg18  1  0.60927119  0.28703933  0.60927119  1.0
  Mg  Mg19  1  1.00000000  0.67776813  1.39072881  1.0
  Mg  Mg20  1  0.67776813  1.00000000  1.39072881  1.0
  Mg  Mg21  1  0.60927119  0.60927119  0.28703933  1.0
  Mg  Mg22  1  1.32223187  1.32223187  0.71296067  1.0
  Mg  Mg23  1  1.00000000  1.39072881  0.67776813  1.0
  Mg  Mg24  1  1.32223187  0.71296067  1.32223187  1.0
  Mg  Mg25  1  0.71296067  1.32223187  1.32223187  1.0
  Mg  Mg26  1  1.39072881  1.00000000  0.67776813  1.0
  Mg  Mg27  1  0.67776813  1.39072881  1.00000000  1.0
  Mg  Mg28  1  1.39072881  0.67776813  1.00000000  1.0
