# generated using pymatgen
data_Cs2Na3InO4
_symmetry_space_group_name_H-M   'P 1'
_cell_length_a   6.50428718
_cell_length_b   10.29800067
_cell_length_c   12.68032866
_cell_angle_alpha   90.00000000
_cell_angle_beta   111.44318033
_cell_angle_gamma   90.00000000
_symmetry_Int_Tables_number   1
_chemical_formula_structural   Cs2Na3InO4
_chemical_formula_sum   'Cs8 Na12 In4 O16'
_cell_volume   790.55199902
_cell_formula_units_Z   4
loop_
 _symmetry_equiv_pos_site_id
 _symmetry_equiv_pos_as_xyz
  1  'x, y, z'
loop_
 _atom_site_type_symbol
 _atom_site_label
 _atom_site_symmetry_multiplicity
 _atom_site_fract_x
 _atom_site_fract_y
 _atom_site_fract_z
 _atom_site_occupancy
  Cs  Cs0  1  0.74348818  0.99808597  0.36058786  1.0
  Cs  Cs1  1  0.74348818  0.50191403  0.86058786  1.0
  Cs  Cs2  1  0.25651182  0.49808597  0.13941214  1.0
  Cs  Cs3  1  0.25651182  0.00191403  0.63941214  1.0
  Cs  Cs4  1  0.29583491  0.21599552  0.39176128  1.0
  Cs  Cs5  1  0.29583491  0.28400448  0.89176128  1.0
  Cs  Cs6  1  0.70416509  0.71599552  0.10823872  1.0
  Cs  Cs7  1  0.70416509  0.78400448  0.60823872  1.0
  Na  Na8  1  0.91514387  0.46655759  0.29982180  1.0
  Na  Na9  1  0.91514387  0.03344241  0.79982180  1.0
  Na  Na10  1  0.08485613  0.96655759  0.20017820  1.0
  Na  Na11  1  0.08485613  0.53344241  0.70017820  1.0
  Na  Na12  1  0.63606688  0.98854635  0.93216040  1.0
  Na  Na13  1  0.63606688  0.51145365  0.43216040  1.0
  Na  Na14  1  0.36393312  0.48854635  0.56783960  1.0
  Na  Na15  1  0.36393312  0.01145365  0.06783960  1.0
  Na  Na16  1  0.60778415  0.24834328  0.19863098  1.0
  Na  Na17  1  0.60778415  0.25165672  0.69863098  1.0
  Na  Na18  1  0.39221585  0.74834328  0.30136902  1.0
  Na  Na19  1  0.39221585  0.75165672  0.80136902  1.0
  In  In20  1  0.89815551  0.21653996  0.06414942  1.0
  In  In21  1  0.89815551  0.28346004  0.56414942  1.0
  In  In22  1  0.10184449  0.71653996  0.43585058  1.0
  In  In23  1  0.10184449  0.78346004  0.93585058  1.0
  O  O24  1  0.79410454  0.39481588  0.11023416  1.0
  O  O25  1  0.79410454  0.10518412  0.61023416  1.0
  O  O26  1  0.20589546  0.89481588  0.38976584  1.0
  O  O27  1  0.20589546  0.60518412  0.88976584  1.0
  O  O28  1  0.77332912  0.30755716  0.38688814  1.0
  O  O29  1  0.77332912  0.19244284  0.88688814  1.0
  O  O30  1  0.22667088  0.80755716  0.11311186  1.0
  O  O31  1  0.22667088  0.69244284  0.61311186  1.0
  O  O32  1  0.76192705  0.68181472  0.35240434  1.0
  O  O33  1  0.76192705  0.81818528  0.85240434  1.0
  O  O34  1  0.23807295  0.18181472  0.14759566  1.0
  O  O35  1  0.23807295  0.31818528  0.64759566  1.0
  O  O36  1  0.73882537  0.06612942  0.12296732  1.0
  O  O37  1  0.73882537  0.43387058  0.62296732  1.0
  O  O38  1  0.26117463  0.56612942  0.37703268  1.0
  O  O39  1  0.26117463  0.93387058  0.87703268  1.0
