# generated using pymatgen
data_Ti2H4Pd
_symmetry_space_group_name_H-M   'P 1'
_cell_length_a   6.95066530
_cell_length_b   6.95066530
_cell_length_c   6.95066530
_cell_angle_alpha   155.60948408
_cell_angle_beta   155.60948408
_cell_angle_gamma   34.76435966
_symmetry_Int_Tables_number   1
_chemical_formula_structural   Ti2H4Pd
_chemical_formula_sum   'Ti2 H4 Pd1'
_cell_volume   57.20151735
_cell_formula_units_Z   1
loop_
 _symmetry_equiv_pos_site_id
 _symmetry_equiv_pos_as_xyz
  1  'x, y, z'
loop_
 _atom_site_type_symbol
 _atom_site_label
 _atom_site_symmetry_multiplicity
 _atom_site_fract_x
 _atom_site_fract_y
 _atom_site_fract_z
 _atom_site_occupancy
  Ti  Ti0  1  0.65425166  0.65425166  1.00000000  1.0
  Ti  Ti1  1  0.34574834  0.34574834  -0.00000000  1.0
  H  H2  1  0.75000000  0.25000000  0.50000000  1.0
  H  H3  1  0.25000000  0.75000000  0.50000000  1.0
  H  H4  1  0.13091113  0.13091113  -0.00000000  1.0
  H  H5  1  0.86908887  0.86908887  1.00000000  1.0
  Pd  Pd6  1  0.00000000  0.00000000  0.00000000  1.0
