# generated using pymatgen
data_Tb4NiB13
_symmetry_space_group_name_H-M   'P 1'
_cell_length_a   7.29072165
_cell_length_b   7.29072165
_cell_length_c   6.89109446
_cell_angle_alpha   90.00000000
_cell_angle_beta   90.00000000
_cell_angle_gamma   90.00000000
_symmetry_Int_Tables_number   1
_chemical_formula_structural   Tb4NiB13
_chemical_formula_sum   'Tb8 Ni2 B26'
_cell_volume   366.29352241
_cell_formula_units_Z   2
loop_
 _symmetry_equiv_pos_site_id
 _symmetry_equiv_pos_as_xyz
  1  'x, y, z'
loop_
 _atom_site_type_symbol
 _atom_site_label
 _atom_site_symmetry_multiplicity
 _atom_site_fract_x
 _atom_site_fract_y
 _atom_site_fract_z
 _atom_site_occupancy
  Tb  Tb0  1  0.32079483  0.81393371  0.50000000  1.0
  Tb  Tb1  1  0.82079483  0.68606629  -0.00000000  1.0
  Tb  Tb2  1  0.18606629  0.32079483  0.50000000  1.0
  Tb  Tb3  1  0.68606629  0.17920517  -0.00000000  1.0
  Tb  Tb4  1  0.67920517  0.18606629  0.50000000  1.0
  Tb  Tb5  1  0.17920517  0.31393371  -0.00000000  1.0
  Tb  Tb6  1  0.81393371  0.67920517  0.50000000  1.0
  Tb  Tb7  1  0.31393371  0.82079483  -0.00000000  1.0
  Ni  Ni8  1  0.50000000  0.50000000  0.00000000  1.0
  Ni  Ni9  1  0.00000000  0.00000000  0.50000000  1.0
  B  B10  1  0.32921274  0.54018911  0.25469576  1.0
  B  B11  1  0.32921274  0.54018911  0.74530424  1.0
  B  B12  1  0.82921274  0.95981089  0.75469576  1.0
  B  B13  1  0.82921274  0.95981089  0.24530424  1.0
  B  B14  1  0.45981089  0.32921274  0.25469576  1.0
  B  B15  1  0.45981089  0.32921274  0.74530424  1.0
  B  B16  1  0.95981089  0.17078726  0.75469576  1.0
  B  B17  1  0.95981089  0.17078726  0.24530424  1.0
  B  B18  1  0.67078726  0.45981089  0.25469576  1.0
  B  B19  1  0.67078726  0.45981089  0.74530424  1.0
  B  B20  1  0.17078726  0.04018911  0.75469576  1.0
  B  B21  1  0.17078726  0.04018911  0.24530424  1.0
  B  B22  1  0.54018911  0.67078726  0.25469576  1.0
  B  B23  1  0.54018911  0.67078726  0.74530424  1.0
  B  B24  1  0.04018911  0.82921274  0.75469576  1.0
  B  B25  1  0.04018911  0.82921274  0.24530424  1.0
  B  B26  1  0.40791023  0.09208977  0.25000000  1.0
  B  B27  1  0.40791023  0.09208977  0.75000000  1.0
  B  B28  1  0.90791023  0.40791023  0.75000000  1.0
  B  B29  1  0.90791023  0.40791023  0.25000000  1.0
  B  B30  1  0.59208977  0.90791023  0.25000000  1.0
  B  B31  1  0.59208977  0.90791023  0.75000000  1.0
  B  B32  1  0.09208977  0.59208977  0.75000000  1.0
  B  B33  1  0.09208977  0.59208977  0.25000000  1.0
  B  B34  1  0.50000000  0.50000000  0.50000000  1.0
  B  B35  1  0.00000000  0.00000000  -0.00000000  1.0
