# generated using pymatgen
data_RbAgO2
_symmetry_space_group_name_H-M   'P 1'
_cell_length_a   6.66816702
_cell_length_b   6.66816702
_cell_length_c   6.02337081
_cell_angle_alpha   90.00000000
_cell_angle_beta   90.00000000
_cell_angle_gamma   137.70678893
_symmetry_Int_Tables_number   1
_chemical_formula_structural   RbAgO2
_chemical_formula_sum   'Rb2 Ag2 O4'
_cell_volume   180.22669452
_cell_formula_units_Z   2
loop_
 _symmetry_equiv_pos_site_id
 _symmetry_equiv_pos_as_xyz
  1  'x, y, z'
loop_
 _atom_site_type_symbol
 _atom_site_label
 _atom_site_symmetry_multiplicity
 _atom_site_fract_x
 _atom_site_fract_y
 _atom_site_fract_z
 _atom_site_occupancy
  Rb  Rb0  1  -0.30054559  1.30054559  0.75000000  1.0
  Rb  Rb1  1  -0.69945441  0.69945441  0.25000000  1.0
  Ag  Ag2  1  -0.00273315  1.00273315  0.75000000  1.0
  Ag  Ag3  1  -0.99726685  0.99726685  0.25000000  1.0
  O  O4  1  -0.89117801  0.89117801  0.99453369  1.0
  O  O5  1  -0.10882199  1.10882199  0.00546631  1.0
  O  O6  1  -0.89117801  0.89117801  0.50546631  1.0
  O  O7  1  -0.10882199  1.10882199  0.49453369  1.0
