# generated using pymatgen
data_NbPbS2
_symmetry_space_group_name_H-M   'P 1'
_cell_length_a   3.38439934
_cell_length_b   3.38439934
_cell_length_c   17.94850480
_cell_angle_alpha   90.00000000
_cell_angle_beta   90.00000000
_cell_angle_gamma   120.00000000
_symmetry_Int_Tables_number   1
_chemical_formula_structural   NbPbS2
_chemical_formula_sum   'Nb2 Pb2 S4'
_cell_volume   178.04185485
_cell_formula_units_Z   2
loop_
 _symmetry_equiv_pos_site_id
 _symmetry_equiv_pos_as_xyz
  1  'x, y, z'
loop_
 _atom_site_type_symbol
 _atom_site_label
 _atom_site_symmetry_multiplicity
 _atom_site_fract_x
 _atom_site_fract_y
 _atom_site_fract_z
 _atom_site_occupancy
  Nb  Nb0  1  0.33333333  0.66666667  0.25000000  1.0
  Nb  Nb1  1  0.66666667  0.33333333  0.75000000  1.0
  Pb  Pb2  1  -0.00000000  -0.00000000  0.50000000  1.0
  Pb  Pb3  1  -0.00000000  -0.00000000  -0.00000000  1.0
  S  S4  1  -0.00000000  -0.00000000  0.33588249  1.0
  S  S5  1  0.00000000  0.00000000  0.16411751  1.0
  S  S6  1  -0.00000000  -0.00000000  0.83588249  1.0
  S  S7  1  0.00000000  0.00000000  0.66411751  1.0
