# generated using pymatgen
data_ZrCoH3
_symmetry_space_group_name_H-M   'P 1'
_cell_length_a   5.48324728
_cell_length_b   5.48324728
_cell_length_c   4.30737360
_cell_angle_alpha   90.00000000
_cell_angle_beta   90.00000000
_cell_angle_gamma   142.31260820
_symmetry_Int_Tables_number   1
_chemical_formula_structural   ZrCoH3
_chemical_formula_sum   'Zr2 Co2 H6'
_cell_volume   79.17356325
_cell_formula_units_Z   2
loop_
 _symmetry_equiv_pos_site_id
 _symmetry_equiv_pos_as_xyz
  1  'x, y, z'
loop_
 _atom_site_type_symbol
 _atom_site_label
 _atom_site_symmetry_multiplicity
 _atom_site_fract_x
 _atom_site_fract_y
 _atom_site_fract_z
 _atom_site_occupancy
  Zr  Zr0  1  -0.63327905  0.63327905  0.25000000  1.0
  Zr  Zr1  1  -0.36672095  1.36672095  0.75000000  1.0
  Co  Co2  1  -0.92597912  0.92597912  0.25000000  1.0
  Co  Co3  1  -0.07402088  1.07402088  0.75000000  1.0
  H  H4  1  -0.81270629  0.81270629  0.99502619  1.0
  H  H5  1  -0.81270629  0.81270629  0.50497381  1.0
  H  H6  1  -0.18729371  1.18729371  0.49502619  1.0
  H  H7  1  -0.18729371  1.18729371  0.00497381  1.0
  H  H8  1  -0.42540850  1.42540850  0.25000000  1.0
  H  H9  1  -0.57459150  0.57459150  0.75000000  1.0
