# generated using pymatgen
data_NaSrAs
_symmetry_space_group_name_H-M   'P 1'
_cell_length_a   7.90464973
_cell_length_b   7.90464973
_cell_length_c   4.58959461
_cell_angle_alpha   90.00000000
_cell_angle_beta   90.00000000
_cell_angle_gamma   120.00000000
_symmetry_Int_Tables_number   1
_chemical_formula_structural   NaSrAs
_chemical_formula_sum   'Na3 Sr3 As3'
_cell_volume   248.35346217
_cell_formula_units_Z   3
loop_
 _symmetry_equiv_pos_site_id
 _symmetry_equiv_pos_as_xyz
  1  'x, y, z'
loop_
 _atom_site_type_symbol
 _atom_site_label
 _atom_site_symmetry_multiplicity
 _atom_site_fract_x
 _atom_site_fract_y
 _atom_site_fract_z
 _atom_site_occupancy
  Na  Na0  1  0.75762583  0.75762583  0.50000000  1.0
  Na  Na1  1  0.00000000  0.24237417  0.50000000  1.0
  Na  Na2  1  0.24237417  0.00000000  0.50000000  1.0
  Sr  Sr3  1  0.41509334  0.41509334  0.00000000  1.0
  Sr  Sr4  1  0.00000000  0.58490666  0.00000000  1.0
  Sr  Sr5  1  0.58490666  0.00000000  0.00000000  1.0
  As  As6  1  0.33333333  0.66666667  0.50000000  1.0
  As  As7  1  0.66666667  0.33333333  0.50000000  1.0
  As  As8  1  0.00000000  0.00000000  0.00000000  1.0
