# generated using pymatgen
data_TlFe(SO4)2
_symmetry_space_group_name_H-M   'P 1'
_cell_length_a   5.19904054
_cell_length_b   5.19904054
_cell_length_c   8.30591565
_cell_angle_alpha   90.00000000
_cell_angle_beta   90.00000000
_cell_angle_gamma   120.00000000
_symmetry_Int_Tables_number   1
_chemical_formula_structural   TlFe(SO4)2
_chemical_formula_sum   'Tl1 Fe1 S2 O8'
_cell_volume   194.43057315
_cell_formula_units_Z   1
loop_
 _symmetry_equiv_pos_site_id
 _symmetry_equiv_pos_as_xyz
  1  'x, y, z'
loop_
 _atom_site_type_symbol
 _atom_site_label
 _atom_site_symmetry_multiplicity
 _atom_site_fract_x
 _atom_site_fract_y
 _atom_site_fract_z
 _atom_site_occupancy
  Fe  Fe0  1  0.00000000  -0.00000000  -0.00000000  1.0
  S  S1  1  0.33333333  0.66666667  0.20810200  1.0
  S  S2  1  0.66666667  0.33333333  0.79189800  1.0
  O  O3  1  0.33333333  0.66666667  0.38506379  1.0
  O  O4  1  0.66666667  0.33333333  0.61493621  1.0
  O  O5  1  0.17667330  0.82344647  0.14794119  1.0
  O  O6  1  0.82344647  0.17667330  0.85205881  1.0
  O  O7  1  0.64677317  0.82332670  0.14794119  1.0
  O  O8  1  0.17655353  0.35322683  0.14794119  1.0
  O  O9  1  0.82332670  0.64677317  0.85205881  1.0
  O  O10  1  0.35322683  0.17655353  0.85205881  1.0
  Tl  Tl11  1  -0.00000000  -0.00000000  0.50000000  1.0
