# generated using pymatgen
data_CsK2Fe3P4ClO14
_symmetry_space_group_name_H-M   'P 1'
_cell_length_a   7.75054889
_cell_length_b   5.39516314
_cell_length_c   9.77590782
_cell_angle_alpha   103.86813191
_cell_angle_beta   99.85075442
_cell_angle_gamma   89.16375121
_symmetry_Int_Tables_number   1
_chemical_formula_structural   CsK2Fe3P4ClO14
_chemical_formula_sum   'Cs1 K2 Fe3 P4 Cl1 O14'
_cell_volume   390.86793582
_cell_formula_units_Z   1
loop_
 _symmetry_equiv_pos_site_id
 _symmetry_equiv_pos_as_xyz
  1  'x, y, z'
loop_
 _atom_site_type_symbol
 _atom_site_label
 _atom_site_symmetry_multiplicity
 _atom_site_fract_x
 _atom_site_fract_y
 _atom_site_fract_z
 _atom_site_occupancy
  Cs  Cs0  1  0.50000000  0.00000000  0.00000000  1.0
  K  K1  1  0.90723035  0.85689401  -0.32896885  1.0
  K  K2  1  0.09276965  0.14310599  -0.67103115  1.0
  Fe  Fe3  1  0.38654610  0.82582998  -0.41014259  1.0
  Fe  Fe4  1  0.61345390  0.17417002  -0.58985741  1.0
  Fe  Fe5  1  -0.00000000  0.50000000  -0.00000000  1.0
  P  P6  1  0.78277810  0.63157866  -0.70729207  1.0
  P  P7  1  0.21722190  0.36842134  -0.29270793  1.0
  P  P8  1  0.40413812  0.58344014  -0.74415661  1.0
  P  P9  1  0.59586188  0.41655986  -0.25584339  1.0
  Cl  Cl10  1  0.00000000  0.00000000  0.00000000  1.0
  O  O11  1  0.79790014  0.91364304  -0.62052323  1.0
  O  O12  1  0.20209986  0.08635696  -0.37947677  1.0
  O  O13  1  0.41359949  0.82358895  -0.61704552  1.0
  O  O14  1  0.58640051  0.17641105  -0.38295448  1.0
  O  O15  1  0.58750601  0.66690147  -0.30814699  1.0
  O  O16  1  0.41249399  0.33309853  -0.69185301  1.0
  O  O17  1  0.58741835  0.59547795  -0.80821275  1.0
  O  O18  1  0.41258165  0.40452205  -0.19178725  1.0
  O  O19  1  0.26215261  0.58355064  -0.87070298  1.0
  O  O20  1  0.73784739  0.41644936  -0.12929702  1.0
  O  O21  1  0.91295471  0.57548261  -0.81053464  1.0
  O  O22  1  0.08704529  0.42451739  -0.18946536  1.0
  O  O23  1  0.79143125  0.44694949  -0.60896053  1.0
  O  O24  1  0.20856875  0.55305051  -0.39103947  1.0
