# generated using pymatgen
data_Lu10Al3Pt
_symmetry_space_group_name_H-M   'P 1'
_cell_length_a   9.34608938
_cell_length_b   9.34608938
_cell_length_c   9.38445684
_cell_angle_alpha   90.00000000
_cell_angle_beta   90.00000000
_cell_angle_gamma   120.00000000
_symmetry_Int_Tables_number   1
_chemical_formula_structural   Lu10Al3Pt
_chemical_formula_sum   'Lu20 Al6 Pt2'
_cell_volume   709.90401609
_cell_formula_units_Z   2
loop_
 _symmetry_equiv_pos_site_id
 _symmetry_equiv_pos_as_xyz
  1  'x, y, z'
loop_
 _atom_site_type_symbol
 _atom_site_label
 _atom_site_symmetry_multiplicity
 _atom_site_fract_x
 _atom_site_fract_y
 _atom_site_fract_z
 _atom_site_occupancy
  Lu  Lu0  1  0.20530730  0.79469270  0.44508628  1.0
  Lu  Lu1  1  0.20530730  0.41061461  0.44508628  1.0
  Lu  Lu2  1  0.58938539  0.79469270  0.44508628  1.0
  Lu  Lu3  1  0.79469270  0.20530730  0.55491372  1.0
  Lu  Lu4  1  0.79469270  0.58938539  0.55491372  1.0
  Lu  Lu5  1  0.41061461  0.20530730  0.55491372  1.0
  Lu  Lu6  1  0.79469270  0.20530730  0.94508628  1.0
  Lu  Lu7  1  0.79469270  0.58938539  0.94508628  1.0
  Lu  Lu8  1  0.41061461  0.20530730  0.94508628  1.0
  Lu  Lu9  1  0.20530730  0.79469270  0.05491372  1.0
  Lu  Lu10  1  0.20530730  0.41061461  0.05491372  1.0
  Lu  Lu11  1  0.58938539  0.79469270  0.05491372  1.0
  Lu  Lu12  1  0.54194926  0.45805074  0.25000000  1.0
  Lu  Lu13  1  0.54194926  0.08389852  0.25000000  1.0
  Lu  Lu14  1  0.91610148  0.45805074  0.25000000  1.0
  Lu  Lu15  1  0.45805074  0.54194926  0.75000000  1.0
  Lu  Lu16  1  0.45805074  0.91610148  0.75000000  1.0
  Lu  Lu17  1  0.08389852  0.54194926  0.75000000  1.0
  Lu  Lu18  1  0.00000000  0.00000000  0.50000000  1.0
  Lu  Lu19  1  0.00000000  0.00000000  0.00000000  1.0
  Al  Al20  1  0.22414562  0.11207281  0.25000000  1.0
  Al  Al21  1  0.88792719  0.11207281  0.25000000  1.0
  Al  Al22  1  0.88792719  0.77585438  0.25000000  1.0
  Al  Al23  1  0.77585438  0.88792719  0.75000000  1.0
  Al  Al24  1  0.11207281  0.88792719  0.75000000  1.0
  Al  Al25  1  0.11207281  0.22414562  0.75000000  1.0
  Pt  Pt26  1  0.33333333  0.66666667  0.25000000  1.0
  Pt  Pt27  1  0.66666667  0.33333333  0.75000000  1.0
