# generated using pymatgen
data_Hf6O
_symmetry_space_group_name_H-M   'P 1'
_cell_length_a   6.04254399
_cell_length_b   6.04254399
_cell_length_c   6.04254399
_cell_angle_alpha   54.77519041
_cell_angle_beta   54.77519041
_cell_angle_gamma   54.77519041
_symmetry_Int_Tables_number   1
_chemical_formula_structural   Hf6O
_chemical_formula_sum   'Hf6 O1'
_cell_volume   137.02477873
_cell_formula_units_Z   1
loop_
 _symmetry_equiv_pos_site_id
 _symmetry_equiv_pos_as_xyz
  1  'x, y, z'
loop_
 _atom_site_type_symbol
 _atom_site_label
 _atom_site_symmetry_multiplicity
 _atom_site_fract_x
 _atom_site_fract_y
 _atom_site_fract_z
 _atom_site_occupancy
  Hf  Hf0  1  0.08646707  0.75428856  -0.58157120  1.0
  Hf  Hf1  1  0.58157120  -0.08646707  0.24571144  1.0
  Hf  Hf2  1  1.24571144  -0.41842880  -0.08646707  1.0
  Hf  Hf3  1  0.91353293  0.24571144  -0.41842880  1.0
  Hf  Hf4  1  0.41842880  0.08646707  -0.24571144  1.0
  Hf  Hf5  1  0.75428856  -0.58157120  0.08646707  1.0
  O  O6  1  0.00000000  -0.00000000  0.00000000  1.0
