# generated using pymatgen
data_Gd2WO6
_symmetry_space_group_name_H-M   'P 1'
_cell_length_a   10.04337686
_cell_length_b   10.04337686
_cell_length_c   5.47497994
_cell_angle_alpha   75.32284887
_cell_angle_beta   104.67715113
_cell_angle_gamma   111.55958318
_symmetry_Int_Tables_number   1
_chemical_formula_structural   Gd2WO6
_chemical_formula_sum   'Gd8 W4 O24'
_cell_volume   488.91308473
_cell_formula_units_Z   4
loop_
 _symmetry_equiv_pos_site_id
 _symmetry_equiv_pos_as_xyz
  1  'x, y, z'
loop_
 _atom_site_type_symbol
 _atom_site_label
 _atom_site_symmetry_multiplicity
 _atom_site_fract_x
 _atom_site_fract_y
 _atom_site_fract_z
 _atom_site_occupancy
  Gd  Gd0  1  1.71342869  0.05561620  0.61796064  1.0
  Gd  Gd1  1  0.94438380  -0.71342869  0.11796064  1.0
  Gd  Gd2  1  1.05561620  0.71342869  0.88203936  1.0
  Gd  Gd3  1  0.28657131  -0.05561620  0.38203936  1.0
  Gd  Gd4  1  0.63418867  -0.36581133  0.75000000  1.0
  Gd  Gd5  1  1.36581133  0.36581133  0.25000000  1.0
  Gd  Gd6  1  1.10753484  0.10753484  0.75000000  1.0
  Gd  Gd7  1  0.89246516  -0.10753484  0.25000000  1.0
  W  W8  1  1.50776774  0.20210104  0.93869028  1.0
  W  W9  1  0.79789896  -0.50776774  0.43869028  1.0
  W  W10  1  1.20210104  0.50776774  0.56130972  1.0
  W  W11  1  0.49223226  -0.20210104  0.06130972  1.0
  O  O12  1  0.68735150  -0.16225935  0.91894498  1.0
  O  O13  1  1.16225935  0.31264850  0.41894498  1.0
  O  O14  1  0.83774065  -0.31264850  0.58105502  1.0
  O  O15  1  1.31264850  0.16225935  0.08105502  1.0
  O  O16  1  1.89168807  0.07550217  0.42270381  1.0
  O  O17  1  0.92449783  -0.89168807  0.92270381  1.0
  O  O18  1  1.07550217  0.89168807  0.07729619  1.0
  O  O19  1  0.10831193  -0.07550217  0.57729619  1.0
  O  O20  1  0.47465427  -0.06696518  0.76245639  1.0
  O  O21  1  1.06696518  0.52534573  0.26245639  1.0
  O  O22  1  0.93303482  -0.52534573  0.73754361  1.0
  O  O23  1  1.52534573  0.06696518  0.23754361  1.0
  O  O24  1  1.67916298  0.21284576  0.86244496  1.0
  O  O25  1  0.78715424  -0.67916298  0.36244496  1.0
  O  O26  1  1.21284576  0.67916298  0.63755504  1.0
  O  O27  1  0.32083702  -0.21284576  0.13755504  1.0
  O  O28  1  1.38397764  0.17469218  0.62987145  1.0
  O  O29  1  0.82530782  -0.38397764  0.12987145  1.0
  O  O30  1  1.17469218  0.38397764  0.87012855  1.0
  O  O31  1  0.61602236  -0.17469218  0.37012855  1.0
  O  O32  1  1.54618461  0.38648732  0.98314181  1.0
  O  O33  1  0.61351268  -0.54618461  0.48314181  1.0
  O  O34  1  1.38648732  0.54618461  0.51685819  1.0
  O  O35  1  0.45381539  -0.38648732  0.01685819  1.0
