# generated using pymatgen
data_NaH6CN2ClO2
_symmetry_space_group_name_H-M   'P 1'
_cell_length_a   17.63620429
_cell_length_b   6.68215573
_cell_length_c   5.15183405
_cell_angle_alpha   90.00000000
_cell_angle_beta   90.00000000
_cell_angle_gamma   90.00000000
_symmetry_Int_Tables_number   1
_chemical_formula_structural   NaH6CN2ClO2
_chemical_formula_sum   'Na4 H24 C4 N8 Cl4 O8'
_cell_volume   607.13263673
_cell_formula_units_Z   4
loop_
 _symmetry_equiv_pos_site_id
 _symmetry_equiv_pos_as_xyz
  1  'x, y, z'
loop_
 _atom_site_type_symbol
 _atom_site_label
 _atom_site_symmetry_multiplicity
 _atom_site_fract_x
 _atom_site_fract_y
 _atom_site_fract_z
 _atom_site_occupancy
  Na  Na0  1  0.50000000  0.51431637  0.50326670  1.0
  Na  Na1  1  0.00000000  0.48568363  0.00326670  1.0
  Na  Na2  1  0.50000000  0.99073039  0.49820601  1.0
  Na  Na3  1  0.00000000  0.00926961  0.99820601  1.0
  H  H4  1  0.45635838  0.25728834  0.06744505  1.0
  H  H5  1  0.95635838  0.74271166  0.56744505  1.0
  H  H6  1  0.54364162  0.25728834  0.06744505  1.0
  H  H7  1  0.04364162  0.74271166  0.56744505  1.0
  H  H8  1  0.45728296  0.75415084  0.97409149  1.0
  H  H9  1  0.95728296  0.24584916  0.47409149  1.0
  H  H10  1  0.54271704  0.75415084  0.97409149  1.0
  H  H11  1  0.04271704  0.24584916  0.47409149  1.0
  H  H12  1  0.33324196  0.98629189  0.01981813  1.0
  H  H13  1  0.83324196  0.01370811  0.51981813  1.0
  H  H14  1  0.66675804  0.98629189  0.01981813  1.0
  H  H15  1  0.16675804  0.01370811  0.51981813  1.0
  H  H16  1  0.32237249  0.51922356  0.52928175  1.0
  H  H17  1  0.82237249  0.48077644  0.02928175  1.0
  H  H18  1  0.67762751  0.51922356  0.52928175  1.0
  H  H19  1  0.17762751  0.48077644  0.02928175  1.0
  H  H20  1  0.24551203  0.88187273  0.10787537  1.0
  H  H21  1  0.74551203  0.11812727  0.60787537  1.0
  H  H22  1  0.75448797  0.88187273  0.10787537  1.0
  H  H23  1  0.25448797  0.11812727  0.60787537  1.0
  H  H24  1  0.23878933  0.63846892  0.42119235  1.0
  H  H25  1  0.73878933  0.36153108  0.92119235  1.0
  H  H26  1  0.76121067  0.63846892  0.42119235  1.0
  H  H27  1  0.26121067  0.36153108  0.92119235  1.0
  C  C28  1  0.33945267  0.75595028  0.28349344  1.0
  C  C29  1  0.83945267  0.24404972  0.78349344  1.0
  C  C30  1  0.66054733  0.75595028  0.28349344  1.0
  C  C31  1  0.16054733  0.24404972  0.78349344  1.0
  N  N32  1  0.30276169  0.88995312  0.13216339  1.0
  N  N33  1  0.80276169  0.11004688  0.63216339  1.0
  N  N34  1  0.69723831  0.88995312  0.13216339  1.0
  N  N35  1  0.19723831  0.11004688  0.63216339  1.0
  N  N36  1  0.29644509  0.63047027  0.42677214  1.0
  N  N37  1  0.79644509  0.36952973  0.92677214  1.0
  N  N38  1  0.70355491  0.63047027  0.42677214  1.0
  N  N39  1  0.20355491  0.36952973  0.92677214  1.0
  Cl  Cl40  1  0.11870451  0.75474737  0.23339521  1.0
  Cl  Cl41  1  0.61870451  0.24525263  0.73339521  1.0
  Cl  Cl42  1  0.88129549  0.75474737  0.23339521  1.0
  Cl  Cl43  1  0.38129549  0.24525263  0.73339521  1.0
  O  O44  1  0.41138074  0.74927209  0.29236252  1.0
  O  O45  1  0.91138074  0.25072791  0.79236252  1.0
  O  O46  1  0.58861926  0.74927209  0.29236252  1.0
  O  O47  1  0.08861926  0.25072791  0.79236252  1.0
  O  O48  1  0.50000000  0.75315216  0.84953430  1.0
  O  O49  1  0.00000000  0.24684784  0.34953430  1.0
  O  O50  1  0.50000000  0.25603873  0.18781134  1.0
  O  O51  1  0.00000000  0.74396127  0.68781134  1.0
