# generated using pymatgen
data_La3AgGeS7
_symmetry_space_group_name_H-M   'P 1'
_cell_length_a   10.50796682
_cell_length_b   10.50796682
_cell_length_c   5.90360531
_cell_angle_alpha   90.00000000
_cell_angle_beta   90.00000000
_cell_angle_gamma   120.00000000
_symmetry_Int_Tables_number   1
_chemical_formula_structural   La3AgGeS7
_chemical_formula_sum   'La6 Ag2 Ge2 S14'
_cell_volume   564.52779900
_cell_formula_units_Z   2
loop_
 _symmetry_equiv_pos_site_id
 _symmetry_equiv_pos_as_xyz
  1  'x, y, z'
loop_
 _atom_site_type_symbol
 _atom_site_label
 _atom_site_symmetry_multiplicity
 _atom_site_fract_x
 _atom_site_fract_y
 _atom_site_fract_z
 _atom_site_occupancy
  La  La0  1  0.23493290  0.87623577  0.05626490  1.0
  La  La1  1  0.87623577  0.64130287  0.55626490  1.0
  La  La2  1  0.64130287  0.76506710  0.05626490  1.0
  La  La3  1  0.12376423  0.35869713  0.05626490  1.0
  La  La4  1  0.76506710  0.12376423  0.55626490  1.0
  La  La5  1  0.35869713  0.23493290  0.55626490  1.0
  Ag  Ag6  1  0.00000000  0.00000000  0.01318828  1.0
  Ag  Ag7  1  0.00000000  0.00000000  0.51318828  1.0
  Ge  Ge8  1  0.33333333  0.66666667  0.64089770  1.0
  Ge  Ge9  1  0.66666667  0.33333333  0.14089770  1.0
  S  S10  1  0.90866243  0.73443890  0.04093188  1.0
  S  S11  1  0.73443890  0.82577646  0.54093188  1.0
  S  S12  1  0.82577646  0.09133757  0.04093188  1.0
  S  S13  1  0.26556110  0.17422354  0.04093188  1.0
  S  S14  1  0.09133757  0.26556110  0.54093188  1.0
  S  S15  1  0.17422354  0.90866243  0.54093188  1.0
  S  S16  1  0.58917157  0.47905878  0.29469814  1.0
  S  S17  1  0.47905878  0.88988721  0.79469814  1.0
  S  S18  1  0.88988721  0.41082843  0.29469814  1.0
  S  S19  1  0.52094122  0.11011279  0.29469814  1.0
  S  S20  1  0.41082843  0.52094122  0.79469814  1.0
  S  S21  1  0.11011279  0.58917157  0.79469814  1.0
  S  S22  1  0.33333333  0.66666667  0.26692925  1.0
  S  S23  1  0.66666667  0.33333333  0.76692925  1.0
