# generated using pymatgen
data_Ba4P2O
_symmetry_space_group_name_H-M   'P 1'
_cell_length_a   9.04289997
_cell_length_b   9.04289997
_cell_length_c   7.57883943
_cell_angle_alpha   90.00000000
_cell_angle_beta   90.00000000
_cell_angle_gamma   132.90445531
_symmetry_Int_Tables_number   1
_chemical_formula_structural   Ba4P2O
_chemical_formula_sum   'Ba8 P4 O2'
_cell_volume   453.96235313
_cell_formula_units_Z   2
loop_
 _symmetry_equiv_pos_site_id
 _symmetry_equiv_pos_as_xyz
  1  'x, y, z'
loop_
 _atom_site_type_symbol
 _atom_site_label
 _atom_site_symmetry_multiplicity
 _atom_site_fract_x
 _atom_site_fract_y
 _atom_site_fract_z
 _atom_site_occupancy
  Ba  Ba0  1  -0.17754419  0.17754419  0.06847099  1.0
  Ba  Ba1  1  0.32245581  0.67754419  0.43152901  1.0
  Ba  Ba2  1  0.17754419  0.82245581  0.93152901  1.0
  Ba  Ba3  1  -0.32245581  0.32245581  0.56847099  1.0
  Ba  Ba4  1  0.26967432  1.23032568  0.25000000  1.0
  Ba  Ba5  1  -0.23032568  0.73032568  0.25000000  1.0
  Ba  Ba6  1  0.23032568  0.26967432  0.75000000  1.0
  Ba  Ba7  1  0.73032568  0.76967432  0.75000000  1.0
  P  P8  1  -0.13465602  0.13465602  0.47640047  1.0
  P  P9  1  0.36534398  0.63465602  0.02359953  1.0
  P  P10  1  0.13465602  0.86534398  0.52359953  1.0
  P  P11  1  -0.36534398  0.36534398  0.97640047  1.0
  O  O12  1  -0.50000000  0.50000000  0.50000000  1.0
  O  O13  1  -0.00000000  1.00000000  0.00000000  1.0
