# generated using pymatgen
data_CsAgO
_symmetry_space_group_name_H-M   'P 1'
_cell_length_a   7.99899606
_cell_length_b   7.99899606
_cell_length_c   7.99899606
_cell_angle_alpha   98.85595464
_cell_angle_beta   98.85595464
_cell_angle_gamma   133.79643630
_symmetry_Int_Tables_number   1
_chemical_formula_structural   CsAgO
_chemical_formula_sum   'Cs4 Ag4 O4'
_cell_volume   339.79977886
_cell_formula_units_Z   4
loop_
 _symmetry_equiv_pos_site_id
 _symmetry_equiv_pos_as_xyz
  1  'x, y, z'
loop_
 _atom_site_type_symbol
 _atom_site_label
 _atom_site_symmetry_multiplicity
 _atom_site_fract_x
 _atom_site_fract_y
 _atom_site_fract_z
 _atom_site_occupancy
  Cs  Cs0  1  0.50000000  0.80758696  0.30758696  1.0
  Cs  Cs1  1  0.80758696  0.50000000  1.30758696  1.0
  Cs  Cs2  1  0.19241304  0.50000000  0.69241304  1.0
  Cs  Cs3  1  0.50000000  1.19241304  0.69241304  1.0
  Ag  Ag4  1  0.85893337  0.85893337  0.71786675  1.0
  Ag  Ag5  1  1.14106663  0.85893337  1.00000000  1.0
  Ag  Ag6  1  0.85893337  0.14106663  1.00000000  1.0
  Ag  Ag7  1  0.14106663  0.14106663  0.28213325  1.0
  O  O8  1  0.00000000  0.71781931  0.71781931  1.0
  O  O9  1  0.71781931  1.00000000  0.71781931  1.0
  O  O10  1  1.28218069  1.00000000  1.28218069  1.0
  O  O11  1  0.00000000  0.28218069  0.28218069  1.0
