# generated using pymatgen
data_K3NiO2
_symmetry_space_group_name_H-M   'P 1'
_cell_length_a   6.09111434
_cell_length_b   6.09111434
_cell_length_c   7.11623761
_cell_angle_alpha   90.00000000
_cell_angle_beta   90.00000000
_cell_angle_gamma   90.00000000
_symmetry_Int_Tables_number   1
_chemical_formula_structural   K3NiO2
_chemical_formula_sum   'K6 Ni2 O4'
_cell_volume   264.02432751
_cell_formula_units_Z   2
loop_
 _symmetry_equiv_pos_site_id
 _symmetry_equiv_pos_as_xyz
  1  'x, y, z'
loop_
 _atom_site_type_symbol
 _atom_site_label
 _atom_site_symmetry_multiplicity
 _atom_site_fract_x
 _atom_site_fract_y
 _atom_site_fract_z
 _atom_site_occupancy
  K  K0  1  0.50000000  0.00000000  0.25000000  1.0
  K  K1  1  0.50000000  0.00000000  0.75000000  1.0
  K  K2  1  0.00000000  0.50000000  0.75000000  1.0
  K  K3  1  0.00000000  0.50000000  0.25000000  1.0
  K  K4  1  0.50000000  0.50000000  0.00000000  1.0
  K  K5  1  0.00000000  0.00000000  0.50000000  1.0
  Ni  Ni6  1  0.50000000  0.50000000  0.50000000  1.0
  Ni  Ni7  1  0.00000000  0.00000000  0.00000000  1.0
  O  O8  1  0.29492782  0.70507218  0.50000000  1.0
  O  O9  1  0.79492782  0.79492782  0.00000000  1.0
  O  O10  1  0.70507218  0.29492782  0.50000000  1.0
  O  O11  1  0.20507218  0.20507218  0.00000000  1.0
