# generated using pymatgen
data_K3Cu3P2
_symmetry_space_group_name_H-M   'P 1'
_cell_length_a   7.45617022
_cell_length_b   7.45617022
_cell_length_c   7.45617022
_cell_angle_alpha   45.30861007
_cell_angle_beta   45.30861007
_cell_angle_gamma   45.30861007
_symmetry_Int_Tables_number   1
_chemical_formula_structural   K3Cu3P2
_chemical_formula_sum   'K3 Cu3 P2'
_cell_volume   190.80181325
_cell_formula_units_Z   1
loop_
 _symmetry_equiv_pos_site_id
 _symmetry_equiv_pos_as_xyz
  1  'x, y, z'
loop_
 _atom_site_type_symbol
 _atom_site_label
 _atom_site_symmetry_multiplicity
 _atom_site_fract_x
 _atom_site_fract_y
 _atom_site_fract_z
 _atom_site_occupancy
  K  K0  1  0.90821409  0.90821409  0.90821409  1.0
  K  K1  1  1.09178591  1.09178591  0.09178591  1.0
  K  K2  1  1.50000000  0.50000000  0.50000000  1.0
  Cu  Cu3  1  0.50000000  -0.00000000  -0.50000000  1.0
  Cu  Cu4  1  0.50000000  -0.50000000  -0.00000000  1.0
  Cu  Cu5  1  -0.00000000  0.50000000  -0.50000000  1.0
  P  P6  1  0.74315872  0.74315872  0.74315872  1.0
  P  P7  1  1.25684128  1.25684128  0.25684128  1.0
