# generated using pymatgen
data_Ti2FeSe4
_symmetry_space_group_name_H-M   'P 1'
_cell_length_a   7.15527491
_cell_length_b   7.15527491
_cell_length_c   12.09180231
_cell_angle_alpha   90.00000000
_cell_angle_beta   90.00000000
_cell_angle_gamma   120.00000000
_symmetry_Int_Tables_number   1
_chemical_formula_structural   Ti2FeSe4
_chemical_formula_sum   'Ti8 Fe4 Se16'
_cell_volume   536.13519522
_cell_formula_units_Z   4
loop_
 _symmetry_equiv_pos_site_id
 _symmetry_equiv_pos_as_xyz
  1  'x, y, z'
loop_
 _atom_site_type_symbol
 _atom_site_label
 _atom_site_symmetry_multiplicity
 _atom_site_fract_x
 _atom_site_fract_y
 _atom_site_fract_z
 _atom_site_occupancy
  Fe  Fe0  1  0.00000000  0.00000000  0.00000000  1.0
  Fe  Fe1  1  0.50000000  0.00000000  0.50000000  1.0
  Fe  Fe2  1  0.50000000  0.50000000  0.50000000  1.0
  Fe  Fe3  1  0.00000000  0.50000000  0.50000000  1.0
  Ti  Ti4  1  0.00000000  0.00000000  0.75406205  1.0
  Ti  Ti5  1  0.00000000  0.00000000  0.24593795  1.0
  Ti  Ti6  1  0.98094819  0.49047409  0.75306278  1.0
  Ti  Ti7  1  0.50952591  0.01905181  0.75306278  1.0
  Ti  Ti8  1  0.50952591  0.49047409  0.75306278  1.0
  Ti  Ti9  1  0.01905181  0.50952591  0.24693722  1.0
  Ti  Ti10  1  0.49047409  0.98094819  0.24693722  1.0
  Ti  Ti11  1  0.49047409  0.50952591  0.24693722  1.0
  Se  Se12  1  0.66666667  0.33333333  0.37305264  1.0
  Se  Se13  1  0.33333333  0.66666667  0.62694736  1.0
  Se  Se14  1  0.66666667  0.33333333  0.88516444  1.0
  Se  Se15  1  0.33333333  0.66666667  0.11483556  1.0
  Se  Se16  1  0.33599632  0.16799816  0.12206590  1.0
  Se  Se17  1  0.83200184  0.66400368  0.12206590  1.0
  Se  Se18  1  0.83200184  0.16799816  0.12206590  1.0
  Se  Se19  1  0.66400368  0.83200184  0.87793410  1.0
  Se  Se20  1  0.16799816  0.33599632  0.87793410  1.0
  Se  Se21  1  0.16799816  0.83200184  0.87793410  1.0
  Se  Se22  1  0.32961365  0.16480683  0.61977627  1.0
  Se  Se23  1  0.83519317  0.67038635  0.61977627  1.0
  Se  Se24  1  0.83519317  0.16480683  0.61977627  1.0
  Se  Se25  1  0.67038635  0.83519317  0.38022373  1.0
  Se  Se26  1  0.16480683  0.32961365  0.38022373  1.0
  Se  Se27  1  0.16480683  0.83519317  0.38022373  1.0
