# generated using pymatgen
data_SrVClO3
_symmetry_space_group_name_H-M   'P 1'
_cell_length_a   10.23955728
_cell_length_b   5.30196572
_cell_length_c   7.05509672
_cell_angle_alpha   90.00000000
_cell_angle_beta   90.00000000
_cell_angle_gamma   90.00000000
_symmetry_Int_Tables_number   1
_chemical_formula_structural   SrVClO3
_chemical_formula_sum   'Sr4 V4 Cl4 O12'
_cell_volume   383.01966079
_cell_formula_units_Z   4
loop_
 _symmetry_equiv_pos_site_id
 _symmetry_equiv_pos_as_xyz
  1  'x, y, z'
loop_
 _atom_site_type_symbol
 _atom_site_label
 _atom_site_symmetry_multiplicity
 _atom_site_fract_x
 _atom_site_fract_y
 _atom_site_fract_z
 _atom_site_occupancy
  Sr  Sr0  1  0.31075293  0.75000000  0.09514389  1.0
  Sr  Sr1  1  0.81075293  0.75000000  0.40485611  1.0
  Sr  Sr2  1  0.68924707  0.25000000  0.90485611  1.0
  Sr  Sr3  1  0.18924707  0.25000000  0.59514389  1.0
  V  V4  1  0.45846291  0.75000000  0.55327493  1.0
  V  V5  1  0.95846291  0.75000000  0.94672507  1.0
  V  V6  1  0.54153709  0.25000000  0.44672507  1.0
  V  V7  1  0.04153709  0.25000000  0.05327493  1.0
  Cl  Cl8  1  0.10824626  0.75000000  0.43132717  1.0
  Cl  Cl9  1  0.60824626  0.75000000  0.06867283  1.0
  Cl  Cl10  1  0.89175374  0.25000000  0.56867283  1.0
  Cl  Cl11  1  0.39175374  0.25000000  0.93132717  1.0
  O  O12  1  0.10014490  0.99224478  0.90728845  1.0
  O  O13  1  0.10014490  0.50775522  0.90728845  1.0
  O  O14  1  0.60014490  0.99224478  0.59271155  1.0
  O  O15  1  0.60014490  0.50775522  0.59271155  1.0
  O  O16  1  0.89985510  0.49224478  0.09271155  1.0
  O  O17  1  0.89985510  0.00775522  0.09271155  1.0
  O  O18  1  0.39985510  0.49224478  0.40728845  1.0
  O  O19  1  0.39985510  0.00775522  0.40728845  1.0
  O  O20  1  0.36318945  0.75000000  0.73664178  1.0
  O  O21  1  0.86318945  0.75000000  0.76335822  1.0
  O  O22  1  0.63681055  0.25000000  0.26335822  1.0
  O  O23  1  0.13681055  0.25000000  0.23664178  1.0
