# generated using pymatgen
data_Na6S2ClO8F
_symmetry_space_group_name_H-M   'P 1'
_cell_length_a   7.23505078
_cell_length_b   7.23505078
_cell_length_c   7.23505078
_cell_angle_alpha   60.00000000
_cell_angle_beta   60.00000000
_cell_angle_gamma   60.00000000
_symmetry_Int_Tables_number   1
_chemical_formula_structural   Na6S2ClO8F
_chemical_formula_sum   'Na6 S2 Cl1 O8 F1'
_cell_volume   267.79949505
_cell_formula_units_Z   1
loop_
 _symmetry_equiv_pos_site_id
 _symmetry_equiv_pos_as_xyz
  1  'x, y, z'
loop_
 _atom_site_type_symbol
 _atom_site_label
 _atom_site_symmetry_multiplicity
 _atom_site_fract_x
 _atom_site_fract_y
 _atom_site_fract_z
 _atom_site_occupancy
  Na  Na0  1  -0.77706997  0.77706997  0.77706997  1.0
  Na  Na1  1  -0.22293003  0.22293003  0.77706997  1.0
  Na  Na2  1  0.77706997  0.77706997  -0.77706997  1.0
  Na  Na3  1  0.22293003  1.22293003  -0.22293003  1.0
  Na  Na4  1  0.22293003  -0.22293003  1.22293003  1.0
  Na  Na5  1  -0.22293003  0.22293003  0.22293003  1.0
  S  S6  1  0.75000000  0.75000000  -0.25000000  1.0
  S  S7  1  1.25000000  0.25000000  0.25000000  1.0
  Cl  Cl8  1  -0.50000000  0.50000000  0.50000000  1.0
  O  O9  1  0.83464068  0.83464068  -0.16535932  1.0
  O  O10  1  1.16535932  0.16535932  0.50392203  1.0
  O  O11  1  1.16535932  0.50392203  0.16535932  1.0
  O  O12  1  0.49607797  0.83464068  -0.16535932  1.0
  O  O13  1  1.50392203  0.16535932  0.16535932  1.0
  O  O14  1  0.83464068  0.49607797  -0.16535932  1.0
  O  O15  1  0.83464068  0.83464068  -0.50392203  1.0
  O  O16  1  1.16535932  0.16535932  0.16535932  1.0
  F  F17  1  0.00000000  0.00000000  0.00000000  1.0
