# generated using pymatgen
data_CrCl3
_symmetry_space_group_name_H-M   'P 1'
_cell_length_a   6.06408987
_cell_length_b   6.06408987
_cell_length_c   20.11061648
_cell_angle_alpha   90.00000000
_cell_angle_beta   90.00000000
_cell_angle_gamma   120.00000000
_symmetry_Int_Tables_number   1
_chemical_formula_structural   CrCl3
_chemical_formula_sum   'Cr6 Cl18'
_cell_volume   640.45301362
_cell_formula_units_Z   6
loop_
 _symmetry_equiv_pos_site_id
 _symmetry_equiv_pos_as_xyz
  1  'x, y, z'
loop_
 _atom_site_type_symbol
 _atom_site_label
 _atom_site_symmetry_multiplicity
 _atom_site_fract_x
 _atom_site_fract_y
 _atom_site_fract_z
 _atom_site_occupancy
  Cr  Cr0  1  0.11171649  0.55585825  -0.00000000  1.0
  Cr  Cr1  1  0.44414175  0.55585825  0.33333333  1.0
  Cr  Cr2  1  0.44414175  0.88828351  0.66666667  1.0
  Cr  Cr3  1  0.44500045  0.22250022  0.00000000  1.0
  Cr  Cr4  1  0.77749978  0.22250022  0.33333333  1.0
  Cr  Cr5  1  0.77749978  0.55499955  0.66666667  1.0
  Cl  Cl6  1  0.13851282  0.88916368  0.06641096  1.0
  Cl  Cl7  1  0.13851282  0.24934914  0.93358904  1.0
  Cl  Cl8  1  0.75065086  0.88916368  0.26692237  1.0
  Cl  Cl9  1  0.75065086  0.86148718  0.73307763  1.0
  Cl  Cl10  1  0.11083632  0.86148718  0.60025571  1.0
  Cl  Cl11  1  0.11083632  0.24934914  0.39974429  1.0
  Cl  Cl12  1  0.41826248  0.88923153  0.93364068  1.0
  Cl  Cl13  1  0.41826248  0.52903095  0.06635932  1.0
  Cl  Cl14  1  0.47096905  0.88923153  0.39969265  1.0
  Cl  Cl15  1  0.47096905  0.58173752  0.60030735  1.0
  Cl  Cl16  1  0.11076847  0.58173752  0.73302599  1.0
  Cl  Cl17  1  0.11076847  0.52903095  0.26697401  1.0
  Cl  Cl18  1  0.77842917  0.52926957  0.93366195  1.0
  Cl  Cl19  1  0.77842917  0.24915960  0.06633805  1.0
  Cl  Cl20  1  0.75084040  0.52926957  0.39967138  1.0
  Cl  Cl21  1  0.75084040  0.22157083  0.60032862  1.0
  Cl  Cl22  1  0.47073043  0.22157083  0.73300472  1.0
  Cl  Cl23  1  0.47073043  0.24915960  0.26699528  1.0
