# generated using pymatgen
data_Hg3AsSe4Br
_symmetry_space_group_name_H-M   'P 1'
_cell_length_a   7.85588812
_cell_length_b   7.85588812
_cell_length_c   10.34739937
_cell_angle_alpha   90.00000000
_cell_angle_beta   90.00000000
_cell_angle_gamma   120.00000000
_symmetry_Int_Tables_number   1
_chemical_formula_structural   Hg3AsSe4Br
_chemical_formula_sum   'Hg6 As2 Se8 Br2'
_cell_volume   553.03475296
_cell_formula_units_Z   2
loop_
 _symmetry_equiv_pos_site_id
 _symmetry_equiv_pos_as_xyz
  1  'x, y, z'
loop_
 _atom_site_type_symbol
 _atom_site_label
 _atom_site_symmetry_multiplicity
 _atom_site_fract_x
 _atom_site_fract_y
 _atom_site_fract_z
 _atom_site_occupancy
  Hg  Hg0  1  0.99798700  0.49899350  0.01486722  1.0
  Hg  Hg1  1  0.49899350  0.99798700  0.51486722  1.0
  Hg  Hg2  1  0.49899350  0.50100650  0.51486722  1.0
  Hg  Hg3  1  0.50100650  0.49899350  0.01486722  1.0
  Hg  Hg4  1  0.50100650  0.00201300  0.01486722  1.0
  Hg  Hg5  1  0.00201300  0.50100650  0.51486722  1.0
  As  As6  1  0.00000000  0.00000000  0.01047322  1.0
  As  As7  1  0.00000000  0.00000000  0.51047322  1.0
  Se  Se8  1  0.69620963  0.84810482  0.13609863  1.0
  Se  Se9  1  0.84810482  0.69620963  0.63609863  1.0
  Se  Se10  1  0.84810482  0.15189518  0.63609863  1.0
  Se  Se11  1  0.15189518  0.84810482  0.13609863  1.0
  Se  Se12  1  0.15189518  0.30379037  0.13609863  1.0
  Se  Se13  1  0.30379037  0.15189518  0.63609863  1.0
  Se  Se14  1  0.33333333  0.66666667  0.38732449  1.0
  Se  Se15  1  0.66666667  0.33333333  0.88732449  1.0
  Br  Br16  1  0.33333333  0.66666667  0.81930473  1.0
  Br  Br17  1  0.66666667  0.33333333  0.31930473  1.0
