# generated using pymatgen
data_C3IF2
_symmetry_space_group_name_H-M   'P 1'
_cell_length_a   8.62774961
_cell_length_b   6.29417297
_cell_length_c   10.03848299
_cell_angle_alpha   90.00000000
_cell_angle_beta   105.43635466
_cell_angle_gamma   90.00000000
_symmetry_Int_Tables_number   1
_chemical_formula_structural   C3IF2
_chemical_formula_sum   'C12 I4 F8'
_cell_volume   525.47046367
_cell_formula_units_Z   4
loop_
 _symmetry_equiv_pos_site_id
 _symmetry_equiv_pos_as_xyz
  1  'x, y, z'
loop_
 _atom_site_type_symbol
 _atom_site_label
 _atom_site_symmetry_multiplicity
 _atom_site_fract_x
 _atom_site_fract_y
 _atom_site_fract_z
 _atom_site_occupancy
  C  C0  1  0.98482736  0.18517641  0.06985646  1.0
  C  C1  1  0.98482736  0.31482359  0.56985646  1.0
  C  C2  1  0.01517264  0.68517641  0.43014354  1.0
  C  C3  1  0.01517264  0.81482359  0.93014354  1.0
  C  C4  1  0.86151874  0.89133966  0.92329857  1.0
  C  C5  1  0.86151874  0.60866034  0.42329857  1.0
  C  C6  1  0.13848126  0.39133966  0.57670143  1.0
  C  C7  1  0.13848126  0.10866034  0.07670143  1.0
  C  C8  1  0.84820828  0.42204788  0.49429143  1.0
  C  C9  1  0.84820828  0.07795212  0.99429143  1.0
  C  C10  1  0.15179172  0.92204788  0.00570857  1.0
  C  C11  1  0.15179172  0.57795212  0.50570857  1.0
  I  I12  1  0.34369321  0.27110619  0.18974606  1.0
  I  I13  1  0.34369321  0.22889381  0.68974606  1.0
  I  I14  1  0.65630679  0.77110619  0.31025394  1.0
  I  I15  1  0.65630679  0.72889381  0.81025394  1.0
  F  F16  1  0.96526102  0.36537553  0.13683202  1.0
  F  F17  1  0.96526102  0.13462447  0.63683202  1.0
  F  F18  1  0.03473898  0.86537553  0.36316798  1.0
  F  F19  1  0.03473898  0.63462447  0.86316798  1.0
  F  F20  1  0.70220810  0.34112622  0.49109297  1.0
  F  F21  1  0.70220810  0.15887378  0.99109297  1.0
  F  F22  1  0.29779190  0.84112622  0.00890703  1.0
  F  F23  1  0.29779190  0.65887378  0.50890703  1.0
