# generated using pymatgen
data_Y5(In2Pt)2
_symmetry_space_group_name_H-M   'P 1'
_cell_length_a   8.10301401
_cell_length_b   18.27152801
_cell_length_c   3.66959779
_cell_angle_alpha   90.00000000
_cell_angle_beta   90.00000000
_cell_angle_gamma   90.00000000
_symmetry_Int_Tables_number   1
_chemical_formula_structural   Y5(In2Pt)2
_chemical_formula_sum   'Y10 In8 Pt4'
_cell_volume   543.30027314
_cell_formula_units_Z   2
loop_
 _symmetry_equiv_pos_site_id
 _symmetry_equiv_pos_as_xyz
  1  'x, y, z'
loop_
 _atom_site_type_symbol
 _atom_site_label
 _atom_site_symmetry_multiplicity
 _atom_site_fract_x
 _atom_site_fract_y
 _atom_site_fract_z
 _atom_site_occupancy
  Y  Y0  1  0.25685246  0.72086604  0.00000000  1.0
  Y  Y1  1  0.75685246  0.77913396  0.00000000  1.0
  Y  Y2  1  0.74314754  0.27913396  0.00000000  1.0
  Y  Y3  1  0.24314754  0.22086604  0.00000000  1.0
  Y  Y4  1  0.38467804  0.91529487  0.00000000  1.0
  Y  Y5  1  0.88467804  0.58470513  0.00000000  1.0
  Y  Y6  1  0.61532196  0.08470513  0.00000000  1.0
  Y  Y7  1  0.11532196  0.41529487  0.00000000  1.0
  Y  Y8  1  0.50000000  0.50000000  0.00000000  1.0
  Y  Y9  1  0.00000000  0.00000000  0.00000000  1.0
  In  In10  1  0.21006641  0.56749568  0.50000000  1.0
  In  In11  1  0.71006641  0.93250432  0.50000000  1.0
  In  In12  1  0.78993359  0.43250432  0.50000000  1.0
  In  In13  1  0.28993359  0.06749568  0.50000000  1.0
  In  In14  1  0.07527550  0.85168330  0.50000000  1.0
  In  In15  1  0.57527550  0.64831670  0.50000000  1.0
  In  In16  1  0.92472450  0.14831670  0.50000000  1.0
  In  In17  1  0.42472450  0.35168330  0.50000000  1.0
  Pt  Pt18  1  0.47486812  0.80384527  0.50000000  1.0
  Pt  Pt19  1  0.97486812  0.69615473  0.50000000  1.0
  Pt  Pt20  1  0.52513188  0.19615473  0.50000000  1.0
  Pt  Pt21  1  0.02513188  0.30384527  0.50000000  1.0
