# generated using pymatgen
data_Li2V2(SO4)3
_symmetry_space_group_name_H-M   'P 1'
_cell_length_a   7.94658021
_cell_length_b   7.94658021
_cell_length_c   8.79075546
_cell_angle_alpha   68.42451487
_cell_angle_beta   111.57548513
_cell_angle_gamma   113.40726177
_symmetry_Int_Tables_number   1
_chemical_formula_structural   Li2V2(SO4)3
_chemical_formula_sum   'Li4 V4 S6 O24'
_cell_volume   457.48534842
_cell_formula_units_Z   2
loop_
 _symmetry_equiv_pos_site_id
 _symmetry_equiv_pos_as_xyz
  1  'x, y, z'
loop_
 _atom_site_type_symbol
 _atom_site_label
 _atom_site_symmetry_multiplicity
 _atom_site_fract_x
 _atom_site_fract_y
 _atom_site_fract_z
 _atom_site_occupancy
  Li  Li0  1  0.67440024  0.12909702  0.95230390  1.0
  Li  Li1  1  0.87090298  0.32559976  0.45230390  1.0
  Li  Li2  1  1.12909702  -0.32559976  0.54769610  1.0
  Li  Li3  1  1.32559976  -0.12909702  0.04769610  1.0
  V  V4  1  1.62823861  -0.12718435  0.48392522  1.0
  V  V5  1  1.12718435  -0.62823861  0.98392522  1.0
  V  V6  1  0.87281565  0.62823861  0.01607478  1.0
  V  V7  1  0.37176139  0.12718435  0.51607478  1.0
  S  S8  1  0.54203331  0.24902677  0.17913532  1.0
  S  S9  1  0.75097323  0.45796669  0.67913532  1.0
  S  S10  1  1.24902677  -0.45796669  0.32086468  1.0
  S  S11  1  1.45796669  -0.24902677  0.82086468  1.0
  S  S12  1  0.93814331  0.93814331  0.25000000  1.0
  S  S13  1  0.06185669  0.06185669  0.75000000  1.0
  O  O14  1  1.78423936  -0.10217485  0.32573889  1.0
  O  O15  1  1.10217485  -0.78423936  0.82573889  1.0
  O  O16  1  0.89782515  0.78423936  0.17426111  1.0
  O  O17  1  0.21576064  0.10217485  0.67426111  1.0
  O  O18  1  1.38381199  -0.25997567  0.30727403  1.0
  O  O19  1  1.25997567  -0.38381199  0.80727403  1.0
  O  O20  1  0.74002433  0.38381199  0.19272597  1.0
  O  O21  1  0.61618801  0.25997567  0.69272597  1.0
  O  O22  1  0.54350713  0.13173457  0.36349413  1.0
  O  O23  1  0.86826543  0.45649287  0.86349413  1.0
  O  O24  1  1.13173457  -0.45649287  0.13650587  1.0
  O  O25  1  1.45649287  -0.13173457  0.63650587  1.0
  O  O26  1  0.50477796  0.12283642  0.07403410  1.0
  O  O27  1  0.87716358  0.49522204  0.57403410  1.0
  O  O28  1  1.12283642  -0.49522204  0.42596590  1.0
  O  O29  1  1.49522204  -0.12283642  0.92596590  1.0
  O  O30  1  1.12504263  -0.05283438  0.38371466  1.0
  O  O31  1  1.05283438  -0.12504263  0.88371466  1.0
  O  O32  1  0.94716562  0.12504263  0.11628534  1.0
  O  O33  1  0.87495737  0.05283438  0.61628534  1.0
  O  O34  1  1.34820735  -0.60047706  0.38240728  1.0
  O  O35  1  1.60047706  -0.34820735  0.88240728  1.0
  O  O36  1  0.39952294  0.34820735  0.11759272  1.0
  O  O37  1  0.65179265  0.60047706  0.61759272  1.0
