# generated using pymatgen
data_SiO2
_symmetry_space_group_name_H-M   'P 1'
_cell_length_a   11.79714667
_cell_length_b   11.79714667
_cell_length_c   4.37695575
_cell_angle_alpha   90.00000000
_cell_angle_beta   90.00000000
_cell_angle_gamma   90.00000000
_symmetry_Int_Tables_number   1
_chemical_formula_structural   SiO2
_chemical_formula_sum   'Si16 O32'
_cell_volume   609.15261625
_cell_formula_units_Z   16
loop_
 _symmetry_equiv_pos_site_id
 _symmetry_equiv_pos_as_xyz
  1  'x, y, z'
loop_
 _atom_site_type_symbol
 _atom_site_label
 _atom_site_symmetry_multiplicity
 _atom_site_fract_x
 _atom_site_fract_y
 _atom_site_fract_z
 _atom_site_occupancy
  Si  Si0  1  0.26230709  0.91830078  0.72293125  1.0
  Si  Si1  1  0.73769291  0.08169922  0.72293125  1.0
  Si  Si2  1  0.76230709  0.41830078  0.27706875  1.0
  Si  Si3  1  0.23769291  0.58169922  0.27706875  1.0
  Si  Si4  1  0.91830078  0.73769291  0.27706875  1.0
  Si  Si5  1  0.08169922  0.26230709  0.27706875  1.0
  Si  Si6  1  0.41830078  0.23769291  0.72293125  1.0
  Si  Si7  1  0.58169922  0.76230709  0.72293125  1.0
  Si  Si8  1  0.73769394  0.91829270  0.27704273  1.0
  Si  Si9  1  0.26230606  0.08170730  0.27704273  1.0
  Si  Si10  1  0.23769394  0.41829270  0.72295727  1.0
  Si  Si11  1  0.76230606  0.58170730  0.72295727  1.0
  Si  Si12  1  0.91829270  0.26230606  0.72295727  1.0
  Si  Si13  1  0.08170730  0.73769394  0.72295727  1.0
  Si  Si14  1  0.41829270  0.76230606  0.27704273  1.0
  Si  Si15  1  0.58170730  0.23769394  0.27704273  1.0
  O  O16  1  0.18778680  0.00000245  0.49998446  1.0
  O  O17  1  0.81221320  0.99999755  0.49998446  1.0
  O  O18  1  0.68778680  0.50000245  0.50001554  1.0
  O  O19  1  0.31221320  0.49999755  0.50001554  1.0
  O  O20  1  0.00000245  0.81221320  0.50001554  1.0
  O  O21  1  0.99999755  0.18778680  0.50001554  1.0
  O  O22  1  0.50000245  0.31221320  0.49998446  1.0
  O  O23  1  0.49999755  0.68778680  0.49998446  1.0
  O  O24  1  0.67727615  0.67728397  0.86541063  1.0
  O  O25  1  0.32272385  0.32271603  0.86541063  1.0
  O  O26  1  0.17727615  0.17728397  0.13458937  1.0
  O  O27  1  0.82272385  0.82271603  0.13458937  1.0
  O  O28  1  0.67728397  0.32272385  0.13458937  1.0
  O  O29  1  0.32271603  0.67727615  0.13458937  1.0
  O  O30  1  0.17728397  0.82272385  0.86541063  1.0
  O  O31  1  0.82271603  0.17727615  0.86541063  1.0
  O  O32  1  0.31188975  1.00000681  -0.00001757  1.0
  O  O33  1  0.68811025  -0.00000681  -0.00001757  1.0
  O  O34  1  0.81188975  0.50000681  1.00001757  1.0
  O  O35  1  0.18811025  0.49999319  1.00001757  1.0
  O  O36  1  1.00000681  0.68811025  1.00001757  1.0
  O  O37  1  -0.00000681  0.31188975  1.00001757  1.0
  O  O38  1  0.50000681  0.18811025  -0.00001757  1.0
  O  O39  1  0.49999319  0.81188975  -0.00001757  1.0
  O  O40  1  0.64062772  0.85936788  0.49998108  1.0
  O  O41  1  0.35937228  0.14063212  0.49998108  1.0
  O  O42  1  0.14062772  0.35936788  0.50001892  1.0
  O  O43  1  0.85937228  0.64063212  0.50001892  1.0
  O  O44  1  0.85936788  0.35937228  0.50001892  1.0
  O  O45  1  0.14063212  0.64062772  0.50001892  1.0
  O  O46  1  0.35936788  0.85937228  0.49998108  1.0
  O  O47  1  0.64063212  0.14062772  0.49998108  1.0
