# generated using pymatgen
data_TbWC2
_symmetry_space_group_name_H-M   'P 1'
_cell_length_a   5.68742219
_cell_length_b   3.35375771
_cell_length_c   10.79235983
_cell_angle_alpha   90.00000000
_cell_angle_beta   90.00000000
_cell_angle_gamma   90.00000000
_symmetry_Int_Tables_number   1
_chemical_formula_structural   TbWC2
_chemical_formula_sum   'Tb4 W4 C8'
_cell_volume   205.85601857
_cell_formula_units_Z   4
loop_
 _symmetry_equiv_pos_site_id
 _symmetry_equiv_pos_as_xyz
  1  'x, y, z'
loop_
 _atom_site_type_symbol
 _atom_site_label
 _atom_site_symmetry_multiplicity
 _atom_site_fract_x
 _atom_site_fract_y
 _atom_site_fract_z
 _atom_site_occupancy
  Tb  Tb0  1  0.91664422  0.75000000  0.36201135  1.0
  Tb  Tb1  1  0.41664422  0.75000000  0.13798865  1.0
  Tb  Tb2  1  0.08335578  0.25000000  0.63798865  1.0
  Tb  Tb3  1  0.58335578  0.25000000  0.86201135  1.0
  W  W4  1  0.59340546  0.75000000  0.60809953  1.0
  W  W5  1  0.09340546  0.75000000  0.89190047  1.0
  W  W6  1  0.40659454  0.25000000  0.39190047  1.0
  W  W7  1  0.90659454  0.25000000  0.10809953  1.0
  C  C8  1  0.83955059  0.75000000  0.74719973  1.0
  C  C9  1  0.33955059  0.75000000  0.75280027  1.0
  C  C10  1  0.16044941  0.25000000  0.25280027  1.0
  C  C11  1  0.66044941  0.25000000  0.24719973  1.0
  C  C12  1  0.77223730  0.75000000  0.01330376  1.0
  C  C13  1  0.27223730  0.75000000  0.48669624  1.0
  C  C14  1  0.22776270  0.25000000  0.98669624  1.0
  C  C15  1  0.72776270  0.25000000  0.51330376  1.0
