# generated using pymatgen
data_Ba3ZrF10
_symmetry_space_group_name_H-M   'P 1'
_cell_length_a   8.74789283
_cell_length_b   8.74789283
_cell_length_c   6.17599708
_cell_angle_alpha   90.00000000
_cell_angle_beta   90.00000000
_cell_angle_gamma   101.12876649
_symmetry_Int_Tables_number   1
_chemical_formula_structural   Ba3ZrF10
_chemical_formula_sum   'Ba6 Zr2 F20'
_cell_volume   463.73481965
_cell_formula_units_Z   2
loop_
 _symmetry_equiv_pos_site_id
 _symmetry_equiv_pos_as_xyz
  1  'x, y, z'
loop_
 _atom_site_type_symbol
 _atom_site_label
 _atom_site_symmetry_multiplicity
 _atom_site_fract_x
 _atom_site_fract_y
 _atom_site_fract_z
 _atom_site_occupancy
  Ba  Ba0  1  0.11069531  0.88930469  0.25000000  1.0
  Ba  Ba1  1  -0.11069531  1.11069531  0.75000000  1.0
  Ba  Ba2  1  0.17488338  0.39785757  0.25000000  1.0
  Ba  Ba3  1  -0.60214243  1.17488338  0.75000000  1.0
  Ba  Ba4  1  0.60214243  0.82511662  0.25000000  1.0
  Ba  Ba5  1  -0.17488338  1.60214243  0.75000000  1.0
  Zr  Zr6  1  -0.31880035  1.31880035  0.25000000  1.0
  Zr  Zr7  1  0.31880035  0.68119965  0.75000000  1.0
  F  F8  1  -0.11294196  1.34645225  0.45903574  1.0
  F  F9  1  -0.11294196  1.34645225  0.04096426  1.0
  F  F10  1  0.34645225  0.88705804  0.95903574  1.0
  F  F11  1  0.34645225  0.88705804  0.54096426  1.0
  F  F12  1  -0.34645225  1.11294196  0.45903574  1.0
  F  F13  1  -0.34645225  1.11294196  0.04096426  1.0
  F  F14  1  0.11294196  0.65354775  0.95903574  1.0
  F  F15  1  0.11294196  0.65354775  0.54096426  1.0
  F  F16  1  -0.24384006  1.56385837  0.25000000  1.0
  F  F17  1  0.56385837  0.75615994  0.75000000  1.0
  F  F18  1  -0.56385837  1.24384006  0.25000000  1.0
  F  F19  1  0.24384006  0.43614163  0.75000000  1.0
  F  F20  1  0.39483189  0.60516811  0.45970540  1.0
  F  F21  1  0.39483189  0.60516811  0.04029460  1.0
  F  F22  1  -0.39483189  1.39483189  0.95970540  1.0
  F  F23  1  -0.39483189  1.39483189  0.54029460  1.0
  F  F24  1  0.86076811  0.86076811  0.50000000  1.0
  F  F25  1  0.86076811  0.86076811  0.00000000  1.0
  F  F26  1  0.13923189  0.13923189  0.50000000  1.0
  F  F27  1  0.13923189  0.13923189  0.00000000  1.0
