# generated using pymatgen
data_Sc3(Ga3Fe)2
_symmetry_space_group_name_H-M   'P 1'
_cell_length_a   8.15733041
_cell_length_b   8.41659103
_cell_length_c   10.41260161
_cell_angle_alpha   90.00000000
_cell_angle_beta   90.00000000
_cell_angle_gamma   90.00000000
_symmetry_Int_Tables_number   1
_chemical_formula_structural   Sc3(Ga3Fe)2
_chemical_formula_sum   'Sc12 Ga24 Fe8'
_cell_volume   714.89709234
_cell_formula_units_Z   4
loop_
 _symmetry_equiv_pos_site_id
 _symmetry_equiv_pos_as_xyz
  1  'x, y, z'
loop_
 _atom_site_type_symbol
 _atom_site_label
 _atom_site_symmetry_multiplicity
 _atom_site_fract_x
 _atom_site_fract_y
 _atom_site_fract_z
 _atom_site_occupancy
  Sc  Sc0  1  0.46077324  0.75000000  0.06411716  1.0
  Sc  Sc1  1  0.96077324  0.75000000  0.43588284  1.0
  Sc  Sc2  1  0.53922676  0.25000000  0.93588284  1.0
  Sc  Sc3  1  0.03922676  0.25000000  0.56411716  1.0
  Sc  Sc4  1  0.43179762  0.44810941  0.63995703  1.0
  Sc  Sc5  1  0.43179762  0.05189059  0.63995703  1.0
  Sc  Sc6  1  0.93179762  0.44810941  0.86004297  1.0
  Sc  Sc7  1  0.93179762  0.05189059  0.86004297  1.0
  Sc  Sc8  1  0.56820238  0.94810941  0.36004297  1.0
  Sc  Sc9  1  0.56820238  0.55189059  0.36004297  1.0
  Sc  Sc10  1  0.06820238  0.94810941  0.13995703  1.0
  Sc  Sc11  1  0.06820238  0.55189059  0.13995703  1.0
  Ga  Ga12  1  0.09845216  0.75000000  0.90943112  1.0
  Ga  Ga13  1  0.59845216  0.75000000  0.59056888  1.0
  Ga  Ga14  1  0.90154784  0.25000000  0.09056888  1.0
  Ga  Ga15  1  0.40154784  0.25000000  0.40943112  1.0
  Ga  Ga16  1  0.28040607  0.75000000  0.28450214  1.0
  Ga  Ga17  1  0.78040607  0.75000000  0.21549786  1.0
  Ga  Ga18  1  0.71959393  0.25000000  0.71549786  1.0
  Ga  Ga19  1  0.21959393  0.25000000  0.78450214  1.0
  Ga  Ga20  1  0.29521774  0.99421181  0.91299732  1.0
  Ga  Ga21  1  0.29521774  0.50578819  0.91299732  1.0
  Ga  Ga22  1  0.79521774  0.99421181  0.58700268  1.0
  Ga  Ga23  1  0.79521774  0.50578819  0.58700268  1.0
  Ga  Ga24  1  0.70478226  0.49421181  0.08700268  1.0
  Ga  Ga25  1  0.70478226  0.00578819  0.08700268  1.0
  Ga  Ga26  1  0.20478226  0.49421181  0.41299732  1.0
  Ga  Ga27  1  0.20478226  0.00578819  0.41299732  1.0
  Ga  Ga28  1  0.11552861  0.91134159  0.65663588  1.0
  Ga  Ga29  1  0.11552861  0.58865841  0.65663588  1.0
  Ga  Ga30  1  0.61552861  0.91134159  0.84336412  1.0
  Ga  Ga31  1  0.61552861  0.58865841  0.84336412  1.0
  Ga  Ga32  1  0.88447139  0.41134159  0.34336412  1.0
  Ga  Ga33  1  0.88447139  0.08865841  0.34336412  1.0
  Ga  Ga34  1  0.38447139  0.41134159  0.15663588  1.0
  Ga  Ga35  1  0.38447139  0.08865841  0.15663588  1.0
  Fe  Fe36  1  0.31779045  0.75000000  0.52301263  1.0
  Fe  Fe37  1  0.81779045  0.75000000  0.97698737  1.0
  Fe  Fe38  1  0.68220955  0.25000000  0.47698737  1.0
  Fe  Fe39  1  0.18220955  0.25000000  0.02301263  1.0
  Fe  Fe40  1  0.36295841  0.75000000  0.76385696  1.0
  Fe  Fe41  1  0.86295841  0.75000000  0.73614304  1.0
  Fe  Fe42  1  0.63704159  0.25000000  0.23614304  1.0
  Fe  Fe43  1  0.13704159  0.25000000  0.26385696  1.0
