# generated using pymatgen
data_CoSn2
_symmetry_space_group_name_H-M   'P 1'
_cell_length_a   5.28029368
_cell_length_b   5.28029368
_cell_length_c   5.28029368
_cell_angle_alpha   105.65888093
_cell_angle_beta   105.65888093
_cell_angle_gamma   117.39878928
_symmetry_Int_Tables_number   1
_chemical_formula_structural   CoSn2
_chemical_formula_sum   'Co2 Sn4'
_cell_volume   111.68375531
_cell_formula_units_Z   2
loop_
 _symmetry_equiv_pos_site_id
 _symmetry_equiv_pos_as_xyz
  1  'x, y, z'
loop_
 _atom_site_type_symbol
 _atom_site_label
 _atom_site_symmetry_multiplicity
 _atom_site_fract_x
 _atom_site_fract_y
 _atom_site_fract_z
 _atom_site_occupancy
  Co  Co0  1  0.25000000  0.25000000  -0.00000000  1.0
  Co  Co1  1  0.75000000  0.75000000  -0.00000000  1.0
  Sn  Sn2  1  0.83377159  0.33377159  1.16754318  1.0
  Sn  Sn3  1  0.66622841  0.83377159  0.50000000  1.0
  Sn  Sn4  1  0.33377159  0.16622841  0.50000000  1.0
  Sn  Sn5  1  1.16622841  0.66622841  0.83245682  1.0
