# generated using pymatgen
data_Zn3(PO6)2
_symmetry_space_group_name_H-M   'P 1'
_cell_length_a   7.80735781
_cell_length_b   5.94803851
_cell_length_c   5.69585038
_cell_angle_alpha   90.07430331
_cell_angle_beta   106.46006137
_cell_angle_gamma   112.10196648
_symmetry_Int_Tables_number   1
_chemical_formula_structural   Zn3(PO6)2
_chemical_formula_sum   'Zn3 P2 O12'
_cell_volume   233.28633361
_cell_formula_units_Z   1
loop_
 _symmetry_equiv_pos_site_id
 _symmetry_equiv_pos_as_xyz
  1  'x, y, z'
loop_
 _atom_site_type_symbol
 _atom_site_label
 _atom_site_symmetry_multiplicity
 _atom_site_fract_x
 _atom_site_fract_y
 _atom_site_fract_z
 _atom_site_occupancy
  O  O0  1  -0.93839357  -1.15183546  -0.39805193  1.0
  O  O1  1  -0.06160643  0.15183546  -0.60194807  1.0
  O  O2  1  0.06005892  -0.78710193  -0.39865466  1.0
  O  O3  1  -1.06005892  -0.21289807  -0.60134534  1.0
  O  O4  1  -0.56763791  -0.78352294  -0.46322947  1.0
  O  O5  1  -0.43236209  -0.21647706  -0.53677053  1.0
  O  O6  1  -0.76228881  -0.67658572  -0.85847685  1.0
  O  O7  1  -0.23771119  -0.32341428  -0.14152315  1.0
  O  O8  1  -0.43951539  -0.71977780  -0.83587058  1.0
  O  O9  1  -0.56048461  -0.28022220  -0.16412942  1.0
  O  O10  1  -0.76171448  -1.08326589  -0.85849117  1.0
  O  O11  1  -0.23828552  0.08326589  -0.14150883  1.0
  Zn  Zn12  1  -0.62915047  -0.31462002  -0.85855857  1.0
  Zn  Zn13  1  -0.37084953  -0.68537998  -0.14144143  1.0
  Zn  Zn14  1  0.00000000  0.00000000  0.00000000  1.0
  P  P15  1  -0.61688948  -0.80771197  -0.74318309  1.0
  P  P16  1  -0.38311052  -0.19228803  -0.25681691  1.0
