# generated using pymatgen
data_Mn3(AsO4)2
_symmetry_space_group_name_H-M   'P 1'
_cell_length_a   5.49587887
_cell_length_b   6.96222569
_cell_length_c   10.22328217
_cell_angle_alpha   90.00000000
_cell_angle_beta   115.75259964
_cell_angle_gamma   90.00000000
_symmetry_Int_Tables_number   1
_chemical_formula_structural   Mn3(AsO4)2
_chemical_formula_sum   'Mn6 As4 O16'
_cell_volume   352.32657819
_cell_formula_units_Z   2
loop_
 _symmetry_equiv_pos_site_id
 _symmetry_equiv_pos_as_xyz
  1  'x, y, z'
loop_
 _atom_site_type_symbol
 _atom_site_label
 _atom_site_symmetry_multiplicity
 _atom_site_fract_x
 _atom_site_fract_y
 _atom_site_fract_z
 _atom_site_occupancy
  Mn  Mn0  1  0.77465745  0.85409159  0.37776013  1.0
  Mn  Mn1  1  0.77465745  0.64590841  0.87776013  1.0
  Mn  Mn2  1  0.22534255  0.14590841  0.62223987  1.0
  Mn  Mn3  1  0.22534255  0.35409159  0.12223987  1.0
  Mn  Mn4  1  0.50000000  -0.00000000  0.00000000  1.0
  Mn  Mn5  1  0.50000000  0.50000000  0.50000000  1.0
  As  As6  1  0.15120607  0.84410906  0.19264508  1.0
  As  As7  1  0.15120607  0.65589094  0.69264508  1.0
  As  As8  1  0.84879393  0.15589094  0.80735492  1.0
  As  As9  1  0.84879393  0.34410906  0.30735492  1.0
  O  O10  1  0.88230051  0.15017103  0.42209480  1.0
  O  O11  1  0.88230051  0.34982897  0.92209480  1.0
  O  O12  1  0.11769949  0.84982897  0.57790520  1.0
  O  O13  1  0.11769949  0.65017103  0.07790520  1.0
  O  O14  1  0.83071432  0.88412781  0.18685774  1.0
  O  O15  1  0.83071432  0.61587219  0.68685774  1.0
  O  O16  1  0.16928568  0.11587219  0.81314226  1.0
  O  O17  1  0.16928568  0.38412781  0.31314226  1.0
  O  O18  1  0.38967332  0.80542431  0.37059887  1.0
  O  O19  1  0.38967332  0.69457569  0.87059887  1.0
  O  O20  1  0.61032668  0.19457569  0.62940113  1.0
  O  O21  1  0.61032668  0.30542431  0.12940113  1.0
  O  O22  1  0.73264314  0.53656500  0.37436038  1.0
  O  O23  1  0.73264314  0.96343500  0.87436038  1.0
  O  O24  1  0.26735686  0.46343500  0.62563962  1.0
  O  O25  1  0.26735686  0.03656500  0.12563962  1.0
