# generated using pymatgen
data_K2MgP4(HO2)8
_symmetry_space_group_name_H-M   'P 1'
_cell_length_a   6.99225569
_cell_length_b   7.49137851
_cell_length_c   7.66452016
_cell_angle_alpha   81.39859975
_cell_angle_beta   73.62586774
_cell_angle_gamma   83.49603276
_symmetry_Int_Tables_number   1
_chemical_formula_structural   K2MgP4(HO2)8
_chemical_formula_sum   'K2 Mg1 P4 H8 O16'
_cell_volume   379.79266745
_cell_formula_units_Z   1
loop_
 _symmetry_equiv_pos_site_id
 _symmetry_equiv_pos_as_xyz
  1  'x, y, z'
loop_
 _atom_site_type_symbol
 _atom_site_label
 _atom_site_symmetry_multiplicity
 _atom_site_fract_x
 _atom_site_fract_y
 _atom_site_fract_z
 _atom_site_occupancy
  K  K0  1  0.63205683  0.24671782  0.78692174  1.0
  K  K1  1  0.36794317  0.75328218  0.21307826  1.0
  Mg  Mg2  1  0.00000000  0.00000000  0.00000000  1.0
  P  P3  1  0.82340917  0.77084941  0.74546831  1.0
  P  P4  1  0.17659083  0.22915059  0.25453169  1.0
  P  P5  1  0.24568149  0.68409296  0.74413337  1.0
  P  P6  1  0.75431851  0.31590704  0.25586663  1.0
  H  H7  1  0.87583176  0.68957141  0.21392155  1.0
  H  H8  1  0.12416824  0.31042859  0.78607845  1.0
  H  H9  1  0.86603581  0.82337147  0.35692181  1.0
  H  H10  1  0.13396419  0.17662853  0.64307819  1.0
  H  H11  1  0.74472266  0.55392435  0.97944951  1.0
  H  H12  1  0.25527734  0.44607565  0.02055049  1.0
  H  H13  1  0.54680812  0.76847943  0.58063155  1.0
  H  H14  1  0.45319188  0.23152057  0.41936845  1.0
  O  O15  1  0.93595068  0.79746664  0.23029973  1.0
  O  O16  1  0.06404932  0.20253336  0.76970027  1.0
  O  O17  1  0.94062029  0.28099507  0.34930934  1.0
  O  O18  1  0.05937971  0.71900493  0.65069066  1.0
  O  O19  1  0.80450325  0.90278250  0.88267059  1.0
  O  O20  1  0.19549675  0.09721750  0.11732941  1.0
  O  O21  1  0.73564118  0.83707115  0.58501947  1.0
  O  O22  1  0.26435882  0.16292885  0.41498053  1.0
  O  O23  1  0.73127561  0.58653480  0.84554422  1.0
  O  O24  1  0.26872439  0.41346520  0.15445578  1.0
  O  O25  1  0.42125662  0.71768497  0.56409481  1.0
  O  O26  1  0.57874338  0.28231503  0.43590519  1.0
  O  O27  1  0.25300713  0.48454157  0.82652272  1.0
  O  O28  1  0.74699287  0.51545843  0.17347728  1.0
  O  O29  1  0.22849729  0.81822325  0.87825929  1.0
  O  O30  1  0.77150271  0.18177675  0.12174071  1.0
