# generated using pymatgen
data_NaLiGe4O9
_symmetry_space_group_name_H-M   'P 1'
_cell_length_a   16.17881603
_cell_length_b   4.74038916
_cell_length_c   9.46894303
_cell_angle_alpha   90.00000000
_cell_angle_beta   90.00000000
_cell_angle_gamma   90.00000000
_symmetry_Int_Tables_number   1
_chemical_formula_structural   NaLiGe4O9
_chemical_formula_sum   'Na4 Li4 Ge16 O36'
_cell_volume   726.21001984
_cell_formula_units_Z   4
loop_
 _symmetry_equiv_pos_site_id
 _symmetry_equiv_pos_as_xyz
  1  'x, y, z'
loop_
 _atom_site_type_symbol
 _atom_site_label
 _atom_site_symmetry_multiplicity
 _atom_site_fract_x
 _atom_site_fract_y
 _atom_site_fract_z
 _atom_site_occupancy
  Na  Na0  1  0.04576249  0.52526531  0.60647685  1.0
  Na  Na1  1  0.54576249  0.47473469  0.60647685  1.0
  Na  Na2  1  0.95423751  0.47473469  0.10647685  1.0
  Na  Na3  1  0.45423751  0.52526531  0.10647685  1.0
  Li  Li4  1  0.23644599  0.46186799  0.82085267  1.0
  Li  Li5  1  0.73644599  0.53813201  0.82085267  1.0
  Li  Li6  1  0.76355401  0.53813201  0.32085267  1.0
  Li  Li7  1  0.26355401  0.46186799  0.32085267  1.0
  Ge  Ge8  1  0.34500956  0.49896445  0.58680979  1.0
  Ge  Ge9  1  0.84500956  0.50103555  0.58680979  1.0
  Ge  Ge10  1  0.65499044  0.50103555  0.08680979  1.0
  Ge  Ge11  1  0.15499044  0.49896445  0.08680979  1.0
  Ge  Ge12  1  0.20656236  0.00048403  0.58528695  1.0
  Ge  Ge13  1  0.70656236  0.99951597  0.58528695  1.0
  Ge  Ge14  1  0.79343764  0.99951597  0.08528695  1.0
  Ge  Ge15  1  0.29343764  0.00048403  0.08528695  1.0
  Ge  Ge16  1  0.09813374  0.00958952  0.87841162  1.0
  Ge  Ge17  1  0.59813374  0.99041048  0.87841162  1.0
  Ge  Ge18  1  0.90186626  0.99041048  0.37841162  1.0
  Ge  Ge19  1  0.40186626  0.00958952  0.37841162  1.0
  Ge  Ge20  1  0.90456040  0.00680202  0.79595912  1.0
  Ge  Ge21  1  0.40456040  0.99319798  0.79595912  1.0
  Ge  Ge22  1  0.09543960  0.99319798  0.29595912  1.0
  Ge  Ge23  1  0.59543960  0.00680202  0.29595912  1.0
  O  O24  1  0.50354138  0.15748351  0.82420993  1.0
  O  O25  1  0.00354138  0.84251649  0.82420993  1.0
  O  O26  1  0.49645862  0.84251649  0.32420993  1.0
  O  O27  1  0.99645862  0.15748351  0.32420993  1.0
  O  O28  1  0.42879926  0.27246353  0.50135370  1.0
  O  O29  1  0.92879926  0.72753647  0.50135370  1.0
  O  O30  1  0.57120074  0.72753647  0.00135370  1.0
  O  O31  1  0.07120074  0.27246353  0.00135370  1.0
  O  O32  1  0.33618606  0.26616310  0.74932480  1.0
  O  O33  1  0.83618606  0.73383690  0.74932480  1.0
  O  O34  1  0.66381394  0.73383690  0.24932480  1.0
  O  O35  1  0.16381394  0.26616310  0.24932480  1.0
  O  O36  1  0.26219676  0.26570921  0.49798485  1.0
  O  O37  1  0.76219676  0.73429079  0.49798485  1.0
  O  O38  1  0.73780324  0.73429079  -0.00201515  1.0
  O  O39  1  0.23780324  0.26570921  -0.00201515  1.0
  O  O40  1  0.25805554  0.72147920  0.67005199  1.0
  O  O41  1  0.75805554  0.27852080  0.67005199  1.0
  O  O42  1  0.74194446  0.27852080  0.17005199  1.0
  O  O43  1  0.24194446  0.72147920  0.17005199  1.0
  O  O44  1  0.16301320  0.72509432  0.92205576  1.0
  O  O45  1  0.66301320  0.27490568  0.92205576  1.0
  O  O46  1  0.83698680  0.27490568  0.42205576  1.0
  O  O47  1  0.33698680  0.72509432  0.42205576  1.0
  O  O48  1  0.14313004  0.17251181  0.72068482  1.0
  O  O49  1  0.64313004  0.82748819  0.72068482  1.0
  O  O50  1  0.85686996  0.82748819  0.22068482  1.0
  O  O51  1  0.35686996  0.17251181  0.22068482  1.0
  O  O52  1  0.92709130  0.27631352  0.67323470  1.0
  O  O53  1  0.42709130  0.72368648  0.67323470  1.0
  O  O54  1  0.07290870  0.72368648  0.17323470  1.0
  O  O55  1  0.57290870  0.27631352  0.17323470  1.0
  O  O56  1  0.86919904  0.14456103  0.96430245  1.0
  O  O57  1  0.36919904  0.85543897  0.96430245  1.0
  O  O58  1  0.13080096  0.85543897  0.46430245  1.0
  O  O59  1  0.63080096  0.14456103  0.46430245  1.0
