# generated using pymatgen
data_Eu2Zn3Ge
_symmetry_space_group_name_H-M   'P 1'
_cell_length_a   9.00788604
_cell_length_b   8.66965775
_cell_length_c   5.89355979
_cell_angle_alpha   73.65700803
_cell_angle_beta   67.45273810
_cell_angle_gamma   38.89025387
_symmetry_Int_Tables_number   1
_chemical_formula_structural   Eu2Zn3Ge
_chemical_formula_sum   'Eu4 Zn6 Ge2'
_cell_volume   266.76178438
_cell_formula_units_Z   2
loop_
 _symmetry_equiv_pos_site_id
 _symmetry_equiv_pos_as_xyz
  1  'x, y, z'
loop_
 _atom_site_type_symbol
 _atom_site_label
 _atom_site_symmetry_multiplicity
 _atom_site_fract_x
 _atom_site_fract_y
 _atom_site_fract_z
 _atom_site_occupancy
  Eu  Eu0  1  -0.75667891  0.75667891  0.75667891  1.0
  Eu  Eu1  1  -0.24332109  0.24332109  0.24332109  1.0
  Eu  Eu2  1  0.75000000  -0.25000000  0.75000000  1.0
  Eu  Eu3  1  0.25000000  0.25000000  0.25000000  1.0
  Zn  Zn4  1  -0.16707712  0.83292288  0.16707712  1.0
  Zn  Zn5  1  0.16707712  0.16707712  -0.16707712  1.0
  Zn  Zn6  1  0.66519814  0.16869959  -0.16869959  1.0
  Zn  Zn7  1  -0.16869959  0.33480186  0.66519814  1.0
  Zn  Zn8  1  1.16869959  -0.33480186  0.33480186  1.0
  Zn  Zn9  1  0.33480186  -0.16869959  1.16869959  1.0
  Ge  Ge10  1  -0.33492805  0.66507195  0.33492805  1.0
  Ge  Ge11  1  0.33492805  0.33492805  -0.33492805  1.0
