# generated using pymatgen
data_BaCa2Mg(SiO4)2
_symmetry_space_group_name_H-M   'P 1'
_cell_length_a   5.48348144
_cell_length_b   5.48348144
_cell_length_c   6.87292778
_cell_angle_alpha   90.00000000
_cell_angle_beta   90.00000000
_cell_angle_gamma   120.00000000
_symmetry_Int_Tables_number   1
_chemical_formula_structural   BaCa2Mg(SiO4)2
_chemical_formula_sum   'Ba1 Ca2 Mg1 Si2 O8'
_cell_volume   178.97203168
_cell_formula_units_Z   1
loop_
 _symmetry_equiv_pos_site_id
 _symmetry_equiv_pos_as_xyz
  1  'x, y, z'
loop_
 _atom_site_type_symbol
 _atom_site_label
 _atom_site_symmetry_multiplicity
 _atom_site_fract_x
 _atom_site_fract_y
 _atom_site_fract_z
 _atom_site_occupancy
  Ba  Ba0  1  0.00000000  0.00000000  0.00000000  1.0
  Ca  Ca1  1  0.33333333  0.66666667  0.66317530  1.0
  Ca  Ca2  1  0.66666667  0.33333333  0.33682470  1.0
  Mg  Mg3  1  0.00000000  0.00000000  0.50000000  1.0
  Si  Si4  1  0.33333333  0.66666667  0.22832664  1.0
  Si  Si5  1  0.66666667  0.33333333  0.77167336  1.0
  O  O6  1  0.24192380  0.88758291  0.32450572  1.0
  O  O7  1  0.88758291  0.64565912  0.67549428  1.0
  O  O8  1  0.64565912  0.75807620  0.32450572  1.0
  O  O9  1  0.11241709  0.35434088  0.32450572  1.0
  O  O10  1  0.75807620  0.11241709  0.67549428  1.0
  O  O11  1  0.35434088  0.24192380  0.67549428  1.0
  O  O12  1  0.33333333  0.66666667  0.99270511  1.0
  O  O13  1  0.66666667  0.33333333  0.00729489  1.0
