# generated using pymatgen
data_Eu5V3S6O7
_symmetry_space_group_name_H-M   'P 1'
_cell_length_a   3.71005630
_cell_length_b   17.82766687
_cell_length_c   10.16518780
_cell_angle_alpha   90.00000000
_cell_angle_beta   90.00000000
_cell_angle_gamma   90.00000000
_symmetry_Int_Tables_number   1
_chemical_formula_structural   Eu5V3S6O7
_chemical_formula_sum   'Eu10 V6 S12 O14'
_cell_volume   672.34227129
_cell_formula_units_Z   2
loop_
 _symmetry_equiv_pos_site_id
 _symmetry_equiv_pos_as_xyz
  1  'x, y, z'
loop_
 _atom_site_type_symbol
 _atom_site_label
 _atom_site_symmetry_multiplicity
 _atom_site_fract_x
 _atom_site_fract_y
 _atom_site_fract_z
 _atom_site_occupancy
  O  O0  1  0.50000000  0.62466683  0.11515086  1.0
  O  O1  1  0.50000000  0.37533317  0.11515086  1.0
  O  O2  1  0.00000000  0.12466683  0.88484914  1.0
  O  O3  1  0.00000000  0.87533317  0.88484914  1.0
  O  O4  1  0.50000000  0.25031139  0.39434202  1.0
  O  O5  1  0.50000000  0.74968861  0.39434202  1.0
  O  O6  1  0.00000000  0.75031139  0.60565798  1.0
  O  O7  1  0.00000000  0.24968861  0.60565798  1.0
  O  O8  1  0.50000000  0.09985074  0.29021889  1.0
  O  O9  1  0.50000000  0.90014926  0.29021889  1.0
  O  O10  1  0.00000000  0.59985074  0.70978111  1.0
  O  O11  1  0.00000000  0.40014926  0.70978111  1.0
  O  O12  1  0.50000000  0.00000000  0.90614685  1.0
  O  O13  1  0.00000000  0.50000000  0.09385315  1.0
  S  S14  1  0.50000000  0.73578616  0.85134318  1.0
  S  S15  1  0.50000000  0.26421384  0.85134318  1.0
  S  S16  1  0.00000000  0.23578616  0.14865682  1.0
  S  S17  1  0.00000000  0.76421384  0.14865682  1.0
  S  S18  1  0.50000000  0.50000000  0.53323570  1.0
  S  S19  1  0.00000000  0.00000000  0.46676430  1.0
  S  S20  1  0.50000000  0.50000000  0.85614313  1.0
  S  S21  1  0.00000000  0.00000000  0.14385687  1.0
  S  S22  1  0.50000000  0.11824916  0.64515186  1.0
  S  S23  1  0.50000000  0.88175084  0.64515186  1.0
  S  S24  1  0.00000000  0.61824916  0.35484814  1.0
  S  S25  1  0.00000000  0.38175084  0.35484814  1.0
  V  V26  1  0.50000000  0.69364254  0.24765417  1.0
  V  V27  1  0.50000000  0.30635746  0.24765417  1.0
  V  V28  1  0.00000000  0.19364254  0.75234583  1.0
  V  V29  1  0.00000000  0.80635746  0.75234583  1.0
  V  V30  1  0.50000000  0.00000000  0.31660166  1.0
  V  V31  1  0.00000000  0.50000000  0.68339834  1.0
  Eu  Eu32  1  0.50000000  0.11203264  0.03107067  1.0
  Eu  Eu33  1  0.50000000  0.88796736  0.03107067  1.0
  Eu  Eu34  1  0.00000000  0.61203264  0.96892933  1.0
  Eu  Eu35  1  0.00000000  0.38796736  0.96892933  1.0
  Eu  Eu36  1  0.50000000  0.66306046  0.58900310  1.0
  Eu  Eu37  1  0.50000000  0.33693954  0.58900310  1.0
  Eu  Eu38  1  0.00000000  0.16306046  0.41099690  1.0
  Eu  Eu39  1  0.00000000  0.83693954  0.41099690  1.0
  Eu  Eu40  1  0.50000000  0.50000000  0.22748925  1.0
  Eu  Eu41  1  0.00000000  0.00000000  0.77251075  1.0
