# generated using pymatgen
data_Sr4Br6O
_symmetry_space_group_name_H-M   'P 1'
_cell_length_a   9.98291291
_cell_length_b   9.98291291
_cell_length_c   7.66015945
_cell_angle_alpha   90.00000000
_cell_angle_beta   90.00000000
_cell_angle_gamma   120.00000000
_symmetry_Int_Tables_number   1
_chemical_formula_structural   Sr4Br6O
_chemical_formula_sum   'Sr8 Br12 O2'
_cell_volume   661.12412602
_cell_formula_units_Z   2
loop_
 _symmetry_equiv_pos_site_id
 _symmetry_equiv_pos_as_xyz
  1  'x, y, z'
loop_
 _atom_site_type_symbol
 _atom_site_label
 _atom_site_symmetry_multiplicity
 _atom_site_fract_x
 _atom_site_fract_y
 _atom_site_fract_z
 _atom_site_occupancy
  Sr  Sr0  1  0.59749494  0.79874747  0.43192206  1.0
  Sr  Sr1  1  0.79874747  0.59749494  0.93192206  1.0
  Sr  Sr2  1  0.79874747  0.20125253  0.93192206  1.0
  Sr  Sr3  1  0.20125253  0.79874747  0.43192206  1.0
  Sr  Sr4  1  0.20125253  0.40250506  0.43192206  1.0
  Sr  Sr5  1  0.40250506  0.20125253  0.93192206  1.0
  Sr  Sr6  1  0.33333333  0.66666667  0.02006771  1.0
  Sr  Sr7  1  0.66666667  0.33333333  0.52006771  1.0
  Br  Br8  1  0.72112040  0.86056020  0.04918413  1.0
  Br  Br9  1  0.86056020  0.72112040  0.54918413  1.0
  Br  Br10  1  0.86056020  0.13943980  0.54918413  1.0
  Br  Br11  1  0.13943980  0.86056020  0.04918413  1.0
  Br  Br12  1  0.13943980  0.27887960  0.04918413  1.0
  Br  Br13  1  0.27887960  0.13943980  0.54918413  1.0
  Br  Br14  1  0.92975939  0.46487969  0.22746729  1.0
  Br  Br15  1  0.46487969  0.92975939  0.72746729  1.0
  Br  Br16  1  0.46487969  0.53512031  0.72746729  1.0
  Br  Br17  1  0.53512031  0.46487969  0.22746729  1.0
  Br  Br18  1  0.53512031  0.07024061  0.22746729  1.0
  Br  Br19  1  0.07024061  0.53512031  0.72746729  1.0
  O  O20  1  0.33333333  0.66666667  0.33171186  1.0
  O  O21  1  0.66666667  0.33333333  0.83171186  1.0
