# generated using pymatgen
data_Rb(MoSe)3
_symmetry_space_group_name_H-M   'P 1'
_cell_length_a   9.53407400
_cell_length_b   9.53407400
_cell_length_c   4.51680129
_cell_angle_alpha   90.00000000
_cell_angle_beta   90.00000000
_cell_angle_gamma   120.00000000
_symmetry_Int_Tables_number   1
_chemical_formula_structural   Rb(MoSe)3
_chemical_formula_sum   'Rb2 Mo6 Se6'
_cell_volume   355.56471179
_cell_formula_units_Z   2
loop_
 _symmetry_equiv_pos_site_id
 _symmetry_equiv_pos_as_xyz
  1  'x, y, z'
loop_
 _atom_site_type_symbol
 _atom_site_label
 _atom_site_symmetry_multiplicity
 _atom_site_fract_x
 _atom_site_fract_y
 _atom_site_fract_z
 _atom_site_occupancy
  Rb  Rb0  1  0.33333333  0.66666667  0.25000000  1.0
  Rb  Rb1  1  0.66666667  0.33333333  0.75000000  1.0
  Mo  Mo2  1  0.02774455  0.85488307  0.25000000  1.0
  Mo  Mo3  1  0.85488307  0.82713852  0.75000000  1.0
  Mo  Mo4  1  0.82713852  0.97225545  0.25000000  1.0
  Mo  Mo5  1  0.14511693  0.17286148  0.25000000  1.0
  Mo  Mo6  1  0.97225545  0.14511693  0.75000000  1.0
  Mo  Mo7  1  0.17286148  0.02774455  0.75000000  1.0
  Se  Se8  1  0.71257080  0.65672055  0.25000000  1.0
  Se  Se9  1  0.65672055  0.94414975  0.75000000  1.0
  Se  Se10  1  0.94414975  0.28742920  0.25000000  1.0
  Se  Se11  1  0.34327945  0.05585025  0.25000000  1.0
  Se  Se12  1  0.28742920  0.34327945  0.75000000  1.0
  Se  Se13  1  0.05585025  0.71257080  0.75000000  1.0
