# generated using pymatgen
data_Li9Ge4
_symmetry_space_group_name_H-M   'P 1'
_cell_length_a   4.45724161
_cell_length_b   4.45724161
_cell_length_c   23.70956511
_cell_angle_alpha   90.00000000
_cell_angle_beta   90.00000000
_cell_angle_gamma   120.01493660
_symmetry_Int_Tables_number   1
_chemical_formula_structural   Li9Ge4
_chemical_formula_sum   'Li18 Ge8'
_cell_volume   407.86945877
_cell_formula_units_Z   2
loop_
 _symmetry_equiv_pos_site_id
 _symmetry_equiv_pos_as_xyz
  1  'x, y, z'
loop_
 _atom_site_type_symbol
 _atom_site_label
 _atom_site_symmetry_multiplicity
 _atom_site_fract_x
 _atom_site_fract_y
 _atom_site_fract_z
 _atom_site_occupancy
  Li  Li0  1  0.00022508  -0.00022508  0.82425587  1.0
  Li  Li1  1  0.00022508  -0.00022508  0.67574413  1.0
  Li  Li2  1  -0.00022508  0.00022508  0.32425587  1.0
  Li  Li3  1  -0.00022508  0.00022508  0.17574413  1.0
  Li  Li4  1  0.33302822  0.66697178  0.40685337  1.0
  Li  Li5  1  0.33302822  0.66697178  0.09314663  1.0
  Li  Li6  1  -0.33302822  0.33302822  0.90685337  1.0
  Li  Li7  1  -0.33302822  0.33302822  0.59314663  1.0
  Li  Li8  1  0.33344329  0.66655671  0.98297683  1.0
  Li  Li9  1  0.33344329  0.66655671  0.51702317  1.0
  Li  Li10  1  -0.33344329  0.33344329  0.48297683  1.0
  Li  Li11  1  -0.33344329  0.33344329  0.01702317  1.0
  Li  Li12  1  0.33366648  0.66633352  0.86827847  1.0
  Li  Li13  1  0.33366648  0.66633352  0.63172153  1.0
  Li  Li14  1  -0.33366648  0.33366648  0.36827847  1.0
  Li  Li15  1  -0.33366648  0.33366648  0.13172153  1.0
  Li  Li16  1  0.33349233  0.66650767  0.75000000  1.0
  Li  Li17  1  -0.33349233  0.33349233  0.25000000  1.0
  Ge  Ge18  1  0.00019330  -0.00019330  0.94552256  1.0
  Ge  Ge19  1  0.00019330  -0.00019330  0.55447744  1.0
  Ge  Ge20  1  -0.00019330  0.00019330  0.44552256  1.0
  Ge  Ge21  1  -0.00019330  0.00019330  0.05447744  1.0
  Ge  Ge22  1  -0.33314756  0.33314756  0.80081394  1.0
  Ge  Ge23  1  -0.33314756  0.33314756  0.69918606  1.0
  Ge  Ge24  1  0.33314756  0.66685244  0.30081394  1.0
  Ge  Ge25  1  0.33314756  0.66685244  0.19918606  1.0
