# generated using pymatgen
data_Sr(ClO2)2
_symmetry_space_group_name_H-M   'P 1'
_cell_length_a   7.72951097
_cell_length_b   7.72951097
_cell_length_c   6.04846921
_cell_angle_alpha   90.00000000
_cell_angle_beta   90.00000000
_cell_angle_gamma   133.81117036
_symmetry_Int_Tables_number   1
_chemical_formula_structural   Sr(ClO2)2
_chemical_formula_sum   'Sr2 Cl4 O8'
_cell_volume   260.77217292
_cell_formula_units_Z   2
loop_
 _symmetry_equiv_pos_site_id
 _symmetry_equiv_pos_as_xyz
  1  'x, y, z'
loop_
 _atom_site_type_symbol
 _atom_site_label
 _atom_site_symmetry_multiplicity
 _atom_site_fract_x
 _atom_site_fract_y
 _atom_site_fract_z
 _atom_site_occupancy
  Sr  Sr0  1  -0.00000000  1.00000000  0.50000000  1.0
  Sr  Sr1  1  -0.50000000  0.50000000  0.00000000  1.0
  Cl  Cl2  1  -0.34507215  0.34507215  0.50000000  1.0
  Cl  Cl3  1  0.15492785  0.84507215  0.00000000  1.0
  Cl  Cl4  1  -0.15492785  1.15492785  0.00000000  1.0
  Cl  Cl5  1  -0.65492785  0.65492785  0.50000000  1.0
  O  O6  1  0.43817423  1.25318421  0.65391213  1.0
  O  O7  1  0.24681579  1.06182577  0.15391213  1.0
  O  O8  1  -0.24681579  0.93817423  0.15391213  1.0
  O  O9  1  -0.43817423  0.74681579  0.65391213  1.0
  O  O10  1  0.06182577  1.24681579  0.84608787  1.0
  O  O11  1  0.25318421  1.43817423  0.34608787  1.0
  O  O12  1  -0.25318421  0.56182577  0.34608787  1.0
  O  O13  1  -0.06182577  0.75318421  0.84608787  1.0
