# generated using pymatgen
data_Sr2Si
_symmetry_space_group_name_H-M   'P 1'
_cell_length_a   8.10790295
_cell_length_b   5.13499117
_cell_length_c   9.62367051
_cell_angle_alpha   90.00000000
_cell_angle_beta   90.00000000
_cell_angle_gamma   90.00000000
_symmetry_Int_Tables_number   1
_chemical_formula_structural   Sr2Si
_chemical_formula_sum   'Sr8 Si4'
_cell_volume   400.67199423
_cell_formula_units_Z   4
loop_
 _symmetry_equiv_pos_site_id
 _symmetry_equiv_pos_as_xyz
  1  'x, y, z'
loop_
 _atom_site_type_symbol
 _atom_site_label
 _atom_site_symmetry_multiplicity
 _atom_site_fract_x
 _atom_site_fract_y
 _atom_site_fract_z
 _atom_site_occupancy
  Sr  Sr0  1  0.98114251  0.75000000  0.67409120  1.0
  Sr  Sr1  1  0.48114251  0.75000000  0.82590880  1.0
  Sr  Sr2  1  0.01885749  0.25000000  0.32590880  1.0
  Sr  Sr3  1  0.51885749  0.25000000  0.17409120  1.0
  Sr  Sr4  1  0.84866732  0.75000000  0.07773425  1.0
  Sr  Sr5  1  0.34866732  0.75000000  0.42226575  1.0
  Sr  Sr6  1  0.15133268  0.25000000  0.92226575  1.0
  Sr  Sr7  1  0.65133268  0.25000000  0.57773425  1.0
  Si  Si8  1  0.74821635  0.75000000  0.39714346  1.0
  Si  Si9  1  0.24821635  0.75000000  0.10285654  1.0
  Si  Si10  1  0.25178365  0.25000000  0.60285654  1.0
  Si  Si11  1  0.75178365  0.25000000  0.89714346  1.0
