# generated using pymatgen
data_TlTeF5
_symmetry_space_group_name_H-M   'P 1'
_cell_length_a   17.09026567
_cell_length_b   6.15420470
_cell_length_c   5.31631294
_cell_angle_alpha   90.00000000
_cell_angle_beta   90.00000000
_cell_angle_gamma   90.00000000
_symmetry_Int_Tables_number   1
_chemical_formula_structural   TlTeF5
_chemical_formula_sum   'Tl4 Te4 F20'
_cell_volume   559.15381099
_cell_formula_units_Z   4
loop_
 _symmetry_equiv_pos_site_id
 _symmetry_equiv_pos_as_xyz
  1  'x, y, z'
loop_
 _atom_site_type_symbol
 _atom_site_label
 _atom_site_symmetry_multiplicity
 _atom_site_fract_x
 _atom_site_fract_y
 _atom_site_fract_z
 _atom_site_occupancy
  Tl  Tl0  1  0.57037126  0.25000000  0.22692545  1.0
  Tl  Tl1  1  0.07037126  0.25000000  0.27307455  1.0
  Tl  Tl2  1  0.42962874  0.75000000  0.77307455  1.0
  Tl  Tl3  1  0.92962874  0.75000000  0.72692545  1.0
  Te  Te4  1  0.83227954  0.25000000  0.13614363  1.0
  Te  Te5  1  0.33227954  0.25000000  0.36385637  1.0
  Te  Te6  1  0.16772046  0.75000000  0.86385637  1.0
  Te  Te7  1  0.66772046  0.75000000  0.63614363  1.0
  F  F8  1  0.90037796  0.48018447  0.31174285  1.0
  F  F9  1  0.90037796  0.01981553  0.31174285  1.0
  F  F10  1  0.40037796  0.48018447  0.18825715  1.0
  F  F11  1  0.40037796  0.01981553  0.18825715  1.0
  F  F12  1  0.09962204  0.98018447  0.68825715  1.0
  F  F13  1  0.09962204  0.51981553  0.68825715  1.0
  F  F14  1  0.59962204  0.98018447  0.81174285  1.0
  F  F15  1  0.59962204  0.51981553  0.81174285  1.0
  F  F16  1  0.70233788  0.98479667  0.38527436  1.0
  F  F17  1  0.70233788  0.51520333  0.38527436  1.0
  F  F18  1  0.20233788  0.98479667  0.11472564  1.0
  F  F19  1  0.20233788  0.51520333  0.11472564  1.0
  F  F20  1  0.29766212  0.48479667  0.61472564  1.0
  F  F21  1  0.29766212  0.01520333  0.61472564  1.0
  F  F22  1  0.79766212  0.48479667  0.88527436  1.0
  F  F23  1  0.79766212  0.01520333  0.88527436  1.0
  F  F24  1  0.92486175  0.25000000  0.90944476  1.0
  F  F25  1  0.42486175  0.25000000  0.59055524  1.0
  F  F26  1  0.07513825  0.75000000  0.09055524  1.0
  F  F27  1  0.57513825  0.75000000  0.40944476  1.0
