# generated using pymatgen
data_NaCdAsO4
_symmetry_space_group_name_H-M   'P 1'
_cell_length_a   11.37532623
_cell_length_b   6.68586362
_cell_length_c   5.33355566
_cell_angle_alpha   90.00000000
_cell_angle_beta   90.00000000
_cell_angle_gamma   90.00000000
_symmetry_Int_Tables_number   1
_chemical_formula_structural   NaCdAsO4
_chemical_formula_sum   'Na4 Cd4 As4 O16'
_cell_volume   405.63760111
_cell_formula_units_Z   4
loop_
 _symmetry_equiv_pos_site_id
 _symmetry_equiv_pos_as_xyz
  1  'x, y, z'
loop_
 _atom_site_type_symbol
 _atom_site_label
 _atom_site_symmetry_multiplicity
 _atom_site_fract_x
 _atom_site_fract_y
 _atom_site_fract_z
 _atom_site_occupancy
  Na  Na0  1  0.00000000  0.50000000  0.00000000  1.0
  Na  Na1  1  0.00000000  0.00000000  0.00000000  1.0
  Na  Na2  1  0.50000000  0.50000000  0.50000000  1.0
  Na  Na3  1  0.50000000  0.00000000  0.50000000  1.0
  Cd  Cd4  1  0.78231366  0.25000000  0.50970194  1.0
  Cd  Cd5  1  0.28231366  0.25000000  0.99029806  1.0
  Cd  Cd6  1  0.21768634  0.75000000  0.49029806  1.0
  Cd  Cd7  1  0.71768634  0.75000000  0.00970194  1.0
  As  As8  1  0.60118181  0.25000000  0.06393988  1.0
  As  As9  1  0.10118181  0.25000000  0.43606012  1.0
  As  As10  1  0.39881819  0.75000000  0.93606012  1.0
  As  As11  1  0.89881819  0.75000000  0.56393988  1.0
  O  O12  1  0.67266127  0.45269005  0.20853566  1.0
  O  O13  1  0.67266127  0.04730995  0.20853566  1.0
  O  O14  1  0.17266127  0.45269005  0.29146434  1.0
  O  O15  1  0.17266127  0.04730995  0.29146434  1.0
  O  O16  1  0.32733873  0.95269005  0.79146434  1.0
  O  O17  1  0.32733873  0.54730995  0.79146434  1.0
  O  O18  1  0.82733873  0.95269005  0.70853566  1.0
  O  O19  1  0.82733873  0.54730995  0.70853566  1.0
  O  O20  1  0.95918365  0.25000000  0.31342524  1.0
  O  O21  1  0.45918365  0.25000000  0.18657476  1.0
  O  O22  1  0.04081635  0.75000000  0.68657476  1.0
  O  O23  1  0.54081635  0.75000000  0.81342524  1.0
  O  O24  1  0.60445285  0.25000000  0.74055937  1.0
  O  O25  1  0.10445285  0.25000000  0.75944063  1.0
  O  O26  1  0.39554715  0.75000000  0.25944063  1.0
  O  O27  1  0.89554715  0.75000000  0.24055937  1.0
