# generated using pymatgen
data_MnMoO4
_symmetry_space_group_name_H-M   'P 1'
_cell_length_a   4.75586314
_cell_length_b   5.78881138
_cell_length_c   4.97579306
_cell_angle_alpha   90.00000000
_cell_angle_beta   90.71997581
_cell_angle_gamma   90.00000000
_symmetry_Int_Tables_number   1
_chemical_formula_structural   MnMoO4
_chemical_formula_sum   'Mn2 Mo2 O8'
_cell_volume   136.97672177
_cell_formula_units_Z   2
loop_
 _symmetry_equiv_pos_site_id
 _symmetry_equiv_pos_as_xyz
  1  'x, y, z'
loop_
 _atom_site_type_symbol
 _atom_site_label
 _atom_site_symmetry_multiplicity
 _atom_site_fract_x
 _atom_site_fract_y
 _atom_site_fract_z
 _atom_site_occupancy
  Mn  Mn0  1  0.00000000  0.81757729  0.25000000  1.0
  Mn  Mn1  1  0.00000000  0.18242271  0.75000000  1.0
  Mo  Mo2  1  0.50000000  0.31619498  0.25000000  1.0
  Mo  Mo3  1  0.50000000  0.68380502  0.75000000  1.0
  O  O4  1  0.75709033  0.87507613  0.90296689  1.0
  O  O5  1  0.75709033  0.12492387  0.40296689  1.0
  O  O6  1  0.24290967  0.87507613  0.59703311  1.0
  O  O7  1  0.24290967  0.12492387  0.09703311  1.0
  O  O8  1  0.71660226  0.60746836  0.44059358  1.0
  O  O9  1  0.71660226  0.39253164  0.94059358  1.0
  O  O10  1  0.28339774  0.60746836  0.05940642  1.0
  O  O11  1  0.28339774  0.39253164  0.55940642  1.0
