# generated using pymatgen
data_Sb2Te3
_symmetry_space_group_name_H-M   'P 1'
_cell_length_a   10.40189741
_cell_length_b   10.40189741
_cell_length_c   6.13395836
_cell_angle_alpha   74.30636729
_cell_angle_beta   105.69363271
_cell_angle_gamma   145.64549530
_symmetry_Int_Tables_number   1
_chemical_formula_structural   Sb2Te3
_chemical_formula_sum   'Sb4 Te6'
_cell_volume   359.20434816
_cell_formula_units_Z   2
loop_
 _symmetry_equiv_pos_site_id
 _symmetry_equiv_pos_as_xyz
  1  'x, y, z'
loop_
 _atom_site_type_symbol
 _atom_site_label
 _atom_site_symmetry_multiplicity
 _atom_site_fract_x
 _atom_site_fract_y
 _atom_site_fract_z
 _atom_site_occupancy
  Sb  Sb0  1  0.67420744  -0.67420744  0.68360577  1.0
  Sb  Sb1  1  1.32579256  -0.32579256  0.31639423  1.0
  Sb  Sb2  1  0.83122573  -0.83122573  0.84085074  1.0
  Sb  Sb3  1  1.16877427  -0.16877427  0.15914926  1.0
  Te  Te4  1  1.36065540  -0.36065540  0.88435238  1.0
  Te  Te5  1  0.63934460  -0.63934460  0.11564762  1.0
  Te  Te6  1  0.84035310  -0.84035310  0.35013630  1.0
  Te  Te7  1  1.15964690  -0.15964690  0.64986370  1.0
  Te  Te8  1  -0.00000000  0.00000000  0.50000000  1.0
  Te  Te9  1  0.00000000  0.00000000  0.00000000  1.0
