# generated using pymatgen
data_BeTl2F4
_symmetry_space_group_name_H-M   'P 1'
_cell_length_a   7.80061413
_cell_length_b   5.91982360
_cell_length_c   10.84387669
_cell_angle_alpha   90.00000000
_cell_angle_beta   90.00000000
_cell_angle_gamma   90.00000000
_symmetry_Int_Tables_number   1
_chemical_formula_structural   BeTl2F4
_chemical_formula_sum   'Be4 Tl8 F16'
_cell_volume   500.75135268
_cell_formula_units_Z   4
loop_
 _symmetry_equiv_pos_site_id
 _symmetry_equiv_pos_as_xyz
  1  'x, y, z'
loop_
 _atom_site_type_symbol
 _atom_site_label
 _atom_site_symmetry_multiplicity
 _atom_site_fract_x
 _atom_site_fract_y
 _atom_site_fract_z
 _atom_site_occupancy
  Be  Be0  1  0.77651763  0.75000000  0.07688922  1.0
  Be  Be1  1  0.27651763  0.75000000  0.42311078  1.0
  Be  Be2  1  0.22348237  0.25000000  0.92311078  1.0
  Be  Be3  1  0.72348237  0.25000000  0.57688922  1.0
  Tl  Tl4  1  0.83096279  0.75000000  0.42416560  1.0
  Tl  Tl5  1  0.33096279  0.75000000  0.07583440  1.0
  Tl  Tl6  1  0.16903721  0.25000000  0.57583440  1.0
  Tl  Tl7  1  0.66903721  0.25000000  0.92416560  1.0
  Tl  Tl8  1  0.50413405  0.75000000  0.69690863  1.0
  Tl  Tl9  1  0.00413405  0.75000000  0.80309137  1.0
  Tl  Tl10  1  0.49586595  0.25000000  0.30309137  1.0
  Tl  Tl11  1  0.99586595  0.25000000  0.19690863  1.0
  F  F12  1  0.70639818  0.96918662  0.14149127  1.0
  F  F13  1  0.70639818  0.53081338  0.14149127  1.0
  F  F14  1  0.20639818  0.96918662  0.35850873  1.0
  F  F15  1  0.20639818  0.53081338  0.35850873  1.0
  F  F16  1  0.29360182  0.46918662  0.85850873  1.0
  F  F17  1  0.29360182  0.03081338  0.85850873  1.0
  F  F18  1  0.79360182  0.46918662  0.64149127  1.0
  F  F19  1  0.79360182  0.03081338  0.64149127  1.0
  F  F20  1  0.97739497  0.75000000  0.07623215  1.0
  F  F21  1  0.47739497  0.75000000  0.42376785  1.0
  F  F22  1  0.02260503  0.25000000  0.92376785  1.0
  F  F23  1  0.52260503  0.25000000  0.57623215  1.0
  F  F24  1  0.20453619  0.75000000  0.56051693  1.0
  F  F25  1  0.70453619  0.75000000  0.93948307  1.0
  F  F26  1  0.79546381  0.25000000  0.43948307  1.0
  F  F27  1  0.29546381  0.25000000  0.06051693  1.0
