# generated using pymatgen
data_LiC
_symmetry_space_group_name_H-M   'P 1'
_cell_length_a   6.01499176
_cell_length_b   4.89665963
_cell_length_c   6.08429355
_cell_angle_alpha   90.00000000
_cell_angle_beta   90.00000000
_cell_angle_gamma   90.00000000
_symmetry_Int_Tables_number   1
_chemical_formula_structural   LiC
_chemical_formula_sum   'Li8 C8'
_cell_volume   179.20293286
_cell_formula_units_Z   8
loop_
 _symmetry_equiv_pos_site_id
 _symmetry_equiv_pos_as_xyz
  1  'x, y, z'
loop_
 _atom_site_type_symbol
 _atom_site_label
 _atom_site_symmetry_multiplicity
 _atom_site_fract_x
 _atom_site_fract_y
 _atom_site_fract_z
 _atom_site_occupancy
  Li  Li0  1  0.89981992  0.75000000  0.13864879  1.0
  Li  Li1  1  0.39981992  0.75000000  0.36135121  1.0
  Li  Li2  1  0.10018008  0.25000000  0.86135121  1.0
  Li  Li3  1  0.60018008  0.25000000  0.63864879  1.0
  Li  Li4  1  0.60030143  0.75000000  0.86150315  1.0
  Li  Li5  1  1.10030143  0.75000000  0.63849685  1.0
  Li  Li6  1  0.39969857  0.25000000  0.13849685  1.0
  Li  Li7  1  -0.10030143  0.25000000  0.36150315  1.0
  C  C8  1  0.74999507  0.87881488  0.50008830  1.0
  C  C9  1  0.74999507  0.62118512  0.50008830  1.0
  C  C10  1  0.24999507  0.87881488  -0.00008830  1.0
  C  C11  1  0.24999507  0.62118512  -0.00008830  1.0
  C  C12  1  0.25000493  0.37881488  0.49991170  1.0
  C  C13  1  0.25000493  0.12118512  0.49991170  1.0
  C  C14  1  0.75000493  0.37881488  1.00008830  1.0
  C  C15  1  0.75000493  0.12118512  1.00008830  1.0
