# generated using pymatgen
data_Na3NiPCO7
_symmetry_space_group_name_H-M   'P 1'
_cell_length_a   5.20195486
_cell_length_b   6.68459960
_cell_length_c   8.92902963
_cell_angle_alpha   90.00000000
_cell_angle_beta   91.24235621
_cell_angle_gamma   90.00000000
_symmetry_Int_Tables_number   1
_chemical_formula_structural   Na3NiPCO7
_chemical_formula_sum   'Na6 Ni2 P2 C2 O14'
_cell_volume   310.41602979
_cell_formula_units_Z   2
loop_
 _symmetry_equiv_pos_site_id
 _symmetry_equiv_pos_as_xyz
  1  'x, y, z'
loop_
 _atom_site_type_symbol
 _atom_site_label
 _atom_site_symmetry_multiplicity
 _atom_site_fract_x
 _atom_site_fract_y
 _atom_site_fract_z
 _atom_site_occupancy
  Na  Na0  1  0.24756094  0.00644007  0.27265328  1.0
  Na  Na1  1  0.24756094  0.49355993  0.27265328  1.0
  Na  Na2  1  0.75243906  0.50644007  0.72734672  1.0
  Na  Na3  1  0.75243906  0.99355993  0.72734672  1.0
  Na  Na4  1  0.73194367  0.25000000  0.08203105  1.0
  Na  Na5  1  0.26805633  0.75000000  0.91796895  1.0
  Ni  Ni6  1  0.27764637  0.25000000  0.65257333  1.0
  Ni  Ni7  1  0.72235363  0.75000000  0.34742667  1.0
  P  P8  1  0.78654646  0.25000000  0.41622574  1.0
  P  P9  1  0.21345354  0.75000000  0.58377426  1.0
  C  C10  1  0.22282873  0.25000000  0.93592691  1.0
  C  C11  1  0.77717127  0.75000000  0.06407309  1.0
  O  O12  1  0.28324988  0.56394612  0.68359618  1.0
  O  O13  1  0.28324988  0.93605388  0.68359618  1.0
  O  O14  1  0.71675012  0.06394612  0.31640382  1.0
  O  O15  1  0.71675012  0.43605388  0.31640382  1.0
  O  O16  1  0.02017605  0.25000000  0.84776892  1.0
  O  O17  1  0.97982395  0.75000000  0.15223108  1.0
  O  O18  1  0.08401555  0.25000000  0.45059625  1.0
  O  O19  1  0.91598445  0.75000000  0.54940375  1.0
  O  O20  1  0.20326797  0.25000000  0.07947594  1.0
  O  O21  1  0.79673203  0.75000000  0.92052406  1.0
  O  O22  1  0.44666357  0.25000000  0.87355036  1.0
  O  O23  1  0.55333643  0.75000000  0.12644964  1.0
  O  O24  1  0.64216832  0.25000000  0.56620516  1.0
  O  O25  1  0.35783168  0.75000000  0.43379484  1.0
