# generated using pymatgen
data_NaVTeO5
_symmetry_space_group_name_H-M   'P 1'
_cell_length_a   5.93247632
_cell_length_b   11.69774791
_cell_length_c   6.89739516
_cell_angle_alpha   90.00000000
_cell_angle_beta   102.52401354
_cell_angle_gamma   90.00000000
_symmetry_Int_Tables_number   1
_chemical_formula_structural   NaVTeO5
_chemical_formula_sum   'Na4 V4 Te4 O20'
_cell_volume   467.26634286
_cell_formula_units_Z   4
loop_
 _symmetry_equiv_pos_site_id
 _symmetry_equiv_pos_as_xyz
  1  'x, y, z'
loop_
 _atom_site_type_symbol
 _atom_site_label
 _atom_site_symmetry_multiplicity
 _atom_site_fract_x
 _atom_site_fract_y
 _atom_site_fract_z
 _atom_site_occupancy
  Na  Na0  1  0.83329384  0.71546154  0.31636634  1.0
  Na  Na1  1  0.83329384  0.78453846  0.81636634  1.0
  Na  Na2  1  0.16670616  0.21546154  0.18363366  1.0
  Na  Na3  1  0.16670616  0.28453846  0.68363366  1.0
  V  V4  1  0.66360300  0.37428085  0.41130056  1.0
  V  V5  1  0.66360300  0.12571915  0.91130056  1.0
  V  V6  1  0.33639700  0.87428085  0.08869944  1.0
  V  V7  1  0.33639700  0.62571915  0.58869944  1.0
  Te  Te8  1  0.75648031  0.06119914  0.40644486  1.0
  Te  Te9  1  0.75648031  0.43880086  0.90644486  1.0
  Te  Te10  1  0.24351969  0.56119914  0.09355514  1.0
  Te  Te11  1  0.24351969  0.93880086  0.59355514  1.0
  O  O12  1  0.88368875  0.90520372  0.47935398  1.0
  O  O13  1  0.88368875  0.59479628  0.97935398  1.0
  O  O14  1  0.11631125  0.40520372  0.02064602  1.0
  O  O15  1  0.11631125  0.09479628  0.52064602  1.0
  O  O16  1  0.84485542  0.28093093  0.33997859  1.0
  O  O17  1  0.84485542  0.21906907  0.83997859  1.0
  O  O18  1  0.15514458  0.78093093  0.16002141  1.0
  O  O19  1  0.15514458  0.71906907  0.66002141  1.0
  O  O20  1  0.82579434  0.05593562  0.13430107  1.0
  O  O21  1  0.82579434  0.44406438  0.63430107  1.0
  O  O22  1  0.17420566  0.55593562  0.36569893  1.0
  O  O23  1  0.17420566  0.94406438  0.86569893  1.0
  O  O24  1  0.57148800  0.47654316  0.21760552  1.0
  O  O25  1  0.57148800  0.02345684  0.71760552  1.0
  O  O26  1  0.42851200  0.97654316  0.28239448  1.0
  O  O27  1  0.42851200  0.52345684  0.78239448  1.0
  O  O28  1  0.44120075  0.30397616  0.45976258  1.0
  O  O29  1  0.44120075  0.19602384  0.95976258  1.0
  O  O30  1  0.55879925  0.80397616  0.04023742  1.0
  O  O31  1  0.55879925  0.69602384  0.54023742  1.0
