# generated using pymatgen
data_Sr6Y2Al4O15
_symmetry_space_group_name_H-M   'P 1'
_cell_length_a   9.32768223
_cell_length_b   9.32768223
_cell_length_c   7.75301590
_cell_angle_alpha   89.29436679
_cell_angle_beta   90.70563321
_cell_angle_gamma   143.79731023
_symmetry_Int_Tables_number   1
_chemical_formula_structural   Sr6Y2Al4O15
_chemical_formula_sum   'Sr6 Y2 Al4 O15'
_cell_volume   398.38884417
_cell_formula_units_Z   1
loop_
 _symmetry_equiv_pos_site_id
 _symmetry_equiv_pos_as_xyz
  1  'x, y, z'
loop_
 _atom_site_type_symbol
 _atom_site_label
 _atom_site_symmetry_multiplicity
 _atom_site_fract_x
 _atom_site_fract_y
 _atom_site_fract_z
 _atom_site_occupancy
  Sr  Sr0  1  0.88127527  -0.77476845  0.49664347  1.0
  Sr  Sr1  1  1.22523155  -0.11872473  0.50335653  1.0
  Sr  Sr2  1  1.23723064  -0.07889820  0.96584473  1.0
  Sr  Sr3  1  0.92110180  -0.76276936  0.03415527  1.0
  Sr  Sr4  1  0.44763523  0.44763523  0.50000000  1.0
  Sr  Sr5  1  0.51958719  0.51958719  -0.00000000  1.0
  Y  Y6  1  1.39345815  -0.29076173  0.75354605  1.0
  Y  Y7  1  0.70923827  -0.60654185  0.24645395  1.0
  Al  Al8  1  0.99905719  -0.97301510  0.77248628  1.0
  Al  Al9  1  1.02698490  -0.00094281  0.22751372  1.0
  Al  Al10  1  0.75639729  -0.62712356  0.75663828  1.0
  Al  Al11  1  1.37287644  -0.24360271  0.24336172  1.0
  O  O12  1  1.05409066  -0.80637570  0.31137296  1.0
  O  O13  1  1.19362430  0.05409066  0.68862704  1.0
  O  O14  1  1.12834054  -0.69357935  0.74085050  1.0
  O  O15  1  1.30642065  0.12834054  0.25914950  1.0
  O  O16  1  1.07545250  -0.40118977  0.76805700  1.0
  O  O17  1  1.59881023  0.07545250  0.23194300  1.0
  O  O18  1  0.71038969  -0.61052941  0.53649103  1.0
  O  O19  1  1.38947059  -0.28961031  0.46350897  1.0
  O  O20  1  0.67461460  -0.59911767  0.94754065  1.0
  O  O21  1  1.40088233  -0.32538540  0.05245935  1.0
  O  O22  1  1.68351427  -0.22789877  0.72813132  1.0
  O  O23  1  0.77210123  -0.31648573  0.27186868  1.0
  O  O24  1  1.60937415  0.08265462  0.77507506  1.0
  O  O25  1  1.08265462  -0.39062585  0.22492494  1.0
  O  O26  1  0.01598573  0.01598573  0.00000000  1.0
