# generated using pymatgen
data_La2Zn14Ni3
_symmetry_space_group_name_H-M   'P 1'
_cell_length_a   6.76234966
_cell_length_b   6.76234966
_cell_length_c   6.76234966
_cell_angle_alpha   82.91923185
_cell_angle_beta   82.91923185
_cell_angle_gamma   82.91923185
_symmetry_Int_Tables_number   1
_chemical_formula_structural   La2Zn14Ni3
_chemical_formula_sum   'La2 Zn14 Ni3'
_cell_volume   302.69976531
_cell_formula_units_Z   1
loop_
 _symmetry_equiv_pos_site_id
 _symmetry_equiv_pos_as_xyz
  1  'x, y, z'
loop_
 _atom_site_type_symbol
 _atom_site_label
 _atom_site_symmetry_multiplicity
 _atom_site_fract_x
 _atom_site_fract_y
 _atom_site_fract_z
 _atom_site_occupancy
  La  La0  1  0.65840104  0.65840104  -0.34159896  1.0
  La  La1  1  0.34159896  0.34159896  -0.65840104  1.0
  Zn  Zn2  1  0.34346513  0.34346513  -0.14223858  1.0
  Zn  Zn3  1  0.34346513  0.85776142  -0.65653487  1.0
  Zn  Zn4  1  1.14223858  -0.34346513  -0.34346513  1.0
  Zn  Zn5  1  0.65653487  0.14223858  -0.34346513  1.0
  Zn  Zn6  1  0.65653487  -0.34346513  0.14223858  1.0
  Zn  Zn7  1  0.85776142  0.34346513  -0.65653487  1.0
  Zn  Zn8  1  0.71049686  0.00000000  0.28950314  1.0
  Zn  Zn9  1  0.71049686  -0.71049686  0.00000000  1.0
  Zn  Zn10  1  0.00000000  0.71049686  -0.71049686  1.0
  Zn  Zn11  1  0.00000000  0.28950314  -0.28950314  1.0
  Zn  Zn12  1  1.28950314  0.00000000  -0.28950314  1.0
  Zn  Zn13  1  0.28950314  -0.28950314  0.00000000  1.0
  Zn  Zn14  1  0.89540921  0.89540921  -0.10459079  1.0
  Zn  Zn15  1  1.10459079  1.10459079  0.10459079  1.0
  Ni  Ni16  1  1.00000000  1.50000000  0.00000000  1.0
  Ni  Ni17  1  1.00000000  0.00000000  -0.50000000  1.0
  Ni  Ni18  1  0.50000000  0.00000000  0.00000000  1.0
