# generated using pymatgen
data_LaNiSn
_symmetry_space_group_name_H-M   'P 1'
_cell_length_a   7.84193698
_cell_length_b   4.76588047
_cell_length_c   7.32186653
_cell_angle_alpha   90.00000000
_cell_angle_beta   90.00000000
_cell_angle_gamma   90.00000000
_symmetry_Int_Tables_number   1
_chemical_formula_structural   LaNiSn
_chemical_formula_sum   'La4 Ni4 Sn4'
_cell_volume   273.64549478
_cell_formula_units_Z   4
loop_
 _symmetry_equiv_pos_site_id
 _symmetry_equiv_pos_as_xyz
  1  'x, y, z'
loop_
 _atom_site_type_symbol
 _atom_site_label
 _atom_site_symmetry_multiplicity
 _atom_site_fract_x
 _atom_site_fract_y
 _atom_site_fract_z
 _atom_site_occupancy
  La  La0  1  0.53351483  0.75000000  0.18804591  1.0
  La  La1  1  1.03351483  0.75000000  0.31195409  1.0
  La  La2  1  0.46648517  0.25000000  0.81195409  1.0
  La  La3  1  -0.03351483  0.25000000  0.68804591  1.0
  Ni  Ni4  1  0.32627904  0.75000000  0.57360520  1.0
  Ni  Ni5  1  0.82627904  0.75000000  0.92639480  1.0
  Ni  Ni6  1  0.67372096  0.25000000  0.42639480  1.0
  Ni  Ni7  1  0.17372096  0.25000000  0.07360520  1.0
  Sn  Sn8  1  0.17936974  0.75000000  0.89755870  1.0
  Sn  Sn9  1  0.67936974  0.75000000  0.60244130  1.0
  Sn  Sn10  1  0.82063026  0.25000000  0.10244130  1.0
  Sn  Sn11  1  0.32063026  0.25000000  0.39755870  1.0
