# generated using pymatgen
data_Cu3H2(CO4)2
_symmetry_space_group_name_H-M   'P 1'
_cell_length_a   5.13514603
_cell_length_b   6.03208863
_cell_length_c   10.50897929
_cell_angle_alpha   90.00000000
_cell_angle_beta   93.72415547
_cell_angle_gamma   90.00000000
_symmetry_Int_Tables_number   1
_chemical_formula_structural   Cu3H2(CO4)2
_chemical_formula_sum   'Cu6 H4 C4 O16'
_cell_volume   324.83512934
_cell_formula_units_Z   2
loop_
 _symmetry_equiv_pos_site_id
 _symmetry_equiv_pos_as_xyz
  1  'x, y, z'
loop_
 _atom_site_type_symbol
 _atom_site_label
 _atom_site_symmetry_multiplicity
 _atom_site_fract_x
 _atom_site_fract_y
 _atom_site_fract_z
 _atom_site_occupancy
  Cu  Cu0  1  0.75302879  0.99981689  0.58421555  1.0
  Cu  Cu1  1  0.75302879  0.50018311  0.08421555  1.0
  Cu  Cu2  1  0.24697121  0.49981689  0.91578445  1.0
  Cu  Cu3  1  0.24697121  0.00018311  0.41578445  1.0
  Cu  Cu4  1  0.50000000  0.00000000  -0.00000000  1.0
  Cu  Cu5  1  0.50000000  0.50000000  0.50000000  1.0
  H  H6  1  0.66959034  0.29756244  0.87425569  1.0
  H  H7  1  0.66959034  0.20243756  0.37425569  1.0
  H  H8  1  0.33040966  0.79756244  0.62574431  1.0
  H  H9  1  0.33040966  0.70243756  0.12574431  1.0
  C  C10  1  0.83662079  0.80850076  0.82052378  1.0
  C  C11  1  0.83662079  0.69149924  0.32052378  1.0
  C  C12  1  0.16337921  0.30850076  0.67947622  1.0
  C  C13  1  0.16337921  0.19149924  0.17947622  1.0
  O  O14  1  0.95079636  0.70510768  0.91669499  1.0
  O  O15  1  0.95079636  0.79489232  0.41669499  1.0
  O  O16  1  0.04920364  0.20510768  0.58330501  1.0
  O  O17  1  0.04920364  0.29489232  0.08330501  1.0
  O  O18  1  0.93332576  0.80573179  0.71046858  1.0
  O  O19  1  0.93332576  0.69426821  0.21046858  1.0
  O  O20  1  0.06667424  0.30573179  0.78953142  1.0
  O  O21  1  0.06667424  0.19426821  0.28953142  1.0
  O  O22  1  0.62192761  0.91658710  0.83440051  1.0
  O  O23  1  0.62192761  0.58341290  0.33440051  1.0
  O  O24  1  0.37807239  0.41658710  0.66559949  1.0
  O  O25  1  0.37807239  0.08341290  0.16559949  1.0
  O  O26  1  0.43484706  0.81028212  0.55096994  1.0
  O  O27  1  0.43484706  0.68971788  0.05096994  1.0
  O  O28  1  0.56515294  0.31028212  0.94903006  1.0
  O  O29  1  0.56515294  0.18971788  0.44903006  1.0
