# generated using pymatgen
data_YGa3(BO3)4
_symmetry_space_group_name_H-M   'P 1'
_cell_length_a   6.05029234
_cell_length_b   6.05029234
_cell_length_c   6.05029234
_cell_angle_alpha   103.97522642
_cell_angle_beta   103.97522642
_cell_angle_gamma   103.97522642
_symmetry_Int_Tables_number   1
_chemical_formula_structural   YGa3(BO3)4
_chemical_formula_sum   'Y1 Ga3 B4 O12'
_cell_volume   197.70603649
_cell_formula_units_Z   1
loop_
 _symmetry_equiv_pos_site_id
 _symmetry_equiv_pos_as_xyz
  1  'x, y, z'
loop_
 _atom_site_type_symbol
 _atom_site_label
 _atom_site_symmetry_multiplicity
 _atom_site_fract_x
 _atom_site_fract_y
 _atom_site_fract_z
 _atom_site_occupancy
  Y  Y0  1  0.50000000  0.50000000  0.50000000  1.0
  Ga  Ga1  1  1.04958892  0.50000000  -0.04958892  1.0
  Ga  Ga2  1  0.50000000  0.95041108  0.04958892  1.0
  Ga  Ga3  1  0.95041108  0.04958892  0.50000000  1.0
  B  B4  1  0.44779236  1.00000000  -0.44779236  1.0
  B  B5  1  1.00000000  0.55220764  -0.55220764  1.0
  B  B6  1  0.55220764  0.44779236  -0.00000000  1.0
  B  B7  1  0.00000000  0.00000000  0.00000000  1.0
  O  O8  1  1.47187671  0.86766423  -0.29221974  1.0
  O  O9  1  1.29221974  0.13233577  -0.47187671  1.0
  O  O10  1  1.13233577  -0.47187671  0.29221974  1.0
  O  O11  1  0.52812329  0.29221974  0.13233577  1.0
  O  O12  1  0.70778026  1.47187671  -0.13233577  1.0
  O  O13  1  0.86766423  0.70778026  0.47187671  1.0
  O  O14  1  0.85489152  -0.00000000  0.14510848  1.0
  O  O15  1  1.00000000  0.14510848  -0.14510848  1.0
  O  O16  1  1.14510848  -0.14510848  0.00000000  1.0
  O  O17  1  0.59270818  1.00000000  -0.59270818  1.0
  O  O18  1  1.00000000  0.40729182  -0.40729182  1.0
  O  O19  1  0.40729182  0.59270818  -0.00000000  1.0
