# generated using pymatgen
data_Mg(NO3)2
_symmetry_space_group_name_H-M   'P 1'
_cell_length_a   7.65038395
_cell_length_b   7.65038395
_cell_length_c   7.65038395
_cell_angle_alpha   90.00000000
_cell_angle_beta   90.00000000
_cell_angle_gamma   90.00000000
_symmetry_Int_Tables_number   1
_chemical_formula_structural   Mg(NO3)2
_chemical_formula_sum   'Mg4 N8 O24'
_cell_volume   447.76453768
_cell_formula_units_Z   4
loop_
 _symmetry_equiv_pos_site_id
 _symmetry_equiv_pos_as_xyz
  1  'x, y, z'
loop_
 _atom_site_type_symbol
 _atom_site_label
 _atom_site_symmetry_multiplicity
 _atom_site_fract_x
 _atom_site_fract_y
 _atom_site_fract_z
 _atom_site_occupancy
  Mg  Mg0  1  0.50000000  -0.00000000  0.50000000  1.0
  Mg  Mg1  1  0.50000000  0.50000000  0.00000000  1.0
  Mg  Mg2  1  0.00000000  0.00000000  -0.00000000  1.0
  Mg  Mg3  1  0.00000000  0.50000000  0.50000000  1.0
  N  N4  1  0.17574457  0.67574457  0.82425543  1.0
  N  N5  1  0.17574457  0.82425543  0.32425543  1.0
  N  N6  1  0.67574457  0.67574457  0.67574457  1.0
  N  N7  1  0.67574457  0.82425543  0.17574457  1.0
  N  N8  1  0.82425543  0.17574457  0.67574457  1.0
  N  N9  1  0.82425543  0.32425543  0.17574457  1.0
  N  N10  1  0.32425543  0.17574457  0.82425543  1.0
  N  N11  1  0.32425543  0.32425543  0.32425543  1.0
  O  O12  1  0.29353911  0.67290417  0.93872062  1.0
  O  O13  1  0.29353911  0.82709583  0.43872062  1.0
  O  O14  1  0.79353911  0.67290417  0.56127938  1.0
  O  O15  1  0.79353911  0.82709583  0.06127938  1.0
  O  O16  1  0.17290417  0.56127938  0.70646089  1.0
  O  O17  1  0.17290417  0.93872062  0.20646089  1.0
  O  O18  1  0.67290417  0.56127938  0.79353911  1.0
  O  O19  1  0.67290417  0.93872062  0.29353911  1.0
  O  O20  1  0.06127938  0.79353911  0.82709583  1.0
  O  O21  1  0.06127938  0.70646089  0.32709583  1.0
  O  O22  1  0.56127938  0.79353911  0.67290417  1.0
  O  O23  1  0.56127938  0.70646089  0.17290417  1.0
  O  O24  1  0.70646089  0.17290417  0.56127938  1.0
  O  O25  1  0.70646089  0.32709583  0.06127938  1.0
  O  O26  1  0.20646089  0.17290417  0.93872062  1.0
  O  O27  1  0.20646089  0.32709583  0.43872062  1.0
  O  O28  1  0.82709583  0.06127938  0.79353911  1.0
  O  O29  1  0.82709583  0.43872062  0.29353911  1.0
  O  O30  1  0.32709583  0.06127938  0.70646089  1.0
  O  O31  1  0.32709583  0.43872062  0.20646089  1.0
  O  O32  1  0.93872062  0.29353911  0.67290417  1.0
  O  O33  1  0.93872062  0.20646089  0.17290417  1.0
  O  O34  1  0.43872062  0.29353911  0.82709583  1.0
  O  O35  1  0.43872062  0.20646089  0.32709583  1.0
