# generated using pymatgen
data_SiI3
_symmetry_space_group_name_H-M   'P 1'
_cell_length_a   14.71768876
_cell_length_b   13.14771687
_cell_length_c   8.54058167
_cell_angle_alpha   90.00000000
_cell_angle_beta   90.00000000
_cell_angle_gamma   90.00000000
_symmetry_Int_Tables_number   1
_chemical_formula_structural   SiI3
_chemical_formula_sum   'Si8 I24'
_cell_volume   1652.63675639
_cell_formula_units_Z   8
loop_
 _symmetry_equiv_pos_site_id
 _symmetry_equiv_pos_as_xyz
  1  'x, y, z'
loop_
 _atom_site_type_symbol
 _atom_site_label
 _atom_site_symmetry_multiplicity
 _atom_site_fract_x
 _atom_site_fract_y
 _atom_site_fract_z
 _atom_site_occupancy
  Si  Si0  1  0.89066201  0.25000000  0.28230978  1.0
  Si  Si1  1  0.39066201  0.25000000  0.21769022  1.0
  Si  Si2  1  0.10933799  0.75000000  0.71769022  1.0
  Si  Si3  1  0.60933799  0.75000000  0.78230978  1.0
  Si  Si4  1  0.85313862  0.25000000  0.55191169  1.0
  Si  Si5  1  0.35313862  0.25000000  0.94808831  1.0
  Si  Si6  1  0.14686138  0.75000000  0.44808831  1.0
  Si  Si7  1  0.64686138  0.75000000  0.05191169  1.0
  I  I8  1  0.97987237  0.40440984  0.22724655  1.0
  I  I9  1  0.97987237  0.09559016  0.22724655  1.0
  I  I10  1  0.47987237  0.40440984  0.27275345  1.0
  I  I11  1  0.47987237  0.09559016  0.27275345  1.0
  I  I12  1  0.02012763  0.90440984  0.77275345  1.0
  I  I13  1  0.02012763  0.59559016  0.77275345  1.0
  I  I14  1  0.52012763  0.90440984  0.72724655  1.0
  I  I15  1  0.52012763  0.59559016  0.72724655  1.0
  I  I16  1  0.76382897  0.40382372  0.61015560  1.0
  I  I17  1  0.76382897  0.09617628  0.61015560  1.0
  I  I18  1  0.26382897  0.40382372  0.88984440  1.0
  I  I19  1  0.26382897  0.09617628  0.88984440  1.0
  I  I20  1  0.23617103  0.90382372  0.38984440  1.0
  I  I21  1  0.23617103  0.59617628  0.38984440  1.0
  I  I22  1  0.73617103  0.90382372  0.11015560  1.0
  I  I23  1  0.73617103  0.59617628  0.11015560  1.0
  I  I24  1  -0.00415037  0.25000000  0.70358497  1.0
  I  I25  1  0.49584963  0.25000000  0.79641503  1.0
  I  I26  1  1.00415037  0.75000000  0.29641503  1.0
  I  I27  1  0.50415037  0.75000000  0.20358497  1.0
  I  I28  1  0.74921542  0.25000000  0.12878338  1.0
  I  I29  1  0.24921542  0.25000000  0.37121662  1.0
  I  I30  1  0.25078458  0.75000000  0.87121662  1.0
  I  I31  1  0.75078458  0.75000000  0.62878338  1.0
