# generated using pymatgen
data_Cs4PbO4
_symmetry_space_group_name_H-M   'P 1'
_cell_length_a   7.34222907
_cell_length_b   20.38738258
_cell_length_c   7.30904048
_cell_angle_alpha   90.00000000
_cell_angle_beta   112.74074683
_cell_angle_gamma   90.00000000
_symmetry_Int_Tables_number   1
_chemical_formula_structural   Cs4PbO4
_chemical_formula_sum   'Cs16 Pb4 O16'
_cell_volume   1009.03155908
_cell_formula_units_Z   4
loop_
 _symmetry_equiv_pos_site_id
 _symmetry_equiv_pos_as_xyz
  1  'x, y, z'
loop_
 _atom_site_type_symbol
 _atom_site_label
 _atom_site_symmetry_multiplicity
 _atom_site_fract_x
 _atom_site_fract_y
 _atom_site_fract_z
 _atom_site_occupancy
  Cs  Cs0  1  0.84561895  0.41715297  0.28229288  1.0
  Cs  Cs1  1  0.84561895  0.08284703  0.78229288  1.0
  Cs  Cs2  1  0.15438105  0.91715297  0.21770712  1.0
  Cs  Cs3  1  0.15438105  0.58284703  0.71770712  1.0
  Cs  Cs4  1  0.80737930  0.28610381  0.82245611  1.0
  Cs  Cs5  1  0.80737930  0.21389619  0.32245611  1.0
  Cs  Cs6  1  0.19262070  0.78610381  0.67754389  1.0
  Cs  Cs7  1  0.19262070  0.71389619  0.17754389  1.0
  Cs  Cs8  1  0.71870939  0.48754063  0.75568273  1.0
  Cs  Cs9  1  0.71870939  0.01245937  0.25568273  1.0
  Cs  Cs10  1  0.28129061  0.98754063  0.74431727  1.0
  Cs  Cs11  1  0.28129061  0.51245937  0.24431727  1.0
  Cs  Cs12  1  0.68521204  0.69183779  0.68984804  1.0
  Cs  Cs13  1  0.68521204  0.80816221  0.18984804  1.0
  Cs  Cs14  1  0.31478796  0.19183779  0.81015196  1.0
  Cs  Cs15  1  0.31478796  0.30816221  0.31015196  1.0
  Pb  Pb16  1  0.75351409  0.87784343  0.70539071  1.0
  Pb  Pb17  1  0.75351409  0.62215657  0.20539071  1.0
  Pb  Pb18  1  0.24648591  0.37784343  0.79460929  1.0
  Pb  Pb19  1  0.24648591  0.12215657  0.29460929  1.0
  O  O20  1  0.93506129  0.80775861  0.91517410  1.0
  O  O21  1  0.93506129  0.69224139  0.41517410  1.0
  O  O22  1  0.06493871  0.30775861  0.58482590  1.0
  O  O23  1  0.06493871  0.19224139  0.08482590  1.0
  O  O24  1  0.91836149  0.59450811  1.03267236  1.0
  O  O25  1  0.91836149  0.90549189  0.53267236  1.0
  O  O26  1  0.08163851  0.09450811  0.46732764  1.0
  O  O27  1  0.08163851  0.40549189  -0.03267236  1.0
  O  O28  1  0.71174918  0.95419843  0.88168058  1.0
  O  O29  1  0.71174918  0.54580157  0.38168058  1.0
  O  O30  1  0.28825082  0.45419843  0.61831942  1.0
  O  O31  1  0.28825082  0.04580157  0.11831942  1.0
  O  O32  1  0.48773389  0.66740701  1.01324089  1.0
  O  O33  1  0.48773389  0.83259299  0.51324089  1.0
  O  O34  1  0.51226611  0.16740701  0.48675911  1.0
  O  O35  1  0.51226611  0.33259299  -0.01324089  1.0
