# generated using pymatgen
data_BaBi4(ClO3)2
_symmetry_space_group_name_H-M   'P 1'
_cell_length_a   16.86383880
_cell_length_b   16.86383880
_cell_length_c   16.86383880
_cell_angle_alpha   166.39141115
_cell_angle_beta   166.39141115
_cell_angle_gamma   19.29123848
_symmetry_Int_Tables_number   1
_chemical_formula_structural   BaBi4(ClO3)2
_chemical_formula_sum   'Ba1 Bi4 Cl2 O6'
_cell_volume   265.47532877
_cell_formula_units_Z   1
loop_
 _symmetry_equiv_pos_site_id
 _symmetry_equiv_pos_as_xyz
  1  'x, y, z'
loop_
 _atom_site_type_symbol
 _atom_site_label
 _atom_site_symmetry_multiplicity
 _atom_site_fract_x
 _atom_site_fract_y
 _atom_site_fract_z
 _atom_site_occupancy
  Ba  Ba0  1  0.50000000  0.50000000  1.00000000  1.0
  O  O1  1  0.75000000  0.25000000  0.50000000  1.0
  O  O2  1  0.25000000  0.75000000  0.50000000  1.0
  O  O3  1  0.94401913  0.44401913  0.50000000  1.0
  O  O4  1  0.44401913  0.94401913  0.50000000  1.0
  O  O5  1  0.05598087  0.55598087  0.50000000  1.0
  O  O6  1  0.55598087  0.05598087  0.50000000  1.0
  Cl  Cl7  1  0.67055524  0.67055524  1.00000000  1.0
  Cl  Cl8  1  0.32944476  0.32944476  0.00000000  1.0
  Bi  Bi9  1  0.91535286  0.91535286  1.00000000  1.0
  Bi  Bi10  1  0.08464714  0.08464714  -0.00000000  1.0
  Bi  Bi11  1  0.78716252  0.78716252  1.00000000  1.0
  Bi  Bi12  1  0.21283748  0.21283748  -0.00000000  1.0
