# generated using pymatgen
data_Y3IrI3
_symmetry_space_group_name_H-M   'P 1'
_cell_length_a   8.89849145
_cell_length_b   4.26477933
_cell_length_c   12.35208105
_cell_angle_alpha   90.00000000
_cell_angle_beta   93.28598431
_cell_angle_gamma   90.00000000
_symmetry_Int_Tables_number   1
_chemical_formula_structural   Y3IrI3
_chemical_formula_sum   'Y6 Ir2 I6'
_cell_volume   467.99203284
_cell_formula_units_Z   2
loop_
 _symmetry_equiv_pos_site_id
 _symmetry_equiv_pos_as_xyz
  1  'x, y, z'
loop_
 _atom_site_type_symbol
 _atom_site_label
 _atom_site_symmetry_multiplicity
 _atom_site_fract_x
 _atom_site_fract_y
 _atom_site_fract_z
 _atom_site_occupancy
  Y  Y0  1  0.85754061  0.25000000  0.63024563  1.0
  Y  Y1  1  0.14245939  0.75000000  0.36975437  1.0
  Y  Y2  1  0.90486030  0.25000000  0.18503953  1.0
  Y  Y3  1  0.09513970  0.75000000  0.81496047  1.0
  Y  Y4  1  0.24870748  0.25000000  0.59833069  1.0
  Y  Y5  1  0.75129252  0.75000000  0.40166931  1.0
  Ir  Ir6  1  0.95218940  0.25000000  0.40785538  1.0
  Ir  Ir7  1  0.04781060  0.75000000  0.59214462  1.0
  I  I8  1  0.85759884  0.25000000  0.89427395  1.0
  I  I9  1  0.14240116  0.75000000  0.10572605  1.0
  I  I10  1  0.42814502  0.25000000  0.36766978  1.0
  I  I11  1  0.57185498  0.75000000  0.63233022  1.0
  I  I12  1  0.34762775  0.25000000  0.85879148  1.0
  I  I13  1  0.65237225  0.75000000  0.14120852  1.0
