# generated using pymatgen
data_SrH6C2S2N2O3
_symmetry_space_group_name_H-M   'P 1'
_cell_length_a   9.47551905
_cell_length_b   7.22910278
_cell_length_c   16.14383588
_cell_angle_alpha   90.00000000
_cell_angle_beta   121.17102048
_cell_angle_gamma   90.00000000
_symmetry_Int_Tables_number   1
_chemical_formula_structural   SrH6C2S2N2O3
_chemical_formula_sum   'Sr4 H24 C8 S8 N8 O12'
_cell_volume   946.18966043
_cell_formula_units_Z   4
loop_
 _symmetry_equiv_pos_site_id
 _symmetry_equiv_pos_as_xyz
  1  'x, y, z'
loop_
 _atom_site_type_symbol
 _atom_site_label
 _atom_site_symmetry_multiplicity
 _atom_site_fract_x
 _atom_site_fract_y
 _atom_site_fract_z
 _atom_site_occupancy
  Sr  Sr0  1  0.65493654  0.25715693  0.54880984  1.0
  Sr  Sr1  1  0.65493654  0.24284307  0.04880984  1.0
  Sr  Sr2  1  0.34506346  0.75715693  0.95119016  1.0
  Sr  Sr3  1  0.34506346  0.74284307  0.45119016  1.0
  H  H4  1  0.54724502  0.34104313  0.70056333  1.0
  H  H5  1  0.54724502  0.15895687  0.20056333  1.0
  H  H6  1  0.45275498  0.84104313  0.79943667  1.0
  H  H7  1  0.45275498  0.65895687  0.29943667  1.0
  H  H8  1  0.67297312  0.50013595  0.72625826  1.0
  H  H9  1  0.67297312  -0.00013595  0.22625826  1.0
  H  H10  1  0.32702688  1.00013595  0.77374174  1.0
  H  H11  1  0.32702688  0.49986405  0.27374174  1.0
  H  H12  1  0.95147524  0.81120812  0.80981722  1.0
  H  H13  1  0.95147524  0.68879188  0.30981722  1.0
  H  H14  1  0.04852476  0.31120812  0.69018278  1.0
  H  H15  1  0.04852476  0.18879188  0.19018278  1.0
  H  H16  1  0.02403116  0.83354795  0.74262563  1.0
  H  H17  1  0.02403116  0.66645205  0.24262563  1.0
  H  H18  1  0.97596884  0.33354795  0.75737437  1.0
  H  H19  1  0.97596884  0.16645205  0.25737437  1.0
  H  H20  1  0.13021872  0.75377306  0.56134667  1.0
  H  H21  1  0.13021872  0.74622694  0.06134667  1.0
  H  H22  1  0.86978128  0.25377306  0.93865333  1.0
  H  H23  1  0.86978128  0.24622694  0.43865333  1.0
  H  H24  1  0.23566103  0.57404416  0.59509339  1.0
  H  H25  1  0.23566103  0.92595584  0.09509339  1.0
  H  H26  1  0.76433897  0.07404416  0.90490661  1.0
  H  H27  1  0.76433897  0.42595584  0.40490661  1.0
  C  C28  1  0.61122349  0.90097836  0.68963722  1.0
  C  C29  1  0.61122349  0.59902164  0.18963722  1.0
  C  C30  1  0.38877651  0.40097836  0.81036278  1.0
  C  C31  1  0.38877651  0.09902164  0.31036278  1.0
  C  C32  1  0.76711419  0.73324424  0.54611255  1.0
  C  C33  1  0.76711419  0.76675576  0.04611255  1.0
  C  C34  1  0.23288581  0.23324424  0.95388745  1.0
  C  C35  1  0.23288581  0.26675576  0.45388745  1.0
  S  S36  1  0.69515243  0.80269464  0.79658899  1.0
  S  S37  1  0.69515243  0.69730536  0.29658899  1.0
  S  S38  1  0.30484757  0.30269464  0.70341101  1.0
  S  S39  1  0.30484757  0.19730536  0.20341101  1.0
  S  S40  1  0.90973339  0.88988971  0.57540602  1.0
  S  S41  1  0.90973339  0.61011029  0.07540602  1.0
  S  S42  1  0.09026660  0.38988971  0.92459398  1.0
  S  S43  1  0.09026660  0.11011029  0.42459398  1.0
  N  N44  1  0.55095051  0.96868296  0.61179900  1.0
  N  N45  1  0.55095051  0.53131704  0.11179900  1.0
  N  N46  1  0.44904949  0.46868296  0.88820100  1.0
  N  N47  1  0.44904949  0.03131704  0.38820100  1.0
  N  N48  1  0.66109637  0.62304391  0.52525966  1.0
  N  N49  1  0.66109637  0.87695609  0.02525966  1.0
  N  N50  1  0.33890363  0.12304391  0.97474034  1.0
  N  N51  1  0.33890363  0.37695609  0.47474034  1.0
  O  O52  1  0.64470573  0.37611667  0.69755736  1.0
  O  O53  1  0.64470573  0.12388333  0.19755736  1.0
  O  O54  1  0.35529427  0.87611667  0.80244264  1.0
  O  O55  1  0.35529427  0.62388333  0.30244264  1.0
  O  O56  1  0.05533716  0.81089904  0.81011680  1.0
  O  O57  1  0.05533716  0.68910096  0.31011680  1.0
  O  O58  1  0.94466284  0.31089904  0.68988320  1.0
  O  O59  1  0.94466284  0.18910096  0.18988320  1.0
  O  O60  1  0.21371396  0.68493571  0.55533282  1.0
  O  O61  1  0.21371396  0.81506429  0.05533282  1.0
  O  O62  1  0.78628604  0.18493571  0.94466718  1.0
  O  O63  1  0.78628604  0.31506429  0.44466718  1.0
