# generated using pymatgen
data_NaC
_symmetry_space_group_name_H-M   'P 1'
_cell_length_a   4.68268849
_cell_length_b   4.68268849
_cell_length_c   4.68268849
_cell_angle_alpha   126.98019091
_cell_angle_beta   109.09738585
_cell_angle_gamma   94.08787386
_symmetry_Int_Tables_number   1
_chemical_formula_structural   NaC
_chemical_formula_sum   'Na2 C2'
_cell_volume   72.45791390
_cell_formula_units_Z   2
loop_
 _symmetry_equiv_pos_site_id
 _symmetry_equiv_pos_as_xyz
  1  'x, y, z'
loop_
 _atom_site_type_symbol
 _atom_site_label
 _atom_site_symmetry_multiplicity
 _atom_site_fract_x
 _atom_site_fract_y
 _atom_site_fract_z
 _atom_site_occupancy
  Na  Na0  1  0.75513445  0.75513445  1.00000000  1.0
  Na  Na1  1  1.24486555  1.24486555  1.00000000  1.0
  C  C2  1  0.61618703  -0.00000000  0.61618703  1.0
  C  C3  1  0.38381297  -0.00000000  0.38381297  1.0
