# generated using pymatgen
data_SrSiO3
_symmetry_space_group_name_H-M   'P 1'
_cell_length_a   7.21256622
_cell_length_b   7.21256622
_cell_length_c   10.98147833
_cell_angle_alpha   71.36255025
_cell_angle_beta   108.63744975
_cell_angle_gamma   119.82310456
_symmetry_Int_Tables_number   1
_chemical_formula_structural   SrSiO3
_chemical_formula_sum   'Sr6 Si6 O18'
_cell_volume   460.56865011
_cell_formula_units_Z   6
loop_
 _symmetry_equiv_pos_site_id
 _symmetry_equiv_pos_as_xyz
  1  'x, y, z'
loop_
 _atom_site_type_symbol
 _atom_site_label
 _atom_site_symmetry_multiplicity
 _atom_site_fract_x
 _atom_site_fract_y
 _atom_site_fract_z
 _atom_site_occupancy
  Sr  Sr0  1  0.65145430  -0.17367430  0.00084900  1.0
  Sr  Sr1  1  1.17367430  0.34854570  0.50084900  1.0
  Sr  Sr2  1  0.82632570  -0.34854570  0.49915100  1.0
  Sr  Sr3  1  1.34854570  0.17367430  0.99915100  1.0
  Sr  Sr4  1  1.50000000  0.00000000  0.50000000  1.0
  Sr  Sr5  1  1.00000000  -0.50000000  -0.00000000  1.0
  Si  Si6  1  1.83396359  0.08163506  0.25367794  1.0
  Si  Si7  1  0.91836494  -0.83396359  0.75367794  1.0
  Si  Si8  1  1.08163506  0.83396359  0.24632206  1.0
  Si  Si9  1  0.16603641  -0.08163506  0.74632206  1.0
  Si  Si10  1  1.33099004  0.33099004  0.25000000  1.0
  Si  Si11  1  0.66900996  -0.33099004  0.75000000  1.0
  O  O12  1  1.77998454  0.03478608  0.39487631  1.0
  O  O13  1  0.96521392  -0.77998454  0.89487631  1.0
  O  O14  1  1.03478608  0.77998454  0.10512369  1.0
  O  O15  1  0.22001546  -0.03478608  0.60512369  1.0
  O  O16  1  1.68401927  0.12826490  0.11463162  1.0
  O  O17  1  0.87173510  -0.68401927  0.61463162  1.0
  O  O18  1  1.12826490  0.68401927  0.38536838  1.0
  O  O19  1  0.31598073  -0.12826490  0.88536838  1.0
  O  O20  1  1.29654368  0.08265661  0.24805422  1.0
  O  O21  1  0.91734339  -0.29654368  0.74805422  1.0
  O  O22  1  1.08265661  0.29654368  0.25194578  1.0
  O  O23  1  0.70345632  -0.08265661  0.75194578  1.0
  O  O24  1  1.48134969  0.38674586  0.38957884  1.0
  O  O25  1  0.61325414  -0.48134969  0.88957884  1.0
  O  O26  1  1.38674586  0.48134969  0.11042116  1.0
  O  O27  1  0.51865031  -0.38674586  0.61042116  1.0
  O  O28  1  0.86782868  -0.13217132  0.25000000  1.0
  O  O29  1  1.13217132  0.13217132  0.75000000  1.0
