# generated using pymatgen
data_BaSnF6
_symmetry_space_group_name_H-M   'P 1'
_cell_length_a   5.07035961
_cell_length_b   5.07035961
_cell_length_c   5.07035961
_cell_angle_alpha   97.50215716
_cell_angle_beta   97.50215716
_cell_angle_gamma   97.50215716
_symmetry_Int_Tables_number   1
_chemical_formula_structural   BaSnF6
_chemical_formula_sum   'Ba1 Sn1 F6'
_cell_volume   126.67652488
_cell_formula_units_Z   1
loop_
 _symmetry_equiv_pos_site_id
 _symmetry_equiv_pos_as_xyz
  1  'x, y, z'
loop_
 _atom_site_type_symbol
 _atom_site_label
 _atom_site_symmetry_multiplicity
 _atom_site_fract_x
 _atom_site_fract_y
 _atom_site_fract_z
 _atom_site_occupancy
  Ba  Ba0  1  0.50000000  0.50000000  0.50000000  1.0
  Sn  Sn1  1  0.00000000  0.00000000  0.00000000  1.0
  F  F2  1  0.74535994  0.68961611  0.07139093  1.0
  F  F3  1  1.31038389  -0.07139093  0.25464006  1.0
  F  F4  1  0.92860907  0.25464006  0.31038389  1.0
  F  F5  1  1.25464006  0.31038389  -0.07139093  1.0
  F  F6  1  0.68961611  1.07139093  -0.25464006  1.0
  F  F7  1  1.07139093  0.74535994  -0.31038389  1.0
