# generated using pymatgen
data_Li2GeMo3O8
_symmetry_space_group_name_H-M   'P 1'
_cell_length_a   5.76895168
_cell_length_b   5.76895168
_cell_length_c   10.21253510
_cell_angle_alpha   90.00000000
_cell_angle_beta   90.00000000
_cell_angle_gamma   120.00000000
_symmetry_Int_Tables_number   1
_chemical_formula_structural   Li2GeMo3O8
_chemical_formula_sum   'Li4 Ge2 Mo6 O16'
_cell_volume   294.34590354
_cell_formula_units_Z   2
loop_
 _symmetry_equiv_pos_site_id
 _symmetry_equiv_pos_as_xyz
  1  'x, y, z'
loop_
 _atom_site_type_symbol
 _atom_site_label
 _atom_site_symmetry_multiplicity
 _atom_site_fract_x
 _atom_site_fract_y
 _atom_site_fract_z
 _atom_site_occupancy
  Li  Li0  1  0.00000000  0.00000000  0.08194885  1.0
  Li  Li1  1  0.00000000  0.00000000  0.58194885  1.0
  Li  Li2  1  0.66666667  0.33333333  0.98910640  1.0
  Li  Li3  1  0.33333333  0.66666667  0.48910640  1.0
  Ge  Ge4  1  0.66666667  0.33333333  0.59666477  1.0
  Ge  Ge5  1  0.33333333  0.66666667  0.09666477  1.0
  Mo  Mo6  1  0.62010148  0.81005074  0.80973649  1.0
  Mo  Mo7  1  0.18994926  0.81005074  0.80973649  1.0
  Mo  Mo8  1  0.18994926  0.37989852  0.80973649  1.0
  Mo  Mo9  1  0.37989852  0.18994926  0.30973649  1.0
  Mo  Mo10  1  0.81005074  0.18994926  0.30973649  1.0
  Mo  Mo11  1  0.81005074  0.62010148  0.30973649  1.0
  O  O12  1  0.51864774  0.03729548  0.44792686  1.0
  O  O13  1  0.96270452  0.48135226  0.44792686  1.0
  O  O14  1  0.51864774  0.48135226  0.44792686  1.0
  O  O15  1  0.48135226  0.96270452  0.94792686  1.0
  O  O16  1  0.03729548  0.51864774  0.94792686  1.0
  O  O17  1  0.48135226  0.51864774  0.94792686  1.0
  O  O18  1  0.83288047  0.66576093  0.69310044  1.0
  O  O19  1  0.33423907  0.16711953  0.69310044  1.0
  O  O20  1  0.83288047  0.16711953  0.69310044  1.0
  O  O21  1  0.16711953  0.33423907  0.19310044  1.0
  O  O22  1  0.66576093  0.83288047  0.19310044  1.0
  O  O23  1  0.16711953  0.83288047  0.19310044  1.0
  O  O24  1  0.00000000  0.00000000  0.89968219  1.0
  O  O25  1  0.00000000  0.00000000  0.39968219  1.0
  O  O26  1  0.66666667  0.33333333  0.16994642  1.0
  O  O27  1  0.33333333  0.66666667  0.66994642  1.0
