# generated using pymatgen
data_NbSbO4
_symmetry_space_group_name_H-M   'P 1'
_cell_length_a   5.66490269
_cell_length_b   5.03714611
_cell_length_c   11.97198163
_cell_angle_alpha   90.00000000
_cell_angle_beta   90.00000000
_cell_angle_gamma   90.00000000
_symmetry_Int_Tables_number   1
_chemical_formula_structural   NbSbO4
_chemical_formula_sum   'Nb4 Sb4 O16'
_cell_volume   341.61980817
_cell_formula_units_Z   4
loop_
 _symmetry_equiv_pos_site_id
 _symmetry_equiv_pos_as_xyz
  1  'x, y, z'
loop_
 _atom_site_type_symbol
 _atom_site_label
 _atom_site_symmetry_multiplicity
 _atom_site_fract_x
 _atom_site_fract_y
 _atom_site_fract_z
 _atom_site_occupancy
  Nb  Nb0  1  0.38634076  0.50601796  0.04125044  1.0
  Nb  Nb1  1  0.88634076  -0.00601796  0.04125044  1.0
  Nb  Nb2  1  0.61365924  0.49398204  0.54125044  1.0
  Nb  Nb3  1  0.11365924  0.00601796  0.54125044  1.0
  Sb  Sb4  1  0.48456653  0.94304270  0.29220203  1.0
  Sb  Sb5  1  0.98456653  0.55695730  0.29220203  1.0
  Sb  Sb6  1  0.51543347  0.05695730  0.79220203  1.0
  Sb  Sb7  1  0.01543347  0.44304270  0.79220203  1.0
  O  O8  1  0.39151506  0.73934445  0.58651398  1.0
  O  O9  1  0.89151506  0.76065555  0.58651398  1.0
  O  O10  1  0.60848494  0.26065555  0.08651398  1.0
  O  O11  1  0.10848494  0.23934445  0.08651398  1.0
  O  O12  1  0.32308633  0.66389524  0.19302584  1.0
  O  O13  1  0.82308633  0.83610476  0.19302584  1.0
  O  O14  1  0.67691367  0.33610476  0.69302584  1.0
  O  O15  1  0.17691367  0.16389524  0.69302584  1.0
  O  O16  1  0.16367691  0.83600644  0.38339922  1.0
  O  O17  1  0.66367691  0.66399356  0.38339922  1.0
  O  O18  1  0.83632309  0.16399356  0.88339922  1.0
  O  O19  1  0.33632309  0.33600644  0.88339922  1.0
  O  O20  1  0.08015634  0.72494083  -0.01399150  1.0
  O  O21  1  0.58015634  0.77505917  -0.01399150  1.0
  O  O22  1  0.91984366  0.27505917  0.48600850  1.0
  O  O23  1  0.41984366  0.22494083  0.48600850  1.0
