# generated using pymatgen
data_VZnSe2O7
_symmetry_space_group_name_H-M   'P 1'
_cell_length_a   7.59126770
_cell_length_b   12.63564678
_cell_length_c   8.17807174
_cell_angle_alpha   90.00000000
_cell_angle_beta   122.10303171
_cell_angle_gamma   90.00000000
_symmetry_Int_Tables_number   1
_chemical_formula_structural   VZnSe2O7
_chemical_formula_sum   'V4 Zn4 Se8 O28'
_cell_volume   664.49880395
_cell_formula_units_Z   4
loop_
 _symmetry_equiv_pos_site_id
 _symmetry_equiv_pos_as_xyz
  1  'x, y, z'
loop_
 _atom_site_type_symbol
 _atom_site_label
 _atom_site_symmetry_multiplicity
 _atom_site_fract_x
 _atom_site_fract_y
 _atom_site_fract_z
 _atom_site_occupancy
  V  V0  1  0.46494583  0.25618827  0.20763768  1.0
  V  V1  1  0.46494583  0.24381173  0.70763768  1.0
  V  V2  1  0.53505417  0.75618827  0.29236232  1.0
  V  V3  1  0.53505417  0.74381173  0.79236232  1.0
  Zn  Zn4  1  0.78443249  0.49065705  0.48870209  1.0
  Zn  Zn5  1  0.78443249  0.00934295  0.98870209  1.0
  Zn  Zn6  1  0.21556751  0.99065705  0.01129791  1.0
  Zn  Zn7  1  0.21556751  0.50934295  0.51129791  1.0
  Se  Se8  1  0.96477509  0.26971882  0.38847804  1.0
  Se  Se9  1  0.96477509  0.23028118  0.88847804  1.0
  Se  Se10  1  0.03522491  0.76971882  0.11152196  1.0
  Se  Se11  1  0.03522491  0.73028118  0.61152196  1.0
  Se  Se12  1  0.66433490  0.01349072  0.33136628  1.0
  Se  Se13  1  0.66433490  0.48650928  0.83136628  1.0
  Se  Se14  1  0.33566510  0.51349072  0.16863372  1.0
  Se  Se15  1  0.33566510  0.98650928  0.66863372  1.0
  O  O16  1  0.96629218  0.40717148  0.42229413  1.0
  O  O17  1  0.96629218  0.09282852  0.92229413  1.0
  O  O18  1  0.03370782  0.90717148  0.07770587  1.0
  O  O19  1  0.03370782  0.59282852  0.57770587  1.0
  O  O20  1  0.83425662  0.77320588  0.39004068  1.0
  O  O21  1  0.83425662  0.72679412  0.89004068  1.0
  O  O22  1  0.16574338  0.27320588  0.10995932  1.0
  O  O23  1  0.16574338  0.22679412  0.60995932  1.0
  O  O24  1  0.81688348  0.03472667  0.24188850  1.0
  O  O25  1  0.81688348  0.46527333  0.74188850  1.0
  O  O26  1  0.18311652  0.53472667  0.25811150  1.0
  O  O27  1  0.18311652  0.96527333  0.75811150  1.0
  O  O28  1  0.76275476  0.23474740  0.41597965  1.0
  O  O29  1  0.76275476  0.26525260  0.91597965  1.0
  O  O30  1  0.23724524  0.73474740  0.08402035  1.0
  O  O31  1  0.23724524  0.76525260  0.58402035  1.0
  O  O32  1  0.49805266  0.40681826  0.30366745  1.0
  O  O33  1  0.49805266  0.09318174  0.80366745  1.0
  O  O34  1  0.50194734  0.90681826  0.19633255  1.0
  O  O35  1  0.50194734  0.59318174  0.69633255  1.0
  O  O36  1  0.47171859  0.27449226  0.01616505  1.0
  O  O37  1  0.47171859  0.22550774  0.51616505  1.0
  O  O38  1  0.52828141  0.77449226  0.48383495  1.0
  O  O39  1  0.52828141  0.72550774  0.98383495  1.0
  O  O40  1  0.44275422  0.09828023  0.20130267  1.0
  O  O41  1  0.44275422  0.40171977  0.70130267  1.0
  O  O42  1  0.55724578  0.59828023  0.29869733  1.0
  O  O43  1  0.55724578  0.90171977  0.79869733  1.0
