# generated using pymatgen
data_MnWO4
_symmetry_space_group_name_H-M   'P 1'
_cell_length_a   4.80431687
_cell_length_b   5.81668521
_cell_length_c   5.02230064
_cell_angle_alpha   90.00000000
_cell_angle_beta   91.24035672
_cell_angle_gamma   90.00000000
_symmetry_Int_Tables_number   1
_chemical_formula_structural   MnWO4
_chemical_formula_sum   'Mn2 W2 O8'
_cell_volume   140.31630410
_cell_formula_units_Z   2
loop_
 _symmetry_equiv_pos_site_id
 _symmetry_equiv_pos_as_xyz
  1  'x, y, z'
loop_
 _atom_site_type_symbol
 _atom_site_label
 _atom_site_symmetry_multiplicity
 _atom_site_fract_x
 _atom_site_fract_y
 _atom_site_fract_z
 _atom_site_occupancy
  Mn  Mn0  1  -0.00000000  0.82062313  0.25000000  1.0
  Mn  Mn1  1  -0.00000000  0.17937687  0.75000000  1.0
  W  W2  1  0.50000000  0.32218454  0.25000000  1.0
  W  W3  1  0.50000000  0.67781546  0.75000000  1.0
  O  O4  1  0.75553029  0.87255107  0.89931698  1.0
  O  O5  1  0.75553029  0.12744893  0.39931698  1.0
  O  O6  1  0.24446971  0.87255107  0.60068302  1.0
  O  O7  1  0.24446971  0.12744893  0.10068302  1.0
  O  O8  1  0.71311404  0.60586717  0.43920500  1.0
  O  O9  1  0.71311404  0.39413283  0.93920500  1.0
  O  O10  1  0.28688596  0.60586717  0.06079500  1.0
  O  O11  1  0.28688596  0.39413283  0.56079500  1.0
