# generated using pymatgen
data_BaYbCuTe3
_symmetry_space_group_name_H-M   'P 1'
_cell_length_a   7.75532687
_cell_length_b   7.75532687
_cell_length_c   11.48404068
_cell_angle_alpha   90.00000000
_cell_angle_beta   90.00000000
_cell_angle_gamma   146.71768008
_symmetry_Int_Tables_number   1
_chemical_formula_structural   BaYbCuTe3
_chemical_formula_sum   'Ba2 Yb2 Cu2 Te6'
_cell_volume   379.03668715
_cell_formula_units_Z   2
loop_
 _symmetry_equiv_pos_site_id
 _symmetry_equiv_pos_as_xyz
  1  'x, y, z'
loop_
 _atom_site_type_symbol
 _atom_site_label
 _atom_site_symmetry_multiplicity
 _atom_site_fract_x
 _atom_site_fract_y
 _atom_site_fract_z
 _atom_site_occupancy
  Ba  Ba0  1  -0.24983575  0.24983575  0.75000000  1.0
  Ba  Ba1  1  0.24983575  0.75016425  0.25000000  1.0
  Yb  Yb2  1  -0.00000000  -0.00000000  0.00000000  1.0
  Yb  Yb3  1  0.00000000  0.00000000  0.50000000  1.0
  Cu  Cu4  1  0.46574421  0.53425579  0.75000000  1.0
  Cu  Cu5  1  -0.46574421  0.46574421  0.25000000  1.0
  Te  Te6  1  0.36230178  0.63769822  0.93884922  1.0
  Te  Te7  1  0.36230178  0.63769822  0.56115078  1.0
  Te  Te8  1  -0.36230178  0.36230178  0.43884922  1.0
  Te  Te9  1  -0.36230178  0.36230178  0.06115078  1.0
  Te  Te10  1  0.06701469  0.93298531  0.75000000  1.0
  Te  Te11  1  -0.06701469  0.06701469  0.25000000  1.0
