# generated using pymatgen
data_CuSbSe2
_symmetry_space_group_name_H-M   'P 1'
_cell_length_a   6.46186313
_cell_length_b   4.04233372
_cell_length_c   15.02063689
_cell_angle_alpha   90.00000000
_cell_angle_beta   90.00000000
_cell_angle_gamma   90.00000000
_symmetry_Int_Tables_number   1
_chemical_formula_structural   CuSbSe2
_chemical_formula_sum   'Cu4 Sb4 Se8'
_cell_volume   392.35416476
_cell_formula_units_Z   4
loop_
 _symmetry_equiv_pos_site_id
 _symmetry_equiv_pos_as_xyz
  1  'x, y, z'
loop_
 _atom_site_type_symbol
 _atom_site_label
 _atom_site_symmetry_multiplicity
 _atom_site_fract_x
 _atom_site_fract_y
 _atom_site_fract_z
 _atom_site_occupancy
  Cu  Cu0  1  0.74813135  0.75000000  0.33010380  1.0
  Cu  Cu1  1  0.24813135  0.75000000  0.16989620  1.0
  Cu  Cu2  1  0.25186865  0.25000000  0.66989620  1.0
  Cu  Cu3  1  0.75186865  0.25000000  0.83010380  1.0
  Sb  Sb4  1  0.73037124  0.75000000  0.55937788  1.0
  Sb  Sb5  1  0.23037124  0.75000000  0.94062212  1.0
  Sb  Sb6  1  0.26962876  0.25000000  0.44062212  1.0
  Sb  Sb7  1  0.76962876  0.25000000  0.05937788  1.0
  Se  Se8  1  0.62962008  0.75000000  0.90383340  1.0
  Se  Se9  1  0.12962008  0.75000000  0.59616660  1.0
  Se  Se10  1  0.37037992  0.25000000  0.09616660  1.0
  Se  Se11  1  0.87037992  0.25000000  0.40383340  1.0
  Se  Se12  1  0.87518072  0.75000000  0.17654781  1.0
  Se  Se13  1  0.37518072  0.75000000  0.32345219  1.0
  Se  Se14  1  0.12481928  0.25000000  0.82345219  1.0
  Se  Se15  1  0.62481928  0.25000000  0.67654781  1.0
