# generated using pymatgen
data_Zr3Al2
_symmetry_space_group_name_H-M   'P 1'
_cell_length_a   7.66906860
_cell_length_b   7.66906860
_cell_length_c   6.97335244
_cell_angle_alpha   90.00000000
_cell_angle_beta   90.00000000
_cell_angle_gamma   90.00000000
_symmetry_Int_Tables_number   1
_chemical_formula_structural   Zr3Al2
_chemical_formula_sum   'Zr12 Al8'
_cell_volume   410.13502703
_cell_formula_units_Z   4
loop_
 _symmetry_equiv_pos_site_id
 _symmetry_equiv_pos_as_xyz
  1  'x, y, z'
loop_
 _atom_site_type_symbol
 _atom_site_label
 _atom_site_symmetry_multiplicity
 _atom_site_fract_x
 _atom_site_fract_y
 _atom_site_fract_z
 _atom_site_occupancy
  Zr  Zr0  1  0.19740166  0.19740166  0.50000000  1.0
  Zr  Zr1  1  0.69740166  0.30259834  0.00000000  1.0
  Zr  Zr2  1  0.80259834  0.80259834  0.50000000  1.0
  Zr  Zr3  1  0.30259834  0.69740166  0.00000000  1.0
  Zr  Zr4  1  0.34137310  0.65862690  0.50000000  1.0
  Zr  Zr5  1  0.84137310  0.84137310  0.00000000  1.0
  Zr  Zr6  1  0.65862690  0.34137310  0.50000000  1.0
  Zr  Zr7  1  0.15862690  0.15862690  0.00000000  1.0
  Zr  Zr8  1  0.50000000  0.00000000  0.25000000  1.0
  Zr  Zr9  1  0.50000000  0.00000000  0.75000000  1.0
  Zr  Zr10  1  0.00000000  0.50000000  0.75000000  1.0
  Zr  Zr11  1  0.00000000  0.50000000  0.25000000  1.0
  Al  Al12  1  0.12092938  0.87907062  0.28398662  1.0
  Al  Al13  1  0.12092938  0.87907062  0.71601338  1.0
  Al  Al14  1  0.62092938  0.62092938  0.78398662  1.0
  Al  Al15  1  0.62092938  0.62092938  0.21601338  1.0
  Al  Al16  1  0.87907062  0.12092938  0.28398662  1.0
  Al  Al17  1  0.87907062  0.12092938  0.71601338  1.0
  Al  Al18  1  0.37907062  0.37907062  0.78398662  1.0
  Al  Al19  1  0.37907062  0.37907062  0.21601338  1.0
