# generated using pymatgen
data_Ni21(GeB3)2
_symmetry_space_group_name_H-M   'P 1'
_cell_length_a   7.41390208
_cell_length_b   7.41390208
_cell_length_c   7.41390208
_cell_angle_alpha   60.00000000
_cell_angle_beta   60.00000000
_cell_angle_gamma   60.00000000
_symmetry_Int_Tables_number   1
_chemical_formula_structural   Ni21(GeB3)2
_chemical_formula_sum   'Ni21 Ge2 B6'
_cell_volume   288.15458797
_cell_formula_units_Z   1
loop_
 _symmetry_equiv_pos_site_id
 _symmetry_equiv_pos_as_xyz
  1  'x, y, z'
loop_
 _atom_site_type_symbol
 _atom_site_label
 _atom_site_symmetry_multiplicity
 _atom_site_fract_x
 _atom_site_fract_y
 _atom_site_fract_z
 _atom_site_occupancy
  Ni  Ni0  1  1.66349611  -0.00000000  0.00000000  1.0
  Ni  Ni1  1  1.00000000  0.33650389  -0.33650389  1.0
  Ni  Ni2  1  1.00000000  0.66349611  -0.66349611  1.0
  Ni  Ni3  1  1.33650389  -0.00000000  0.00000000  1.0
  Ni  Ni4  1  -0.00000000  1.66349611  0.00000000  1.0
  Ni  Ni5  1  0.33650389  1.00000000  -0.33650389  1.0
  Ni  Ni6  1  -0.00000000  -0.00000000  0.66349611  1.0
  Ni  Ni7  1  0.33650389  -0.33650389  1.00000000  1.0
  Ni  Ni8  1  0.66349611  1.00000000  -0.66349611  1.0
  Ni  Ni9  1  -0.00000000  1.33650389  0.00000000  1.0
  Ni  Ni10  1  0.66349611  -0.66349611  1.00000000  1.0
  Ni  Ni11  1  0.00000000  -0.00000000  0.33650389  1.0
  Ni  Ni12  1  0.61889198  0.61889198  -0.38110802  1.0
  Ni  Ni13  1  0.38110802  1.38110802  -0.14332407  1.0
  Ni  Ni14  1  1.38110802  -0.14332407  0.38110802  1.0
  Ni  Ni15  1  1.14332407  0.61889198  0.61889198  1.0
  Ni  Ni16  1  -0.14332407  1.38110802  0.38110802  1.0
  Ni  Ni17  1  0.61889198  1.14332407  -0.38110802  1.0
  Ni  Ni18  1  0.61889198  0.61889198  1.14332407  1.0
  Ni  Ni19  1  1.38110802  0.38110802  0.38110802  1.0
  Ni  Ni20  1  0.00000000  0.00000000  0.00000000  1.0
  Ge  Ge21  1  0.75000000  0.75000000  -0.25000000  1.0
  Ge  Ge22  1  1.25000000  0.25000000  0.25000000  1.0
  B  B23  1  -0.72670167  0.72670167  0.72670167  1.0
  B  B24  1  -0.27329833  0.27329833  0.72670167  1.0
  B  B25  1  0.72670167  0.72670167  -0.72670167  1.0
  B  B26  1  0.27329833  1.27329833  -0.27329833  1.0
  B  B27  1  0.27329833  -0.27329833  1.27329833  1.0
  B  B28  1  -0.27329833  0.27329833  0.27329833  1.0
