# generated using pymatgen
data_CsLa2Br7
_symmetry_space_group_name_H-M   'P 1'
_cell_length_a   14.82895079
_cell_length_b   7.74462160
_cell_length_c   14.07028420
_cell_angle_alpha   90.00000000
_cell_angle_beta   90.00000000
_cell_angle_gamma   90.00000000
_symmetry_Int_Tables_number   1
_chemical_formula_structural   CsLa2Br7
_chemical_formula_sum   'Cs4 La8 Br28'
_cell_volume   1615.89633699
_cell_formula_units_Z   4
loop_
 _symmetry_equiv_pos_site_id
 _symmetry_equiv_pos_as_xyz
  1  'x, y, z'
loop_
 _atom_site_type_symbol
 _atom_site_label
 _atom_site_symmetry_multiplicity
 _atom_site_fract_x
 _atom_site_fract_y
 _atom_site_fract_z
 _atom_site_occupancy
  Cs  Cs0  1  0.95918101  0.75000000  0.80299468  1.0
  Cs  Cs1  1  0.45918101  0.75000000  0.69700532  1.0
  Cs  Cs2  1  0.04081899  0.25000000  0.19700532  1.0
  Cs  Cs3  1  0.54081899  0.25000000  0.30299468  1.0
  La  La4  1  0.76199019  0.75000000  0.46029552  1.0
  La  La5  1  0.26199019  0.75000000  0.03970448  1.0
  La  La6  1  0.23800981  0.25000000  0.53970448  1.0
  La  La7  1  0.73800981  0.25000000  0.96029552  1.0
  La  La8  1  0.75317368  0.75000000  0.15707194  1.0
  La  La9  1  0.25317368  0.75000000  0.34292806  1.0
  La  La10  1  0.24682632  0.25000000  0.84292806  1.0
  La  La11  1  0.74682632  0.25000000  0.65707194  1.0
  Br  Br12  1  0.87045515  0.99088428  0.03961875  1.0
  Br  Br13  1  0.87045515  0.50911572  0.03961875  1.0
  Br  Br14  1  0.37045515  0.99088428  0.46038125  1.0
  Br  Br15  1  0.37045515  0.50911572  0.46038125  1.0
  Br  Br16  1  0.12954485  0.49088428  0.96038125  1.0
  Br  Br17  1  0.12954485  0.00911572  0.96038125  1.0
  Br  Br18  1  0.62954485  0.49088428  0.53961875  1.0
  Br  Br19  1  0.62954485  0.00911572  0.53961875  1.0
  Br  Br20  1  0.87702709  0.99021189  0.57819817  1.0
  Br  Br21  1  0.87702709  0.50978811  0.57819817  1.0
  Br  Br22  1  0.37702709  0.99021189  0.92180183  1.0
  Br  Br23  1  0.37702709  0.50978811  0.92180183  1.0
  Br  Br24  1  0.12297291  0.49021189  0.42180183  1.0
  Br  Br25  1  0.12297291  0.00978811  0.42180183  1.0
  Br  Br26  1  0.62297291  0.49021189  0.07819817  1.0
  Br  Br27  1  0.62297291  0.00978811  0.07819817  1.0
  Br  Br28  1  0.82577459  0.99284368  0.30715695  1.0
  Br  Br29  1  0.82577459  0.50715632  0.30715695  1.0
  Br  Br30  1  0.32577459  0.99284368  0.19284305  1.0
  Br  Br31  1  0.32577459  0.50715632  0.19284305  1.0
  Br  Br32  1  0.17422541  0.49284368  0.69284305  1.0
  Br  Br33  1  0.17422541  0.00715632  0.69284305  1.0
  Br  Br34  1  0.67422541  0.49284368  0.80715695  1.0
  Br  Br35  1  0.67422541  0.00715632  0.80715695  1.0
  Br  Br36  1  0.60990200  0.75000000  0.31134544  1.0
  Br  Br37  1  0.10990200  0.75000000  0.18865456  1.0
  Br  Br38  1  0.39009800  0.25000000  0.68865456  1.0
  Br  Br39  1  0.89009800  0.25000000  0.81134544  1.0
