# generated using pymatgen
data_PbO
_symmetry_space_group_name_H-M   'P 1'
_cell_length_a   5.69822530
_cell_length_b   6.25550051
_cell_length_c   5.04492936
_cell_angle_alpha   90.00000000
_cell_angle_beta   90.00000000
_cell_angle_gamma   90.00000000
_symmetry_Int_Tables_number   1
_chemical_formula_structural   PbO
_chemical_formula_sum   'Pb4 O4'
_cell_volume   179.82777485
_cell_formula_units_Z   4
loop_
 _symmetry_equiv_pos_site_id
 _symmetry_equiv_pos_as_xyz
  1  'x, y, z'
loop_
 _atom_site_type_symbol
 _atom_site_label
 _atom_site_symmetry_multiplicity
 _atom_site_fract_x
 _atom_site_fract_y
 _atom_site_fract_z
 _atom_site_occupancy
  Pb  Pb0  1  0.52007133  0.71517227  0.77986213  1.0
  Pb  Pb1  1  0.47992867  0.28482773  0.27986213  1.0
  Pb  Pb2  1  0.97992867  0.71517227  0.27986213  1.0
  Pb  Pb3  1  0.02007133  0.28482773  0.77986213  1.0
  O  O4  1  0.59437202  0.62799534  0.33963787  1.0
  O  O5  1  0.40562798  0.37200466  0.83963787  1.0
  O  O6  1  0.90562798  0.62799534  0.83963787  1.0
  O  O7  1  0.09437202  0.37200466  0.33963787  1.0
