# generated using pymatgen
data_Si(GeN2)2
_symmetry_space_group_name_H-M   'P 1'
_cell_length_a   5.75103421
_cell_length_b   5.75103421
_cell_length_c   5.75103421
_cell_angle_alpha   60.00000000
_cell_angle_beta   60.00000000
_cell_angle_gamma   60.00000000
_symmetry_Int_Tables_number   1
_chemical_formula_structural   Si(GeN2)2
_chemical_formula_sum   'Si2 Ge4 N8'
_cell_volume   134.50017693
_cell_formula_units_Z   2
loop_
 _symmetry_equiv_pos_site_id
 _symmetry_equiv_pos_as_xyz
  1  'x, y, z'
loop_
 _atom_site_type_symbol
 _atom_site_label
 _atom_site_symmetry_multiplicity
 _atom_site_fract_x
 _atom_site_fract_y
 _atom_site_fract_z
 _atom_site_occupancy
  Si  Si0  1  0.50000000  -0.50000000  0.50000000  1.0
  Si  Si1  1  0.75000000  0.75000000  0.75000000  1.0
  Ge  Ge2  1  0.62500000  1.12500000  0.12500000  1.0
  Ge  Ge3  1  0.12500000  1.62500000  0.12500000  1.0
  Ge  Ge4  1  0.12500000  0.12500000  1.62500000  1.0
  Ge  Ge5  1  0.12500000  0.12500000  0.12500000  1.0
  N  N6  1  -0.11457450  1.37152483  0.37152483  1.0
  N  N7  1  0.37152483  0.88542550  0.37152483  1.0
  N  N8  1  0.37152483  1.37152483  -0.11457450  1.0
  N  N9  1  0.37152483  1.37152483  0.37152483  1.0
  N  N10  1  -0.63542550  0.87847517  0.87847517  1.0
  N  N11  1  0.87847517  -0.63542550  0.87847517  1.0
  N  N12  1  0.87847517  0.87847517  -0.63542550  1.0
  N  N13  1  0.87847517  0.87847517  0.87847517  1.0
