# generated using pymatgen
data_Ti(MnP6)2
_symmetry_space_group_name_H-M   'P 1'
_cell_length_a   8.53794070
_cell_length_b   8.53794070
_cell_length_c   10.65770415
_cell_angle_alpha   66.39344147
_cell_angle_beta   113.60655853
_cell_angle_gamma   140.26502880
_symmetry_Int_Tables_number   1
_chemical_formula_structural   Ti(MnP6)2
_chemical_formula_sum   'Ti2 Mn4 P24'
_cell_volume   449.35921366
_cell_formula_units_Z   2
loop_
 _symmetry_equiv_pos_site_id
 _symmetry_equiv_pos_as_xyz
  1  'x, y, z'
loop_
 _atom_site_type_symbol
 _atom_site_label
 _atom_site_symmetry_multiplicity
 _atom_site_fract_x
 _atom_site_fract_y
 _atom_site_fract_z
 _atom_site_occupancy
  Ti  Ti0  1  0.80342990  0.80342990  0.25000000  1.0
  Ti  Ti1  1  0.19657010  0.19657010  0.75000000  1.0
  Mn  Mn2  1  0.50721908  -0.12761518  0.45385081  1.0
  Mn  Mn3  1  1.12761518  0.49278092  0.95385081  1.0
  Mn  Mn4  1  0.87238482  0.50721908  0.04614919  1.0
  Mn  Mn5  1  0.49278092  0.12761518  0.54614919  1.0
  P  P6  1  0.83404752  0.06790829  0.99405867  1.0
  P  P7  1  0.93209171  0.16595248  0.49405867  1.0
  P  P8  1  1.06790829  0.83404752  0.50594133  1.0
  P  P9  1  0.16595248  -0.06790829  0.00594133  1.0
  P  P10  1  0.52056188  -0.16768937  0.25748262  1.0
  P  P11  1  1.16768937  0.47943812  0.75748262  1.0
  P  P12  1  0.83231063  0.52056188  0.24251738  1.0
  P  P13  1  0.47943812  0.16768937  0.74251738  1.0
  P  P14  1  0.54795995  0.09581318  0.07479122  1.0
  P  P15  1  0.90418682  0.45204005  0.57479122  1.0
  P  P16  1  1.09581318  0.54795995  0.42520878  1.0
  P  P17  1  0.45204005  -0.09581318  0.92520878  1.0
  P  P18  1  0.50535170  0.14914237  0.33561001  1.0
  P  P19  1  0.85085763  0.49464830  0.83561001  1.0
  P  P20  1  1.14914237  0.50535170  0.16438999  1.0
  P  P21  1  0.49464830  -0.14914237  0.66438999  1.0
  P  P22  1  0.20822340  0.08455646  0.16679266  1.0
  P  P23  1  0.91544354  0.79177660  0.66679266  1.0
  P  P24  1  1.08455646  0.20822340  0.33320734  1.0
  P  P25  1  0.79177660  -0.08455646  0.83320734  1.0
  P  P26  1  0.48417195  0.41782697  0.42769036  1.0
  P  P27  1  0.58217303  0.51582805  0.92769036  1.0
  P  P28  1  1.41782697  0.48417195  0.07230964  1.0
  P  P29  1  0.51582805  -0.41782697  0.57230964  1.0
