# generated using pymatgen
data_Sc2C3
_symmetry_space_group_name_H-M   'P 1'
_cell_length_a   6.66669078
_cell_length_b   6.66669078
_cell_length_c   6.66669078
_cell_angle_alpha   109.47122063
_cell_angle_beta   109.47122063
_cell_angle_gamma   109.47122063
_symmetry_Int_Tables_number   1
_chemical_formula_structural   Sc2C3
_chemical_formula_sum   'Sc8 C12'
_cell_volume   228.09147061
_cell_formula_units_Z   4
loop_
 _symmetry_equiv_pos_site_id
 _symmetry_equiv_pos_as_xyz
  1  'x, y, z'
loop_
 _atom_site_type_symbol
 _atom_site_label
 _atom_site_symmetry_multiplicity
 _atom_site_fract_x
 _atom_site_fract_y
 _atom_site_fract_z
 _atom_site_occupancy
  Sc  Sc0  1  1.40004463  1.40004463  1.40004463  1.0
  Sc  Sc1  1  1.50000000  1.00000000  1.09995537  1.0
  Sc  Sc2  1  0.90004463  0.90004463  0.90004463  1.0
  Sc  Sc3  1  0.50000000  1.00000000  0.59995537  1.0
  Sc  Sc4  1  1.00000000  1.09995537  1.50000000  1.0
  Sc  Sc5  1  1.09995537  0.50000000  1.00000000  1.0
  Sc  Sc6  1  1.00000000  0.59995537  1.50000000  1.0
  Sc  Sc7  1  0.59995537  1.50000000  1.00000000  1.0
  C  C8  1  1.21164196  0.96164196  1.25000000  1.0
  C  C9  1  0.46164196  0.71164196  0.75000000  1.0
  C  C10  1  0.25000000  1.21164196  0.96164196  1.0
  C  C11  1  0.75000000  1.28835804  0.53835804  1.0
  C  C12  1  0.71164196  0.75000000  0.46164196  1.0
  C  C13  1  0.78835804  0.25000000  1.03835804  1.0
  C  C14  1  0.96164196  0.25000000  1.21164196  1.0
  C  C15  1  0.53835804  0.75000000  0.28835804  1.0
  C  C16  1  0.75000000  1.46164196  0.71164196  1.0
  C  C17  1  0.25000000  1.03835804  0.78835804  1.0
  C  C18  1  0.28835804  0.53835804  0.75000000  1.0
  C  C19  1  1.03835804  0.78835804  1.25000000  1.0
