# generated using pymatgen
data_K3PbAu5
_symmetry_space_group_name_H-M   'P 1'
_cell_length_a   11.24177710
_cell_length_b   11.24177710
_cell_length_c   11.24177710
_cell_angle_alpha   54.86365192
_cell_angle_beta   150.23275373
_cell_angle_gamma   135.02982399
_symmetry_Int_Tables_number   1
_chemical_formula_structural   K3PbAu5
_chemical_formula_sum   'K6 Pb2 Au10'
_cell_volume   495.47276154
_cell_formula_units_Z   2
loop_
 _symmetry_equiv_pos_site_id
 _symmetry_equiv_pos_as_xyz
  1  'x, y, z'
loop_
 _atom_site_type_symbol
 _atom_site_label
 _atom_site_symmetry_multiplicity
 _atom_site_fract_x
 _atom_site_fract_y
 _atom_site_fract_z
 _atom_site_occupancy
  K  K0  1  0.38056057  0.46444127  0.58388070  1.0
  K  K1  1  1.61943943  1.20332013  1.08388070  1.0
  K  K2  1  1.61943943  1.53555873  1.41611930  1.0
  K  K3  1  0.38056057  0.79667987  0.91611930  1.0
  K  K4  1  0.62507116  0.87507116  0.75000000  1.0
  K  K5  1  1.37492884  1.12492884  1.25000000  1.0
  Pb  Pb6  1  1.16495201  1.41495201  0.75000000  1.0
  Pb  Pb7  1  0.83504799  0.58504799  1.25000000  1.0
  Au  Au8  1  0.96146261  1.10448896  0.64302634  1.0
  Au  Au9  1  1.03853739  0.68156373  1.14302634  1.0
  Au  Au10  1  1.03853739  0.89551104  1.35697366  1.0
  Au  Au11  1  0.96146261  1.31843627  0.85697366  1.0
  Au  Au12  1  0.50000000  0.81540469  0.31540469  1.0
  Au  Au13  1  1.00000000  0.81540469  0.81540469  1.0
  Au  Au14  1  1.00000000  1.18459531  1.18459531  1.0
  Au  Au15  1  0.50000000  1.18459531  0.68459531  1.0
  Au  Au16  1  1.00000000  1.00000000  0.50000000  1.0
  Au  Au17  1  1.00000000  0.50000000  1.00000000  1.0
