# generated using pymatgen
data_NaMgF3
_symmetry_space_group_name_H-M   'P 1'
_cell_length_a   5.49870712
_cell_length_b   5.49870712
_cell_length_c   3.95826028
_cell_angle_alpha   90.00000000
_cell_angle_beta   90.00000000
_cell_angle_gamma   90.00000000
_symmetry_Int_Tables_number   1
_chemical_formula_structural   NaMgF3
_chemical_formula_sum   'Na2 Mg2 F6'
_cell_volume   119.68108682
_cell_formula_units_Z   2
loop_
 _symmetry_equiv_pos_site_id
 _symmetry_equiv_pos_as_xyz
  1  'x, y, z'
loop_
 _atom_site_type_symbol
 _atom_site_label
 _atom_site_symmetry_multiplicity
 _atom_site_fract_x
 _atom_site_fract_y
 _atom_site_fract_z
 _atom_site_occupancy
  Na  Na0  1  0.50000000  0.00000000  0.00000000  1.0
  Na  Na1  1  0.00000000  0.50000000  0.00000000  1.0
  Mg  Mg2  1  0.50000000  0.50000000  0.50000000  1.0
  Mg  Mg3  1  0.00000000  0.00000000  0.50000000  1.0
  F  F4  1  0.31208494  0.18791506  0.50000000  1.0
  F  F5  1  0.81208494  0.31208494  0.50000000  1.0
  F  F6  1  0.68791506  0.81208494  0.50000000  1.0
  F  F7  1  0.18791506  0.68791506  0.50000000  1.0
  F  F8  1  0.50000000  0.50000000  0.00000000  1.0
  F  F9  1  0.00000000  0.00000000  0.00000000  1.0
