# generated using pymatgen
data_Lu4MgPt
_symmetry_space_group_name_H-M   'P 1'
_cell_length_a   9.56103484
_cell_length_b   9.56103484
_cell_length_c   9.56103484
_cell_angle_alpha   60.00000000
_cell_angle_beta   60.00000000
_cell_angle_gamma   60.00000000
_symmetry_Int_Tables_number   1
_chemical_formula_structural   Lu4MgPt
_chemical_formula_sum   'Lu16 Mg4 Pt4'
_cell_volume   618.01597950
_cell_formula_units_Z   4
loop_
 _symmetry_equiv_pos_site_id
 _symmetry_equiv_pos_as_xyz
  1  'x, y, z'
loop_
 _atom_site_type_symbol
 _atom_site_label
 _atom_site_symmetry_multiplicity
 _atom_site_fract_x
 _atom_site_fract_y
 _atom_site_fract_z
 _atom_site_occupancy
  Lu  Lu0  1  0.06607220  0.43392780  0.43392780  1.0
  Lu  Lu1  1  0.43392780  0.43392780  0.06607220  1.0
  Lu  Lu2  1  0.43392780  0.06607220  0.43392780  1.0
  Lu  Lu3  1  0.06607220  0.06607220  0.43392780  1.0
  Lu  Lu4  1  0.06607220  0.43392780  0.06607220  1.0
  Lu  Lu5  1  0.43392780  0.06607220  0.06607220  1.0
  Lu  Lu6  1  -0.80997602  0.80997602  0.80997602  1.0
  Lu  Lu7  1  -0.19002398  0.80997602  0.19002398  1.0
  Lu  Lu8  1  -0.19002398  0.19002398  0.80997602  1.0
  Lu  Lu9  1  0.19002398  1.19002398  -0.19002398  1.0
  Lu  Lu10  1  0.19002398  -0.19002398  0.19002398  1.0
  Lu  Lu11  1  -0.19002398  0.19002398  0.19002398  1.0
  Lu  Lu12  1  -0.35014292  0.64985708  0.64985708  1.0
  Lu  Lu13  1  1.05042876  0.64985708  -0.35014292  1.0
  Lu  Lu14  1  -0.35014292  0.64985708  1.05042876  1.0
  Lu  Lu15  1  0.64985708  1.05042876  -0.35014292  1.0
  Mg  Mg16  1  0.41983091  1.41983091  0.41983091  1.0
  Mg  Mg17  1  -0.25949273  0.41983091  0.41983091  1.0
  Mg  Mg18  1  0.41983091  1.41983091  -0.25949273  1.0
  Mg  Mg19  1  0.41983091  -0.25949273  0.41983091  1.0
  Pt  Pt20  1  0.85756201  0.85756201  -0.14243799  1.0
  Pt  Pt21  1  0.42731398  0.85756201  -0.14243799  1.0
  Pt  Pt22  1  0.85756201  0.85756201  -0.57268602  1.0
  Pt  Pt23  1  0.85756201  0.42731398  -0.14243799  1.0
