# generated using pymatgen
data_KYGeS4
_symmetry_space_group_name_H-M   'P 1'
_cell_length_a   6.54860048
_cell_length_b   6.72532912
_cell_length_c   8.76728318
_cell_angle_alpha   90.00000000
_cell_angle_beta   107.18177311
_cell_angle_gamma   90.00000000
_symmetry_Int_Tables_number   1
_chemical_formula_structural   KYGeS4
_chemical_formula_sum   'K2 Y2 Ge2 S8'
_cell_volume   368.89244101
_cell_formula_units_Z   2
loop_
 _symmetry_equiv_pos_site_id
 _symmetry_equiv_pos_as_xyz
  1  'x, y, z'
loop_
 _atom_site_type_symbol
 _atom_site_label
 _atom_site_symmetry_multiplicity
 _atom_site_fract_x
 _atom_site_fract_y
 _atom_site_fract_z
 _atom_site_occupancy
  K  K0  1  0.73073674  0.50691218  0.93398580  1.0
  K  K1  1  0.26926326  0.00691218  0.06601420  1.0
  Y  Y2  1  0.77195098  0.48897361  0.44988763  1.0
  Y  Y3  1  0.22804902  -0.01102639  0.55011237  1.0
  Ge  Ge4  1  0.77326951  0.02479978  0.67170776  1.0
  Ge  Ge5  1  0.22673049  0.52479978  0.32829224  1.0
  S  S6  1  0.97997914  0.75425145  0.69703985  1.0
  S  S7  1  0.02002086  0.25425145  0.30296015  1.0
  S  S8  1  0.97558990  0.76128387  0.28265698  1.0
  S  S9  1  0.02441010  0.26128387  0.71734302  1.0
  S  S10  1  0.56703668  0.02659244  0.82999150  1.0
  S  S11  1  0.43296332  0.52659244  0.17000850  1.0
  S  S12  1  0.43666093  0.59818667  0.57251829  1.0
  S  S13  1  0.56333907  0.09818667  0.42748171  1.0
