# generated using pymatgen
data_Rb2P2Pd
_symmetry_space_group_name_H-M   'P 1'
_cell_length_a   8.06165152
_cell_length_b   8.06165152
_cell_length_c   6.08483378
_cell_angle_alpha   90.00000000
_cell_angle_beta   90.00000000
_cell_angle_gamma   131.28742103
_symmetry_Int_Tables_number   1
_chemical_formula_structural   Rb2P2Pd
_chemical_formula_sum   'Rb4 P4 Pd2'
_cell_volume   297.14824048
_cell_formula_units_Z   2
loop_
 _symmetry_equiv_pos_site_id
 _symmetry_equiv_pos_as_xyz
  1  'x, y, z'
loop_
 _atom_site_type_symbol
 _atom_site_label
 _atom_site_symmetry_multiplicity
 _atom_site_fract_x
 _atom_site_fract_y
 _atom_site_fract_z
 _atom_site_occupancy
  Rb  Rb0  1  0.21323757  0.78676243  0.75000000  1.0
  Rb  Rb1  1  -0.21323757  0.21323757  0.25000000  1.0
  Rb  Rb2  1  -0.42172292  0.42172292  0.75000000  1.0
  Rb  Rb3  1  0.42172292  0.57827708  0.25000000  1.0
  P  P4  1  0.05870035  0.26963643  0.75000000  1.0
  P  P5  1  0.26963643  1.05870035  0.25000000  1.0
  P  P6  1  0.73036357  0.94129965  0.75000000  1.0
  P  P7  1  -0.05870035  0.73036357  0.25000000  1.0
  Pd  Pd8  1  0.00000000  0.00000000  0.00000000  1.0
  Pd  Pd9  1  0.00000000  0.00000000  0.50000000  1.0
