# generated using pymatgen
data_K5TlC(SeO)3
_symmetry_space_group_name_H-M   'P 1'
_cell_length_a   7.49260145
_cell_length_b   10.80004735
_cell_length_c   8.81938568
_cell_angle_alpha   109.75205259
_cell_angle_beta   101.59646435
_cell_angle_gamma   88.78774415
_symmetry_Int_Tables_number   1
_chemical_formula_structural   K5TlC(SeO)3
_chemical_formula_sum   'K10 Tl2 C2 Se6 O6'
_cell_volume   657.12118877
_cell_formula_units_Z   2
loop_
 _symmetry_equiv_pos_site_id
 _symmetry_equiv_pos_as_xyz
  1  'x, y, z'
loop_
 _atom_site_type_symbol
 _atom_site_label
 _atom_site_symmetry_multiplicity
 _atom_site_fract_x
 _atom_site_fract_y
 _atom_site_fract_z
 _atom_site_occupancy
  K  K0  1  0.00996541  0.78694519  -0.50301498  1.0
  K  K1  1  0.99003459  0.21305481  -0.49698502  1.0
  K  K2  1  0.10758785  0.44272840  -0.70129600  1.0
  K  K3  1  0.89241215  0.55727160  -0.29870400  1.0
  K  K4  1  0.30959690  0.39617133  -0.08430088  1.0
  K  K5  1  0.69040310  0.60382867  -0.91569912  1.0
  K  K6  1  0.50969595  0.24096467  -0.46817743  1.0
  K  K7  1  0.49030405  0.75903533  -0.53182257  1.0
  K  K8  1  0.38430175  0.83257548  -0.07793239  1.0
  K  K9  1  0.61569825  0.16742452  -0.92206761  1.0
  Tl  Tl10  1  0.02386383  0.09954108  -0.13511907  1.0
  Tl  Tl11  1  0.97613617  0.90045892  -0.86488093  1.0
  C  C12  1  0.67202893  0.45717097  -0.66828232  1.0
  C  C13  1  0.32797107  0.54282903  -0.33171768  1.0
  Se  Se14  1  0.19174409  0.11648885  -0.81684517  1.0
  Se  Se15  1  0.80825591  0.88351115  -0.18315483  1.0
  Se  Se16  1  0.84978998  0.31698522  -0.12591037  1.0
  Se  Se17  1  0.15021002  0.68301478  -0.87408963  1.0
  Se  Se18  1  0.29427212  0.05568825  -0.29575667  1.0
  Se  Se19  1  0.70572788  0.94431175  -0.70424333  1.0
  O  O20  1  0.52654219  0.43735016  -0.78357021  1.0
  O  O21  1  0.47345781  0.56264984  -0.21642979  1.0
  O  O22  1  0.23413723  0.42947932  -0.38698806  1.0
  O  O23  1  0.76586277  0.57052068  -0.61301194  1.0
  O  O24  1  0.72894378  0.36509007  -0.60768454  1.0
  O  O25  1  0.27105622  0.63490993  -0.39231546  1.0
