# generated using pymatgen
data_GdMn3V4O12
_symmetry_space_group_name_H-M   'P 1'
_cell_length_a   6.45761978
_cell_length_b   6.45761978
_cell_length_c   6.45761978
_cell_angle_alpha   109.47122063
_cell_angle_beta   109.47122063
_cell_angle_gamma   109.47122063
_symmetry_Int_Tables_number   1
_chemical_formula_structural   GdMn3V4O12
_chemical_formula_sum   'Gd1 Mn3 V4 O12'
_cell_volume   207.29819497
_cell_formula_units_Z   1
loop_
 _symmetry_equiv_pos_site_id
 _symmetry_equiv_pos_as_xyz
  1  'x, y, z'
loop_
 _atom_site_type_symbol
 _atom_site_label
 _atom_site_symmetry_multiplicity
 _atom_site_fract_x
 _atom_site_fract_y
 _atom_site_fract_z
 _atom_site_occupancy
  Gd  Gd0  1  0.00000000  0.00000000  0.00000000  1.0
  Mn  Mn1  1  0.50000000  0.50000000  -0.00000000  1.0
  Mn  Mn2  1  -0.00000000  0.50000000  0.50000000  1.0
  Mn  Mn3  1  0.50000000  0.00000000  0.50000000  1.0
  V  V4  1  0.50000000  1.00000000  1.00000000  1.0
  V  V5  1  0.50000000  0.50000000  0.50000000  1.0
  V  V6  1  1.00000000  1.00000000  0.50000000  1.0
  V  V7  1  1.00000000  0.50000000  1.00000000  1.0
  O  O8  1  0.82183461  1.30254709  1.12438169  1.0
  O  O9  1  0.82183461  0.69745291  0.51928752  1.0
  O  O10  1  0.17816539  0.30254709  0.48071248  1.0
  O  O11  1  0.17816539  0.69745291  0.87561831  1.0
  O  O12  1  0.51928752  0.82183461  0.69745291  1.0
  O  O13  1  1.12438169  0.82183461  1.30254709  1.0
  O  O14  1  0.69745291  0.87561831  0.17816539  1.0
  O  O15  1  0.69745291  0.51928752  0.82183461  1.0
  O  O16  1  0.87561831  0.17816539  0.69745291  1.0
  O  O17  1  0.48071248  0.17816539  0.30254709  1.0
  O  O18  1  0.30254709  0.48071248  0.17816539  1.0
  O  O19  1  1.30254709  1.12438169  0.82183461  1.0
