# generated using pymatgen
data_Ga2Fe2Bi2O9
_symmetry_space_group_name_H-M   'P 1'
_cell_length_a   8.13619022
_cell_length_b   8.56748350
_cell_length_c   6.03380977
_cell_angle_alpha   90.00000000
_cell_angle_beta   90.00000000
_cell_angle_gamma   90.00000000
_symmetry_Int_Tables_number   1
_chemical_formula_structural   Ga2Fe2Bi2O9
_chemical_formula_sum   'Ga4 Fe4 Bi4 O18'
_cell_volume   420.59681987
_cell_formula_units_Z   2
loop_
 _symmetry_equiv_pos_site_id
 _symmetry_equiv_pos_as_xyz
  1  'x, y, z'
loop_
 _atom_site_type_symbol
 _atom_site_label
 _atom_site_symmetry_multiplicity
 _atom_site_fract_x
 _atom_site_fract_y
 _atom_site_fract_z
 _atom_site_occupancy
  Fe  Fe0  1  0.50000000  0.00000000  0.76001309  1.0
  Fe  Fe1  1  0.50000000  0.00000000  0.23998691  1.0
  Fe  Fe2  1  0.00000000  0.50000000  0.76001309  1.0
  Fe  Fe3  1  0.00000000  0.50000000  0.23998691  1.0
  Ga  Ga4  1  0.35483644  0.66047329  0.00000000  1.0
  Ga  Ga5  1  0.85483644  0.83952671  0.00000000  1.0
  Ga  Ga6  1  0.64516356  0.33952671  0.00000000  1.0
  Ga  Ga7  1  0.14516356  0.16047329  0.00000000  1.0
  Bi  Bi8  1  0.18514759  0.81688041  0.50000000  1.0
  Bi  Bi9  1  0.68514759  0.68311959  0.50000000  1.0
  Bi  Bi10  1  0.81485241  0.18311959  0.50000000  1.0
  Bi  Bi11  1  0.31485241  0.31688041  0.50000000  1.0
  O  O12  1  0.50000000  0.50000000  0.00000000  1.0
  O  O13  1  0.00000000  0.00000000  0.00000000  1.0
  O  O14  1  0.13756794  0.58951055  0.00000000  1.0
  O  O15  1  0.63756794  0.91048945  0.00000000  1.0
  O  O16  1  0.86243206  0.41048945  0.00000000  1.0
  O  O17  1  0.36243206  0.08951055  0.00000000  1.0
  O  O18  1  0.15468030  0.55982101  0.50000000  1.0
  O  O19  1  0.65468030  0.94017899  0.50000000  1.0
  O  O20  1  0.84531970  0.44017899  0.50000000  1.0
  O  O21  1  0.34531970  0.05982101  0.50000000  1.0
  O  O22  1  0.37749509  0.78661572  0.74441506  1.0
  O  O23  1  0.37749509  0.78661572  0.25558494  1.0
  O  O24  1  0.87749509  0.71338428  0.74441506  1.0
  O  O25  1  0.87749509  0.71338428  0.25558494  1.0
  O  O26  1  0.62250491  0.21338428  0.74441506  1.0
  O  O27  1  0.62250491  0.21338428  0.25558494  1.0
  O  O28  1  0.12250491  0.28661572  0.74441506  1.0
  O  O29  1  0.12250491  0.28661572  0.25558494  1.0
