# generated using pymatgen
data_NbBi2O5F
_symmetry_space_group_name_H-M   'P 1'
_cell_length_a   5.48822102
_cell_length_b   17.01785575
_cell_length_c   5.50934033
_cell_angle_alpha   90.00000000
_cell_angle_beta   90.00000000
_cell_angle_gamma   90.00000000
_symmetry_Int_Tables_number   1
_chemical_formula_structural   NbBi2O5F
_chemical_formula_sum   'Nb4 Bi8 O20 F4'
_cell_volume   514.56001111
_cell_formula_units_Z   4
loop_
 _symmetry_equiv_pos_site_id
 _symmetry_equiv_pos_as_xyz
  1  'x, y, z'
loop_
 _atom_site_type_symbol
 _atom_site_label
 _atom_site_symmetry_multiplicity
 _atom_site_fract_x
 _atom_site_fract_y
 _atom_site_fract_z
 _atom_site_occupancy
  Nb  Nb0  1  0.48988177  0.74989555  -0.01674650  1.0
  Nb  Nb1  1  0.51011823  0.25010445  0.48325350  1.0
  Nb  Nb2  1  1.01011823  0.74989555  0.48325350  1.0
  Nb  Nb3  1  -0.01011823  0.25010445  -0.01674650  1.0
  Bi  Bi4  1  0.99701770  0.57506264  0.00428444  1.0
  Bi  Bi5  1  0.00298230  0.42493736  0.50428444  1.0
  Bi  Bi6  1  0.50298230  0.57506264  0.50428444  1.0
  Bi  Bi7  1  0.49701770  0.42493736  0.00428444  1.0
  Bi  Bi8  1  0.02677908  0.92375266  0.04815543  1.0
  Bi  Bi9  1  0.97322092  0.07624734  0.54815543  1.0
  Bi  Bi10  1  0.47322092  0.92375266  0.54815543  1.0
  Bi  Bi11  1  0.52677908  0.07624734  0.04815543  1.0
  O  O12  1  0.41499856  0.85703895  0.95406712  1.0
  O  O13  1  0.58500144  0.14296105  0.45406712  1.0
  O  O14  1  0.08500144  0.85703895  0.45406712  1.0
  O  O15  1  0.91499856  0.14296105  0.95406712  1.0
  O  O16  1  0.23702649  -0.00044495  0.77282617  1.0
  O  O17  1  0.76297351  1.00044495  0.27282617  1.0
  O  O18  1  0.26297351  -0.00044495  0.27282617  1.0
  O  O19  1  0.73702649  1.00044495  0.77282617  1.0
  O  O20  1  0.24817959  0.50420460  0.73942543  1.0
  O  O21  1  0.75182041  0.49579540  0.23942543  1.0
  O  O22  1  0.25182041  0.50420460  0.23942543  1.0
  O  O23  1  0.74817959  0.49579540  0.73942543  1.0
  O  O24  1  0.76515615  0.75328631  0.72575242  1.0
  O  O25  1  0.23484385  0.24671369  0.22575242  1.0
  O  O26  1  0.73484385  0.75328631  0.22575242  1.0
  O  O27  1  0.26515615  0.24671369  0.72575242  1.0
  O  O28  1  0.27246321  0.71505952  0.68732402  1.0
  O  O29  1  0.72753679  0.28494048  0.18732402  1.0
  O  O30  1  0.22753679  0.71505952  0.18732402  1.0
  O  O31  1  0.77246321  0.28494048  0.68732402  1.0
  F  F32  1  0.93789747  0.62258037  0.46091146  1.0
  F  F33  1  0.06210253  0.37741963  0.96091146  1.0
  F  F34  1  0.56210253  0.62258037  0.96091146  1.0
  F  F35  1  0.43789747  0.37741963  0.46091146  1.0
