# generated using pymatgen
data_K3Mg18Sn11
_symmetry_space_group_name_H-M   'P 1'
_cell_length_a   11.91183019
_cell_length_b   11.91183019
_cell_length_c   13.88408684
_cell_angle_alpha   90.00000000
_cell_angle_beta   90.00000000
_cell_angle_gamma   120.00000000
_symmetry_Int_Tables_number   1
_chemical_formula_structural   K3Mg18Sn11
_chemical_formula_sum   'K6 Mg36 Sn22'
_cell_volume   1706.10179642
_cell_formula_units_Z   2
loop_
 _symmetry_equiv_pos_site_id
 _symmetry_equiv_pos_as_xyz
  1  'x, y, z'
loop_
 _atom_site_type_symbol
 _atom_site_label
 _atom_site_symmetry_multiplicity
 _atom_site_fract_x
 _atom_site_fract_y
 _atom_site_fract_z
 _atom_site_occupancy
  K  K0  1  0.33333333  0.66666667  0.91780670  1.0
  K  K1  1  0.66666667  0.33333333  0.41780670  1.0
  K  K2  1  0.66666667  0.33333333  0.08219330  1.0
  K  K3  1  0.33333333  0.66666667  0.58219330  1.0
  K  K4  1  0.66666667  0.33333333  0.75000000  1.0
  K  K5  1  0.33333333  0.66666667  0.25000000  1.0
  Mg  Mg6  1  0.89104164  0.74633892  0.75000000  1.0
  Mg  Mg7  1  0.85529729  0.10895836  0.75000000  1.0
  Mg  Mg8  1  0.25366108  0.14470271  0.75000000  1.0
  Mg  Mg9  1  0.10895836  0.25366108  0.25000000  1.0
  Mg  Mg10  1  0.14470271  0.89104164  0.25000000  1.0
  Mg  Mg11  1  0.74633892  0.85529729  0.25000000  1.0
  Mg  Mg12  1  0.14803913  0.87718880  0.91680125  1.0
  Mg  Mg13  1  0.72914967  0.85196087  0.91680125  1.0
  Mg  Mg14  1  0.12281120  0.27085033  0.91680125  1.0
  Mg  Mg15  1  0.85196087  0.12281120  0.41680125  1.0
  Mg  Mg16  1  0.27085033  0.14803913  0.41680125  1.0
  Mg  Mg17  1  0.87718880  0.72914967  0.41680125  1.0
  Mg  Mg18  1  0.85196087  0.12281120  0.08319875  1.0
  Mg  Mg19  1  0.27085033  0.14803913  0.08319875  1.0
  Mg  Mg20  1  0.87718880  0.72914967  0.08319875  1.0
  Mg  Mg21  1  0.14803913  0.87718880  0.58319875  1.0
  Mg  Mg22  1  0.72914967  0.85196087  0.58319875  1.0
  Mg  Mg23  1  0.12281120  0.27085033  0.58319875  1.0
  Mg  Mg24  1  0.37317726  0.94232619  0.75000000  1.0
  Mg  Mg25  1  0.56914893  0.62682274  0.75000000  1.0
  Mg  Mg26  1  0.05767381  0.43085107  0.75000000  1.0
  Mg  Mg27  1  0.62682274  0.05767381  0.25000000  1.0
  Mg  Mg28  1  0.43085107  0.37317726  0.25000000  1.0
  Mg  Mg29  1  0.94232619  0.56914893  0.25000000  1.0
  Mg  Mg30  1  0.94455602  0.56783274  0.91629444  1.0
  Mg  Mg31  1  0.62327672  0.05544398  0.91629444  1.0
  Mg  Mg32  1  0.43216726  0.37672328  0.91629444  1.0
  Mg  Mg33  1  0.05544398  0.43216726  0.41629444  1.0
  Mg  Mg34  1  0.37672328  0.94455602  0.41629444  1.0
  Mg  Mg35  1  0.56783274  0.62327672  0.41629444  1.0
  Mg  Mg36  1  0.05544398  0.43216726  0.08370556  1.0
  Mg  Mg37  1  0.37672328  0.94455602  0.08370556  1.0
  Mg  Mg38  1  0.56783274  0.62327672  0.08370556  1.0
  Mg  Mg39  1  0.94455602  0.56783274  0.58370556  1.0
  Mg  Mg40  1  0.62327672  0.05544398  0.58370556  1.0
  Mg  Mg41  1  0.43216726  0.37672328  0.58370556  1.0
  Sn  Sn42  1  0.00000000  0.00000000  0.86341889  1.0
  Sn  Sn43  1  0.00000000  0.00000000  0.36341889  1.0
  Sn  Sn44  1  0.00000000  0.00000000  0.13658111  1.0
  Sn  Sn45  1  0.00000000  0.00000000  0.63658111  1.0
  Sn  Sn46  1  0.70498861  0.59101003  0.91576817  1.0
  Sn  Sn47  1  0.88602142  0.29501139  0.91576817  1.0
  Sn  Sn48  1  0.40898997  0.11397858  0.91576817  1.0
  Sn  Sn49  1  0.29501139  0.40898997  0.41576817  1.0
  Sn  Sn50  1  0.11397858  0.70498861  0.41576817  1.0
  Sn  Sn51  1  0.59101003  0.88602142  0.41576817  1.0
  Sn  Sn52  1  0.29501139  0.40898997  0.08423183  1.0
  Sn  Sn53  1  0.11397858  0.70498861  0.08423183  1.0
  Sn  Sn54  1  0.59101003  0.88602142  0.08423183  1.0
  Sn  Sn55  1  0.70498861  0.59101003  0.58423183  1.0
  Sn  Sn56  1  0.88602142  0.29501139  0.58423183  1.0
  Sn  Sn57  1  0.40898997  0.11397858  0.58423183  1.0
  Sn  Sn58  1  0.11518921  0.70012681  0.75000000  1.0
  Sn  Sn59  1  0.58493761  0.88481079  0.75000000  1.0
  Sn  Sn60  1  0.29987319  0.41506239  0.75000000  1.0
  Sn  Sn61  1  0.88481079  0.29987319  0.25000000  1.0
  Sn  Sn62  1  0.41506239  0.11518921  0.25000000  1.0
  Sn  Sn63  1  0.70012681  0.58493761  0.25000000  1.0
