# generated using pymatgen
data_EuZnGe
_symmetry_space_group_name_H-M   'P 1'
_cell_length_a   4.31103663
_cell_length_b   4.26550076
_cell_length_c   7.54822299
_cell_angle_alpha   90.00000000
_cell_angle_beta   90.00000000
_cell_angle_gamma   90.00000000
_symmetry_Int_Tables_number   1
_chemical_formula_structural   EuZnGe
_chemical_formula_sum   'Eu2 Zn2 Ge2'
_cell_volume   138.80223496
_cell_formula_units_Z   2
loop_
 _symmetry_equiv_pos_site_id
 _symmetry_equiv_pos_as_xyz
  1  'x, y, z'
loop_
 _atom_site_type_symbol
 _atom_site_label
 _atom_site_symmetry_multiplicity
 _atom_site_fract_x
 _atom_site_fract_y
 _atom_site_fract_z
 _atom_site_occupancy
  Eu  Eu0  1  0.25000000  0.00000000  0.76813434  1.0
  Eu  Eu1  1  0.75000000  0.00000000  0.23186566  1.0
  Zn  Zn2  1  0.25000000  0.50000000  0.42417969  1.0
  Zn  Zn3  1  0.75000000  0.50000000  0.57582031  1.0
  Ge  Ge4  1  0.25000000  0.50000000  0.09291048  1.0
  Ge  Ge5  1  0.75000000  0.50000000  0.90708952  1.0
