# generated using pymatgen
data_Rb6HgS4
_symmetry_space_group_name_H-M   'P 1'
_cell_length_a   10.48341104
_cell_length_b   10.48341104
_cell_length_c   8.11388355
_cell_angle_alpha   90.00000000
_cell_angle_beta   90.00000000
_cell_angle_gamma   120.00000000
_symmetry_Int_Tables_number   1
_chemical_formula_structural   Rb6HgS4
_chemical_formula_sum   'Rb12 Hg2 S8'
_cell_volume   772.26193741
_cell_formula_units_Z   2
loop_
 _symmetry_equiv_pos_site_id
 _symmetry_equiv_pos_as_xyz
  1  'x, y, z'
loop_
 _atom_site_type_symbol
 _atom_site_label
 _atom_site_symmetry_multiplicity
 _atom_site_fract_x
 _atom_site_fract_y
 _atom_site_fract_z
 _atom_site_occupancy
  Rb  Rb0  1  0.70360162  0.85180081  0.28728312  1.0
  Rb  Rb1  1  0.85180081  0.70360162  0.78728312  1.0
  Rb  Rb2  1  0.85180081  0.14819919  0.78728312  1.0
  Rb  Rb3  1  0.14819919  0.85180081  0.28728312  1.0
  Rb  Rb4  1  0.14819919  0.29639838  0.28728312  1.0
  Rb  Rb5  1  0.29639838  0.14819919  0.78728312  1.0
  Rb  Rb6  1  0.94054441  0.47027220  0.11652843  1.0
  Rb  Rb7  1  0.47027220  0.94054441  0.61652843  1.0
  Rb  Rb8  1  0.47027220  0.52972780  0.61652843  1.0
  Rb  Rb9  1  0.52972780  0.47027220  0.11652843  1.0
  Rb  Rb10  1  0.52972780  0.05945559  0.11652843  1.0
  Rb  Rb11  1  0.05945559  0.52972780  0.61652843  1.0
  Hg  Hg12  1  0.33333333  0.66666667  -0.00442026  1.0
  Hg  Hg13  1  0.66666667  0.33333333  0.49557974  1.0
  S  S14  1  0.38737328  0.19368664  0.39681521  1.0
  S  S15  1  0.19368664  0.38737328  0.89681521  1.0
  S  S16  1  0.19368664  0.80631336  0.89681521  1.0
  S  S17  1  0.80631336  0.19368664  0.39681521  1.0
  S  S18  1  0.80631336  0.61262672  0.39681521  1.0
  S  S19  1  0.61262672  0.80631336  0.89681521  1.0
  S  S20  1  0.33333333  0.66666667  0.32653999  1.0
  S  S21  1  0.66666667  0.33333333  0.82653999  1.0
