# generated using pymatgen
data_Yb2(CN2)3
_symmetry_space_group_name_H-M   'P 1'
_cell_length_a   10.69384701
_cell_length_b   10.69384701
_cell_length_c   10.69384701
_cell_angle_alpha   34.63141244
_cell_angle_beta   34.63141244
_cell_angle_gamma   34.63141244
_symmetry_Int_Tables_number   1
_chemical_formula_structural   Yb2(CN2)3
_chemical_formula_sum   'Yb4 C6 N12'
_cell_volume   352.42824735
_cell_formula_units_Z   2
loop_
 _symmetry_equiv_pos_site_id
 _symmetry_equiv_pos_as_xyz
  1  'x, y, z'
loop_
 _atom_site_type_symbol
 _atom_site_label
 _atom_site_symmetry_multiplicity
 _atom_site_fract_x
 _atom_site_fract_y
 _atom_site_fract_z
 _atom_site_occupancy
  Yb  Yb0  1  0.83596010  -0.16403990  -0.16403990  1.0
  Yb  Yb1  1  0.33596010  0.33596010  0.33596010  1.0
  Yb  Yb2  1  0.66403990  0.66403990  -0.33596010  1.0
  Yb  Yb3  1  1.16403990  0.16403990  0.16403990  1.0
  C  C4  1  0.45283342  0.75000000  0.04716658  1.0
  C  C5  1  0.95283342  -0.45283342  0.25000000  1.0
  C  C6  1  0.25000000  0.95283342  -0.45283342  1.0
  C  C7  1  0.75000000  1.04716658  -0.54716658  1.0
  C  C8  1  0.54716658  0.25000000  -0.04716658  1.0
  C  C9  1  1.04716658  0.45283342  -0.25000000  1.0
  N  N10  1  0.46059585  0.85705298  0.04892017  1.0
  N  N11  1  0.96059585  0.54892017  -0.64294702  1.0
  N  N12  1  0.45107983  0.64294702  0.03940415  1.0
  N  N13  1  0.95107983  -0.46059585  0.14294702  1.0
  N  N14  1  1.14294702  -0.04892017  -0.46059585  1.0
  N  N15  1  0.64294702  1.03940415  -0.54892017  1.0
  N  N16  1  0.53940415  0.14294702  -0.04892017  1.0
  N  N17  1  1.03940415  0.45107983  -0.35705298  1.0
  N  N18  1  1.04892017  0.46059585  -0.14294702  1.0
  N  N19  1  0.54892017  0.35705298  -0.03940415  1.0
  N  N20  1  0.35705298  0.96059585  -0.45107983  1.0
  N  N21  1  0.85705298  1.04892017  -0.53940415  1.0
