# generated using pymatgen
data_C3Br2O
_symmetry_space_group_name_H-M   'P 1'
_cell_length_a   9.32490516
_cell_length_b   6.56379434
_cell_length_c   9.52485222
_cell_angle_alpha   90.00000000
_cell_angle_beta   107.93913006
_cell_angle_gamma   90.00000000
_symmetry_Int_Tables_number   1
_chemical_formula_structural   C3Br2O
_chemical_formula_sum   'C12 Br8 O4'
_cell_volume   554.64308502
_cell_formula_units_Z   4
loop_
 _symmetry_equiv_pos_site_id
 _symmetry_equiv_pos_as_xyz
  1  'x, y, z'
loop_
 _atom_site_type_symbol
 _atom_site_label
 _atom_site_symmetry_multiplicity
 _atom_site_fract_x
 _atom_site_fract_y
 _atom_site_fract_z
 _atom_site_occupancy
  C  C0  1  0.99597332  0.82145595  0.90725686  1.0
  C  C1  1  0.99597332  0.67854405  0.40725686  1.0
  C  C2  1  0.00402668  0.32145595  0.59274314  1.0
  C  C3  1  0.00402668  0.17854405  0.09274314  1.0
  C  C4  1  0.85853704  0.41756929  0.50528375  1.0
  C  C5  1  0.85853704  0.08243071  0.00528375  1.0
  C  C6  1  0.14146296  0.91756929  0.99471625  1.0
  C  C7  1  0.14146296  0.58243071  0.49471625  1.0
  C  C8  1  0.85475217  0.91737366  0.91907842  1.0
  C  C9  1  0.85475217  0.58262634  0.41907842  1.0
  C  C10  1  0.14524783  0.41737366  0.58092158  1.0
  C  C11  1  0.14524783  0.08262634  0.08092158  1.0
  Br  Br12  1  0.67510431  0.79094275  0.80677024  1.0
  Br  Br13  1  0.67510431  0.70905725  0.30677024  1.0
  Br  Br14  1  0.32489569  0.29094275  0.69322976  1.0
  Br  Br15  1  0.32489569  0.20905725  0.19322976  1.0
  Br  Br16  1  0.31528489  0.79228342  0.97483264  1.0
  Br  Br17  1  0.31528489  0.70771658  0.47483264  1.0
  Br  Br18  1  0.68471511  0.29228342  0.52516736  1.0
  Br  Br19  1  0.68471511  0.20771658  0.02516736  1.0
  O  O20  1  0.99275944  0.67117909  0.83061030  1.0
  O  O21  1  0.99275944  0.82882091  0.33061030  1.0
  O  O22  1  0.00724056  0.17117909  0.66938970  1.0
  O  O23  1  0.00724056  0.32882091  0.16938970  1.0
