# generated using pymatgen
data_NaSi6
_symmetry_space_group_name_H-M   'P 1'
_cell_length_a   5.71089243
_cell_length_b   5.71089243
_cell_length_c   12.41044959
_cell_angle_alpha   90.00000000
_cell_angle_beta   90.00000000
_cell_angle_gamma   138.13074647
_symmetry_Int_Tables_number   1
_chemical_formula_structural   NaSi6
_chemical_formula_sum   'Na2 Si12'
_cell_volume   270.14888424
_cell_formula_units_Z   2
loop_
 _symmetry_equiv_pos_site_id
 _symmetry_equiv_pos_as_xyz
  1  'x, y, z'
loop_
 _atom_site_type_symbol
 _atom_site_label
 _atom_site_symmetry_multiplicity
 _atom_site_fract_x
 _atom_site_fract_y
 _atom_site_fract_z
 _atom_site_occupancy
  Na  Na0  1  -0.28819373  0.28819373  0.75000000  1.0
  Na  Na1  1  0.28819373  0.71180627  0.25000000  1.0
  Si  Si2  1  0.02670968  0.97329032  0.90579005  1.0
  Si  Si3  1  0.02670968  0.97329032  0.59420995  1.0
  Si  Si4  1  -0.02670968  0.02670968  0.40579005  1.0
  Si  Si5  1  -0.02670968  0.02670968  0.09420995  1.0
  Si  Si6  1  0.24366486  0.75633514  0.95041514  1.0
  Si  Si7  1  0.24366486  0.75633514  0.54958486  1.0
  Si  Si8  1  -0.24366486  0.24366486  0.45041514  1.0
  Si  Si9  1  -0.24366486  0.24366486  0.04958486  1.0
  Si  Si10  1  0.43156871  0.56843129  0.84573176  1.0
  Si  Si11  1  0.43156871  0.56843129  0.65426824  1.0
  Si  Si12  1  -0.43156871  0.43156871  0.34573176  1.0
  Si  Si13  1  -0.43156871  0.43156871  0.15426824  1.0
