# generated using pymatgen
data_NaCd4As3
_symmetry_space_group_name_H-M   'P 1'
_cell_length_a   11.75045481
_cell_length_b   11.75045481
_cell_length_c   11.75045481
_cell_angle_alpha   22.19425802
_cell_angle_beta   22.19425802
_cell_angle_gamma   22.19425802
_symmetry_Int_Tables_number   1
_chemical_formula_structural   NaCd4As3
_chemical_formula_sum   'Na1 Cd4 As3'
_cell_volume   202.99883804
_cell_formula_units_Z   1
loop_
 _symmetry_equiv_pos_site_id
 _symmetry_equiv_pos_as_xyz
  1  'x, y, z'
loop_
 _atom_site_type_symbol
 _atom_site_label
 _atom_site_symmetry_multiplicity
 _atom_site_fract_x
 _atom_site_fract_y
 _atom_site_fract_z
 _atom_site_occupancy
  Na  Na0  1  1.50000000  0.50000000  0.50000000  1.0
  Cd  Cd1  1  0.90521973  0.90521973  0.90521973  1.0
  Cd  Cd2  1  1.09478027  1.09478027  0.09478027  1.0
  Cd  Cd3  1  0.70090967  0.70090967  0.70090967  1.0
  Cd  Cd4  1  1.29909033  1.29909033  0.29909033  1.0
  As  As5  1  0.77950504  0.77950504  0.77950504  1.0
  As  As6  1  1.22049496  1.22049496  0.22049496  1.0
  As  As7  1  -0.00000000  -0.00000000  0.00000000  1.0
