# generated using pymatgen
data_HS3N
_symmetry_space_group_name_H-M   'P 1'
_cell_length_a   8.61768970
_cell_length_b   14.03320288
_cell_length_c   7.60215560
_cell_angle_alpha   90.00000000
_cell_angle_beta   90.00000000
_cell_angle_gamma   90.00000000
_symmetry_Int_Tables_number   1
_chemical_formula_structural   HS3N
_chemical_formula_sum   'H8 S24 N8'
_cell_volume   919.35747327
_cell_formula_units_Z   8
loop_
 _symmetry_equiv_pos_site_id
 _symmetry_equiv_pos_as_xyz
  1  'x, y, z'
loop_
 _atom_site_type_symbol
 _atom_site_label
 _atom_site_symmetry_multiplicity
 _atom_site_fract_x
 _atom_site_fract_y
 _atom_site_fract_z
 _atom_site_occupancy
  H  H0  1  0.35513502  0.75000000  0.14660092  1.0
  H  H1  1  0.85513502  0.75000000  0.35339908  1.0
  H  H2  1  0.64486498  0.25000000  0.85339908  1.0
  H  H3  1  0.14486498  0.25000000  0.64660092  1.0
  H  H4  1  0.17629368  0.75000000  0.82414191  1.0
  H  H5  1  0.67629368  0.75000000  0.67585809  1.0
  H  H6  1  0.82370632  0.25000000  0.17585809  1.0
  H  H7  1  0.32370632  0.25000000  0.32414191  1.0
  S  S8  1  0.31539280  0.89746136  0.50836678  1.0
  S  S9  1  0.31539280  0.60253864  0.50836678  1.0
  S  S10  1  0.81539280  0.89746136  0.99163322  1.0
  S  S11  1  0.81539280  0.60253864  0.99163322  1.0
  S  S12  1  0.68460720  0.39746136  0.49163322  1.0
  S  S13  1  0.68460720  0.10253864  0.49163322  1.0
  S  S14  1  0.18460720  0.39746136  0.00836678  1.0
  S  S15  1  0.18460720  0.10253864  0.00836678  1.0
  S  S16  1  0.48615766  0.85636590  0.32994683  1.0
  S  S17  1  0.48615766  0.64363410  0.32994683  1.0
  S  S18  1  0.98615766  0.85636590  0.17005317  1.0
  S  S19  1  0.98615766  0.64363410  0.17005317  1.0
  S  S20  1  0.51384234  0.35636590  0.67005317  1.0
  S  S21  1  0.51384234  0.14363410  0.67005317  1.0
  S  S22  1  0.01384234  0.35636590  0.82994683  1.0
  S  S23  1  0.01384234  0.14363410  0.82994683  1.0
  S  S24  1  0.37586452  0.85678646  0.76152677  1.0
  S  S25  1  0.37586452  0.64321354  0.76152677  1.0
  S  S26  1  0.87586452  0.85678646  0.73847323  1.0
  S  S27  1  0.87586452  0.64321354  0.73847323  1.0
  S  S28  1  0.62413548  0.35678646  0.23847323  1.0
  S  S29  1  0.62413548  0.14321354  0.23847323  1.0
  S  S30  1  0.12413548  0.35678646  0.26152677  1.0
  S  S31  1  0.12413548  0.14321354  0.26152677  1.0
  N  N32  1  0.44083049  0.75000000  0.23971777  1.0
  N  N33  1  0.94083049  0.75000000  0.26028223  1.0
  N  N34  1  0.55916951  0.25000000  0.76028223  1.0
  N  N35  1  0.05916951  0.25000000  0.73971777  1.0
  N  N36  1  0.29512821  0.75000000  0.81460257  1.0
  N  N37  1  0.79512821  0.75000000  0.68539743  1.0
  N  N38  1  0.70487179  0.25000000  0.18539743  1.0
  N  N39  1  0.20487179  0.25000000  0.31460257  1.0
