# generated using pymatgen
data_SrIn2(PO4)4
_symmetry_space_group_name_H-M   'P 1'
_cell_length_a   6.84401743
_cell_length_b   6.84401743
_cell_length_c   14.22171441
_cell_angle_alpha   90.00000000
_cell_angle_beta   90.00000000
_cell_angle_gamma   91.04413696
_symmetry_Int_Tables_number   1
_chemical_formula_structural   SrIn2(PO4)4
_chemical_formula_sum   'Sr2 In4 P8 O32'
_cell_volume   666.04266295
_cell_formula_units_Z   2
loop_
 _symmetry_equiv_pos_site_id
 _symmetry_equiv_pos_as_xyz
  1  'x, y, z'
loop_
 _atom_site_type_symbol
 _atom_site_label
 _atom_site_symmetry_multiplicity
 _atom_site_fract_x
 _atom_site_fract_y
 _atom_site_fract_z
 _atom_site_occupancy
  In  In0  1  0.14138699  0.85861301  0.25000000  1.0
  In  In1  1  -0.14138699  1.14138699  0.75000000  1.0
  In  In2  1  0.64909871  0.64909871  0.00000000  1.0
  In  In3  1  0.35090129  0.35090129  0.50000000  1.0
  O  O4  1  0.11295939  0.83326275  0.40123514  1.0
  O  O5  1  -0.16673725  1.11295939  0.59876486  1.0
  O  O6  1  0.16673725  0.88704061  0.09876486  1.0
  O  O7  1  -0.11295939  1.16673725  0.90123514  1.0
  O  O8  1  -0.03535915  1.62723015  0.00529044  1.0
  O  O9  1  0.62723015  0.96464085  0.99470956  1.0
  O  O10  1  -0.62723015  1.03535915  0.49470956  1.0
  O  O11  1  0.03535915  0.37276985  0.50529044  1.0
  O  O12  1  -0.31601140  1.64106747  0.33023997  1.0
  O  O13  1  0.64106747  0.68398860  0.66976003  1.0
  O  O14  1  -0.64106747  1.31601140  0.16976003  1.0
  O  O15  1  0.31601140  0.35893253  0.83023997  1.0
  O  O16  1  -0.10595976  1.17884308  0.07519715  1.0
  O  O17  1  0.17884308  0.89404024  0.92480285  1.0
  O  O18  1  -0.17884308  1.10595976  0.42480285  1.0
  O  O19  1  0.10595976  0.82115692  0.57519715  1.0
  O  O20  1  0.11003902  0.17277315  0.26520790  1.0
  O  O21  1  -0.82722685  1.11003902  0.73479210  1.0
  O  O22  1  0.82722685  0.88996098  0.23479210  1.0
  O  O23  1  -0.11003902  1.82722685  0.76520790  1.0
  O  O24  1  -0.37192094  1.62318506  0.15102638  1.0
  O  O25  1  0.62318506  0.62807906  0.84897362  1.0
  O  O26  1  -0.62318506  1.37192094  0.34897362  1.0
  O  O27  1  0.37192094  0.37681494  0.65102638  1.0
  O  O28  1  0.12115801  0.54369068  0.24947591  1.0
  O  O29  1  -0.45630932  1.12115801  0.75052409  1.0
  O  O30  1  0.45630932  0.87884199  0.25052409  1.0
  O  O31  1  -0.12115801  1.45630932  0.74947591  1.0
  O  O32  1  0.32759770  0.60948999  0.00845874  1.0
  O  O33  1  -0.39051001  1.32759770  0.99154126  1.0
  O  O34  1  0.39051001  0.67240230  0.49154126  1.0
  O  O35  1  -0.32759770  1.39051001  0.50845874  1.0
  Sr  Sr36  1  0.23619637  0.23619637  -0.00000000  1.0
  Sr  Sr37  1  0.76380363  0.76380363  0.50000000  1.0
  P  P38  1  0.15431846  0.75384309  0.00949583  1.0
  P  P39  1  -0.24615691  1.15431846  0.99050417  1.0
  P  P40  1  0.24615691  0.84568154  0.49050417  1.0
  P  P41  1  -0.15431846  1.24615691  0.50949583  1.0
  P  P42  1  0.24303149  0.35864112  0.26186662  1.0
  P  P43  1  -0.64135888  1.24303149  0.73813338  1.0
  P  P44  1  0.64135888  0.75696850  0.23813338  1.0
  P  P45  1  -0.24303150  1.64135888  0.76186662  1.0
