# generated using pymatgen
data_ScH8(NF2)3
_symmetry_space_group_name_H-M   'P 1'
_cell_length_a   5.62928878
_cell_length_b   5.61189315
_cell_length_c   13.96336294
_cell_angle_alpha   90.00000000
_cell_angle_beta   113.79193931
_cell_angle_gamma   90.00000000
_symmetry_Int_Tables_number   1
_chemical_formula_structural   ScH8(NF2)3
_chemical_formula_sum   'Sc2 H16 N6 F12'
_cell_volume   403.62851627
_cell_formula_units_Z   2
loop_
 _symmetry_equiv_pos_site_id
 _symmetry_equiv_pos_as_xyz
  1  'x, y, z'
loop_
 _atom_site_type_symbol
 _atom_site_label
 _atom_site_symmetry_multiplicity
 _atom_site_fract_x
 _atom_site_fract_y
 _atom_site_fract_z
 _atom_site_occupancy
  F  F0  1  0.94299032  0.32627269  0.61495829  1.0
  F  F1  1  0.94299032  0.17372731  0.11495829  1.0
  F  F2  1  0.05700968  0.67372731  0.38504171  1.0
  F  F3  1  0.05700968  0.82627269  0.88504171  1.0
  F  F4  1  0.28691813  0.67259330  0.61551208  1.0
  F  F5  1  0.28691813  0.82740670  0.11551208  1.0
  F  F6  1  0.71308187  0.32740670  0.38448792  1.0
  F  F7  1  0.71308187  0.17259330  0.88448792  1.0
  F  F8  1  0.72701139  0.77190204  0.49995744  1.0
  F  F9  1  0.72701139  0.72809796  -0.00004256  1.0
  F  F10  1  0.27298861  0.22809796  0.50004256  1.0
  F  F11  1  0.27298861  0.27190204  1.00004256  1.0
  N  N12  1  0.74961624  0.49966020  0.74924941  1.0
  N  N13  1  0.74961624  0.00033980  0.24924941  1.0
  N  N14  1  0.25038376  0.50033980  0.25075059  1.0
  N  N15  1  0.25038376  0.99966020  0.75075059  1.0
  N  N16  1  0.50000000  0.00000000  0.50000000  1.0
  N  N17  1  0.50000000  0.50000000  -0.00000000  1.0
  H  H18  1  0.86516367  0.63247879  0.79834240  1.0
  H  H19  1  0.86516367  0.86752121  0.29834240  1.0
  H  H20  1  0.13483633  0.36752121  0.20165760  1.0
  H  H21  1  0.13483633  0.13247879  0.70165760  1.0
  H  H22  1  0.83332026  0.43320483  0.70025713  1.0
  H  H23  1  0.83332026  1.06679517  0.20025713  1.0
  H  H24  1  0.16667974  0.56679517  0.29974287  1.0
  H  H25  1  0.16667974  -0.06679517  0.79974287  1.0
  H  H26  1  0.73219317  0.36627102  0.79808512  1.0
  H  H27  1  0.73219317  0.13372898  0.29808512  1.0
  H  H28  1  0.26780683  0.63372898  0.20191488  1.0
  H  H29  1  0.26780683  0.86627102  0.70191488  1.0
  H  H30  1  0.56780139  0.56650085  0.70053227  1.0
  H  H31  1  0.56780139  0.93349915  0.20053227  1.0
  H  H32  1  0.43219861  0.43349915  0.29946773  1.0
  H  H33  1  0.43219861  0.06650085  0.79946773  1.0
  Sc  Sc34  1  -0.00000000  0.50000000  0.50000000  1.0
  Sc  Sc35  1  0.00000000  0.00000000  0.00000000  1.0
