# generated using pymatgen
data_Co7W6
_symmetry_space_group_name_H-M   'P 1'
_cell_length_a   8.94178505
_cell_length_b   8.94178505
_cell_length_c   8.94178505
_cell_angle_alpha   30.74968406
_cell_angle_beta   30.74968406
_cell_angle_gamma   30.74968406
_symmetry_Int_Tables_number   1
_chemical_formula_structural   Co7W6
_chemical_formula_sum   'Co7 W6'
_cell_volume   165.73704405
_cell_formula_units_Z   1
loop_
 _symmetry_equiv_pos_site_id
 _symmetry_equiv_pos_as_xyz
  1  'x, y, z'
loop_
 _atom_site_type_symbol
 _atom_site_label
 _atom_site_symmetry_multiplicity
 _atom_site_fract_x
 _atom_site_fract_y
 _atom_site_fract_z
 _atom_site_occupancy
  W  W0  1  0.45013389  0.45013389  -0.54986611  1.0
  W  W1  1  0.54986611  0.54986611  -0.45013389  1.0
  W  W2  1  0.16587865  0.16587865  0.16587865  1.0
  W  W3  1  0.83412135  -0.16587865  -0.16587865  1.0
  W  W4  1  0.34660642  0.34660642  -0.65339358  1.0
  W  W5  1  0.65339358  0.65339358  -0.34660642  1.0
  Co  Co6  1  1.09009984  0.09009984  -0.41076460  1.0
  Co  Co7  1  0.58923540  0.09009984  0.09009984  1.0
  Co  Co8  1  1.09009984  -0.41076460  0.09009984  1.0
  Co  Co9  1  0.41076460  -0.09009984  -0.09009984  1.0
  Co  Co10  1  0.90990016  -0.58923540  -0.09009984  1.0
  Co  Co11  1  0.90990016  -0.09009984  -0.58923540  1.0
  Co  Co12  1  -0.00000000  0.00000000  0.00000000  1.0
