# generated using pymatgen
data_Ca7NbSi4O17F
_symmetry_space_group_name_H-M   'P 1'
_cell_length_a   7.44247542
_cell_length_b   10.52539121
_cell_length_c   10.97039444
_cell_angle_alpha   90.00000000
_cell_angle_beta   109.61256092
_cell_angle_gamma   90.00000000
_symmetry_Int_Tables_number   1
_chemical_formula_structural   Ca7NbSi4O17F
_chemical_formula_sum   'Ca14 Nb2 Si8 O34 F2'
_cell_volume   809.50842587
_cell_formula_units_Z   2
loop_
 _symmetry_equiv_pos_site_id
 _symmetry_equiv_pos_as_xyz
  1  'x, y, z'
loop_
 _atom_site_type_symbol
 _atom_site_label
 _atom_site_symmetry_multiplicity
 _atom_site_fract_x
 _atom_site_fract_y
 _atom_site_fract_z
 _atom_site_occupancy
  Ca  Ca0  1  0.48364296  0.64788755  0.43369913  1.0
  Ca  Ca1  1  0.48364296  0.35211245  0.93369913  1.0
  Ca  Ca2  1  0.97476376  0.66624675  0.42111890  1.0
  Ca  Ca3  1  0.97476376  0.33375325  0.92111890  1.0
  Ca  Ca4  1  0.68666152  0.38170612  0.30637447  1.0
  Ca  Ca5  1  0.68666152  0.61829388  0.80637447  1.0
  Ca  Ca6  1  0.17310696  0.37312954  0.32811389  1.0
  Ca  Ca7  1  0.17310696  0.62687046  0.82811389  1.0
  Ca  Ca8  1  0.35728854  0.13384421  0.15763797  1.0
  Ca  Ca9  1  0.35728854  0.86615579  0.65763797  1.0
  Ca  Ca10  1  0.55106719  0.83889732  0.07015988  1.0
  Ca  Ca11  1  0.55106719  0.16110268  0.57015988  1.0
  Ca  Ca12  1  0.03951097  0.84652348  0.05948382  1.0
  Ca  Ca13  1  0.03951097  0.15347652  0.55948382  1.0
  Nb  Nb14  1  0.86212295  0.13885940  0.18358739  1.0
  Nb  Nb15  1  0.86212295  0.86114060  0.68358739  1.0
  Si  Si16  1  0.65647221  0.06911762  0.86144710  1.0
  Si  Si17  1  0.65647221  0.93088238  0.36144710  1.0
  Si  Si18  1  0.23722225  0.05634054  0.87655130  1.0
  Si  Si19  1  0.23722225  0.94365946  0.37655130  1.0
  Si  Si20  1  0.35277675  0.55658497  0.11617612  1.0
  Si  Si21  1  0.35277675  0.44341503  0.61617612  1.0
  Si  Si22  1  0.79082624  0.56055820  0.10709961  1.0
  Si  Si23  1  0.79082624  0.43944180  0.60709961  1.0
  O  O24  1  0.77902690  0.01102714  0.00467934  1.0
  O  O25  1  0.77902690  0.98897286  0.50467934  1.0
  O  O26  1  0.26728731  0.97130989  0.00727698  1.0
  O  O27  1  0.26728731  0.02869011  0.50727698  1.0
  O  O28  1  0.68326619  0.99753652  0.73491764  1.0
  O  O29  1  0.68326619  0.00246348  0.23491764  1.0
  O  O30  1  0.06305620  0.01386845  0.74615572  1.0
  O  O31  1  0.06305620  0.98613155  0.24615572  1.0
  O  O32  1  0.67530456  0.22102340  0.84677336  1.0
  O  O33  1  0.67530456  0.77897660  0.34677336  1.0
  O  O34  1  0.23310299  0.20481870  0.91544525  1.0
  O  O35  1  0.23310299  0.79518130  0.41544525  1.0
  O  O36  1  0.37002821  0.50645949  0.26032593  1.0
  O  O37  1  0.37002821  0.49354051  0.76032593  1.0
  O  O38  1  0.92498049  0.50784085  0.24757562  1.0
  O  O39  1  0.92498049  0.49215915  0.74757562  1.0
  O  O40  1  0.22943869  0.46850456  0.99521231  1.0
  O  O41  1  0.22943869  0.53149544  0.49521231  1.0
  O  O42  1  0.78517793  0.47996815  0.97854672  1.0
  O  O43  1  0.78517793  0.52003185  0.47854672  1.0
  O  O44  1  0.30032884  0.70569631  0.08111210  1.0
  O  O45  1  0.30032884  0.29430369  0.58111210  1.0
  O  O46  1  0.81049124  0.71208638  0.08484461  1.0
  O  O47  1  0.81049124  0.28791362  0.58484461  1.0
  O  O48  1  0.04442133  0.22757826  0.13065975  1.0
  O  O49  1  0.04442133  0.77242174  0.63065975  1.0
  O  O50  1  0.63140393  0.23508515  0.12393384  1.0
  O  O51  1  0.63140393  0.76491485  0.62393384  1.0
  O  O52  1  0.93571848  0.22078326  0.34513349  1.0
  O  O53  1  0.93571848  0.77921674  0.84513349  1.0
  O  O54  1  0.42700660  0.02740572  0.83170542  1.0
  O  O55  1  0.42700660  0.97259428  0.33170542  1.0
  O  O56  1  0.57426632  0.52807618  0.11480849  1.0
  O  O57  1  0.57426632  0.47192382  0.61480849  1.0
  F  F58  1  0.45273149  0.24925592  0.34904386  1.0
  F  F59  1  0.45273149  0.75074408  0.84904386  1.0
