# generated using pymatgen
data_Gd2S3
_symmetry_space_group_name_H-M   'P 1'
_cell_length_a   10.76497754
_cell_length_b   3.93173176
_cell_length_c   10.57527246
_cell_angle_alpha   90.00000000
_cell_angle_beta   90.00000000
_cell_angle_gamma   90.00000000
_symmetry_Int_Tables_number   1
_chemical_formula_structural   Gd2S3
_chemical_formula_sum   'Gd8 S12'
_cell_volume   447.59844988
_cell_formula_units_Z   4
loop_
 _symmetry_equiv_pos_site_id
 _symmetry_equiv_pos_as_xyz
  1  'x, y, z'
loop_
 _atom_site_type_symbol
 _atom_site_label
 _atom_site_symmetry_multiplicity
 _atom_site_fract_x
 _atom_site_fract_y
 _atom_site_fract_z
 _atom_site_occupancy
  Gd  Gd0  1  0.30896534  0.75000000  0.50513772  1.0
  Gd  Gd1  1  0.80896534  0.75000000  0.99486228  1.0
  Gd  Gd2  1  0.69103466  0.25000000  0.49486228  1.0
  Gd  Gd3  1  0.19103466  0.25000000  0.00513772  1.0
  Gd  Gd4  1  0.49106356  0.75000000  0.18627062  1.0
  Gd  Gd5  1  0.99106356  0.75000000  0.31372938  1.0
  Gd  Gd6  1  0.50893644  0.25000000  0.81372938  1.0
  Gd  Gd7  1  0.00893644  0.25000000  0.68627062  1.0
  S  S8  1  0.37990935  0.75000000  0.94431517  1.0
  S  S9  1  0.87990935  0.75000000  0.55568483  1.0
  S  S10  1  0.62009065  0.25000000  0.05568483  1.0
  S  S11  1  0.12009065  0.25000000  0.44431517  1.0
  S  S12  1  0.22802192  0.75000000  0.19657559  1.0
  S  S13  1  0.72802192  0.75000000  0.30342441  1.0
  S  S14  1  0.77197808  0.25000000  0.80342441  1.0
  S  S15  1  0.27197808  0.25000000  0.69657559  1.0
  S  S16  1  0.04668018  0.75000000  0.87288175  1.0
  S  S17  1  0.54668018  0.75000000  0.62711825  1.0
  S  S18  1  0.95331982  0.25000000  0.12711825  1.0
  S  S19  1  0.45331982  0.25000000  0.37288175  1.0
