# generated using pymatgen
data_Rb2MgP4(HO2)8
_symmetry_space_group_name_H-M   'P 1'
_cell_length_a   7.07877284
_cell_length_b   7.53109186
_cell_length_c   7.82407176
_cell_angle_alpha   82.38965615
_cell_angle_beta   71.76536591
_cell_angle_gamma   86.38930094
_symmetry_Int_Tables_number   1
_chemical_formula_structural   Rb2MgP4(HO2)8
_chemical_formula_sum   'Rb2 Mg1 P4 H8 O16'
_cell_volume   392.57002299
_cell_formula_units_Z   1
loop_
 _symmetry_equiv_pos_site_id
 _symmetry_equiv_pos_as_xyz
  1  'x, y, z'
loop_
 _atom_site_type_symbol
 _atom_site_label
 _atom_site_symmetry_multiplicity
 _atom_site_fract_x
 _atom_site_fract_y
 _atom_site_fract_z
 _atom_site_occupancy
  Rb  Rb0  1  0.60880618  0.22455446  0.78814387  1.0
  Rb  Rb1  1  0.39119382  0.77544554  0.21185613  1.0
  Mg  Mg2  1  0.00000000  0.00000000  0.00000000  1.0
  P  P3  1  0.83986136  0.76108766  0.74610329  1.0
  P  P4  1  0.16013864  0.23891234  0.25389671  1.0
  P  P5  1  0.25169508  0.69229389  0.74830835  1.0
  P  P6  1  0.74830492  0.30770611  0.25169165  1.0
  H  H7  1  0.87466316  0.68416873  0.21144778  1.0
  H  H8  1  0.12533684  0.31583127  0.78855222  1.0
  H  H9  1  0.87186493  0.81502225  0.35548621  1.0
  H  H10  1  0.12813507  0.18497775  0.64451379  1.0
  H  H11  1  0.75732980  0.54020251  0.97054011  1.0
  H  H12  1  0.24267020  0.45979749  0.02945989  1.0
  H  H13  1  0.56510597  0.76261293  0.58883024  1.0
  H  H14  1  0.43489403  0.23738707  0.41116976  1.0
  O  O15  1  0.92905754  0.79739412  0.22589180  1.0
  O  O16  1  0.07094246  0.20260588  0.77410820  1.0
  O  O17  1  0.92343822  0.27712789  0.34924666  1.0
  O  O18  1  0.07656178  0.72287211  0.65075334  1.0
  O  O19  1  0.81331839  0.88886265  0.88704454  1.0
  O  O20  1  0.18668161  0.11113735  0.11295546  1.0
  O  O21  1  0.75914869  0.82494807  0.58933708  1.0
  O  O22  1  0.24085131  0.17505193  0.41066292  1.0
  O  O23  1  0.74659532  0.57334408  0.84019821  1.0
  O  O24  1  0.25340468  0.42665592  0.15980179  1.0
  O  O25  1  0.43612467  0.71970585  0.57164880  1.0
  O  O26  1  0.56387533  0.28029415  0.42835120  1.0
  O  O27  1  0.24197726  0.49781685  0.83705663  1.0
  O  O28  1  0.75802274  0.50218315  0.16294337  1.0
  O  O29  1  0.23515725  0.83265514  0.87465608  1.0
  O  O30  1  0.76484275  0.16734486  0.12534392  1.0
