# generated using pymatgen
data_HfCrSi
_symmetry_space_group_name_H-M   'P 1'
_cell_length_a   6.70560530
_cell_length_b   3.46152282
_cell_length_c   7.85759381
_cell_angle_alpha   90.00000000
_cell_angle_beta   90.00000000
_cell_angle_gamma   90.00000000
_symmetry_Int_Tables_number   1
_chemical_formula_structural   HfCrSi
_chemical_formula_sum   'Hf4 Cr4 Si4'
_cell_volume   182.38737019
_cell_formula_units_Z   4
loop_
 _symmetry_equiv_pos_site_id
 _symmetry_equiv_pos_as_xyz
  1  'x, y, z'
loop_
 _atom_site_type_symbol
 _atom_site_label
 _atom_site_symmetry_multiplicity
 _atom_site_fract_x
 _atom_site_fract_y
 _atom_site_fract_z
 _atom_site_occupancy
  Hf  Hf0  1  0.95702122  0.75000000  0.66909597  1.0
  Hf  Hf1  1  0.45702122  0.75000000  0.83090403  1.0
  Hf  Hf2  1  0.04297878  0.25000000  0.33090403  1.0
  Hf  Hf3  1  0.54297878  0.25000000  0.16909597  1.0
  Cr  Cr4  1  0.87522281  0.75000000  0.05903520  1.0
  Cr  Cr5  1  0.37522281  0.75000000  0.44096480  1.0
  Cr  Cr6  1  0.12477719  0.25000000  0.94096480  1.0
  Cr  Cr7  1  0.62477719  0.25000000  0.55903520  1.0
  Si  Si8  1  0.74011209  0.75000000  0.36652471  1.0
  Si  Si9  1  0.24011209  0.75000000  0.13347529  1.0
  Si  Si10  1  0.25988791  0.25000000  0.63347529  1.0
  Si  Si11  1  0.75988791  0.25000000  0.86652471  1.0
