# generated using pymatgen
data_Rb2CuC2O7
_symmetry_space_group_name_H-M   'P 1'
_cell_length_a   8.51657923
_cell_length_b   14.50717406
_cell_length_c   6.64851541
_cell_angle_alpha   90.00000000
_cell_angle_beta   91.48093196
_cell_angle_gamma   90.00000000
_symmetry_Int_Tables_number   1
_chemical_formula_structural   Rb2CuC2O7
_chemical_formula_sum   'Rb8 Cu4 C8 O28'
_cell_volume   821.15965916
_cell_formula_units_Z   4
loop_
 _symmetry_equiv_pos_site_id
 _symmetry_equiv_pos_as_xyz
  1  'x, y, z'
loop_
 _atom_site_type_symbol
 _atom_site_label
 _atom_site_symmetry_multiplicity
 _atom_site_fract_x
 _atom_site_fract_y
 _atom_site_fract_z
 _atom_site_occupancy
  O  O0  1  0.96943629  0.42776244  0.74808513  1.0
  O  O1  1  0.96943629  0.07223756  0.24808513  1.0
  O  O2  1  0.03056371  0.92776244  0.75191487  1.0
  O  O3  1  0.03056371  0.57223756  0.25191487  1.0
  O  O4  1  0.93445038  0.80565437  0.58470175  1.0
  O  O5  1  0.93445038  0.69434563  0.08470175  1.0
  O  O6  1  0.06554962  0.30565437  0.91529825  1.0
  O  O7  1  0.06554962  0.19434563  0.41529825  1.0
  O  O8  1  0.83558719  0.84869712  0.88602589  1.0
  O  O9  1  0.83558719  0.65130288  0.38602589  1.0
  O  O10  1  0.16441281  0.34869712  0.61397411  1.0
  O  O11  1  0.16441281  0.15130288  0.11397411  1.0
  O  O12  1  0.64592709  0.61059231  0.92435653  1.0
  O  O13  1  0.64592709  0.88940769  0.42435653  1.0
  O  O14  1  0.35407291  0.11059231  0.57564347  1.0
  O  O15  1  0.35407291  0.38940769  0.07564347  1.0
  O  O16  1  0.59269510  0.72243026  0.71487049  1.0
  O  O17  1  0.59269510  0.77756974  0.21487049  1.0
  O  O18  1  0.40730490  0.22243026  0.78512951  1.0
  O  O19  1  0.40730490  0.27756974  0.28512951  1.0
  O  O20  1  0.46124854  0.58599995  0.67934287  1.0
  O  O21  1  0.46124854  0.91400005  0.17934287  1.0
  O  O22  1  0.53875146  0.08599995  0.82065713  1.0
  O  O23  1  0.53875146  0.41400005  0.32065713  1.0
  O  O24  1  0.25476709  0.74465205  0.98138213  1.0
  O  O25  1  0.25476709  0.75534795  0.48138213  1.0
  O  O26  1  0.74523291  0.24465205  0.51861787  1.0
  O  O27  1  0.74523291  0.25534795  0.01861787  1.0
  Cu  Cu28  1  0.75295035  0.72851817  0.92677092  1.0
  Cu  Cu29  1  0.75295035  0.77148183  0.42677092  1.0
  Cu  Cu30  1  0.24704965  0.22851817  0.57322908  1.0
  Cu  Cu31  1  0.24704965  0.27148183  0.07322908  1.0
  Rb  Rb32  1  0.89680172  0.11346621  0.78389980  1.0
  Rb  Rb33  1  0.89680172  0.38653379  0.28389980  1.0
  Rb  Rb34  1  0.10319828  0.61346621  0.71610020  1.0
  Rb  Rb35  1  0.10319828  0.88653379  0.21610020  1.0
  Rb  Rb36  1  0.38557658  0.89531295  0.74509512  1.0
  Rb  Rb37  1  0.38557658  0.60468705  0.24509512  1.0
  Rb  Rb38  1  0.61442342  0.39531295  0.75490488  1.0
  Rb  Rb39  1  0.61442342  0.10468705  0.25490488  1.0
  C  C40  1  0.93441631  0.86225102  0.73996106  1.0
  C  C41  1  0.93441631  0.63774898  0.23996106  1.0
  C  C42  1  0.06558369  0.36225102  0.76003894  1.0
  C  C43  1  0.06558369  0.13774898  0.26003894  1.0
  C  C44  1  0.55896859  0.63614416  0.76651348  1.0
  C  C45  1  0.55896859  0.86385584  0.26651348  1.0
  C  C46  1  0.44103141  0.13614416  0.73348652  1.0
  C  C47  1  0.44103141  0.36385584  0.23348652  1.0
