# generated using pymatgen
data_CuSeO3
_symmetry_space_group_name_H-M   'P 1'
_cell_length_a   7.89264874
_cell_length_b   8.70039321
_cell_length_c   10.92209297
_cell_angle_alpha   90.00000000
_cell_angle_beta   128.62070420
_cell_angle_gamma   90.00000000
_symmetry_Int_Tables_number   1
_chemical_formula_structural   CuSeO3
_chemical_formula_sum   'Cu8 Se8 O24'
_cell_volume   585.97968197
_cell_formula_units_Z   8
loop_
 _symmetry_equiv_pos_site_id
 _symmetry_equiv_pos_as_xyz
  1  'x, y, z'
loop_
 _atom_site_type_symbol
 _atom_site_label
 _atom_site_symmetry_multiplicity
 _atom_site_fract_x
 _atom_site_fract_y
 _atom_site_fract_z
 _atom_site_occupancy
  O  O0  1  0.97097159  0.91856622  0.12527157  1.0
  O  O1  1  0.97097159  0.58143378  0.62527157  1.0
  O  O2  1  0.02902841  0.41856622  0.37472843  1.0
  O  O3  1  0.02902841  0.08143378  0.87472843  1.0
  O  O4  1  0.75025534  0.69608842  0.32912247  1.0
  O  O5  1  0.75025534  0.80391158  0.82912247  1.0
  O  O6  1  0.24974466  0.19608842  0.17087753  1.0
  O  O7  1  0.24974466  0.30391158  0.67087753  1.0
  O  O8  1  0.64418114  0.28277063  0.27597309  1.0
  O  O9  1  0.64418114  0.21722937  0.77597309  1.0
  O  O10  1  0.35581886  0.78277063  0.22402691  1.0
  O  O11  1  0.35581886  0.71722937  0.72402691  1.0
  O  O12  1  0.45777433  0.41960356  0.39485212  1.0
  O  O13  1  0.45777433  0.08039644  0.89485212  1.0
  O  O14  1  0.54222567  0.91960356  0.10514788  1.0
  O  O15  1  0.54222567  0.58039644  0.60514788  1.0
  O  O16  1  0.83571348  0.27100893  0.09193358  1.0
  O  O17  1  0.83571348  0.22899107  0.59193358  1.0
  O  O18  1  0.16428652  0.77100893  0.40806642  1.0
  O  O19  1  0.16428652  0.72899107  0.90806642  1.0
  O  O20  1  0.96810258  0.04632629  0.33609478  1.0
  O  O21  1  0.96810258  0.45367371  0.83609478  1.0
  O  O22  1  0.03189742  0.54632629  0.16390522  1.0
  O  O23  1  0.03189742  0.95367371  0.66390522  1.0
  Se  Se24  1  0.85018781  0.45156366  0.17512310  1.0
  Se  Se25  1  0.85018781  0.04843634  0.67512310  1.0
  Se  Se26  1  0.14981219  0.95156366  0.32487690  1.0
  Se  Se27  1  0.14981219  0.54843634  0.82487690  1.0
  Se  Se28  1  0.39965866  0.35824800  0.21447738  1.0
  Se  Se29  1  0.39965866  0.14175200  0.71447738  1.0
  Se  Se30  1  0.60034134  0.85824800  0.28552262  1.0
  Se  Se31  1  0.60034134  0.64175200  0.78552262  1.0
  Cu  Cu32  1  0.71181861  0.09296039  0.11731759  1.0
  Cu  Cu33  1  0.71181861  0.40703961  0.61731759  1.0
  Cu  Cu34  1  0.28818139  0.59296039  0.38268241  1.0
  Cu  Cu35  1  0.28818139  0.90703961  0.88268241  1.0
  Cu  Cu36  1  0.94180006  0.30035088  0.47845999  1.0
  Cu  Cu37  1  0.94180006  0.19964912  0.97845999  1.0
  Cu  Cu38  1  0.05819994  0.80035088  0.02154001  1.0
  Cu  Cu39  1  0.05819994  0.69964912  0.52154001  1.0
