# generated using pymatgen
data_TePOs
_symmetry_space_group_name_H-M   'P 1'
_cell_length_a   6.25415124
_cell_length_b   6.23291130
_cell_length_c   6.38162032
_cell_angle_alpha   90.00000000
_cell_angle_beta   112.79808352
_cell_angle_gamma   90.00000000
_symmetry_Int_Tables_number   1
_chemical_formula_structural   TePOs
_chemical_formula_sum   'Te4 P4 Os4'
_cell_volume   229.33104488
_cell_formula_units_Z   4
loop_
 _symmetry_equiv_pos_site_id
 _symmetry_equiv_pos_as_xyz
  1  'x, y, z'
loop_
 _atom_site_type_symbol
 _atom_site_label
 _atom_site_symmetry_multiplicity
 _atom_site_fract_x
 _atom_site_fract_y
 _atom_site_fract_z
 _atom_site_occupancy
  Te  Te0  1  0.83357891  0.12484320  0.19593143  1.0
  Te  Te1  1  0.83357891  0.37515680  0.69593143  1.0
  Te  Te2  1  0.16642109  0.62484320  0.30406857  1.0
  Te  Te3  1  0.16642109  0.87515680  0.80406857  1.0
  P  P4  1  0.63561081  0.86444867  0.39300455  1.0
  P  P5  1  0.63561081  0.63555133  0.89300455  1.0
  P  P6  1  0.36438919  0.36444867  0.10699545  1.0
  P  P7  1  0.36438919  0.13555133  0.60699545  1.0
  Os  Os8  1  0.74881252  0.52037775  0.28592848  1.0
  Os  Os9  1  0.74881252  -0.02037775  0.78592848  1.0
  Os  Os10  1  0.25118748  1.02037775  0.21407152  1.0
  Os  Os11  1  0.25118748  0.47962225  0.71407152  1.0
