# generated using pymatgen
data_La3MoO7
_symmetry_space_group_name_H-M   'P 1'
_cell_length_a   7.74662500
_cell_length_b   11.18061861
_cell_length_c   7.75187811
_cell_angle_alpha   90.00000000
_cell_angle_beta   90.00000000
_cell_angle_gamma   90.00000000
_symmetry_Int_Tables_number   1
_chemical_formula_structural   La3MoO7
_chemical_formula_sum   'La12 Mo4 O28'
_cell_volume   671.40612953
_cell_formula_units_Z   4
loop_
 _symmetry_equiv_pos_site_id
 _symmetry_equiv_pos_as_xyz
  1  'x, y, z'
loop_
 _atom_site_type_symbol
 _atom_site_label
 _atom_site_symmetry_multiplicity
 _atom_site_fract_x
 _atom_site_fract_y
 _atom_site_fract_z
 _atom_site_occupancy
  La  La0  1  0.24869277  0.97485023  0.94965915  1.0
  La  La1  1  0.24869277  0.52514977  0.94965915  1.0
  La  La2  1  0.74869277  0.97485023  0.55034085  1.0
  La  La3  1  0.74869277  0.52514977  0.55034085  1.0
  La  La4  1  0.75130723  0.47485023  0.05034085  1.0
  La  La5  1  0.75130723  0.02514977  0.05034085  1.0
  La  La6  1  0.25130723  0.47485023  0.44965915  1.0
  La  La7  1  0.25130723  0.02514977  0.44965915  1.0
  La  La8  1  -0.00936605  0.75000000  0.21238815  1.0
  La  La9  1  0.49063395  0.75000000  0.28761185  1.0
  La  La10  1  1.00936605  0.25000000  0.78761185  1.0
  La  La11  1  0.50936605  0.25000000  0.71238815  1.0
  Mo  Mo12  1  0.50350797  0.75000000  0.75251042  1.0
  Mo  Mo13  1  1.00350797  0.75000000  0.74748958  1.0
  Mo  Mo14  1  0.49649203  0.25000000  0.24748958  1.0
  Mo  Mo15  1  -0.00350797  0.25000000  0.25251042  1.0
  O  O16  1  0.46851836  0.87097263  0.55294647  1.0
  O  O17  1  0.46851836  0.62902737  0.55294647  1.0
  O  O18  1  0.96851836  0.87097263  0.94705353  1.0
  O  O19  1  0.96851836  0.62902737  0.94705353  1.0
  O  O20  1  0.53148164  0.37097263  0.44705353  1.0
  O  O21  1  0.53148164  0.12902737  0.44705353  1.0
  O  O22  1  0.03148164  0.37097263  0.05294647  1.0
  O  O23  1  0.03148164  0.12902737  0.05294647  1.0
  O  O24  1  0.25351603  0.38200253  0.72555214  1.0
  O  O25  1  0.25351603  0.11799747  0.72555214  1.0
  O  O26  1  0.75351603  0.38200253  0.77444786  1.0
  O  O27  1  0.75351603  0.11799747  0.77444786  1.0
  O  O28  1  0.74648397  0.88200253  0.27444786  1.0
  O  O29  1  0.74648397  0.61799747  0.27444786  1.0
  O  O30  1  0.24648397  0.88200253  0.22555214  1.0
  O  O31  1  0.24648397  0.61799747  0.22555214  1.0
  O  O32  1  0.03773422  0.88060422  0.59056304  1.0
  O  O33  1  0.03773422  0.61939578  0.59056304  1.0
  O  O34  1  0.53773422  0.88060422  0.90943696  1.0
  O  O35  1  0.53773422  0.61939578  0.90943696  1.0
  O  O36  1  0.96226578  0.38060422  0.40943696  1.0
  O  O37  1  0.96226578  0.11939578  0.40943696  1.0
  O  O38  1  0.46226578  0.38060422  0.09056304  1.0
  O  O39  1  0.46226578  0.11939578  0.09056304  1.0
  O  O40  1  0.25372794  0.75000000  0.80673988  1.0
  O  O41  1  0.75372794  0.75000000  0.69326012  1.0
  O  O42  1  0.74627206  0.25000000  0.19326012  1.0
  O  O43  1  0.24627206  0.25000000  0.30673988  1.0
