# generated using pymatgen
data_V5Si3N
_symmetry_space_group_name_H-M   'P 1'
_cell_length_a   7.08279796
_cell_length_b   7.08279796
_cell_length_c   4.96889941
_cell_angle_alpha   90.00000000
_cell_angle_beta   90.00000000
_cell_angle_gamma   120.00000000
_symmetry_Int_Tables_number   1
_chemical_formula_structural   V5Si3N
_chemical_formula_sum   'V10 Si6 N2'
_cell_volume   215.87410203
_cell_formula_units_Z   2
loop_
 _symmetry_equiv_pos_site_id
 _symmetry_equiv_pos_as_xyz
  1  'x, y, z'
loop_
 _atom_site_type_symbol
 _atom_site_label
 _atom_site_symmetry_multiplicity
 _atom_site_fract_x
 _atom_site_fract_y
 _atom_site_fract_z
 _atom_site_occupancy
  V  V0  1  0.33333333  0.66666667  0.50000000  1.0
  V  V1  1  0.33333333  0.66666667  0.00000000  1.0
  V  V2  1  0.66666667  0.33333333  0.50000000  1.0
  V  V3  1  0.66666667  0.33333333  0.00000000  1.0
  V  V4  1  0.77253822  0.77253822  0.25000000  1.0
  V  V5  1  0.77253822  0.00000000  0.75000000  1.0
  V  V6  1  0.00000000  0.77253822  0.75000000  1.0
  V  V7  1  -0.00000000  0.22746178  0.25000000  1.0
  V  V8  1  0.22746178  0.22746178  0.75000000  1.0
  V  V9  1  0.22746178  0.00000000  0.25000000  1.0
  Si  Si10  1  0.40945552  0.40945552  0.25000000  1.0
  Si  Si11  1  0.40945552  0.00000000  0.75000000  1.0
  Si  Si12  1  0.00000000  0.40945552  0.75000000  1.0
  Si  Si13  1  -0.00000000  0.59054448  0.25000000  1.0
  Si  Si14  1  0.59054448  0.59054448  0.75000000  1.0
  Si  Si15  1  0.59054448  0.00000000  0.25000000  1.0
  N  N16  1  0.00000000  0.00000000  0.50000000  1.0
  N  N17  1  0.00000000  0.00000000  0.00000000  1.0
