# generated using pymatgen
data_Te4Mo3
_symmetry_space_group_name_H-M   'P 1'
_cell_length_a   7.18163709
_cell_length_b   7.18163709
_cell_length_c   7.18163709
_cell_angle_alpha   92.21095682
_cell_angle_beta   92.21095682
_cell_angle_gamma   92.21095682
_symmetry_Int_Tables_number   1
_chemical_formula_structural   Te4Mo3
_chemical_formula_sum   'Te8 Mo6'
_cell_volume   369.55032024
_cell_formula_units_Z   2
loop_
 _symmetry_equiv_pos_site_id
 _symmetry_equiv_pos_as_xyz
  1  'x, y, z'
loop_
 _atom_site_type_symbol
 _atom_site_label
 _atom_site_symmetry_multiplicity
 _atom_site_fract_x
 _atom_site_fract_y
 _atom_site_fract_z
 _atom_site_occupancy
  Te  Te0  1  0.88041280  0.61696470  0.24147052  1.0
  Te  Te1  1  1.38303530  -0.24147052  0.11958720  1.0
  Te  Te2  1  0.75852948  0.11958720  0.38303530  1.0
  Te  Te3  1  1.11958720  0.38303530  -0.24147052  1.0
  Te  Te4  1  0.61696470  1.24147052  -0.11958720  1.0
  Te  Te5  1  1.24147052  0.88041280  -0.38303530  1.0
  Te  Te6  1  0.71350811  0.71350811  0.71350811  1.0
  Te  Te7  1  0.28649189  0.28649189  0.28649189  1.0
  Mo  Mo8  1  0.74746805  0.91984240  0.04603403  1.0
  Mo  Mo9  1  1.08015760  -0.04603403  0.25253195  1.0
  Mo  Mo10  1  0.95396597  0.25253195  0.08015760  1.0
  Mo  Mo11  1  1.25253195  0.08015760  -0.04603403  1.0
  Mo  Mo12  1  0.91984240  1.04603403  -0.25253195  1.0
  Mo  Mo13  1  1.04603403  0.74746805  -0.08015760  1.0
