# generated using pymatgen
data_Ca2B2O5
_symmetry_space_group_name_H-M   'P 1'
_cell_length_a   3.59301123
_cell_length_b   6.39035284
_cell_length_c   19.36143728
_cell_angle_alpha   90.00000000
_cell_angle_beta   90.00000000
_cell_angle_gamma   90.00000000
_symmetry_Int_Tables_number   1
_chemical_formula_structural   Ca2B2O5
_chemical_formula_sum   'Ca8 B8 O20'
_cell_volume   444.55040089
_cell_formula_units_Z   4
loop_
 _symmetry_equiv_pos_site_id
 _symmetry_equiv_pos_as_xyz
  1  'x, y, z'
loop_
 _atom_site_type_symbol
 _atom_site_label
 _atom_site_symmetry_multiplicity
 _atom_site_fract_x
 _atom_site_fract_y
 _atom_site_fract_z
 _atom_site_occupancy
  Ca  Ca0  1  0.29573101  0.55576388  0.56133235  1.0
  Ca  Ca1  1  0.79573101  0.94423612  0.43866765  1.0
  Ca  Ca2  1  0.70426899  0.05576388  0.93866765  1.0
  Ca  Ca3  1  0.20426899  0.44423612  0.06133235  1.0
  Ca  Ca4  1  0.79443461  0.79867230  0.70978675  1.0
  Ca  Ca5  1  0.29443461  0.70132770  0.29021325  1.0
  Ca  Ca6  1  0.20556539  0.29867230  0.79021325  1.0
  Ca  Ca7  1  0.70556539  0.20132770  0.20978675  1.0
  B  B8  1  0.35480548  0.99723337  0.58258164  1.0
  B  B9  1  0.85480548  0.50276663  0.41741836  1.0
  B  B10  1  0.64519452  0.49723337  0.91741836  1.0
  B  B11  1  0.14519452  0.00276663  0.08258164  1.0
  B  B12  1  0.31749131  0.78334835  0.84360169  1.0
  B  B13  1  0.81749131  0.71665165  0.15639831  1.0
  B  B14  1  0.68250869  0.28334835  0.65639831  1.0
  B  B15  1  0.18250869  0.21665165  0.34360169  1.0
  O  O16  1  0.50194447  0.70027615  0.90329126  1.0
  O  O17  1  1.00194447  0.79972385  0.09670874  1.0
  O  O18  1  0.49805553  0.20027615  0.59670874  1.0
  O  O19  1  -0.00194447  0.29972385  0.40329126  1.0
  O  O20  1  0.29868665  0.94316588  0.51526661  1.0
  O  O21  1  0.79868665  0.55683412  0.48473339  1.0
  O  O22  1  0.70131335  0.44316588  0.98473339  1.0
  O  O23  1  0.20131335  0.05683412  0.01526661  1.0
  O  O24  1  0.29314448  0.85676946  0.63458874  1.0
  O  O25  1  0.79314448  0.64323054  0.36541126  1.0
  O  O26  1  0.70685552  0.35676946  0.86541126  1.0
  O  O27  1  0.20685552  0.14323054  0.13458874  1.0
  O  O28  1  0.28803626  0.67469599  0.78300562  1.0
  O  O29  1  0.78803626  0.82530401  0.21699438  1.0
  O  O30  1  0.71196374  0.17469599  0.71699438  1.0
  O  O31  1  0.21196374  0.32530401  0.28300562  1.0
  O  O32  1  0.19329477  0.98359729  0.85307849  1.0
  O  O33  1  0.69329477  0.51640271  0.14692151  1.0
  O  O34  1  0.80670523  0.48359729  0.64692151  1.0
  O  O35  1  0.30670523  0.01640271  0.35307849  1.0
