# generated using pymatgen
data_EuAlO3
_symmetry_space_group_name_H-M   'P 1'
_cell_length_a   5.33392743
_cell_length_b   7.56017196
_cell_length_c   5.33215948
_cell_angle_alpha   90.00000000
_cell_angle_beta   90.00000000
_cell_angle_gamma   90.00000000
_symmetry_Int_Tables_number   1
_chemical_formula_structural   EuAlO3
_chemical_formula_sum   'Eu4 Al4 O12'
_cell_volume   215.02150970
_cell_formula_units_Z   4
loop_
 _symmetry_equiv_pos_site_id
 _symmetry_equiv_pos_as_xyz
  1  'x, y, z'
loop_
 _atom_site_type_symbol
 _atom_site_label
 _atom_site_symmetry_multiplicity
 _atom_site_fract_x
 _atom_site_fract_y
 _atom_site_fract_z
 _atom_site_occupancy
  Eu  Eu0  1  0.02279838  0.75000000  0.50194146  1.0
  Eu  Eu1  1  0.52279838  0.75000000  0.99805854  1.0
  Eu  Eu2  1  0.97720162  0.25000000  0.49805854  1.0
  Eu  Eu3  1  0.47720162  0.25000000  0.00194146  1.0
  Al  Al4  1  0.50000000  0.00000000  0.50000000  1.0
  Al  Al5  1  0.50000000  0.50000000  0.50000000  1.0
  Al  Al6  1  0.00000000  0.00000000  0.00000000  1.0
  Al  Al7  1  0.00000000  0.50000000  0.00000000  1.0
  O  O8  1  0.28540545  0.97253224  0.78483420  1.0
  O  O9  1  0.28540545  0.52746776  0.78483420  1.0
  O  O10  1  0.78540545  0.97253224  0.71516580  1.0
  O  O11  1  0.78540545  0.52746776  0.71516580  1.0
  O  O12  1  0.71459455  0.47253224  0.21516580  1.0
  O  O13  1  0.71459455  0.02746776  0.21516580  1.0
  O  O14  1  0.21459455  0.47253224  0.28483420  1.0
  O  O15  1  0.21459455  0.02746776  0.28483420  1.0
  O  O16  1  0.99140735  0.75000000  0.05385022  1.0
  O  O17  1  0.49140735  0.75000000  0.44614978  1.0
  O  O18  1  0.00859265  0.25000000  0.94614978  1.0
  O  O19  1  0.50859265  0.25000000  0.55385022  1.0
