# generated using pymatgen
data_Mo3Se3I
_symmetry_space_group_name_H-M   'P 1'
_cell_length_a   6.90435450
_cell_length_b   6.90435450
_cell_length_c   6.90435450
_cell_angle_alpha   94.78934486
_cell_angle_beta   94.78934486
_cell_angle_gamma   94.78934486
_symmetry_Int_Tables_number   1
_chemical_formula_structural   Mo3Se3I
_chemical_formula_sum   'Mo6 Se6 I2'
_cell_volume   325.47794274
_cell_formula_units_Z   2
loop_
 _symmetry_equiv_pos_site_id
 _symmetry_equiv_pos_as_xyz
  1  'x, y, z'
loop_
 _atom_site_type_symbol
 _atom_site_label
 _atom_site_symmetry_multiplicity
 _atom_site_fract_x
 _atom_site_fract_y
 _atom_site_fract_z
 _atom_site_occupancy
  Mo  Mo0  1  0.73899558  0.91494512  0.04703161  1.0
  Mo  Mo1  1  1.08505488  -0.04703161  0.26100442  1.0
  Mo  Mo2  1  0.95296839  0.26100442  0.08505488  1.0
  Mo  Mo3  1  1.26100442  0.08505488  -0.04703161  1.0
  Mo  Mo4  1  0.91494512  1.04703161  -0.26100442  1.0
  Mo  Mo5  1  1.04703161  0.73899558  -0.08505488  1.0
  Se  Se6  1  0.87159957  0.62794710  0.21392059  1.0
  Se  Se7  1  1.37205290  -0.21392059  0.12840043  1.0
  Se  Se8  1  0.78607941  0.12840043  0.37205290  1.0
  Se  Se9  1  1.12840043  0.37205290  -0.21392059  1.0
  Se  Se10  1  0.62794710  1.21392059  -0.12840043  1.0
  Se  Se11  1  1.21392059  0.87159957  -0.37205290  1.0
  I  I12  1  0.68732724  0.68732724  0.68732724  1.0
  I  I13  1  0.31267276  0.31267276  0.31267276  1.0
