# generated using pymatgen
data_CaSiO3
_symmetry_space_group_name_H-M   'P 1'
_cell_length_a   7.39066127
_cell_length_b   7.14634849
_cell_length_c   8.01774394
_cell_angle_alpha   95.58281076
_cell_angle_beta   103.46708091
_cell_angle_gamma   90.07338979
_symmetry_Int_Tables_number   1
_chemical_formula_structural   CaSiO3
_chemical_formula_sum   'Ca6 Si6 O18'
_cell_volume   409.74460194
_cell_formula_units_Z   6
loop_
 _symmetry_equiv_pos_site_id
 _symmetry_equiv_pos_as_xyz
  1  'x, y, z'
loop_
 _atom_site_type_symbol
 _atom_site_label
 _atom_site_symmetry_multiplicity
 _atom_site_fract_x
 _atom_site_fract_y
 _atom_site_fract_z
 _atom_site_occupancy
  Ca  Ca0  1  -0.24950571  0.02993509  0.00432652  1.0
  Ca  Ca1  1  -0.75049429  -0.02993509  -0.00432652  1.0
  Ca  Ca2  1  -0.57583284  -0.74075663  -0.30238038  1.0
  Ca  Ca3  1  -0.42416716  -0.25924337  -0.69761962  1.0
  Ca  Ca4  1  -0.92981022  -0.26280162  -0.70494734  1.0
  Ca  Ca5  1  -0.07018978  -0.73719838  -0.29505266  1.0
  Si  Si6  1  -0.95367931  -0.77045725  -0.68366586  1.0
  Si  Si7  1  -0.04632069  -0.22954275  -0.31633414  1.0
  Si  Si8  1  -0.38753062  -0.77091557  -0.68437906  1.0
  Si  Si9  1  -0.61246938  -0.22908443  -0.31562094  1.0
  Si  Si10  1  -0.72304178  -0.55800700  -0.89433056  1.0
  Si  Si11  1  -0.27695822  -0.44199300  -0.10566944  1.0
  O  O12  1  -0.93598564  -0.96609799  -0.80126610  1.0
  O  O13  1  -0.06401436  -0.03390201  -0.19873390  1.0
  O  O14  1  -0.46398685  -0.96601978  -0.80403134  1.0
  O  O15  1  -0.53601315  -0.03398022  -0.19596866  1.0
  O  O16  1  -0.37179435  -0.76822492  -0.48133431  1.0
  O  O17  1  -0.62820565  -0.23177508  -0.51866569  1.0
  O  O18  1  -0.86793464  -0.76370005  -0.47893350  1.0
  O  O19  1  -0.13206536  -0.23629995  -0.52106650  1.0
  O  O20  1  -0.17957408  -0.72905944  -0.72118889  1.0
  O  O21  1  -0.82042592  -0.27094056  -0.27881111  1.0
  O  O22  1  -0.76860821  -0.70216609  -0.06849822  1.0
  O  O23  1  -0.23139179  -0.29783391  -0.93150178  1.0
  O  O24  1  -0.87068300  -0.59331055  -0.76783295  1.0
  O  O25  1  -0.12931700  -0.40668945  -0.23216705  1.0
  O  O26  1  -0.51135989  -0.59279256  -0.76939405  1.0
  O  O27  1  -0.48864011  -0.40720744  -0.23060595  1.0
  O  O28  1  -0.72555446  -0.33109926  -0.89905830  1.0
  O  O29  1  -0.27444554  -0.66890074  -0.10094170  1.0
