# generated using pymatgen
data_La(BOs)4
_symmetry_space_group_name_H-M   'P 1'
_cell_length_a   7.66434624
_cell_length_b   7.66434624
_cell_length_c   3.99943792
_cell_angle_alpha   90.00000000
_cell_angle_beta   90.00000000
_cell_angle_gamma   90.00000000
_symmetry_Int_Tables_number   1
_chemical_formula_structural   La(BOs)4
_chemical_formula_sum   'La2 B8 Os8'
_cell_volume   234.93579549
_cell_formula_units_Z   2
loop_
 _symmetry_equiv_pos_site_id
 _symmetry_equiv_pos_as_xyz
  1  'x, y, z'
loop_
 _atom_site_type_symbol
 _atom_site_label
 _atom_site_symmetry_multiplicity
 _atom_site_fract_x
 _atom_site_fract_y
 _atom_site_fract_z
 _atom_site_occupancy
  La  La0  1  0.00000000  0.00000000  0.00000000  1.0
  La  La1  1  0.50000000  0.50000000  0.50000000  1.0
  B  B2  1  0.66472096  0.78093185  0.10958394  1.0
  B  B3  1  0.33527904  0.21906815  0.10958394  1.0
  B  B4  1  0.28093185  0.83527904  0.60958394  1.0
  B  B5  1  0.71906815  0.16472096  0.60958394  1.0
  B  B6  1  0.83527904  0.71906815  0.39041606  1.0
  B  B7  1  0.16472096  0.28093185  0.39041606  1.0
  B  B8  1  0.21906815  0.66472096  0.89041606  1.0
  B  B9  1  0.78093185  0.33527904  0.89041606  1.0
  Os  Os10  1  0.14520193  0.39404917  0.89009782  1.0
  Os  Os11  1  0.85479807  0.60595083  0.89009782  1.0
  Os  Os12  1  0.89404917  0.35479807  0.39009782  1.0
  Os  Os13  1  0.10595083  0.64520193  0.39009782  1.0
  Os  Os14  1  0.35479807  0.10595083  0.60990218  1.0
  Os  Os15  1  0.64520193  0.89404917  0.60990218  1.0
  Os  Os16  1  0.60595083  0.14520193  0.10990218  1.0
  Os  Os17  1  0.39404917  0.85479807  0.10990218  1.0
