# generated using pymatgen
data_CaSeO4
_symmetry_space_group_name_H-M   'P 1'
_cell_length_a   8.19903255
_cell_length_b   8.19903255
_cell_length_c   6.46058207
_cell_angle_alpha   90.00000000
_cell_angle_beta   90.00000000
_cell_angle_gamma   127.00699731
_symmetry_Int_Tables_number   1
_chemical_formula_structural   CaSeO4
_chemical_formula_sum   'Ca4 Se4 O16'
_cell_volume   346.82110107
_cell_formula_units_Z   4
loop_
 _symmetry_equiv_pos_site_id
 _symmetry_equiv_pos_as_xyz
  1  'x, y, z'
loop_
 _atom_site_type_symbol
 _atom_site_label
 _atom_site_symmetry_multiplicity
 _atom_site_fract_x
 _atom_site_fract_y
 _atom_site_fract_z
 _atom_site_occupancy
  Ca  Ca0  1  0.37551632  0.62448368  0.88057878  1.0
  Ca  Ca1  1  -0.12448368  0.12448368  0.61942122  1.0
  Ca  Ca2  1  -0.37551632  0.37551632  0.11942122  1.0
  Ca  Ca3  1  0.12448368  0.87551632  0.38057878  1.0
  Se  Se4  1  0.12387300  0.87612700  0.88590172  1.0
  Se  Se5  1  -0.37612700  0.37612700  0.61409828  1.0
  Se  Se6  1  -0.12387300  0.12387300  0.11409828  1.0
  Se  Se7  1  0.37612700  0.62387300  0.38590172  1.0
  O  O8  1  0.05867467  0.29655243  0.95250739  1.0
  O  O9  1  0.55867467  0.79655243  0.54749261  1.0
  O  O10  1  0.29655243  1.05867467  0.04749261  1.0
  O  O11  1  -0.20344757  0.55867467  0.45250739  1.0
  O  O12  1  0.70344757  0.94132533  0.95250739  1.0
  O  O13  1  0.20344757  0.44132533  0.54749261  1.0
  O  O14  1  -0.05867467  0.70344757  0.04749261  1.0
  O  O15  1  0.44132533  1.20344757  0.45250739  1.0
  O  O16  1  0.04095011  0.95904989  0.70923330  1.0
  O  O17  1  -0.45904989  0.45904989  0.79076670  1.0
  O  O18  1  -0.04095011  0.04095011  0.29076670  1.0
  O  O19  1  0.45904989  0.54095011  0.20923330  1.0
  O  O20  1  0.21922436  0.78077564  0.74584823  1.0
  O  O21  1  -0.28077564  0.28077564  0.75415177  1.0
  O  O22  1  -0.21922436  0.21922436  0.25415177  1.0
  O  O23  1  0.28077564  0.71922436  0.24584823  1.0
