# generated using pymatgen
data_MoPH3O7
_symmetry_space_group_name_H-M   'P 1'
_cell_length_a   6.93193851
_cell_length_b   6.41355011
_cell_length_c   7.25014863
_cell_angle_alpha   90.00000000
_cell_angle_beta   112.19812628
_cell_angle_gamma   90.00000000
_symmetry_Int_Tables_number   1
_chemical_formula_structural   MoPH3O7
_chemical_formula_sum   'Mo2 P2 H6 O14'
_cell_volume   298.43941872
_cell_formula_units_Z   2
loop_
 _symmetry_equiv_pos_site_id
 _symmetry_equiv_pos_as_xyz
  1  'x, y, z'
loop_
 _atom_site_type_symbol
 _atom_site_label
 _atom_site_symmetry_multiplicity
 _atom_site_fract_x
 _atom_site_fract_y
 _atom_site_fract_z
 _atom_site_occupancy
  Mo  Mo0  1  0.71742995  0.25000000  0.82728653  1.0
  Mo  Mo1  1  0.28257005  0.75000000  0.17271347  1.0
  P  P2  1  0.33639692  0.25000000  0.33131626  1.0
  P  P3  1  0.66360308  0.75000000  0.66868374  1.0
  H  H4  1  0.34711155  0.25000000  0.93757645  1.0
  H  H5  1  0.65288845  0.75000000  0.06242355  1.0
  H  H6  1  0.25646052  0.25000000  0.70151208  1.0
  H  H7  1  0.74353948  0.75000000  0.29848792  1.0
  H  H8  1  0.00250779  0.25000000  0.28491011  1.0
  H  H9  1  0.99749221  0.75000000  0.71508989  1.0
  O  O10  1  0.67412822  0.94005127  0.80485344  1.0
  O  O11  1  0.67412822  0.55994873  0.80485344  1.0
  O  O12  1  0.32587178  0.44005127  0.19514656  1.0
  O  O13  1  0.32587178  0.05994873  0.19514656  1.0
  O  O14  1  0.94562468  0.25000000  0.79141796  1.0
  O  O15  1  0.05437532  0.75000000  0.20858204  1.0
  O  O16  1  0.79239203  0.25000000  0.08314025  1.0
  O  O17  1  0.20760797  0.75000000  0.91685975  1.0
  O  O18  1  0.53187296  0.25000000  0.51975296  1.0
  O  O19  1  0.46812704  0.75000000  0.48024704  1.0
  O  O20  1  0.38457850  0.25000000  0.82072522  1.0
  O  O21  1  0.61542150  0.75000000  0.17927478  1.0
  O  O22  1  0.14350111  0.25000000  0.39838459  1.0
  O  O23  1  0.85649889  0.75000000  0.60161541  1.0
