# generated using pymatgen
data_Rb2CdO2
_symmetry_space_group_name_H-M   'P 1'
_cell_length_a   10.68717876
_cell_length_b   6.50775688
_cell_length_c   6.37240157
_cell_angle_alpha   90.00000000
_cell_angle_beta   90.00000000
_cell_angle_gamma   90.00000000
_symmetry_Int_Tables_number   1
_chemical_formula_structural   Rb2CdO2
_chemical_formula_sum   'Rb8 Cd4 O8'
_cell_volume   443.19773195
_cell_formula_units_Z   4
loop_
 _symmetry_equiv_pos_site_id
 _symmetry_equiv_pos_as_xyz
  1  'x, y, z'
loop_
 _atom_site_type_symbol
 _atom_site_label
 _atom_site_symmetry_multiplicity
 _atom_site_fract_x
 _atom_site_fract_y
 _atom_site_fract_z
 _atom_site_occupancy
  Rb  Rb0  1  0.65603189  0.88989814  0.89805327  1.0
  Rb  Rb1  1  0.65603189  0.11010186  0.39805327  1.0
  Rb  Rb2  1  0.15603189  0.38989814  0.60194673  1.0
  Rb  Rb3  1  0.15603189  0.61010186  0.10194673  1.0
  Rb  Rb4  1  0.34396811  0.88989814  0.60194673  1.0
  Rb  Rb5  1  0.34396811  0.11010186  0.10194673  1.0
  Rb  Rb6  1  0.84396811  0.38989814  0.89805327  1.0
  Rb  Rb7  1  0.84396811  0.61010186  0.39805327  1.0
  Cd  Cd8  1  0.00000000  0.96560069  0.75000000  1.0
  Cd  Cd9  1  0.00000000  0.03439931  0.25000000  1.0
  Cd  Cd10  1  0.50000000  0.46560069  0.75000000  1.0
  Cd  Cd11  1  0.50000000  0.53439931  0.25000000  1.0
  O  O12  1  0.59472869  0.69050782  0.51678500  1.0
  O  O13  1  0.59472869  0.30949218  0.01678500  1.0
  O  O14  1  0.09472869  0.19050782  0.98321500  1.0
  O  O15  1  0.09472869  0.80949218  0.48321500  1.0
  O  O16  1  0.40527131  0.69050782  0.98321500  1.0
  O  O17  1  0.40527131  0.30949218  0.48321500  1.0
  O  O18  1  0.90527131  0.19050782  0.51678500  1.0
  O  O19  1  0.90527131  0.80949218  0.01678500  1.0
