# generated using pymatgen
data_ZnP2
_symmetry_space_group_name_H-M   'P 1'
_cell_length_a   8.89252969
_cell_length_b   7.35681507
_cell_length_c   7.64560781
_cell_angle_alpha   90.00000000
_cell_angle_beta   103.02721586
_cell_angle_gamma   90.00000000
_symmetry_Int_Tables_number   1
_chemical_formula_structural   ZnP2
_chemical_formula_sum   'Zn8 P16'
_cell_volume   487.30788008
_cell_formula_units_Z   8
loop_
 _symmetry_equiv_pos_site_id
 _symmetry_equiv_pos_as_xyz
  1  'x, y, z'
loop_
 _atom_site_type_symbol
 _atom_site_label
 _atom_site_symmetry_multiplicity
 _atom_site_fract_x
 _atom_site_fract_y
 _atom_site_fract_z
 _atom_site_occupancy
  Zn  Zn0  1  0.88628004  0.91421494  0.97261491  1.0
  Zn  Zn1  1  0.88628004  0.58578506  0.47261491  1.0
  Zn  Zn2  1  0.11371996  0.41421494  0.52738509  1.0
  Zn  Zn3  1  0.11371996  0.08578506  0.02738509  1.0
  Zn  Zn4  1  0.42247333  0.76022376  0.85439990  1.0
  Zn  Zn5  1  0.42247333  0.73977624  0.35439990  1.0
  Zn  Zn6  1  0.57752667  0.26022376  0.64560010  1.0
  Zn  Zn7  1  0.57752667  0.23977624  0.14560010  1.0
  P  P8  1  0.88259516  0.58223101  0.97497007  1.0
  P  P9  1  0.88259516  0.91776899  0.47497007  1.0
  P  P10  1  0.11740484  0.08223101  0.52502993  1.0
  P  P11  1  0.11740484  0.41776899  0.02502993  1.0
  P  P12  1  0.73391170  0.98848265  0.68073824  1.0
  P  P13  1  0.73391170  0.51151735  0.18073824  1.0
  P  P14  1  0.26608830  0.48848265  0.81926176  1.0
  P  P15  1  0.26608830  0.01151735  0.31926176  1.0
  P  P16  1  0.74341477  0.51659144  0.69303784  1.0
  P  P17  1  0.74341477  0.98340856  0.19303784  1.0
  P  P18  1  0.25658523  0.01659144  0.80696216  1.0
  P  P19  1  0.25658523  0.48340856  0.30696216  1.0
  P  P20  1  0.58226659  0.74758881  0.64620115  1.0
  P  P21  1  0.58226659  0.75241119  0.14620115  1.0
  P  P22  1  0.41773341  0.24758881  0.85379885  1.0
  P  P23  1  0.41773341  0.25241119  0.35379885  1.0
