# generated using pymatgen
data_Ca5Ga3
_symmetry_space_group_name_H-M   'P 1'
_cell_length_a   9.32663514
_cell_length_b   9.32663514
_cell_length_c   9.32663514
_cell_angle_alpha   129.50936947
_cell_angle_beta   129.50936947
_cell_angle_gamma   74.19234580
_symmetry_Int_Tables_number   1
_chemical_formula_structural   Ca5Ga3
_chemical_formula_sum   'Ca10 Ga6'
_cell_volume   470.82632638
_cell_formula_units_Z   2
loop_
 _symmetry_equiv_pos_site_id
 _symmetry_equiv_pos_as_xyz
  1  'x, y, z'
loop_
 _atom_site_type_symbol
 _atom_site_label
 _atom_site_symmetry_multiplicity
 _atom_site_fract_x
 _atom_site_fract_y
 _atom_site_fract_z
 _atom_site_occupancy
  Ca  Ca0  1  1.17867752  0.67867752  1.14554883  1.0
  Ca  Ca1  1  0.46687131  0.96687131  1.14554883  1.0
  Ca  Ca2  1  1.03312869  1.17867752  1.50000000  1.0
  Ca  Ca3  1  0.32132248  0.46687131  0.50000000  1.0
  Ca  Ca4  1  0.67867752  0.53312869  0.50000000  1.0
  Ca  Ca5  1  0.96687131  0.82132248  1.50000000  1.0
  Ca  Ca6  1  0.53312869  1.03312869  0.85445117  1.0
  Ca  Ca7  1  0.82132248  0.32132248  0.85445117  1.0
  Ca  Ca8  1  0.00000000  0.00000000  0.00000000  1.0
  Ca  Ca9  1  0.50000000  0.50000000  1.00000000  1.0
  Ga  Ga10  1  0.88889772  0.38889772  1.27779545  1.0
  Ga  Ga11  1  0.61110228  0.88889772  1.50000000  1.0
  Ga  Ga12  1  0.38889772  0.11110228  0.50000000  1.0
  Ga  Ga13  1  0.11110228  0.61110228  0.72220455  1.0
  Ga  Ga14  1  0.75000000  0.75000000  1.00000000  1.0
  Ga  Ga15  1  0.25000000  0.25000000  0.00000000  1.0
