# generated using pymatgen
data_LiEu4(BN2)3
_symmetry_space_group_name_H-M   'P 1'
_cell_length_a   6.32965857
_cell_length_b   6.32965857
_cell_length_c   6.32965857
_cell_angle_alpha   109.47122063
_cell_angle_beta   109.47122063
_cell_angle_gamma   109.47122063
_symmetry_Int_Tables_number   1
_chemical_formula_structural   LiEu4(BN2)3
_chemical_formula_sum   'Li1 Eu4 B3 N6'
_cell_volume   195.21759718
_cell_formula_units_Z   1
loop_
 _symmetry_equiv_pos_site_id
 _symmetry_equiv_pos_as_xyz
  1  'x, y, z'
loop_
 _atom_site_type_symbol
 _atom_site_label
 _atom_site_symmetry_multiplicity
 _atom_site_fract_x
 _atom_site_fract_y
 _atom_site_fract_z
 _atom_site_occupancy
  Li  Li0  1  0.00000000  0.00000000  0.00000000  1.0
  Eu  Eu1  1  0.50000000  0.50000000  0.50000000  1.0
  Eu  Eu2  1  1.00000000  1.00000000  0.50000000  1.0
  Eu  Eu3  1  1.00000000  1.50000000  1.00000000  1.0
  Eu  Eu4  1  1.50000000  1.00000000  1.00000000  1.0
  B  B5  1  0.00000000  0.50000000  0.50000000  1.0
  B  B6  1  0.50000000  0.00000000  0.50000000  1.0
  B  B7  1  0.50000000  0.50000000  -0.00000000  1.0
  N  N8  1  0.00000000  0.68522390  0.68522390  1.0
  N  N9  1  0.68522390  -0.00000000  0.68522390  1.0
  N  N10  1  0.68522390  0.68522390  -0.00000000  1.0
  N  N11  1  0.31477610  0.31477610  -0.00000000  1.0
  N  N12  1  0.31477610  0.00000000  0.31477610  1.0
  N  N13  1  0.00000000  0.31477610  0.31477610  1.0
