# generated using pymatgen
data_Fe2W2C
_symmetry_space_group_name_H-M   'P 1'
_cell_length_a   7.93636843
_cell_length_b   7.93636843
_cell_length_c   7.93636843
_cell_angle_alpha   60.00000000
_cell_angle_beta   60.00000000
_cell_angle_gamma   60.00000000
_symmetry_Int_Tables_number   1
_chemical_formula_structural   Fe2W2C
_chemical_formula_sum   'Fe12 W12 C6'
_cell_volume   353.46829515
_cell_formula_units_Z   6
loop_
 _symmetry_equiv_pos_site_id
 _symmetry_equiv_pos_as_xyz
  1  'x, y, z'
loop_
 _atom_site_type_symbol
 _atom_site_label
 _atom_site_symmetry_multiplicity
 _atom_site_fract_x
 _atom_site_fract_y
 _atom_site_fract_z
 _atom_site_occupancy
  Fe  Fe0  1  -0.75781910  0.91927303  0.91927303  1.0
  Fe  Fe1  1  0.91927303  -0.75781910  0.91927303  1.0
  Fe  Fe2  1  -0.08072697  0.91927303  0.24218090  1.0
  Fe  Fe3  1  0.91927303  -0.08072697  0.91927303  1.0
  Fe  Fe4  1  0.00781910  0.33072697  0.33072697  1.0
  Fe  Fe5  1  0.33072697  0.00781910  0.33072697  1.0
  Fe  Fe6  1  0.33072697  0.33072697  0.00781910  1.0
  Fe  Fe7  1  0.33072697  0.33072697  0.33072697  1.0
  Fe  Fe8  1  0.62500000  0.12500000  1.12500000  1.0
  Fe  Fe9  1  0.12500000  0.62500000  0.12500000  1.0
  Fe  Fe10  1  0.12500000  0.12500000  1.62500000  1.0
  Fe  Fe11  1  0.12500000  0.12500000  0.12500000  1.0
  W  W12  1  0.94715223  -0.44715223  0.94715223  1.0
  W  W13  1  0.55284777  -0.05284777  0.55284777  1.0
  W  W14  1  0.30284777  0.69715223  0.30284777  1.0
  W  W15  1  0.69715223  0.30284777  0.69715223  1.0
  W  W16  1  0.94715223  -0.05284777  0.55284777  1.0
  W  W17  1  0.55284777  -0.44715223  0.94715223  1.0
  W  W18  1  0.30284777  0.30284777  -0.30284777  1.0
  W  W19  1  -0.30284777  0.69715223  0.30284777  1.0
  W  W20  1  0.55284777  -0.05284777  0.94715223  1.0
  W  W21  1  0.94715223  -0.44715223  0.55284777  1.0
  W  W22  1  -0.30284777  1.30284777  0.30284777  1.0
  W  W23  1  0.30284777  0.69715223  -0.30284777  1.0
  C  C24  1  1.12500000  -0.37500000  0.62500000  1.0
  C  C25  1  0.62500000  0.12500000  0.62500000  1.0
  C  C26  1  0.62500000  -0.37500000  1.12500000  1.0
  C  C27  1  0.62500000  -0.37500000  0.62500000  1.0
  C  C28  1  0.75000000  -0.25000000  0.75000000  1.0
  C  C29  1  0.50000000  0.50000000  -0.50000000  1.0
