# generated using pymatgen
data_Li2Bi
_symmetry_space_group_name_H-M   'P 1'
_cell_length_a   8.12254647
_cell_length_b   8.12254647
_cell_length_c   6.74313524
_cell_angle_alpha   90.00000000
_cell_angle_beta   90.00000000
_cell_angle_gamma   120.00000000
_symmetry_Int_Tables_number   1
_chemical_formula_structural   Li2Bi
_chemical_formula_sum   'Li12 Bi6'
_cell_volume   385.28039556
_cell_formula_units_Z   6
loop_
 _symmetry_equiv_pos_site_id
 _symmetry_equiv_pos_as_xyz
  1  'x, y, z'
loop_
 _atom_site_type_symbol
 _atom_site_label
 _atom_site_symmetry_multiplicity
 _atom_site_fract_x
 _atom_site_fract_y
 _atom_site_fract_z
 _atom_site_occupancy
  Li  Li0  1  0.99976994  0.63270754  0.25000000  1.0
  Li  Li1  1  0.63270754  0.99976994  0.75000000  1.0
  Li  Li2  1  0.63293761  0.00023006  0.25000000  1.0
  Li  Li3  1  0.36729246  0.36706239  0.25000000  1.0
  Li  Li4  1  0.00023006  0.63293761  0.75000000  1.0
  Li  Li5  1  0.36706239  0.36729246  0.75000000  1.0
  Li  Li6  1  0.70841222  0.70841222  0.50000000  1.0
  Li  Li7  1  0.70841222  0.70841222  0.00000000  1.0
  Li  Li8  1  -0.00000000  0.29158778  0.50000000  1.0
  Li  Li9  1  -0.00000000  0.29158778  0.00000000  1.0
  Li  Li10  1  0.29158778  0.00000000  0.50000000  1.0
  Li  Li11  1  0.29158778  0.00000000  0.00000000  1.0
  Bi  Bi12  1  0.33333333  0.66666667  0.49994521  1.0
  Bi  Bi13  1  0.33333333  0.66666667  0.00005479  1.0
  Bi  Bi14  1  0.66666667  0.33333333  0.99994521  1.0
  Bi  Bi15  1  0.66666667  0.33333333  0.50005479  1.0
  Bi  Bi16  1  0.00000000  0.00000000  0.25000000  1.0
  Bi  Bi17  1  0.00000000  0.00000000  0.75000000  1.0
