# generated using pymatgen
data_K3Na(MoO4)2
_symmetry_space_group_name_H-M   'P 1'
_cell_length_a   6.13594464
_cell_length_b   6.13594464
_cell_length_c   7.74261813
_cell_angle_alpha   90.00000000
_cell_angle_beta   90.00000000
_cell_angle_gamma   120.00000000
_symmetry_Int_Tables_number   1
_chemical_formula_structural   K3Na(MoO4)2
_chemical_formula_sum   'K3 Na1 Mo2 O8'
_cell_volume   252.45346601
_cell_formula_units_Z   1
loop_
 _symmetry_equiv_pos_site_id
 _symmetry_equiv_pos_as_xyz
  1  'x, y, z'
loop_
 _atom_site_type_symbol
 _atom_site_label
 _atom_site_symmetry_multiplicity
 _atom_site_fract_x
 _atom_site_fract_y
 _atom_site_fract_z
 _atom_site_occupancy
  K  K0  1  0.33333333  0.66666667  0.65935542  1.0
  K  K1  1  0.66666667  0.33333333  0.34064458  1.0
  K  K2  1  0.00000000  0.00000000  0.00000000  1.0
  Na  Na3  1  0.00000000  0.00000000  0.50000000  1.0
  Mo  Mo4  1  0.33333333  0.66666667  0.21686999  1.0
  Mo  Mo5  1  0.66666667  0.33333333  0.78313001  1.0
  O  O6  1  0.64665998  0.82332999  0.30046754  1.0
  O  O7  1  0.82332999  0.64665998  0.69953246  1.0
  O  O8  1  0.82332999  0.17667001  0.69953246  1.0
  O  O9  1  0.17667001  0.82332999  0.30046754  1.0
  O  O10  1  0.17667001  0.35334002  0.30046754  1.0
  O  O11  1  0.35334002  0.17667001  0.69953246  1.0
  O  O12  1  0.33333333  0.66666667  -0.01129864  1.0
  O  O13  1  0.66666667  0.33333333  1.01129864  1.0
