# generated using pymatgen
data_S3(NO)2
_symmetry_space_group_name_H-M   'P 1'
_cell_length_a   8.91168743
_cell_length_b   8.91168743
_cell_length_c   7.35431698
_cell_angle_alpha   83.72723018
_cell_angle_beta   96.27276982
_cell_angle_gamma   148.66474043
_symmetry_Int_Tables_number   1
_chemical_formula_structural   S3(NO)2
_chemical_formula_sum   'S6 N4 O4'
_cell_volume   301.77870903
_cell_formula_units_Z   2
loop_
 _symmetry_equiv_pos_site_id
 _symmetry_equiv_pos_as_xyz
  1  'x, y, z'
loop_
 _atom_site_type_symbol
 _atom_site_label
 _atom_site_symmetry_multiplicity
 _atom_site_fract_x
 _atom_site_fract_y
 _atom_site_fract_z
 _atom_site_occupancy
  S  S0  1  1.63828947  -0.05883962  0.34596868  1.0
  S  S1  1  1.05883962  -0.63828947  0.84596868  1.0
  S  S2  1  0.94116038  -0.36171053  0.15403132  1.0
  S  S3  1  1.36171053  0.05883962  0.65403132  1.0
  S  S4  1  0.63808466  0.63808466  0.25000000  1.0
  S  S5  1  0.36191534  0.36191534  0.75000000  1.0
  N  N6  1  1.79183155  -0.07044613  0.29109292  1.0
  N  N7  1  1.07044613  -0.79183155  0.79109292  1.0
  N  N8  1  0.92955387  -0.20816845  0.20890708  1.0
  N  N9  1  1.20816845  0.07044613  0.70890708  1.0
  O  O10  1  1.66481883  0.32140083  0.13292103  1.0
  O  O11  1  0.67859917  -0.66481883  0.63292103  1.0
  O  O12  1  1.32140083  -0.33518117  0.36707897  1.0
  O  O13  1  1.33518117  -0.32140083  0.86707897  1.0
