# generated using pymatgen
data_LaCBr
_symmetry_space_group_name_H-M   'P 1'
_cell_length_a   4.27348175
_cell_length_b   4.27348175
_cell_length_c   10.89525350
_cell_angle_alpha   86.44270280
_cell_angle_beta   93.55729720
_cell_angle_gamma   122.75614165
_symmetry_Int_Tables_number   1
_chemical_formula_structural   LaCBr
_chemical_formula_sum   'La2 C2 Br2'
_cell_volume   166.91662473
_cell_formula_units_Z   2
loop_
 _symmetry_equiv_pos_site_id
 _symmetry_equiv_pos_as_xyz
  1  'x, y, z'
loop_
 _atom_site_type_symbol
 _atom_site_label
 _atom_site_symmetry_multiplicity
 _atom_site_fract_x
 _atom_site_fract_y
 _atom_site_fract_z
 _atom_site_occupancy
  La  La0  1  0.85454233  0.14545767  0.85803607  1.0
  La  La1  1  0.14545767  -0.14545767  0.14196393  1.0
  C  C2  1  0.57316829  0.42683171  0.96947021  1.0
  C  C3  1  0.42683171  -0.42683171  0.03052979  1.0
  Br  Br4  1  0.82456347  0.17543653  0.31959433  1.0
  Br  Br5  1  0.17543653  -0.17543653  0.68040567  1.0
