# generated using pymatgen
data_Nb3Al2C
_symmetry_space_group_name_H-M   'P 1'
_cell_length_a   7.10720575
_cell_length_b   7.10720575
_cell_length_c   7.10720575
_cell_angle_alpha   90.00000000
_cell_angle_beta   90.00000000
_cell_angle_gamma   90.00000000
_symmetry_Int_Tables_number   1
_chemical_formula_structural   Nb3Al2C
_chemical_formula_sum   'Nb12 Al8 C4'
_cell_volume   359.00183139
_cell_formula_units_Z   4
loop_
 _symmetry_equiv_pos_site_id
 _symmetry_equiv_pos_as_xyz
  1  'x, y, z'
loop_
 _atom_site_type_symbol
 _atom_site_label
 _atom_site_symmetry_multiplicity
 _atom_site_fract_x
 _atom_site_fract_y
 _atom_site_fract_z
 _atom_site_occupancy
  Nb  Nb0  1  0.37500000  0.79438984  0.95561016  1.0
  Nb  Nb1  1  0.12500000  0.20561016  0.45561016  1.0
  Nb  Nb2  1  0.62500000  0.29438984  0.54438984  1.0
  Nb  Nb3  1  0.87500000  0.70561016  0.04438984  1.0
  Nb  Nb4  1  0.29438984  0.54438984  0.62500000  1.0
  Nb  Nb5  1  0.04438984  0.87500000  0.70561016  1.0
  Nb  Nb6  1  0.54438984  0.62500000  0.29438984  1.0
  Nb  Nb7  1  0.79438984  0.95561016  0.37500000  1.0
  Nb  Nb8  1  0.70561016  0.04438984  0.87500000  1.0
  Nb  Nb9  1  0.45561016  0.12500000  0.20561016  1.0
  Nb  Nb10  1  0.95561016  0.37500000  0.79438984  1.0
  Nb  Nb11  1  0.20561016  0.45561016  0.12500000  1.0
  Al  Al12  1  0.42986572  0.92986572  0.57013428  1.0
  Al  Al13  1  0.17986572  0.82013428  0.32013428  1.0
  Al  Al14  1  0.67986572  0.67986572  0.67986572  1.0
  Al  Al15  1  0.92986572  0.57013428  0.42986572  1.0
  Al  Al16  1  0.57013428  0.42986572  0.92986572  1.0
  Al  Al17  1  0.32013428  0.17986572  0.82013428  1.0
  Al  Al18  1  0.82013428  0.32013428  0.17986572  1.0
  Al  Al19  1  0.07013428  0.07013428  0.07013428  1.0
  C  C20  1  0.12500000  0.62500000  0.87500000  1.0
  C  C21  1  0.87500000  0.12500000  0.62500000  1.0
  C  C22  1  0.37500000  0.37500000  0.37500000  1.0
  C  C23  1  0.62500000  0.87500000  0.12500000  1.0
