# generated using pymatgen
data_LiAsO3
_symmetry_space_group_name_H-M   'P 1'
_cell_length_a   7.32986291
_cell_length_b   7.32986291
_cell_length_c   5.33840684
_cell_angle_alpha   72.65584907
_cell_angle_beta   107.34415093
_cell_angle_gamma   94.21035027
_symmetry_Int_Tables_number   1
_chemical_formula_structural   LiAsO3
_chemical_formula_sum   'Li4 As4 O12'
_cell_volume   261.28911610
_cell_formula_units_Z   4
loop_
 _symmetry_equiv_pos_site_id
 _symmetry_equiv_pos_as_xyz
  1  'x, y, z'
loop_
 _atom_site_type_symbol
 _atom_site_label
 _atom_site_symmetry_multiplicity
 _atom_site_fract_x
 _atom_site_fract_y
 _atom_site_fract_z
 _atom_site_occupancy
  Li  Li0  1  0.79995045  0.79995045  0.25000000  1.0
  Li  Li1  1  0.20004955  0.20004955  0.75000000  1.0
  Li  Li2  1  0.15969793  0.15969793  0.25000000  1.0
  Li  Li3  1  0.84030207  0.84030207  0.75000000  1.0
  As  As4  1  0.61625066  0.19524866  0.24184173  1.0
  As  As5  1  0.80475134  0.38374934  0.74184173  1.0
  As  As6  1  1.19524866  -0.38374934  0.25815827  1.0
  As  As7  1  1.38374934  -0.19524866  0.75815827  1.0
  O  O8  1  0.78696516  0.02170650  0.37973139  1.0
  O  O9  1  0.97829350  0.21303484  0.87973139  1.0
  O  O10  1  1.02170650  -0.21303484  0.12026861  1.0
  O  O11  1  1.21303484  -0.02170650  0.62026861  1.0
  O  O12  1  0.60789416  0.31806793  0.48685592  1.0
  O  O13  1  0.68193207  0.39210584  0.98685592  1.0
  O  O14  1  1.31806793  -0.39210584  0.01314408  1.0
  O  O15  1  1.39210584  -0.31806793  0.51314408  1.0
  O  O16  1  0.38486376  0.14292207  0.11627509  1.0
  O  O17  1  0.85707793  0.61513624  0.61627509  1.0
  O  O18  1  1.14292207  -0.61513624  0.38372490  1.0
  O  O19  1  1.61513624  -0.14292207  0.88372491  1.0
