# generated using pymatgen
data_K2PtS6
_symmetry_space_group_name_H-M   'P 1'
_cell_length_a   5.61243312
_cell_length_b   5.61243312
_cell_length_c   8.10930092
_cell_angle_alpha   90.00000000
_cell_angle_beta   90.00000000
_cell_angle_gamma   120.00000000
_symmetry_Int_Tables_number   1
_chemical_formula_structural   K2PtS6
_chemical_formula_sum   'K2 Pt1 S6'
_cell_volume   221.21593389
_cell_formula_units_Z   1
loop_
 _symmetry_equiv_pos_site_id
 _symmetry_equiv_pos_as_xyz
  1  'x, y, z'
loop_
 _atom_site_type_symbol
 _atom_site_label
 _atom_site_symmetry_multiplicity
 _atom_site_fract_x
 _atom_site_fract_y
 _atom_site_fract_z
 _atom_site_occupancy
  K  K0  1  0.66666667  0.33333333  0.39102206  1.0
  K  K1  1  0.33333333  0.66666667  0.60897794  1.0
  Pt  Pt2  1  0.00000000  -0.00000000  -0.00000000  1.0
  S  S3  1  0.33731711  0.16865856  0.78615900  1.0
  S  S4  1  0.83134144  0.66268289  0.78615900  1.0
  S  S5  1  0.83134144  0.16865856  0.78615900  1.0
  S  S6  1  0.66268289  0.83134144  0.21384100  1.0
  S  S7  1  0.16865856  0.33731711  0.21384100  1.0
  S  S8  1  0.16865856  0.83134144  0.21384100  1.0
