# generated using pymatgen
data_Te6Br2O11
_symmetry_space_group_name_H-M   'P 1'
_cell_length_a   6.94324416
_cell_length_b   6.94324416
_cell_length_c   16.19509517
_cell_angle_alpha   90.00000000
_cell_angle_beta   90.00000000
_cell_angle_gamma   60.92707768
_symmetry_Int_Tables_number   1
_chemical_formula_structural   Te6Br2O11
_chemical_formula_sum   'Te12 Br4 O22'
_cell_volume   682.37135588
_cell_formula_units_Z   2
loop_
 _symmetry_equiv_pos_site_id
 _symmetry_equiv_pos_as_xyz
  1  'x, y, z'
loop_
 _atom_site_type_symbol
 _atom_site_label
 _atom_site_symmetry_multiplicity
 _atom_site_fract_x
 _atom_site_fract_y
 _atom_site_fract_z
 _atom_site_occupancy
  Te  Te0  1  0.20543615  0.47760507  0.41615036  1.0
  Te  Te1  1  0.20543615  0.47760507  0.08384964  1.0
  Te  Te2  1  -0.52239493  1.20543615  0.91615036  1.0
  Te  Te3  1  -0.52239493  1.20543615  0.58384964  1.0
  Te  Te4  1  0.52239493  0.79456385  0.41615036  1.0
  Te  Te5  1  0.52239493  0.79456385  0.08384964  1.0
  Te  Te6  1  -0.20543615  1.52239493  0.91615036  1.0
  Te  Te7  1  -0.20543615  1.52239493  0.58384964  1.0
  Te  Te8  1  0.07602353  0.92397647  0.85637945  1.0
  Te  Te9  1  0.07602353  0.92397647  0.64362055  1.0
  Te  Te10  1  -0.07602353  1.07602353  0.35637945  1.0
  Te  Te11  1  -0.07602353  1.07602353  0.14362055  1.0
  Br  Br12  1  -0.13291677  1.46598315  0.25000000  1.0
  Br  Br13  1  0.46598315  0.86708323  0.75000000  1.0
  Br  Br14  1  -0.46598315  1.13291677  0.25000000  1.0
  Br  Br15  1  0.13291677  0.53401685  0.75000000  1.0
  O  O16  1  -0.05206650  1.80273448  0.40523168  1.0
  O  O17  1  -0.05206650  1.80273448  0.09476832  1.0
  O  O18  1  0.80273448  0.94793350  0.90523168  1.0
  O  O19  1  0.80273448  0.94793350  0.59476832  1.0
  O  O20  1  -0.80273448  1.05206650  0.40523168  1.0
  O  O21  1  -0.80273448  1.05206650  0.09476832  1.0
  O  O22  1  0.05206650  0.19726552  0.90523168  1.0
  O  O23  1  0.05206650  0.19726552  0.59476832  1.0
  O  O24  1  -0.18064273  1.48712422  0.46201276  1.0
  O  O25  1  -0.18064273  1.48712422  0.03798724  1.0
  O  O26  1  0.48712422  0.81935727  0.96201276  1.0
  O  O27  1  0.48712422  0.81935727  0.53798724  1.0
  O  O28  1  -0.48712422  1.18064273  0.46201276  1.0
  O  O29  1  -0.48712422  1.18064273  0.03798724  1.0
  O  O30  1  0.18064273  0.51287578  0.96201276  1.0
  O  O31  1  0.18064273  0.51287578  0.53798724  1.0
  O  O32  1  0.42248682  0.57751318  0.38490326  1.0
  O  O33  1  0.42248682  0.57751318  0.11509674  1.0
  O  O34  1  -0.42248682  1.42248682  0.88490326  1.0
  O  O35  1  -0.42248682  1.42248682  0.61509674  1.0
  O  O36  1  0.07672092  0.92327908  0.25000000  1.0
  O  O37  1  -0.07672092  1.07672092  0.75000000  1.0
