# generated using pymatgen
data_Yb2(Al3Ir)3
_symmetry_space_group_name_H-M   'P 1'
_cell_length_a   7.52213931
_cell_length_b   7.52213931
_cell_length_c   9.52063087
_cell_angle_alpha   90.00000000
_cell_angle_beta   90.00000000
_cell_angle_gamma   60.52626488
_symmetry_Int_Tables_number   1
_chemical_formula_structural   Yb2(Al3Ir)3
_chemical_formula_sum   'Yb4 Al18 Ir6'
_cell_volume   468.98378188
_cell_formula_units_Z   2
loop_
 _symmetry_equiv_pos_site_id
 _symmetry_equiv_pos_as_xyz
  1  'x, y, z'
loop_
 _atom_site_type_symbol
 _atom_site_label
 _atom_site_symmetry_multiplicity
 _atom_site_fract_x
 _atom_site_fract_y
 _atom_site_fract_z
 _atom_site_occupancy
  Yb  Yb0  1  -0.00396030  0.32814676  0.75000000  1.0
  Yb  Yb1  1  -0.67185324  0.99603970  0.25000000  1.0
  Yb  Yb2  1  -0.32814676  1.00396030  0.75000000  1.0
  Yb  Yb3  1  0.00396030  0.67185324  0.25000000  1.0
  Al  Al4  1  0.00114777  0.66451725  0.92646308  1.0
  Al  Al5  1  0.00114777  0.66451725  0.57353692  1.0
  Al  Al6  1  -0.33548275  1.00114777  0.42646308  1.0
  Al  Al7  1  -0.33548275  1.00114777  0.07353692  1.0
  Al  Al8  1  -0.66451725  0.99885223  0.92646308  1.0
  Al  Al9  1  -0.66451725  0.99885223  0.57353692  1.0
  Al  Al10  1  -0.00114777  0.33548275  0.42646308  1.0
  Al  Al11  1  -0.00114777  0.33548275  0.07353692  1.0
  Al  Al12  1  0.33853690  0.45014509  0.75000000  1.0
  Al  Al13  1  -0.54985491  1.33853690  0.25000000  1.0
  Al  Al14  1  -0.45014509  0.66146310  0.75000000  1.0
  Al  Al15  1  -0.33853690  0.54985491  0.25000000  1.0
  Al  Al16  1  -0.66647034  0.66647034  0.44680732  1.0
  Al  Al17  1  -0.66647034  0.66647034  0.05319268  1.0
  Al  Al18  1  -0.33352966  0.33352966  0.94680732  1.0
  Al  Al19  1  -0.33352966  0.33352966  0.55319268  1.0
  Al  Al20  1  -0.87170633  0.87170633  0.75000000  1.0
  Al  Al21  1  -0.12829367  0.12829367  0.25000000  1.0
  Ir  Ir22  1  -0.32826766  0.67173234  0.00000000  1.0
  Ir  Ir23  1  -0.32826766  0.67173234  0.50000000  1.0
  Ir  Ir24  1  0.32826766  0.32826766  -0.00000000  1.0
  Ir  Ir25  1  0.32826766  0.32826766  0.50000000  1.0
  Ir  Ir26  1  -0.00000000  0.00000000  -0.00000000  1.0
  Ir  Ir27  1  -0.00000000  -0.00000000  0.50000000  1.0
