# generated using pymatgen
data_KPbO2
_symmetry_space_group_name_H-M   'P 1'
_cell_length_a   7.13786688
_cell_length_b   13.21362402
_cell_length_c   7.60957985
_cell_angle_alpha   71.80973290
_cell_angle_beta   62.27055594
_cell_angle_gamma   73.54369597
_symmetry_Int_Tables_number   1
_chemical_formula_structural   KPbO2
_chemical_formula_sum   'K8 Pb8 O16'
_cell_volume   595.35290764
_cell_formula_units_Z   8
loop_
 _symmetry_equiv_pos_site_id
 _symmetry_equiv_pos_as_xyz
  1  'x, y, z'
loop_
 _atom_site_type_symbol
 _atom_site_label
 _atom_site_symmetry_multiplicity
 _atom_site_fract_x
 _atom_site_fract_y
 _atom_site_fract_z
 _atom_site_occupancy
  K  K0  1  -0.98687058  0.23493152  0.50550708  1.0
  K  K1  1  -0.01312942  0.76506848  -0.50550708  1.0
  K  K2  1  -0.76508682  0.50843097  -0.24355913  1.0
  K  K3  1  -0.23491318  0.49156903  0.24355913  1.0
  K  K4  1  -0.73453360  0.99160541  -0.75664490  1.0
  K  K5  1  -0.26546640  0.00839459  0.75664490  1.0
  K  K6  1  -0.51277517  0.26511935  0.49444832  1.0
  K  K7  1  -0.48722483  0.73488065  -0.49444832  1.0
  Pb  Pb8  1  -0.76190308  0.53200910  0.24122830  1.0
  Pb  Pb9  1  -0.23809692  0.46799090  -0.24122830  1.0
  Pb  Pb10  1  -0.73832181  0.96780504  -0.24117222  1.0
  Pb  Pb11  1  -0.26167819  0.03219496  0.24117222  1.0
  Pb  Pb12  1  -0.48532629  0.74605029  0.00026562  1.0
  Pb  Pb13  1  -0.51467371  0.25394971  -0.00026562  1.0
  Pb  Pb14  1  -0.01495210  0.75377693  -0.00016693  1.0
  Pb  Pb15  1  -0.98504790  0.24622307  0.00016693  1.0
  O  O16  1  -0.89037067  0.86192901  -0.30242947  1.0
  O  O17  1  -0.10962933  0.13807099  0.30242947  1.0
  O  O18  1  -0.85509182  0.34445855  0.10026130  1.0
  O  O19  1  -0.14490818  0.65554145  -0.10026130  1.0
  O  O20  1  -0.83524064  0.85738265  0.06985559  1.0
  O  O21  1  -0.16475936  0.14261735  -0.06985559  1.0
  O  O22  1  -0.66502890  0.64245264  -0.06976091  1.0
  O  O23  1  -0.33497110  0.35754736  0.06976091  1.0
  O  O24  1  -0.60983348  0.63791561  0.30250474  1.0
  O  O25  1  -0.39016652  0.36208439  -0.30250474  1.0
  O  O26  1  -0.42292166  0.85565871  -0.29561802  1.0
  O  O27  1  -0.57707834  0.14434129  0.29561802  1.0
  O  O28  1  -0.35532417  0.84425842  0.10035384  1.0
  O  O29  1  -0.64467583  0.15574158  -0.10035384  1.0
  O  O30  1  -0.07729080  0.64417011  0.29574990  1.0
  O  O31  1  -0.92270920  0.35582989  -0.29574990  1.0
