# generated using pymatgen
data_Pt(I3N2)2
_symmetry_space_group_name_H-M   'P 1'
_cell_length_a   10.89350728
_cell_length_b   10.59143405
_cell_length_c   8.55914701
_cell_angle_alpha   90.00000000
_cell_angle_beta   90.00000000
_cell_angle_gamma   90.00000000
_symmetry_Int_Tables_number   1
_chemical_formula_structural   Pt(I3N2)2
_chemical_formula_sum   'Pt2 I12 N8'
_cell_volume   987.53609954
_cell_formula_units_Z   2
loop_
 _symmetry_equiv_pos_site_id
 _symmetry_equiv_pos_as_xyz
  1  'x, y, z'
loop_
 _atom_site_type_symbol
 _atom_site_label
 _atom_site_symmetry_multiplicity
 _atom_site_fract_x
 _atom_site_fract_y
 _atom_site_fract_z
 _atom_site_occupancy
  Pt  Pt0  1  0.50000000  0.50000000  0.50000000  1.0
  Pt  Pt1  1  0.00000000  0.00000000  0.00000000  1.0
  I  I2  1  0.32755457  0.67724240  0.50000000  1.0
  I  I3  1  0.82755457  0.82275760  0.00000000  1.0
  I  I4  1  0.67244543  0.32275760  0.50000000  1.0
  I  I5  1  0.17244543  0.17724240  0.00000000  1.0
  I  I6  1  0.67346905  0.67616371  0.50000000  1.0
  I  I7  1  0.17346905  0.82383629  0.00000000  1.0
  I  I8  1  0.32653095  0.32383629  0.50000000  1.0
  I  I9  1  0.82653095  0.17616371  0.00000000  1.0
  I  I10  1  0.50000000  0.50000000  0.17771764  1.0
  I  I11  1  0.50000000  0.50000000  0.82228236  1.0
  I  I12  1  0.00000000  0.00000000  0.67771764  1.0
  I  I13  1  0.00000000  0.00000000  0.32228236  1.0
  N  N14  1  0.49988401  0.94781429  0.22203320  1.0
  N  N15  1  0.49988401  0.94781429  0.77796680  1.0
  N  N16  1  0.99988401  0.55218571  0.72203320  1.0
  N  N17  1  0.99988401  0.55218571  0.27796680  1.0
  N  N18  1  0.50011599  0.05218571  0.22203320  1.0
  N  N19  1  0.50011599  0.05218571  0.77796680  1.0
  N  N20  1  0.00011599  0.44781429  0.72203320  1.0
  N  N21  1  0.00011599  0.44781429  0.27796680  1.0
