# generated using pymatgen
data_TeBr6
_symmetry_space_group_name_H-M   'P 1'
_cell_length_a   6.81493412
_cell_length_b   6.81493412
_cell_length_c   12.30984335
_cell_angle_alpha   90.00000000
_cell_angle_beta   90.00000000
_cell_angle_gamma   90.00000000
_symmetry_Int_Tables_number   1
_chemical_formula_structural   TeBr6
_chemical_formula_sum   'Te2 Br12'
_cell_volume   571.71008021
_cell_formula_units_Z   2
loop_
 _symmetry_equiv_pos_site_id
 _symmetry_equiv_pos_as_xyz
  1  'x, y, z'
loop_
 _atom_site_type_symbol
 _atom_site_label
 _atom_site_symmetry_multiplicity
 _atom_site_fract_x
 _atom_site_fract_y
 _atom_site_fract_z
 _atom_site_occupancy
  Te  Te0  1  0.50000000  0.50000000  0.50000000  1.0
  Te  Te1  1  0.00000000  0.00000000  0.00000000  1.0
  Br  Br2  1  0.50000000  0.50000000  0.28856856  1.0
  Br  Br3  1  0.00000000  0.00000000  0.78856856  1.0
  Br  Br4  1  0.50000000  0.50000000  0.71143144  1.0
  Br  Br5  1  0.00000000  0.00000000  0.21143144  1.0
  Br  Br6  1  0.82788850  0.70991262  0.50000000  1.0
  Br  Br7  1  0.17211150  0.29008738  0.50000000  1.0
  Br  Br8  1  0.67211150  0.20991262  0.00000000  1.0
  Br  Br9  1  0.32788850  0.79008738  0.00000000  1.0
  Br  Br10  1  0.70991262  0.17211150  0.50000000  1.0
  Br  Br11  1  0.29008738  0.82788850  0.50000000  1.0
  Br  Br12  1  0.20991262  0.32788850  0.00000000  1.0
  Br  Br13  1  0.79008738  0.67211150  0.00000000  1.0
