# generated using pymatgen
data_CsCo(CO)4
_symmetry_space_group_name_H-M   'P 1'
_cell_length_a   6.73799848
_cell_length_b   6.73799848
_cell_length_c   6.73799848
_cell_angle_alpha   99.56294012
_cell_angle_beta   99.56294012
_cell_angle_gamma   131.89272894
_symmetry_Int_Tables_number   1
_chemical_formula_structural   CsCo(CO)4
_chemical_formula_sum   'Cs1 Co1 C4 O4'
_cell_volume   207.94374122
_cell_formula_units_Z   1
loop_
 _symmetry_equiv_pos_site_id
 _symmetry_equiv_pos_as_xyz
  1  'x, y, z'
loop_
 _atom_site_type_symbol
 _atom_site_label
 _atom_site_symmetry_multiplicity
 _atom_site_fract_x
 _atom_site_fract_y
 _atom_site_fract_z
 _atom_site_occupancy
  Cs  Cs0  1  0.75000000  0.25000000  0.50000000  1.0
  Co  Co1  1  0.00000000  0.00000000  0.00000000  1.0
  C  C2  1  1.65279491  1.76167884  1.80101911  1.0
  C  C3  1  1.14822420  1.34720509  1.10888392  1.0
  C  C4  1  0.96065972  0.85177580  0.19898089  1.0
  C  C5  1  1.23832116  1.03934028  0.89111608  1.0
  O  O6  1  1.41867204  1.59929853  1.67033975  1.0
  O  O7  1  1.25166771  1.58132796  1.18062648  1.0
  O  O8  1  0.92895877  0.74833229  0.32966025  1.0
  O  O9  1  1.40070148  1.07104123  0.81937352  1.0
