# generated using pymatgen
data_Nb2CrSe4
_symmetry_space_group_name_H-M   'P 1'
_cell_length_a   7.22873487
_cell_length_b   7.22873487
_cell_length_c   12.81398740
_cell_angle_alpha   90.00000000
_cell_angle_beta   90.00000000
_cell_angle_gamma   120.00000000
_symmetry_Int_Tables_number   1
_chemical_formula_structural   Nb2CrSe4
_chemical_formula_sum   'Nb8 Cr4 Se16'
_cell_volume   579.88185220
_cell_formula_units_Z   4
loop_
 _symmetry_equiv_pos_site_id
 _symmetry_equiv_pos_as_xyz
  1  'x, y, z'
loop_
 _atom_site_type_symbol
 _atom_site_label
 _atom_site_symmetry_multiplicity
 _atom_site_fract_x
 _atom_site_fract_y
 _atom_site_fract_z
 _atom_site_occupancy
  Cr  Cr0  1  0.00000000  0.00000000  0.50000000  1.0
  Cr  Cr1  1  0.00000000  0.00000000  -0.00000000  1.0
  Cr  Cr2  1  0.33333333  0.66666667  0.25000000  1.0
  Cr  Cr3  1  0.66666667  0.33333333  0.75000000  1.0
  Se  Se4  1  0.16931824  0.83068176  0.37407294  1.0
  Se  Se5  1  0.16931824  0.83068176  0.12592706  1.0
  Se  Se6  1  0.16931824  0.33863648  0.37407294  1.0
  Se  Se7  1  0.16931824  0.33863648  0.12592706  1.0
  Se  Se8  1  0.83068176  0.16931824  0.87407294  1.0
  Se  Se9  1  0.83068176  0.16931824  0.62592706  1.0
  Se  Se10  1  0.83068176  0.66136352  0.87407294  1.0
  Se  Se11  1  0.83068176  0.66136352  0.62592706  1.0
  Se  Se12  1  0.66136352  0.83068176  0.37407294  1.0
  Se  Se13  1  0.66136352  0.83068176  0.12592706  1.0
  Se  Se14  1  0.33863648  0.16931824  0.87407294  1.0
  Se  Se15  1  0.33863648  0.16931824  0.62592706  1.0
  Se  Se16  1  0.33333333  0.66666667  0.89938609  1.0
  Se  Se17  1  0.33333333  0.66666667  0.60061391  1.0
  Se  Se18  1  0.66666667  0.33333333  0.39938609  1.0
  Se  Se19  1  0.66666667  0.33333333  0.10061391  1.0
  Nb  Nb20  1  0.52781290  0.47218710  0.25000000  1.0
  Nb  Nb21  1  0.52781290  0.05562581  0.25000000  1.0
  Nb  Nb22  1  0.47218710  0.52781290  0.75000000  1.0
  Nb  Nb23  1  0.47218710  -0.05562581  0.75000000  1.0
  Nb  Nb24  1  -0.05562581  0.47218710  0.25000000  1.0
  Nb  Nb25  1  0.05562581  0.52781290  0.75000000  1.0
  Nb  Nb26  1  0.00000000  0.00000000  0.25000000  1.0
  Nb  Nb27  1  -0.00000000  -0.00000000  0.75000000  1.0
