# generated using pymatgen
data_Hg4BiS2Cl5
_symmetry_space_group_name_H-M   'P 1'
_cell_length_a   8.36987463
_cell_length_b   10.72759725
_cell_length_c   9.13403720
_cell_angle_alpha   90.00000000
_cell_angle_beta   113.90317398
_cell_angle_gamma   90.00000000
_symmetry_Int_Tables_number   1
_chemical_formula_structural   Hg4BiS2Cl5
_chemical_formula_sum   'Hg8 Bi2 S4 Cl10'
_cell_volume   749.79126189
_cell_formula_units_Z   2
loop_
 _symmetry_equiv_pos_site_id
 _symmetry_equiv_pos_as_xyz
  1  'x, y, z'
loop_
 _atom_site_type_symbol
 _atom_site_label
 _atom_site_symmetry_multiplicity
 _atom_site_fract_x
 _atom_site_fract_y
 _atom_site_fract_z
 _atom_site_occupancy
  Hg  Hg0  1  0.92486696  0.18562949  0.33123725  1.0
  Hg  Hg1  1  0.07513304  0.68562949  0.66876275  1.0
  Hg  Hg2  1  0.94412920  0.66418669  0.35884340  1.0
  Hg  Hg3  1  0.05587080  0.16418669  0.64115660  1.0
  Hg  Hg4  1  0.49752545  0.18202441  0.98807254  1.0
  Hg  Hg5  1  0.50247455  0.68202441  0.01192746  1.0
  Hg  Hg6  1  0.79969968  0.43223731  0.02357882  1.0
  Hg  Hg7  1  0.20030032  0.93223731  0.97642118  1.0
  Bi  Bi8  1  0.50026400  0.43021861  0.50860120  1.0
  Bi  Bi9  1  0.49973600  0.93021861  0.49139880  1.0
  S  S10  1  0.79823481  0.20624596  0.03314903  1.0
  S  S11  1  0.20176519  0.70624596  0.96685097  1.0
  S  S12  1  0.19656747  0.15633104  0.93941951  1.0
  S  S13  1  0.80343253  0.65633104  0.06058049  1.0
  Cl  Cl14  1  0.84439212  0.92932647  0.68675962  1.0
  Cl  Cl15  1  0.15560788  0.42932647  0.31324038  1.0
  Cl  Cl16  1  0.84352937  0.43588450  0.71637995  1.0
  Cl  Cl17  1  0.15647063  0.93588450  0.28362005  1.0
  Cl  Cl18  1  0.40915853  0.45761358  0.76660906  1.0
  Cl  Cl19  1  0.59084147  0.95761358  0.23339094  1.0
  Cl  Cl20  1  0.59094252  0.39210522  0.26288593  1.0
  Cl  Cl21  1  0.40905748  0.89210522  0.73711407  1.0
  Cl  Cl22  1  0.48771838  0.18179672  0.56111607  1.0
  Cl  Cl23  1  0.51228162  0.68179672  0.43888393  1.0
