# generated using pymatgen
data_Ca3(PO4)2
_symmetry_space_group_name_H-M   'P 1'
_cell_length_a   6.97735529
_cell_length_b   6.97735529
_cell_length_c   6.97735529
_cell_angle_alpha   44.80594983
_cell_angle_beta   44.80594983
_cell_angle_gamma   44.80594983
_symmetry_Int_Tables_number   1
_chemical_formula_structural   Ca3(PO4)2
_chemical_formula_sum   'Ca3 P2 O8'
_cell_volume   153.47576052
_cell_formula_units_Z   1
loop_
 _symmetry_equiv_pos_site_id
 _symmetry_equiv_pos_as_xyz
  1  'x, y, z'
loop_
 _atom_site_type_symbol
 _atom_site_label
 _atom_site_symmetry_multiplicity
 _atom_site_fract_x
 _atom_site_fract_y
 _atom_site_fract_z
 _atom_site_occupancy
  Ca  Ca0  1  0.79624739  0.79624739  0.79624739  1.0
  Ca  Ca1  1  1.20375261  1.20375261  0.20375261  1.0
  Ca  Ca2  1  0.00000000  0.00000000  0.00000000  1.0
  P  P3  1  1.59516485  0.59516485  0.59516485  1.0
  P  P4  1  1.40483515  0.40483515  0.40483515  1.0
  O  O5  1  1.27240867  0.27240867  0.75309042  1.0
  O  O6  1  1.27240867  0.75309042  0.27240867  1.0
  O  O7  1  1.24690958  0.72759133  0.72759133  1.0
  O  O8  1  1.72759133  0.24690958  0.72759133  1.0
  O  O9  1  1.72759133  0.72759133  0.24690958  1.0
  O  O10  1  1.75309042  0.27240867  0.27240867  1.0
  O  O11  1  0.67714925  0.67714925  0.67714925  1.0
  O  O12  1  1.32285075  1.32285075  0.32285075  1.0
