# generated using pymatgen
data_K6Si2S6O
_symmetry_space_group_name_H-M   'P 1'
_cell_length_a   8.91351746
_cell_length_b   11.83667192
_cell_length_c   8.44444511
_cell_angle_alpha   90.00000000
_cell_angle_beta   112.62394107
_cell_angle_gamma   90.00000000
_symmetry_Int_Tables_number   1
_chemical_formula_structural   K6Si2S6O
_chemical_formula_sum   'K12 Si4 S12 O2'
_cell_volume   822.38440413
_cell_formula_units_Z   2
loop_
 _symmetry_equiv_pos_site_id
 _symmetry_equiv_pos_as_xyz
  1  'x, y, z'
loop_
 _atom_site_type_symbol
 _atom_site_label
 _atom_site_symmetry_multiplicity
 _atom_site_fract_x
 _atom_site_fract_y
 _atom_site_fract_z
 _atom_site_occupancy
  K  K0  1  0.96226693  0.72408277  0.79313806  1.0
  K  K1  1  0.96226693  0.77591723  0.29313806  1.0
  K  K2  1  0.03773307  0.22408277  0.70686194  1.0
  K  K3  1  0.03773307  0.27591723  0.20686194  1.0
  K  K4  1  0.71864469  0.44072522  0.71722348  1.0
  K  K5  1  0.71864469  0.05927478  0.21722348  1.0
  K  K6  1  0.28135531  0.94072522  0.78277652  1.0
  K  K7  1  0.28135531  0.55927478  0.28277652  1.0
  K  K8  1  0.50745297  0.82785862  0.51031476  1.0
  K  K9  1  0.50745297  0.67214138  0.01031476  1.0
  K  K10  1  0.49254703  0.32785862  0.98968524  1.0
  K  K11  1  0.49254703  0.17214138  0.48968524  1.0
  Si  Si12  1  0.81458288  0.48944971  0.35180990  1.0
  Si  Si13  1  0.81458288  0.01055029  0.85180990  1.0
  Si  Si14  1  0.18541712  0.98944971  0.14819010  1.0
  Si  Si15  1  0.18541712  0.51055029  0.64819010  1.0
  S  S16  1  0.83008175  0.98042277  0.60947242  1.0
  S  S17  1  0.83008175  0.51957723  0.10947242  1.0
  S  S18  1  0.16991825  0.48042277  0.89052758  1.0
  S  S19  1  0.16991825  0.01957723  0.39052758  1.0
  S  S20  1  0.73759027  0.17875713  0.87430639  1.0
  S  S21  1  0.73759027  0.32124287  0.37430639  1.0
  S  S22  1  0.26240973  0.67875713  0.62569361  1.0
  S  S23  1  0.26240973  0.82124287  0.12569361  1.0
  S  S24  1  0.67452374  0.88342162  0.91245199  1.0
  S  S25  1  0.67452374  0.61657838  0.41245199  1.0
  S  S26  1  0.32547626  0.38342162  0.58754801  1.0
  S  S27  1  0.32547626  0.11657838  0.08754801  1.0
  O  O28  1  0.00000000  0.00000000  0.00000000  1.0
  O  O29  1  0.00000000  0.50000000  0.50000000  1.0
