# generated using pymatgen
data_SrSn3
_symmetry_space_group_name_H-M   'P 1'
_cell_length_a   11.91779711
_cell_length_b   11.91779711
_cell_length_c   11.91779711
_cell_angle_alpha   34.11981826
_cell_angle_beta   34.11981826
_cell_angle_gamma   34.11981826
_symmetry_Int_Tables_number   1
_chemical_formula_structural   SrSn3
_chemical_formula_sum   'Sr4 Sn12'
_cell_volume   474.83846155
_cell_formula_units_Z   4
loop_
 _symmetry_equiv_pos_site_id
 _symmetry_equiv_pos_as_xyz
  1  'x, y, z'
loop_
 _atom_site_type_symbol
 _atom_site_label
 _atom_site_symmetry_multiplicity
 _atom_site_fract_x
 _atom_site_fract_y
 _atom_site_fract_z
 _atom_site_occupancy
  Sr  Sr0  1  0.86852402  0.86852402  0.86852402  1.0
  Sr  Sr1  1  1.13147598  1.13147598  0.13147598  1.0
  Sr  Sr2  1  0.70914298  0.70914298  0.70914298  1.0
  Sr  Sr3  1  1.29085702  1.29085702  0.29085702  1.0
  Sn  Sn4  1  1.39826805  0.39826805  0.83611912  1.0
  Sn  Sn5  1  1.39826805  0.83611912  0.39826805  1.0
  Sn  Sn6  1  1.16388088  0.60173195  0.60173195  1.0
  Sn  Sn7  1  1.60173195  0.16388088  0.60173195  1.0
  Sn  Sn8  1  1.60173195  0.60173195  0.16388088  1.0
  Sn  Sn9  1  0.83611912  1.39826805  0.39826805  1.0
  Sn  Sn10  1  1.20329085  0.20329085  0.72001192  1.0
  Sn  Sn11  1  1.20329085  0.72001192  0.20329085  1.0
  Sn  Sn12  1  1.27998808  0.79670915  0.79670915  1.0
  Sn  Sn13  1  1.79670915  0.27998808  0.79670915  1.0
  Sn  Sn14  1  1.79670915  0.79670915  0.27998808  1.0
  Sn  Sn15  1  0.72001192  1.20329085  0.20329085  1.0
