# generated using pymatgen
data_RbGeCl3
_symmetry_space_group_name_H-M   'P 1'
_cell_length_a   5.89532146
_cell_length_b   7.23522449
_cell_length_c   8.49557297
_cell_angle_alpha   90.00000000
_cell_angle_beta   108.35049003
_cell_angle_gamma   90.00000000
_symmetry_Int_Tables_number   1
_chemical_formula_structural   RbGeCl3
_chemical_formula_sum   'Rb2 Ge2 Cl6'
_cell_volume   343.94286350
_cell_formula_units_Z   2
loop_
 _symmetry_equiv_pos_site_id
 _symmetry_equiv_pos_as_xyz
  1  'x, y, z'
loop_
 _atom_site_type_symbol
 _atom_site_label
 _atom_site_symmetry_multiplicity
 _atom_site_fract_x
 _atom_site_fract_y
 _atom_site_fract_z
 _atom_site_occupancy
  Rb  Rb0  1  0.66646234  0.75000000  0.30387684  1.0
  Rb  Rb1  1  0.33353766  0.25000000  0.69612316  1.0
  Ge  Ge2  1  0.93715302  0.75000000  0.87153267  1.0
  Ge  Ge3  1  0.06284698  0.25000000  0.12846733  1.0
  Cl  Cl4  1  0.82521043  0.99171840  0.67645894  1.0
  Cl  Cl5  1  0.82521043  0.50828160  0.67645894  1.0
  Cl  Cl6  1  0.17478957  0.49171840  0.32354106  1.0
  Cl  Cl7  1  0.17478957  0.00828160  0.32354106  1.0
  Cl  Cl8  1  0.34348110  0.75000000  0.88768954  1.0
  Cl  Cl9  1  0.65651890  0.25000000  0.11231046  1.0
