# generated using pymatgen
data_Sc2P3(HO3)3
_symmetry_space_group_name_H-M   'P 1'
_cell_length_a   8.51468387
_cell_length_b   8.51468387
_cell_length_c   7.80858732
_cell_angle_alpha   90.00000000
_cell_angle_beta   90.00000000
_cell_angle_gamma   120.00000000
_symmetry_Int_Tables_number   1
_chemical_formula_structural   Sc2P3(HO3)3
_chemical_formula_sum   'Sc4 P6 H6 O18'
_cell_volume   490.27546420
_cell_formula_units_Z   2
loop_
 _symmetry_equiv_pos_site_id
 _symmetry_equiv_pos_as_xyz
  1  'x, y, z'
loop_
 _atom_site_type_symbol
 _atom_site_label
 _atom_site_symmetry_multiplicity
 _atom_site_fract_x
 _atom_site_fract_y
 _atom_site_fract_z
 _atom_site_occupancy
  Sc  Sc0  1  0.33333333  0.66666667  0.45458199  1.0
  Sc  Sc1  1  0.33333333  0.66666667  0.04541801  1.0
  Sc  Sc2  1  0.66666667  0.33333333  0.95458199  1.0
  Sc  Sc3  1  0.66666667  0.33333333  0.54541801  1.0
  P  P4  1  0.68335836  0.64137148  0.25000000  1.0
  P  P5  1  0.64137148  0.95801312  0.75000000  1.0
  P  P6  1  0.95801312  0.31664164  0.25000000  1.0
  P  P7  1  0.35862852  0.04198688  0.25000000  1.0
  P  P8  1  0.31664164  0.35862852  0.75000000  1.0
  P  P9  1  0.04198688  0.68335836  0.75000000  1.0
  H  H10  1  0.17585646  0.99924516  0.25000000  1.0
  H  H11  1  0.99924516  0.82338869  0.75000000  1.0
  H  H12  1  0.82338869  0.82414354  0.25000000  1.0
  H  H13  1  0.00075484  0.17661131  0.25000000  1.0
  H  H14  1  0.82414354  0.00075484  0.75000000  1.0
  H  H15  1  0.17661131  0.17585646  0.75000000  1.0
  O  O16  1  0.70492489  0.55572739  0.41481540  1.0
  O  O17  1  0.70492489  0.55572739  0.08518460  1.0
  O  O18  1  0.55572739  0.85080250  0.91481540  1.0
  O  O19  1  0.55572739  0.85080250  0.58518460  1.0
  O  O20  1  0.85080250  0.29507511  0.41481540  1.0
  O  O21  1  0.85080250  0.29507511  0.08518460  1.0
  O  O22  1  0.44427261  0.14919750  0.41481540  1.0
  O  O23  1  0.44427261  0.14919750  0.08518460  1.0
  O  O24  1  0.29507511  0.44427261  0.91481540  1.0
  O  O25  1  0.29507511  0.44427261  0.58518460  1.0
  O  O26  1  0.14919750  0.70492489  0.91481540  1.0
  O  O27  1  0.14919750  0.70492489  0.58518460  1.0
  O  O28  1  0.35675495  0.85800669  0.25000000  1.0
  O  O29  1  0.85800669  0.50125175  0.75000000  1.0
  O  O30  1  0.50125175  0.64324505  0.25000000  1.0
  O  O31  1  0.14199331  0.49874825  0.25000000  1.0
  O  O32  1  0.64324505  0.14199331  0.75000000  1.0
  O  O33  1  0.49874825  0.35675495  0.75000000  1.0
