# generated using pymatgen
data_BiB2HO5
_symmetry_space_group_name_H-M   'P 1'
_cell_length_a   6.74908418
_cell_length_b   6.74908418
_cell_length_c   6.74730450
_cell_angle_alpha   90.00000000
_cell_angle_beta   90.00000000
_cell_angle_gamma   120.00000000
_symmetry_Int_Tables_number   1
_chemical_formula_structural   BiB2HO5
_chemical_formula_sum   'Bi3 B6 H3 O15'
_cell_volume   266.16480741
_cell_formula_units_Z   3
loop_
 _symmetry_equiv_pos_site_id
 _symmetry_equiv_pos_as_xyz
  1  'x, y, z'
loop_
 _atom_site_type_symbol
 _atom_site_label
 _atom_site_symmetry_multiplicity
 _atom_site_fract_x
 _atom_site_fract_y
 _atom_site_fract_z
 _atom_site_occupancy
  Bi  Bi0  1  0.05057127  0.43177702  0.67136972  1.0
  Bi  Bi1  1  0.38120576  0.94942873  0.33803639  1.0
  Bi  Bi2  1  0.56822298  0.61879424  0.00470306  1.0
  B  B3  1  0.39027101  1.00267354  0.88997921  1.0
  B  B4  1  0.61240253  0.60972899  0.55664587  1.0
  B  B5  1  -0.00267354  0.38759747  0.22331254  1.0
  B  B6  1  0.99321311  0.89024218  0.74462013  1.0
  B  B7  1  0.89702907  0.00678689  0.41128679  1.0
  B  B8  1  0.10975782  0.10297093  0.07795346  1.0
  H  H9  1  0.75964558  0.32811460  0.01531236  1.0
  H  H10  1  0.56846902  0.24035442  0.68197902  1.0
  H  H11  1  0.67188540  0.43153098  0.34864569  1.0
  O  O12  1  0.05661305  0.99056303  0.27233997  1.0
  O  O13  1  0.93394998  0.94338695  0.93900664  1.0
  O  O14  1  0.00943697  0.06605002  0.60567331  1.0
  O  O15  1  0.20375498  0.87080769  0.74839143  1.0
  O  O16  1  0.66705272  0.79624502  0.41505810  1.0
  O  O17  1  0.12919231  0.33294728  0.08172477  1.0
  O  O18  1  0.43359788  0.85802607  0.03133484  1.0
  O  O19  1  0.42442819  0.56640212  0.69800151  1.0
  O  O20  1  0.14197393  0.57557181  0.36466817  1.0
  O  O21  1  0.80875698  0.66051682  0.68797673  1.0
  O  O22  1  0.85175984  0.19124302  0.35464339  1.0
  O  O23  1  0.33948318  0.14824016  0.02131006  1.0
  O  O24  1  0.84572640  0.44953704  0.11337561  1.0
  O  O25  1  0.60381065  0.15427360  0.78004227  1.0
  O  O26  1  0.55046296  0.39618935  0.44670894  1.0
