# generated using pymatgen
data_RbCaBr3
_symmetry_space_group_name_H-M   'P 1'
_cell_length_a   8.12098143
_cell_length_b   11.32241786
_cell_length_c   7.89864225
_cell_angle_alpha   90.00000000
_cell_angle_beta   90.00000000
_cell_angle_gamma   90.00000000
_symmetry_Int_Tables_number   1
_chemical_formula_structural   RbCaBr3
_chemical_formula_sum   'Rb4 Ca4 Br12'
_cell_volume   726.27340236
_cell_formula_units_Z   4
loop_
 _symmetry_equiv_pos_site_id
 _symmetry_equiv_pos_as_xyz
  1  'x, y, z'
loop_
 _atom_site_type_symbol
 _atom_site_label
 _atom_site_symmetry_multiplicity
 _atom_site_fract_x
 _atom_site_fract_y
 _atom_site_fract_z
 _atom_site_occupancy
  Rb  Rb0  1  0.05533440  0.75000000  0.51665708  1.0
  Rb  Rb1  1  0.55533440  0.75000000  0.98334292  1.0
  Rb  Rb2  1  0.94466560  0.25000000  0.48334292  1.0
  Rb  Rb3  1  0.44466560  0.25000000  0.01665708  1.0
  Ca  Ca4  1  0.50000000  0.00000000  0.50000000  1.0
  Ca  Ca5  1  0.50000000  0.50000000  0.50000000  1.0
  Ca  Ca6  1  0.00000000  0.00000000  0.00000000  1.0
  Ca  Ca7  1  0.00000000  0.50000000  0.00000000  1.0
  Br  Br8  1  0.29230245  0.96061858  0.79411737  1.0
  Br  Br9  1  0.29230245  0.53938142  0.79411737  1.0
  Br  Br10  1  0.79230245  0.96061858  0.70588263  1.0
  Br  Br11  1  0.79230245  0.53938142  0.70588263  1.0
  Br  Br12  1  0.70769755  0.46061858  0.20588263  1.0
  Br  Br13  1  0.70769755  0.03938142  0.20588263  1.0
  Br  Br14  1  0.20769755  0.46061858  0.29411737  1.0
  Br  Br15  1  0.20769755  0.03938142  0.29411737  1.0
  Br  Br16  1  0.98435878  0.75000000  0.07602546  1.0
  Br  Br17  1  0.48435878  0.75000000  0.42397454  1.0
  Br  Br18  1  0.01564122  0.25000000  0.92397454  1.0
  Br  Br19  1  0.51564122  0.25000000  0.57602546  1.0
