# generated using pymatgen
data_Ba3BiIr2O9
_symmetry_space_group_name_H-M   'P 1'
_cell_length_a   5.98226673
_cell_length_b   5.98226673
_cell_length_c   15.13932768
_cell_angle_alpha   88.29045578
_cell_angle_beta   91.70954422
_cell_angle_gamma   60.55845752
_symmetry_Int_Tables_number   1
_chemical_formula_structural   Ba3BiIr2O9
_chemical_formula_sum   'Ba6 Bi2 Ir4 O18'
_cell_volume   471.00314112
_cell_formula_units_Z   2
loop_
 _symmetry_equiv_pos_site_id
 _symmetry_equiv_pos_as_xyz
  1  'x, y, z'
loop_
 _atom_site_type_symbol
 _atom_site_label
 _atom_site_symmetry_multiplicity
 _atom_site_fract_x
 _atom_site_fract_y
 _atom_site_fract_z
 _atom_site_occupancy
  Ba  Ba0  1  1.32220500  0.34386984  0.40741679  1.0
  Ba  Ba1  1  0.65613016  -0.32220500  0.90741679  1.0
  Ba  Ba2  1  1.34386984  0.32220500  0.09258321  1.0
  Ba  Ba3  1  0.67779500  -0.34386984  0.59258321  1.0
  Ba  Ba4  1  0.98737596  -0.01262404  0.25000000  1.0
  Ba  Ba5  1  1.01262404  0.01262404  0.75000000  1.0
  Bi  Bi6  1  -0.00000000  0.00000000  0.50000000  1.0
  Bi  Bi7  1  0.00000000  0.00000000  0.00000000  1.0
  Ir  Ir8  1  0.63882362  -0.31209175  0.33765743  1.0
  Ir  Ir9  1  1.31209175  0.36117638  0.83765743  1.0
  Ir  Ir10  1  0.68790825  -0.36117638  0.16234257  1.0
  Ir  Ir11  1  1.36117638  0.31209175  0.66234257  1.0
  O  O12  1  0.76918094  -0.11821854  0.40720705  1.0
  O  O13  1  1.11821854  0.23081906  0.90720705  1.0
  O  O14  1  0.88178146  -0.23081906  0.09279295  1.0
  O  O15  1  1.23081906  0.11821854  0.59279295  1.0
  O  O16  1  0.41396447  -0.23183280  0.06609502  1.0
  O  O17  1  1.23183280  0.58603553  0.56609502  1.0
  O  O18  1  0.76816720  -0.58603553  0.43390498  1.0
  O  O19  1  1.58603553  0.23183280  0.93390498  1.0
  O  O20  1  0.51462354  -0.04373756  0.23395098  1.0
  O  O21  1  1.04373756  0.48537646  0.73395098  1.0
  O  O22  1  0.95626244  -0.48537646  0.26604902  1.0
  O  O23  1  1.48537646  0.04373756  0.76604902  1.0
  O  O24  1  0.30247320  -0.12079620  0.39417157  1.0
  O  O25  1  1.12079620  0.69752680  0.89417157  1.0
  O  O26  1  0.87920380  -0.69752680  0.10582843  1.0
  O  O27  1  1.69752680  0.12079620  0.60582843  1.0
  O  O28  1  0.51215423  -0.48784577  0.25000000  1.0
  O  O29  1  1.48784577  0.48784577  0.75000000  1.0
