# generated using pymatgen
data_Ta2O5
_symmetry_space_group_name_H-M   'P 1'
_cell_length_a   7.71100761
_cell_length_b   6.46069459
_cell_length_c   3.79710646
_cell_angle_alpha   90.00000000
_cell_angle_beta   90.00000000
_cell_angle_gamma   90.00000000
_symmetry_Int_Tables_number   1
_chemical_formula_structural   Ta2O5
_chemical_formula_sum   'Ta4 O10'
_cell_volume   189.16601571
_cell_formula_units_Z   2
loop_
 _symmetry_equiv_pos_site_id
 _symmetry_equiv_pos_as_xyz
  1  'x, y, z'
loop_
 _atom_site_type_symbol
 _atom_site_label
 _atom_site_symmetry_multiplicity
 _atom_site_fract_x
 _atom_site_fract_y
 _atom_site_fract_z
 _atom_site_occupancy
  Ta  Ta0  1  0.50000000  0.22372546  0.29684651  1.0
  Ta  Ta1  1  0.50000000  0.77627454  0.70315349  1.0
  Ta  Ta2  1  0.00000000  0.22372546  0.20315349  1.0
  Ta  Ta3  1  0.00000000  0.77627454  0.79684651  1.0
  O  O4  1  0.50000000  0.50000000  0.50000000  1.0
  O  O5  1  0.00000000  0.50000000  0.00000000  1.0
  O  O6  1  0.50000000  0.11389229  0.76314820  1.0
  O  O7  1  0.50000000  0.88610771  0.23685180  1.0
  O  O8  1  0.00000000  0.11389229  0.73685180  1.0
  O  O9  1  0.00000000  0.88610771  0.26314820  1.0
  O  O10  1  0.75000000  0.75767177  0.75000000  1.0
  O  O11  1  0.75000000  0.24232823  0.25000000  1.0
  O  O12  1  0.25000000  0.24232823  0.25000000  1.0
  O  O13  1  0.25000000  0.75767177  0.75000000  1.0
