# generated using pymatgen
data_Cs2MnTe2
_symmetry_space_group_name_H-M   'P 1'
_cell_length_a   9.46107626
_cell_length_b   9.46107626
_cell_length_c   9.46107626
_cell_angle_alpha   129.73504500
_cell_angle_beta   70.01616967
_cell_angle_gamma   134.62926421
_symmetry_Int_Tables_number   1
_chemical_formula_structural   Cs2MnTe2
_chemical_formula_sum   'Cs4 Mn2 Te4'
_cell_volume   454.48000654
_cell_formula_units_Z   2
loop_
 _symmetry_equiv_pos_site_id
 _symmetry_equiv_pos_as_xyz
  1  'x, y, z'
loop_
 _atom_site_type_symbol
 _atom_site_label
 _atom_site_symmetry_multiplicity
 _atom_site_fract_x
 _atom_site_fract_y
 _atom_site_fract_z
 _atom_site_occupancy
  Cs  Cs0  1  0.14418707  0.32383320  0.46802027  1.0
  Cs  Cs1  1  0.35581293  0.82383320  1.17964614  1.0
  Cs  Cs2  1  0.64418707  1.17616680  0.82035386  1.0
  Cs  Cs3  1  0.85581293  0.67616680  0.53197973  1.0
  Mn  Mn4  1  0.25000000  0.25000000  0.00000000  1.0
  Mn  Mn5  1  0.75000000  0.75000000  0.00000000  1.0
  Te  Te6  1  0.40105698  0.32106457  0.72212155  1.0
  Te  Te7  1  0.09894302  0.82106457  0.92000760  1.0
  Te  Te8  1  0.90105698  1.17893543  1.07999240  1.0
  Te  Te9  1  0.59894302  0.67893543  0.27787845  1.0
