# generated using pymatgen
data_KNa(BH4)2
_symmetry_space_group_name_H-M   'P 1'
_cell_length_a   7.89745882
_cell_length_b   7.89745882
_cell_length_c   7.89745882
_cell_angle_alpha   33.57230655
_cell_angle_beta   33.57230655
_cell_angle_gamma   33.57230655
_symmetry_Int_Tables_number   1
_chemical_formula_structural   KNa(BH4)2
_chemical_formula_sum   'K1 Na1 B2 H8'
_cell_volume   134.16788704
_cell_formula_units_Z   1
loop_
 _symmetry_equiv_pos_site_id
 _symmetry_equiv_pos_as_xyz
  1  'x, y, z'
loop_
 _atom_site_type_symbol
 _atom_site_label
 _atom_site_symmetry_multiplicity
 _atom_site_fract_x
 _atom_site_fract_y
 _atom_site_fract_z
 _atom_site_occupancy
  K  K0  1  0.76006776  -0.23993224  -0.23993224  1.0
  Na  Na1  1  0.26361390  0.26361390  0.26361390  1.0
  B  B2  1  0.00061844  0.00061844  0.00061844  1.0
  B  B3  1  0.51127764  0.51127764  -0.48872236  1.0
  H  H4  1  0.55930420  0.76673474  -0.73910824  1.0
  H  H5  1  0.26089176  0.55930420  -0.23326526  1.0
  H  H6  1  0.76673474  0.26089176  -0.44069580  1.0
  H  H7  1  0.16608625  0.16499841  -0.27314873  1.0
  H  H8  1  0.72685127  0.16608625  -0.83500159  1.0
  H  H9  1  0.16499841  0.72685127  -0.83391375  1.0
  H  H10  1  0.94585771  -0.05414229  -0.05414229  1.0
  H  H11  1  0.45619794  0.45619794  -0.54380206  1.0
