# generated using pymatgen
data_ReO3
_symmetry_space_group_name_H-M   'P 1'
_cell_length_a   5.33999691
_cell_length_b   5.33999691
_cell_length_c   5.33999691
_cell_angle_alpha   60.00204070
_cell_angle_beta   60.00204070
_cell_angle_gamma   60.00204070
_symmetry_Int_Tables_number   1
_chemical_formula_structural   ReO3
_chemical_formula_sum   'Re2 O6'
_cell_volume   107.67828058
_cell_formula_units_Z   2
loop_
 _symmetry_equiv_pos_site_id
 _symmetry_equiv_pos_as_xyz
  1  'x, y, z'
loop_
 _atom_site_type_symbol
 _atom_site_label
 _atom_site_symmetry_multiplicity
 _atom_site_fract_x
 _atom_site_fract_y
 _atom_site_fract_z
 _atom_site_occupancy
  Re  Re0  1  1.00000000  -0.00000000  -0.00000000  1.0
  Re  Re1  1  0.50000000  0.50000000  0.50000000  1.0
  O  O2  1  1.24999564  -0.24999950  0.25000425  1.0
  O  O3  1  0.74999575  -0.24999564  0.24999950  1.0
  O  O4  1  0.24999950  0.74999575  -0.24999564  1.0
  O  O5  1  0.75000050  0.25000425  0.24999564  1.0
  O  O6  1  0.75000436  0.24999950  -0.25000425  1.0
  O  O7  1  1.25000425  0.24999564  -0.24999950  1.0
