# generated using pymatgen
data_SnPd2
_symmetry_space_group_name_H-M   'P 1'
_cell_length_a   5.75295451
_cell_length_b   4.37038003
_cell_length_c   8.23669518
_cell_angle_alpha   90.00000000
_cell_angle_beta   90.00000000
_cell_angle_gamma   90.00000000
_symmetry_Int_Tables_number   1
_chemical_formula_structural   SnPd2
_chemical_formula_sum   'Sn4 Pd8'
_cell_volume   207.09191132
_cell_formula_units_Z   4
loop_
 _symmetry_equiv_pos_site_id
 _symmetry_equiv_pos_as_xyz
  1  'x, y, z'
loop_
 _atom_site_type_symbol
 _atom_site_label
 _atom_site_symmetry_multiplicity
 _atom_site_fract_x
 _atom_site_fract_y
 _atom_site_fract_z
 _atom_site_occupancy
  Sn  Sn0  1  0.79570902  0.75000000  0.38808975  1.0
  Sn  Sn1  1  0.29570902  0.75000000  0.11191025  1.0
  Sn  Sn2  1  0.20429098  0.25000000  0.61191025  1.0
  Sn  Sn3  1  0.70429098  0.25000000  0.88808975  1.0
  Pd  Pd4  1  0.95127265  0.75000000  0.70880173  1.0
  Pd  Pd5  1  0.45127265  0.75000000  0.79119827  1.0
  Pd  Pd6  1  0.04872735  0.25000000  0.29119827  1.0
  Pd  Pd7  1  0.54872735  0.25000000  0.20880173  1.0
  Pd  Pd8  1  0.82849341  0.75000000  0.06016782  1.0
  Pd  Pd9  1  0.32849341  0.75000000  0.43983218  1.0
  Pd  Pd10  1  0.17150659  0.25000000  0.93983218  1.0
  Pd  Pd11  1  0.67150659  0.25000000  0.56016782  1.0
