# generated using pymatgen
data_PrTiO3
_symmetry_space_group_name_H-M   'P 1'
_cell_length_a   5.58226547
_cell_length_b   5.58226547
_cell_length_c   5.58226547
_cell_angle_alpha   120.83254471
_cell_angle_beta   120.83254471
_cell_angle_gamma   88.56393926
_symmetry_Int_Tables_number   1
_chemical_formula_structural   PrTiO3
_chemical_formula_sum   'Pr2 Ti2 O6'
_cell_volume   121.41397378
_cell_formula_units_Z   2
loop_
 _symmetry_equiv_pos_site_id
 _symmetry_equiv_pos_as_xyz
  1  'x, y, z'
loop_
 _atom_site_type_symbol
 _atom_site_label
 _atom_site_symmetry_multiplicity
 _atom_site_fract_x
 _atom_site_fract_y
 _atom_site_fract_z
 _atom_site_occupancy
  Pr  Pr0  1  0.75000000  0.25000000  0.50000000  1.0
  Pr  Pr1  1  0.25000000  0.75000000  0.50000000  1.0
  Ti  Ti2  1  0.50000000  0.50000000  0.00000000  1.0
  Ti  Ti3  1  0.00000000  0.00000000  0.00000000  1.0
  O  O4  1  0.79865110  0.29865110  1.09730221  1.0
  O  O5  1  0.70134890  0.79865110  0.50000000  1.0
  O  O6  1  0.29865110  0.20134890  0.50000000  1.0
  O  O7  1  1.20134890  0.70134890  0.90269779  1.0
  O  O8  1  0.25000000  0.25000000  0.00000000  1.0
  O  O9  1  0.75000000  0.75000000  0.00000000  1.0
