# generated using pymatgen
data_RbMg4Mn6O15
_symmetry_space_group_name_H-M   'P 1'
_cell_length_a   7.22199826
_cell_length_b   7.22199826
_cell_length_c   7.22199826
_cell_angle_alpha   109.47122063
_cell_angle_beta   109.47122063
_cell_angle_gamma   109.47122063
_symmetry_Int_Tables_number   1
_chemical_formula_structural   RbMg4Mn6O15
_chemical_formula_sum   'Rb1 Mg4 Mn6 O15'
_cell_volume   289.96811670
_cell_formula_units_Z   1
loop_
 _symmetry_equiv_pos_site_id
 _symmetry_equiv_pos_as_xyz
  1  'x, y, z'
loop_
 _atom_site_type_symbol
 _atom_site_label
 _atom_site_symmetry_multiplicity
 _atom_site_fract_x
 _atom_site_fract_y
 _atom_site_fract_z
 _atom_site_occupancy
  Rb  Rb0  1  0.00000000  0.00000000  0.00000000  1.0
  Mg  Mg1  1  1.00000000  1.00000000  0.50000000  1.0
  Mg  Mg2  1  1.00000000  1.50000000  1.00000000  1.0
  Mg  Mg3  1  1.50000000  1.00000000  1.00000000  1.0
  Mg  Mg4  1  0.50000000  0.50000000  0.50000000  1.0
  Mn  Mn5  1  0.25000000  0.50000000  0.75000000  1.0
  Mn  Mn6  1  0.50000000  0.75000000  0.25000000  1.0
  Mn  Mn7  1  1.25000000  0.75000000  0.50000000  1.0
  Mn  Mn8  1  0.75000000  1.25000000  0.50000000  1.0
  Mn  Mn9  1  0.50000000  0.25000000  0.75000000  1.0
  Mn  Mn10  1  0.75000000  0.50000000  0.25000000  1.0
  O  O11  1  0.27019439  0.27019439  0.54038879  1.0
  O  O12  1  0.72980561  1.00000000  0.27019439  1.0
  O  O13  1  1.00000000  0.72980561  0.27019439  1.0
  O  O14  1  0.72980561  1.27019439  1.00000000  1.0
  O  O15  1  1.27019439  1.54038879  1.27019439  1.0
  O  O16  1  1.00000000  1.27019439  0.72980561  1.0
  O  O17  1  1.27019439  0.72980561  1.00000000  1.0
  O  O18  1  1.27019439  1.00000000  0.72980561  1.0
  O  O19  1  1.54038879  1.27019439  1.27019439  1.0
  O  O20  1  0.72980561  0.72980561  0.45961121  1.0
  O  O21  1  0.72980561  0.45961121  0.72980561  1.0
  O  O22  1  0.45961121  0.72980561  0.72980561  1.0
  O  O23  1  0.50000000  0.50000000  0.00000000  1.0
  O  O24  1  0.50000000  0.00000000  0.50000000  1.0
  O  O25  1  0.00000000  0.50000000  0.50000000  1.0
