# generated using pymatgen
data_AlTeH6C2Cl3
_symmetry_space_group_name_H-M   'P 1'
_cell_length_a   6.75734578
_cell_length_b   13.88214022
_cell_length_c   11.09672671
_cell_angle_alpha   90.00000000
_cell_angle_beta   90.00000000
_cell_angle_gamma   90.00000000
_symmetry_Int_Tables_number   1
_chemical_formula_structural   AlTeH6C2Cl3
_chemical_formula_sum   'Al4 Te4 H24 C8 Cl12'
_cell_volume   1040.94422488
_cell_formula_units_Z   4
loop_
 _symmetry_equiv_pos_site_id
 _symmetry_equiv_pos_as_xyz
  1  'x, y, z'
loop_
 _atom_site_type_symbol
 _atom_site_label
 _atom_site_symmetry_multiplicity
 _atom_site_fract_x
 _atom_site_fract_y
 _atom_site_fract_z
 _atom_site_occupancy
  Al  Al0  1  0.54986487  0.56581673  0.25000000  1.0
  Al  Al1  1  0.45013513  0.43418327  0.75000000  1.0
  Al  Al2  1  0.54986487  0.93418327  0.75000000  1.0
  Al  Al3  1  0.45013513  0.06581673  0.25000000  1.0
  Te  Te4  1  0.62860116  0.37255512  0.25000000  1.0
  Te  Te5  1  0.37139884  0.62744488  0.75000000  1.0
  Te  Te6  1  0.62860116  0.12744488  0.75000000  1.0
  Te  Te7  1  0.37139884  0.87255512  0.25000000  1.0
  H  H8  1  0.94993545  0.42927875  0.37974762  1.0
  H  H9  1  0.05006455  0.57072125  0.87974762  1.0
  H  H10  1  0.94993545  0.07072125  0.62025238  1.0
  H  H11  1  0.05006455  0.92927875  0.12025238  1.0
  H  H12  1  0.05006455  0.57072125  0.62025238  1.0
  H  H13  1  0.94993545  0.42927875  0.12025238  1.0
  H  H14  1  0.05006455  0.92927875  0.37974762  1.0
  H  H15  1  0.94993545  0.07072125  0.87974762  1.0
  H  H16  1  0.76537008  0.37847261  0.47839050  1.0
  H  H17  1  0.23462992  0.62152739  0.97839050  1.0
  H  H18  1  0.76537008  0.12152739  0.52160950  1.0
  H  H19  1  0.23462992  0.87847261  0.02160950  1.0
  H  H20  1  0.23462992  0.62152739  0.52160950  1.0
  H  H21  1  0.76537008  0.37847261  0.02160950  1.0
  H  H22  1  0.23462992  0.87847261  0.47839050  1.0
  H  H23  1  0.76537008  0.12152739  0.97839050  1.0
  H  H24  1  0.91926582  0.29986804  0.38857283  1.0
  H  H25  1  0.08073418  0.70013196  0.88857283  1.0
  H  H26  1  0.91926582  0.20013196  0.61142717  1.0
  H  H27  1  0.08073418  0.79986804  0.11142717  1.0
  H  H28  1  0.08073418  0.70013196  0.61142717  1.0
  H  H29  1  0.91926582  0.29986804  0.11142717  1.0
  H  H30  1  0.08073418  0.79986804  0.38857283  1.0
  H  H31  1  0.91926582  0.20013196  0.88857283  1.0
  C  C32  1  0.84593147  0.37002600  0.39357609  1.0
  C  C33  1  0.15406853  0.62997400  0.89357609  1.0
  C  C34  1  0.84593147  0.12997400  0.60642391  1.0
  C  C35  1  0.15406853  0.87002600  0.10642391  1.0
  C  C36  1  0.15406853  0.62997400  0.60642391  1.0
  C  C37  1  0.84593147  0.37002600  0.10642391  1.0
  C  C38  1  0.15406853  0.87002600  0.39357609  1.0
  C  C39  1  0.84593147  0.12997400  0.89357609  1.0
  Cl  Cl40  1  0.23213106  0.57557460  0.25000000  1.0
  Cl  Cl41  1  0.76786894  0.42442540  0.75000000  1.0
  Cl  Cl42  1  0.23213106  0.92442540  0.75000000  1.0
  Cl  Cl43  1  0.76786894  0.07557460  0.25000000  1.0
  Cl  Cl44  1  0.67478990  0.62295625  0.08761288  1.0
  Cl  Cl45  1  0.32521010  0.37704375  0.58761288  1.0
  Cl  Cl46  1  0.67478990  0.87704375  0.91238712  1.0
  Cl  Cl47  1  0.32521010  0.12295625  0.41238712  1.0
  Cl  Cl48  1  0.32521010  0.37704375  0.91238712  1.0
  Cl  Cl49  1  0.67478990  0.62295625  0.41238712  1.0
  Cl  Cl50  1  0.32521010  0.12295625  0.08761288  1.0
  Cl  Cl51  1  0.67478990  0.87704375  0.58761288  1.0
