# generated using pymatgen
data_Sr2Co(ClO)2
_symmetry_space_group_name_H-M   'P 1'
_cell_length_a   8.30635805
_cell_length_b   8.30635805
_cell_length_c   8.30635805
_cell_angle_alpha   151.89543903
_cell_angle_beta   151.89543903
_cell_angle_gamma   40.16601588
_symmetry_Int_Tables_number   1
_chemical_formula_structural   Sr2Co(ClO)2
_chemical_formula_sum   'Sr2 Co1 Cl2 O2'
_cell_volume   126.93202173
_cell_formula_units_Z   1
loop_
 _symmetry_equiv_pos_site_id
 _symmetry_equiv_pos_as_xyz
  1  'x, y, z'
loop_
 _atom_site_type_symbol
 _atom_site_label
 _atom_site_symmetry_multiplicity
 _atom_site_fract_x
 _atom_site_fract_y
 _atom_site_fract_z
 _atom_site_occupancy
  Sr  Sr0  1  0.60565865  0.60565865  1.00000000  1.0
  Sr  Sr1  1  0.39434135  0.39434135  -0.00000000  1.0
  Co  Co2  1  0.00000000  0.00000000  0.00000000  1.0
  Cl  Cl3  1  0.82175621  0.82175621  1.00000000  1.0
  Cl  Cl4  1  0.17824379  0.17824379  -0.00000000  1.0
  O  O5  1  0.50000000  0.00000000  0.50000000  1.0
  O  O6  1  0.00000000  0.50000000  0.50000000  1.0
