# generated using pymatgen
data_K3Nb3Si2O13
_symmetry_space_group_name_H-M   'P 1'
_cell_length_a   9.20305880
_cell_length_b   9.20305880
_cell_length_c   7.89927176
_cell_angle_alpha   90.00000000
_cell_angle_beta   90.00000000
_cell_angle_gamma   120.00000000
_symmetry_Int_Tables_number   1
_chemical_formula_structural   K3Nb3Si2O13
_chemical_formula_sum   'K6 Nb6 Si4 O26'
_cell_volume   579.40478917
_cell_formula_units_Z   2
loop_
 _symmetry_equiv_pos_site_id
 _symmetry_equiv_pos_as_xyz
  1  'x, y, z'
loop_
 _atom_site_type_symbol
 _atom_site_label
 _atom_site_symmetry_multiplicity
 _atom_site_fract_x
 _atom_site_fract_y
 _atom_site_fract_z
 _atom_site_occupancy
  K  K0  1  0.61581698  0.58569599  0.25000000  1.0
  K  K1  1  0.58569599  0.61581698  0.75000000  1.0
  K  K2  1  0.96987901  0.38418302  0.25000000  1.0
  K  K3  1  0.41430401  0.03012099  0.25000000  1.0
  K  K4  1  0.38418302  0.96987901  0.75000000  1.0
  K  K5  1  0.03012099  0.41430401  0.75000000  1.0
  Nb  Nb6  1  0.23744732  0.23744732  0.50000000  1.0
  Nb  Nb7  1  0.23744732  0.23744732  0.00000000  1.0
  Nb  Nb8  1  0.00000000  0.76255268  0.50000000  1.0
  Nb  Nb9  1  0.00000000  0.76255268  0.00000000  1.0
  Nb  Nb10  1  0.76255268  0.00000000  0.50000000  1.0
  Nb  Nb11  1  0.76255268  0.00000000  0.00000000  1.0
  Si  Si12  1  0.33333333  0.66666667  0.45714753  1.0
  Si  Si13  1  0.33333333  0.66666667  0.04285247  1.0
  Si  Si14  1  0.66666667  0.33333333  0.95714753  1.0
  Si  Si15  1  0.66666667  0.33333333  0.54285247  1.0
  O  O16  1  0.81856530  0.51353112  0.47854641  1.0
  O  O17  1  0.81856530  0.51353112  0.02145359  1.0
  O  O18  1  0.51353112  0.81856530  0.97854641  1.0
  O  O19  1  0.51353112  0.81856530  0.52145359  1.0
  O  O20  1  0.69496582  0.18143470  0.47854641  1.0
  O  O21  1  0.69496582  0.18143470  0.02145359  1.0
  O  O22  1  0.48646888  0.30503418  0.47854641  1.0
  O  O23  1  0.48646888  0.30503418  0.02145359  1.0
  O  O24  1  0.18143470  0.69496582  0.97854641  1.0
  O  O25  1  0.18143470  0.69496582  0.52145359  1.0
  O  O26  1  0.30503418  0.48646888  0.97854641  1.0
  O  O27  1  0.30503418  0.48646888  0.52145359  1.0
  O  O28  1  0.01312564  0.75499516  0.25000000  1.0
  O  O29  1  0.75499516  0.01312564  0.75000000  1.0
  O  O30  1  0.74186952  0.98687436  0.25000000  1.0
  O  O31  1  0.24500484  0.25813048  0.25000000  1.0
  O  O32  1  0.98687436  0.74186952  0.75000000  1.0
  O  O33  1  0.25813048  0.24500484  0.75000000  1.0
  O  O34  1  0.82618919  0.82618919  0.50000000  1.0
  O  O35  1  0.82618919  0.82618919  0.00000000  1.0
  O  O36  1  0.00000000  0.17381081  0.50000000  1.0
  O  O37  1  0.00000000  0.17381081  0.00000000  1.0
  O  O38  1  0.17381081  0.00000000  0.50000000  1.0
  O  O39  1  0.17381081  0.00000000  0.00000000  1.0
  O  O40  1  0.33333333  0.66666667  0.25000000  1.0
  O  O41  1  0.66666667  0.33333333  0.75000000  1.0
