# generated using pymatgen
data_Li4Al3Ge3BrO12
_symmetry_space_group_name_H-M   'P 1'
_cell_length_a   8.75063569
_cell_length_b   8.75063569
_cell_length_c   8.75063569
_cell_angle_alpha   90.00000000
_cell_angle_beta   90.00000000
_cell_angle_gamma   90.00000000
_symmetry_Int_Tables_number   1
_chemical_formula_structural   Li4Al3Ge3BrO12
_chemical_formula_sum   'Li8 Al6 Ge6 Br2 O24'
_cell_volume   670.06789640
_cell_formula_units_Z   2
loop_
 _symmetry_equiv_pos_site_id
 _symmetry_equiv_pos_as_xyz
  1  'x, y, z'
loop_
 _atom_site_type_symbol
 _atom_site_label
 _atom_site_symmetry_multiplicity
 _atom_site_fract_x
 _atom_site_fract_y
 _atom_site_fract_z
 _atom_site_occupancy
  Li  Li0  1  0.32047521  0.32047521  0.67952479  1.0
  Li  Li1  1  0.32047521  0.67952479  0.32047521  1.0
  Li  Li2  1  0.82047521  0.82047521  0.17952479  1.0
  Li  Li3  1  0.82047521  0.17952479  0.82047521  1.0
  Li  Li4  1  0.67952479  0.32047521  0.32047521  1.0
  Li  Li5  1  0.67952479  0.67952479  0.67952479  1.0
  Li  Li6  1  0.17952479  0.82047521  0.82047521  1.0
  Li  Li7  1  0.17952479  0.17952479  0.17952479  1.0
  Al  Al8  1  0.25000000  0.50000000  0.00000000  1.0
  Al  Al9  1  0.75000000  0.50000000  0.00000000  1.0
  Al  Al10  1  0.00000000  0.25000000  0.50000000  1.0
  Al  Al11  1  0.00000000  0.75000000  0.50000000  1.0
  Al  Al12  1  0.50000000  0.00000000  0.25000000  1.0
  Al  Al13  1  0.50000000  0.00000000  0.75000000  1.0
  Ge  Ge14  1  0.25000000  0.00000000  0.50000000  1.0
  Ge  Ge15  1  0.75000000  0.00000000  0.50000000  1.0
  Ge  Ge16  1  0.50000000  0.25000000  0.00000000  1.0
  Ge  Ge17  1  0.50000000  0.75000000  0.00000000  1.0
  Ge  Ge18  1  0.00000000  0.50000000  0.25000000  1.0
  Ge  Ge19  1  0.00000000  0.50000000  0.75000000  1.0
  Br  Br20  1  0.50000000  0.50000000  0.50000000  1.0
  Br  Br21  1  0.00000000  0.00000000  0.00000000  1.0
  O  O22  1  0.36122677  0.09702392  0.63838136  1.0
  O  O23  1  0.36122677  0.90297608  0.36161864  1.0
  O  O24  1  0.86122677  0.86161864  0.40297608  1.0
  O  O25  1  0.86122677  0.13838136  0.59702392  1.0
  O  O26  1  0.36161864  0.36122677  0.90297608  1.0
  O  O27  1  0.36161864  0.63877323  0.09702392  1.0
  O  O28  1  0.86161864  0.59702392  0.13877323  1.0
  O  O29  1  0.86161864  0.40297608  0.86122677  1.0
  O  O30  1  0.09702392  0.36161864  0.63877323  1.0
  O  O31  1  0.09702392  0.63838136  0.36122677  1.0
  O  O32  1  0.59702392  0.86122677  0.13838136  1.0
  O  O33  1  0.59702392  0.13877323  0.86161864  1.0
  O  O34  1  0.63877323  0.09702392  0.36161864  1.0
  O  O35  1  0.63877323  0.90297608  0.63838136  1.0
  O  O36  1  0.13877323  0.86161864  0.59702392  1.0
  O  O37  1  0.13877323  0.13838136  0.40297608  1.0
  O  O38  1  0.63838136  0.36122677  0.09702392  1.0
  O  O39  1  0.63838136  0.63877323  0.90297608  1.0
  O  O40  1  0.13838136  0.59702392  0.86122677  1.0
  O  O41  1  0.13838136  0.40297608  0.13877323  1.0
  O  O42  1  0.90297608  0.36161864  0.36122677  1.0
  O  O43  1  0.90297608  0.63838136  0.63877323  1.0
  O  O44  1  0.40297608  0.86122677  0.86161864  1.0
  O  O45  1  0.40297608  0.13877323  0.13838136  1.0
