# generated using pymatgen
data_K2Be2Cu(O3F4)2
_symmetry_space_group_name_H-M   'P 1'
_cell_length_a   6.07862224
_cell_length_b   11.62004686
_cell_length_c   8.16327845
_cell_angle_alpha   90.00000000
_cell_angle_beta   103.80327550
_cell_angle_gamma   90.00000000
_symmetry_Int_Tables_number   1
_chemical_formula_structural   K2Be2Cu(O3F4)2
_chemical_formula_sum   'K4 Be4 Cu2 O12 F16'
_cell_volume   559.95203822
_cell_formula_units_Z   2
loop_
 _symmetry_equiv_pos_site_id
 _symmetry_equiv_pos_as_xyz
  1  'x, y, z'
loop_
 _atom_site_type_symbol
 _atom_site_label
 _atom_site_symmetry_multiplicity
 _atom_site_fract_x
 _atom_site_fract_y
 _atom_site_fract_z
 _atom_site_occupancy
  K  K0  1  0.69272933  0.14396220  0.43511665  1.0
  K  K1  1  0.69272933  0.35603780  0.93511665  1.0
  K  K2  1  0.30727067  0.64396220  0.06488335  1.0
  K  K3  1  0.30727067  0.85603780  0.56488335  1.0
  Be  Be4  1  0.71403781  0.84931143  0.35196516  1.0
  Be  Be5  1  0.71403781  0.65068857  0.85196516  1.0
  Be  Be6  1  0.28596219  0.34931143  0.14803484  1.0
  Be  Be7  1  0.28596219  0.15068857  0.64803484  1.0
  Cu  Cu8  1  0.00000000  0.00000000  0.00000000  1.0
  Cu  Cu9  1  0.00000000  0.50000000  0.50000000  1.0
  O  O10  1  0.66207683  0.92056838  -0.04228634  1.0
  O  O11  1  0.66207683  0.57943162  0.45771366  1.0
  O  O12  1  0.33792317  0.42056838  0.54228634  1.0
  O  O13  1  0.33792317  0.07943162  1.04228634  1.0
  O  O14  1  0.10265695  0.61385385  0.38755241  1.0
  O  O15  1  0.10265695  0.88614615  0.88755241  1.0
  O  O16  1  0.89734305  0.11385385  0.11244759  1.0
  O  O17  1  0.89734305  0.38614615  0.61244759  1.0
  O  O18  1  0.14816865  0.89583355  0.15184118  1.0
  O  O19  1  0.14816865  0.60416645  0.65184118  1.0
  O  O20  1  0.85183135  0.39583355  0.34815882  1.0
  O  O21  1  0.85183135  0.10416645  0.84815882  1.0
  F  F22  1  0.53875682  0.74957912  0.34448733  1.0
  F  F23  1  0.53875682  0.75042088  0.84448733  1.0
  F  F24  1  0.46124318  0.24957912  0.15551267  1.0
  F  F25  1  0.46124318  0.25042088  0.65551267  1.0
  F  F26  1  0.60845025  0.94218972  0.19955903  1.0
  F  F27  1  0.60845025  0.55781028  0.69955903  1.0
  F  F28  1  0.39154975  0.44218972  0.30044097  1.0
  F  F29  1  0.39154975  0.05781028  0.80044097  1.0
  F  F30  1  0.73737891  0.57858273  0.01055118  1.0
  F  F31  1  0.73737891  0.92141727  0.51055118  1.0
  F  F32  1  0.26262109  0.07858273  0.48944882  1.0
  F  F33  1  0.26262109  0.42141727  0.98944882  1.0
  F  F34  1  0.93984743  0.80333919  0.32038054  1.0
  F  F35  1  0.93984743  0.69666081  0.82038054  1.0
  F  F36  1  0.06015257  0.30333919  0.17961946  1.0
  F  F37  1  0.06015257  0.19666081  0.67961946  1.0
