# generated using pymatgen
data_LaCu3Se2BrO8
_symmetry_space_group_name_H-M   'P 1'
_cell_length_a   6.49729967
_cell_length_b   9.88750896
_cell_length_c   7.26222787
_cell_angle_alpha   90.00000000
_cell_angle_beta   90.00000000
_cell_angle_gamma   90.00000000
_symmetry_Int_Tables_number   1
_chemical_formula_structural   LaCu3Se2BrO8
_chemical_formula_sum   'La2 Cu6 Se4 Br2 O16'
_cell_volume   466.54083237
_cell_formula_units_Z   2
loop_
 _symmetry_equiv_pos_site_id
 _symmetry_equiv_pos_as_xyz
  1  'x, y, z'
loop_
 _atom_site_type_symbol
 _atom_site_label
 _atom_site_symmetry_multiplicity
 _atom_site_fract_x
 _atom_site_fract_y
 _atom_site_fract_z
 _atom_site_occupancy
  O  O0  1  0.79157540  0.33191166  0.25568947  1.0
  O  O1  1  0.20842460  0.33191166  0.25568947  1.0
  O  O2  1  0.79157540  0.66808834  0.25568947  1.0
  O  O3  1  0.20842460  0.66808834  0.25568947  1.0
  O  O4  1  0.70842460  0.16808834  0.74431053  1.0
  O  O5  1  0.29157540  0.16808834  0.74431053  1.0
  O  O6  1  0.70842460  0.83191166  0.74431053  1.0
  O  O7  1  0.29157540  0.83191166  0.74431053  1.0
  O  O8  1  0.00000000  0.87222726  0.41401456  1.0
  O  O9  1  0.00000000  0.12777274  0.41401456  1.0
  O  O10  1  0.50000000  0.62777274  0.58598544  1.0
  O  O11  1  0.50000000  0.37222726  0.58598544  1.0
  O  O12  1  0.00000000  0.85904444  0.00746161  1.0
  O  O13  1  0.00000000  0.14095556  0.00746161  1.0
  O  O14  1  0.50000000  0.64095556  0.99253839  1.0
  O  O15  1  0.50000000  0.35904444  0.99253839  1.0
  Cu  Cu16  1  0.75000000  0.75000000  0.00000000  1.0
  Cu  Cu17  1  0.25000000  0.75000000  0.00000000  1.0
  Cu  Cu18  1  0.75000000  0.25000000  0.00000000  1.0
  Cu  Cu19  1  0.25000000  0.25000000  0.00000000  1.0
  Cu  Cu20  1  0.00000000  0.00000000  0.19889830  1.0
  Cu  Cu21  1  0.50000000  0.50000000  0.80110170  1.0
  Se  Se22  1  0.00000000  0.30180104  0.39813388  1.0
  Se  Se23  1  0.00000000  0.69819896  0.39813388  1.0
  Se  Se24  1  0.50000000  0.19819896  0.60186612  1.0
  Se  Se25  1  0.50000000  0.80180104  0.60186612  1.0
  Br  Br26  1  0.00000000  0.50000000  0.84284774  1.0
  Br  Br27  1  0.50000000  0.00000000  0.15715226  1.0
  La  La28  1  0.00000000  0.00000000  0.73348022  1.0
  La  La29  1  0.50000000  0.50000000  0.26651978  1.0
