# generated using pymatgen
data_BPb2O3F
_symmetry_space_group_name_H-M   'P 1'
_cell_length_a   7.43325641
_cell_length_b   7.43325641
_cell_length_c   15.01789471
_cell_angle_alpha   90.00000000
_cell_angle_beta   90.00000000
_cell_angle_gamma   120.00000000
_symmetry_Int_Tables_number   1
_chemical_formula_structural   BPb2O3F
_chemical_formula_sum   'B6 Pb12 O18 F6'
_cell_volume   718.61770839
_cell_formula_units_Z   6
loop_
 _symmetry_equiv_pos_site_id
 _symmetry_equiv_pos_as_xyz
  1  'x, y, z'
loop_
 _atom_site_type_symbol
 _atom_site_label
 _atom_site_symmetry_multiplicity
 _atom_site_fract_x
 _atom_site_fract_y
 _atom_site_fract_z
 _atom_site_occupancy
  B  B0  1  0.36399409  0.99622065  0.25000000  1.0
  B  B1  1  0.99622065  0.63222656  0.75000000  1.0
  B  B2  1  0.63222656  0.63600591  0.25000000  1.0
  B  B3  1  0.00377935  0.36777344  0.25000000  1.0
  B  B4  1  0.63600591  0.00377935  0.75000000  1.0
  B  B5  1  0.36777344  0.36399409  0.75000000  1.0
  Pb  Pb6  1  0.01959014  0.69386249  0.39106787  1.0
  Pb  Pb7  1  0.01959014  0.69386249  0.10893213  1.0
  Pb  Pb8  1  0.69386249  0.67427235  0.89106787  1.0
  Pb  Pb9  1  0.69386249  0.67427235  0.60893213  1.0
  Pb  Pb10  1  0.67427235  0.98040986  0.39106787  1.0
  Pb  Pb11  1  0.67427235  0.98040986  0.10893213  1.0
  Pb  Pb12  1  0.30613751  0.32572765  0.39106787  1.0
  Pb  Pb13  1  0.30613751  0.32572765  0.10893213  1.0
  Pb  Pb14  1  0.98040986  0.30613751  0.89106787  1.0
  Pb  Pb15  1  0.98040986  0.30613751  0.60893213  1.0
  Pb  Pb16  1  0.32572765  0.01959014  0.89106787  1.0
  Pb  Pb17  1  0.32572765  0.01959014  0.60893213  1.0
  O  O18  1  0.27835477  1.00136129  0.33145638  1.0
  O  O19  1  0.27835477  1.00136129  0.16854362  1.0
  O  O20  1  1.00136129  0.72300652  0.83145638  1.0
  O  O21  1  1.00136129  0.72300652  0.66854362  1.0
  O  O22  1  0.72300652  0.72164523  0.33145638  1.0
  O  O23  1  0.72300652  0.72164523  0.16854362  1.0
  O  O24  1  -0.00136129  0.27699348  0.33145638  1.0
  O  O25  1  -0.00136129  0.27699348  0.16854362  1.0
  O  O26  1  0.72164523  -0.00136129  0.83145638  1.0
  O  O27  1  0.72164523  -0.00136129  0.66854362  1.0
  O  O28  1  0.27699348  0.27835477  0.83145638  1.0
  O  O29  1  0.27699348  0.27835477  0.66854362  1.0
  O  O30  1  0.54682785  0.98823791  0.25000000  1.0
  O  O31  1  0.98823791  0.44141007  0.75000000  1.0
  O  O32  1  0.44141007  0.45317215  0.25000000  1.0
  O  O33  1  0.01176209  0.55858993  0.25000000  1.0
  O  O34  1  0.45317215  0.01176209  0.75000000  1.0
  O  O35  1  0.55858993  0.54682785  0.75000000  1.0
  F  F36  1  0.33333333  0.66666667  0.44289591  1.0
  F  F37  1  0.33333333  0.66666667  0.05710409  1.0
  F  F38  1  0.66666667  0.33333333  0.94289591  1.0
  F  F39  1  0.66666667  0.33333333  0.55710409  1.0
  F  F40  1  0.00000000  0.00000000  0.50000000  1.0
  F  F41  1  -0.00000000  -0.00000000  0.00000000  1.0
