# generated using pymatgen
data_K3GdV2O8
_symmetry_space_group_name_H-M   'P 1'
_cell_length_a   7.84790942
_cell_length_b   6.03865076
_cell_length_c   9.96213211
_cell_angle_alpha   90.00000000
_cell_angle_beta   91.80062729
_cell_angle_gamma   90.00000000
_symmetry_Int_Tables_number   1
_chemical_formula_structural   K3GdV2O8
_chemical_formula_sum   'K6 Gd2 V4 O16'
_cell_volume   471.88013069
_cell_formula_units_Z   2
loop_
 _symmetry_equiv_pos_site_id
 _symmetry_equiv_pos_as_xyz
  1  'x, y, z'
loop_
 _atom_site_type_symbol
 _atom_site_label
 _atom_site_symmetry_multiplicity
 _atom_site_fract_x
 _atom_site_fract_y
 _atom_site_fract_z
 _atom_site_occupancy
  K  K0  1  0.81303986  0.25000000  0.56764902  1.0
  K  K1  1  0.18696014  0.75000000  0.43235098  1.0
  K  K2  1  0.29399753  0.25000000  0.92441955  1.0
  K  K3  1  0.70600247  0.75000000  0.07558045  1.0
  K  K4  1  -0.00370648  0.25000000  0.20709969  1.0
  K  K5  1  1.00370648  0.75000000  0.79290031  1.0
  Gd  Gd6  1  0.51520135  0.25000000  0.26801210  1.0
  Gd  Gd7  1  0.48479865  0.75000000  0.73198790  1.0
  V  V8  1  0.73919513  0.25000000  0.90139426  1.0
  V  V9  1  0.26080487  0.75000000  0.09860574  1.0
  V  V10  1  0.28918088  0.25000000  0.58069792  1.0
  V  V11  1  0.71081912  0.75000000  0.41930208  1.0
  O  O12  1  0.67991764  0.48737285  0.81165186  1.0
  O  O13  1  0.67991764  0.01262715  0.81165186  1.0
  O  O14  1  0.32008236  0.98737285  0.18834814  1.0
  O  O15  1  0.32008236  0.51262715  0.18834814  1.0
  O  O16  1  0.27939015  0.48524702  0.68269868  1.0
  O  O17  1  0.27939015  0.01475298  0.68269868  1.0
  O  O18  1  0.72060985  0.98524702  0.31730132  1.0
  O  O19  1  0.72060985  0.51475298  0.31730132  1.0
  O  O20  1  0.95227341  0.25000000  0.92357591  1.0
  O  O21  1  0.04772659  0.75000000  0.07642409  1.0
  O  O22  1  0.64312838  0.25000000  0.05587109  1.0
  O  O23  1  0.35687162  0.75000000  0.94412891  1.0
  O  O24  1  0.47438653  0.25000000  0.49345030  1.0
  O  O25  1  0.52561347  0.75000000  0.50654970  1.0
  O  O26  1  0.12535242  0.25000000  0.46767132  1.0
  O  O27  1  0.87464758  0.75000000  0.53232868  1.0
