# generated using pymatgen
data_ZnS
_symmetry_space_group_name_H-M   'P 1'
_cell_length_a   3.84929527
_cell_length_b   3.84929527
_cell_length_c   44.05589740
_cell_angle_alpha   90.00000000
_cell_angle_beta   90.00000000
_cell_angle_gamma   120.00000000
_symmetry_Int_Tables_number   1
_chemical_formula_structural   ZnS
_chemical_formula_sum   'Zn14 S14'
_cell_volume   565.32362459
_cell_formula_units_Z   14
loop_
 _symmetry_equiv_pos_site_id
 _symmetry_equiv_pos_as_xyz
  1  'x, y, z'
loop_
 _atom_site_type_symbol
 _atom_site_label
 _atom_site_symmetry_multiplicity
 _atom_site_fract_x
 _atom_site_fract_y
 _atom_site_fract_z
 _atom_site_occupancy
  Zn  Zn0  1  0.00000000  0.00000000  0.16072268  1.0
  Zn  Zn1  1  0.00000000  0.00000000  0.44643803  1.0
  Zn  Zn2  1  0.00000000  0.00000000  0.73210702  1.0
  Zn  Zn3  1  0.00000000  0.00000000  0.87505105  1.0
  Zn  Zn4  1  0.66666667  0.33333333  0.01787078  1.0
  Zn  Zn5  1  0.66666667  0.33333333  0.23210338  1.0
  Zn  Zn6  1  0.66666667  0.33333333  0.37505619  1.0
  Zn  Zn7  1  0.66666667  0.33333333  0.58930049  1.0
  Zn  Zn8  1  0.66666667  0.33333333  0.80357238  1.0
  Zn  Zn9  1  0.33333333  0.66666667  0.08935229  1.0
  Zn  Zn10  1  0.33333333  0.66666667  0.30357245  1.0
  Zn  Zn11  1  0.33333333  0.66666667  0.51782593  1.0
  Zn  Zn12  1  0.33333333  0.66666667  0.66076838  1.0
  Zn  Zn13  1  0.33333333  0.66666667  0.94639988  1.0
  S  S14  1  0.00000000  0.00000000  0.21425791  1.0
  S  S15  1  0.00000000  0.00000000  0.49997679  1.0
  S  S16  1  0.00000000  0.00000000  0.78562774  1.0
  S  S17  1  0.00000000  0.00000000  0.92856227  1.0
  S  S18  1  0.66666667  0.33333333  0.07149528  1.0
  S  S19  1  0.66666667  0.33333333  0.28562705  1.0
  S  S20  1  0.66666667  0.33333333  0.42857739  1.0
  S  S21  1  0.66666667  0.33333333  0.64291808  1.0
  S  S22  1  0.66666667  0.33333333  0.85719562  1.0
  S  S23  1  0.33333333  0.66666667  -0.00007652  1.0
  S  S24  1  0.33333333  0.66666667  0.14286953  1.0
  S  S25  1  0.33333333  0.66666667  0.35719740  1.0
  S  S26  1  0.33333333  0.66666667  0.57135442  1.0
  S  S27  1  0.33333333  0.66666667  0.71427611  1.0
