# generated using pymatgen
data_Sc2TeO6
_symmetry_space_group_name_H-M   'P 1'
_cell_length_a   8.93201862
_cell_length_b   8.93201862
_cell_length_c   4.87559857
_cell_angle_alpha   90.00000000
_cell_angle_beta   90.00000000
_cell_angle_gamma   120.00000000
_symmetry_Int_Tables_number   1
_chemical_formula_structural   Sc2TeO6
_chemical_formula_sum   'Sc6 Te3 O18'
_cell_volume   336.86649089
_cell_formula_units_Z   3
loop_
 _symmetry_equiv_pos_site_id
 _symmetry_equiv_pos_as_xyz
  1  'x, y, z'
loop_
 _atom_site_type_symbol
 _atom_site_label
 _atom_site_symmetry_multiplicity
 _atom_site_fract_x
 _atom_site_fract_y
 _atom_site_fract_z
 _atom_site_occupancy
  Sc  Sc0  1  0.70490591  0.70490591  0.50000000  1.0
  Sc  Sc1  1  0.00000000  0.29509409  0.50000000  1.0
  Sc  Sc2  1  0.29509409  -0.00000000  0.50000000  1.0
  Sc  Sc3  1  0.36943683  0.36943683  0.00000000  1.0
  Sc  Sc4  1  -0.00000000  0.63056317  0.00000000  1.0
  Sc  Sc5  1  0.63056317  0.00000000  -0.00000000  1.0
  Te  Te6  1  0.33333333  0.66666667  0.49631945  1.0
  Te  Te7  1  0.66666667  0.33333333  0.50368055  1.0
  Te  Te8  1  0.00000000  0.00000000  0.00000000  1.0
  O  O9  1  0.09257450  0.87787687  0.22223726  1.0
  O  O10  1  0.87787687  0.09257450  0.77776274  1.0
  O  O11  1  0.78530237  0.90742550  0.22223726  1.0
  O  O12  1  0.12212313  0.21469763  0.22223726  1.0
  O  O13  1  0.90742550  0.78530237  0.77776274  1.0
  O  O14  1  0.21469763  0.12212313  0.77776274  1.0
  O  O15  1  0.42155098  0.88037524  0.26897102  1.0
  O  O16  1  0.88037524  0.42155098  0.73102898  1.0
  O  O17  1  0.45882426  0.57844902  0.26897102  1.0
  O  O18  1  0.11962476  0.54117574  0.26897102  1.0
  O  O19  1  0.57844902  0.45882426  0.73102898  1.0
  O  O20  1  0.54117574  0.11962476  0.73102898  1.0
  O  O21  1  0.77882882  0.54857628  0.27706152  1.0
  O  O22  1  0.54857628  0.77882882  0.72293848  1.0
  O  O23  1  0.76974746  0.22117118  0.27706152  1.0
  O  O24  1  0.45142372  0.23025254  0.27706152  1.0
  O  O25  1  0.22117118  0.76974746  0.72293848  1.0
  O  O26  1  0.23025254  0.45142372  0.72293848  1.0
