# generated using pymatgen
data_KMgP
_symmetry_space_group_name_H-M   'P 1'
_cell_length_a   4.46138132
_cell_length_b   4.46138132
_cell_length_c   7.63608763
_cell_angle_alpha   90.00000000
_cell_angle_beta   90.00000000
_cell_angle_gamma   90.00000000
_symmetry_Int_Tables_number   1
_chemical_formula_structural   KMgP
_chemical_formula_sum   'K2 Mg2 P2'
_cell_volume   151.98810234
_cell_formula_units_Z   2
loop_
 _symmetry_equiv_pos_site_id
 _symmetry_equiv_pos_as_xyz
  1  'x, y, z'
loop_
 _atom_site_type_symbol
 _atom_site_label
 _atom_site_symmetry_multiplicity
 _atom_site_fract_x
 _atom_site_fract_y
 _atom_site_fract_z
 _atom_site_occupancy
  K  K0  1  0.50000000  0.00000000  0.64172003  1.0
  K  K1  1  0.00000000  0.50000000  0.35827997  1.0
  Mg  Mg2  1  0.00000000  0.00000000  0.00000000  1.0
  Mg  Mg3  1  0.50000000  0.50000000  0.00000000  1.0
  P  P4  1  0.50000000  0.00000000  0.18583145  1.0
  P  P5  1  0.00000000  0.50000000  0.81416855  1.0
