# generated using pymatgen
data_Ga2(SeO4)3
_symmetry_space_group_name_H-M   'P 1'
_cell_length_a   9.14235685
_cell_length_b   9.14235685
_cell_length_c   9.14235685
_cell_angle_alpha   55.49412591
_cell_angle_beta   55.49412591
_cell_angle_gamma   55.49412591
_symmetry_Int_Tables_number   1
_chemical_formula_structural   Ga2(SeO4)3
_chemical_formula_sum   'Ga4 Se6 O24'
_cell_volume   483.80064074
_cell_formula_units_Z   2
loop_
 _symmetry_equiv_pos_site_id
 _symmetry_equiv_pos_as_xyz
  1  'x, y, z'
loop_
 _atom_site_type_symbol
 _atom_site_label
 _atom_site_symmetry_multiplicity
 _atom_site_fract_x
 _atom_site_fract_y
 _atom_site_fract_z
 _atom_site_occupancy
  Ga  Ga0  1  0.14376418  0.14376418  0.14376418  1.0
  Ga  Ga1  1  0.85623582  -0.14376418  -0.14376418  1.0
  Ga  Ga2  1  0.34882248  0.34882248  -0.65117752  1.0
  Ga  Ga3  1  0.65117752  0.65117752  -0.34882248  1.0
  Se  Se4  1  0.54079190  0.24894435  -0.03722436  1.0
  Se  Se5  1  1.03722436  -0.54079190  -0.24894435  1.0
  Se  Se6  1  0.75105565  0.03722436  -0.54079190  1.0
  Se  Se7  1  0.45920810  -0.24894435  0.03722436  1.0
  Se  Se8  1  0.96277564  -0.45920810  0.24894435  1.0
  Se  Se9  1  1.24894435  -0.03722436  -0.45920810  1.0
  O  O10  1  0.20510188  0.97702124  -0.62133099  1.0
  O  O11  1  0.62133099  -0.20510188  0.02297876  1.0
  O  O12  1  1.02297876  -0.37866901  -0.20510188  1.0
  O  O13  1  0.79489812  0.02297876  -0.37866901  1.0
  O  O14  1  0.37866901  0.20510188  -0.02297876  1.0
  O  O15  1  0.97702124  0.37866901  -0.79489812  1.0
  O  O16  1  0.52318032  0.17917395  -0.50604090  1.0
  O  O17  1  0.50604090  0.47681968  -0.17917395  1.0
  O  O18  1  0.82082605  0.50604090  -0.52318032  1.0
  O  O19  1  0.47681968  0.82082605  -0.49395910  1.0
  O  O20  1  0.49395910  0.52318032  -0.82082605  1.0
  O  O21  1  0.17917395  0.49395910  -0.47681968  1.0
  O  O22  1  0.24156016  0.88974291  -0.86765238  1.0
  O  O23  1  0.86765238  -0.24156016  0.11025709  1.0
  O  O24  1  1.11025709  -0.13234762  -0.24156016  1.0
  O  O25  1  0.75843984  0.11025709  -0.13234762  1.0
  O  O26  1  0.13234762  0.24156016  -0.11025709  1.0
  O  O27  1  0.88974291  0.13234762  -0.75843984  1.0
  O  O28  1  0.52263156  0.20053214  0.17752546  1.0
  O  O29  1  0.82247454  -0.52263156  -0.20053214  1.0
  O  O30  1  0.79946786  -0.17752546  -0.52263156  1.0
  O  O31  1  0.47736844  -0.20053214  -0.17752546  1.0
  O  O32  1  1.17752546  -0.47736844  0.20053214  1.0
  O  O33  1  1.20053214  0.17752546  -0.47736844  1.0
