# generated using pymatgen
data_YCoSi2
_symmetry_space_group_name_H-M   'P 1'
_cell_length_a   8.36587139
_cell_length_b   8.36587139
_cell_length_c   3.97867398
_cell_angle_alpha   90.00000000
_cell_angle_beta   90.00000000
_cell_angle_gamma   152.11762181
_symmetry_Int_Tables_number   1
_chemical_formula_structural   YCoSi2
_chemical_formula_sum   'Y2 Co2 Si4'
_cell_volume   130.22341273
_cell_formula_units_Z   2
loop_
 _symmetry_equiv_pos_site_id
 _symmetry_equiv_pos_as_xyz
  1  'x, y, z'
loop_
 _atom_site_type_symbol
 _atom_site_label
 _atom_site_symmetry_multiplicity
 _atom_site_fract_x
 _atom_site_fract_y
 _atom_site_fract_z
 _atom_site_occupancy
  Y  Y0  1  0.39227877  0.60772123  0.75000000  1.0
  Y  Y1  1  -0.39227877  0.39227877  0.25000000  1.0
  Co  Co2  1  0.17939861  0.82060139  0.75000000  1.0
  Co  Co3  1  -0.17939861  0.17939861  0.25000000  1.0
  Si  Si4  1  0.04299395  0.95700605  0.75000000  1.0
  Si  Si5  1  -0.04299395  0.04299395  0.25000000  1.0
  Si  Si6  1  -0.25008153  0.25008153  0.75000000  1.0
  Si  Si7  1  0.25008153  0.74991847  0.25000000  1.0
