# generated using pymatgen
data_Gd2Mn3Co14
_symmetry_space_group_name_H-M   'P 1'
_cell_length_a   6.33943426
_cell_length_b   6.33943426
_cell_length_c   6.33943426
_cell_angle_alpha   82.28738938
_cell_angle_beta   82.28738938
_cell_angle_gamma   82.28738938
_symmetry_Int_Tables_number   1
_chemical_formula_structural   Gd2Mn3Co14
_chemical_formula_sum   'Gd2 Mn3 Co14'
_cell_volume   248.42569976
_cell_formula_units_Z   1
loop_
 _symmetry_equiv_pos_site_id
 _symmetry_equiv_pos_as_xyz
  1  'x, y, z'
loop_
 _atom_site_type_symbol
 _atom_site_label
 _atom_site_symmetry_multiplicity
 _atom_site_fract_x
 _atom_site_fract_y
 _atom_site_fract_z
 _atom_site_occupancy
  Gd  Gd0  1  0.66040500  0.66040500  -0.33959500  1.0
  Gd  Gd1  1  1.33959500  1.33959500  0.33959500  1.0
  Mn  Mn2  1  1.00000000  -0.00000000  -0.50000000  1.0
  Mn  Mn3  1  1.00000000  -0.50000000  0.00000000  1.0
  Mn  Mn4  1  1.50000000  1.00000000  -0.00000000  1.0
  Co  Co5  1  0.28884271  -0.28884271  0.00000000  1.0
  Co  Co6  1  0.71115729  -0.00000000  -0.71115729  1.0
  Co  Co7  1  1.00000000  0.28884271  -0.28884271  1.0
  Co  Co8  1  0.28884271  -0.00000000  -0.28884271  1.0
  Co  Co9  1  1.00000000  -0.28884271  0.28884271  1.0
  Co  Co10  1  0.71115729  -0.71115729  0.00000000  1.0
  Co  Co11  1  0.34442743  0.34442743  -0.16080175  1.0
  Co  Co12  1  0.34442743  0.83919825  -0.65557257  1.0
  Co  Co13  1  0.83919825  0.34442743  -0.65557257  1.0
  Co  Co14  1  0.65557257  -0.34442743  0.16080175  1.0
  Co  Co15  1  0.65557257  0.16080175  -0.34442743  1.0
  Co  Co16  1  0.16080175  0.65557257  -0.34442743  1.0
  Co  Co17  1  0.90672738  0.90672738  -0.09327262  1.0
  Co  Co18  1  1.09327262  1.09327262  0.09327262  1.0
