# generated using pymatgen
data_Ge5Ir4
_symmetry_space_group_name_H-M   'P 1'
_cell_length_a   5.67966039
_cell_length_b   5.67966039
_cell_length_c   18.53768679
_cell_angle_alpha   90.00000000
_cell_angle_beta   90.00000000
_cell_angle_gamma   90.00000000
_symmetry_Int_Tables_number   1
_chemical_formula_structural   Ge5Ir4
_chemical_formula_sum   'Ge20 Ir16'
_cell_volume   597.99875045
_cell_formula_units_Z   4
loop_
 _symmetry_equiv_pos_site_id
 _symmetry_equiv_pos_as_xyz
  1  'x, y, z'
loop_
 _atom_site_type_symbol
 _atom_site_label
 _atom_site_symmetry_multiplicity
 _atom_site_fract_x
 _atom_site_fract_y
 _atom_site_fract_z
 _atom_site_occupancy
  Ge  Ge0  1  0.22581351  0.85504257  0.64510494  1.0
  Ge  Ge1  1  0.77418649  0.85504257  0.14510494  1.0
  Ge  Ge2  1  0.14495743  0.77418649  0.85489506  1.0
  Ge  Ge3  1  0.85504257  0.77418649  0.35489506  1.0
  Ge  Ge4  1  0.22581351  0.14495743  0.14510494  1.0
  Ge  Ge5  1  0.77418649  0.14495743  0.64510494  1.0
  Ge  Ge6  1  0.14495743  0.22581351  0.35489506  1.0
  Ge  Ge7  1  0.85504257  0.22581351  0.85489506  1.0
  Ge  Ge8  1  0.19663841  0.65791416  0.05533020  1.0
  Ge  Ge9  1  0.80336159  0.65791416  0.55533020  1.0
  Ge  Ge10  1  0.34208584  0.80336159  0.44466980  1.0
  Ge  Ge11  1  0.65791416  0.80336159  0.94466980  1.0
  Ge  Ge12  1  0.19663841  0.34208584  0.55533020  1.0
  Ge  Ge13  1  0.80336159  0.34208584  0.05533020  1.0
  Ge  Ge14  1  0.34208584  0.19663841  0.94466980  1.0
  Ge  Ge15  1  0.65791416  0.19663841  0.44466980  1.0
  Ge  Ge16  1  0.32251148  0.67748852  0.25000000  1.0
  Ge  Ge17  1  0.67748852  0.67748852  0.75000000  1.0
  Ge  Ge18  1  0.32251148  0.32251148  0.75000000  1.0
  Ge  Ge19  1  0.67748852  0.32251148  0.25000000  1.0
  Ir  Ir20  1  0.50000000  0.00000000  0.05567014  1.0
  Ir  Ir21  1  0.50000000  0.00000000  0.55567014  1.0
  Ir  Ir22  1  0.00000000  0.50000000  0.44432986  1.0
  Ir  Ir23  1  0.00000000  0.50000000  0.94432986  1.0
  Ir  Ir24  1  0.50000000  0.00000000  0.32315822  1.0
  Ir  Ir25  1  0.50000000  0.00000000  0.82315822  1.0
  Ir  Ir26  1  0.00000000  0.50000000  0.17684178  1.0
  Ir  Ir27  1  0.00000000  0.50000000  0.67684178  1.0
  Ir  Ir28  1  0.50000000  0.50000000  0.13583238  1.0
  Ir  Ir29  1  0.50000000  0.50000000  0.63583238  1.0
  Ir  Ir30  1  0.50000000  0.50000000  0.36416762  1.0
  Ir  Ir31  1  0.50000000  0.50000000  0.86416762  1.0
  Ir  Ir32  1  0.00000000  0.00000000  0.00000000  1.0
  Ir  Ir33  1  0.00000000  0.00000000  0.50000000  1.0
  Ir  Ir34  1  0.00000000  0.00000000  0.25000000  1.0
  Ir  Ir35  1  0.00000000  0.00000000  0.75000000  1.0
