# generated using pymatgen
data_NaFe(GeO3)2
_symmetry_space_group_name_H-M   'P 1'
_cell_length_a   6.84403240
_cell_length_b   6.84403240
_cell_length_c   5.61651895
_cell_angle_alpha   76.44192724
_cell_angle_beta   103.55807276
_cell_angle_gamma   97.26230266
_symmetry_Int_Tables_number   1
_chemical_formula_structural   NaFe(GeO3)2
_chemical_formula_sum   'Na2 Fe2 Ge4 O12'
_cell_volume   247.91202653
_cell_formula_units_Z   2
loop_
 _symmetry_equiv_pos_site_id
 _symmetry_equiv_pos_as_xyz
  1  'x, y, z'
loop_
 _atom_site_type_symbol
 _atom_site_label
 _atom_site_symmetry_multiplicity
 _atom_site_fract_x
 _atom_site_fract_y
 _atom_site_fract_z
 _atom_site_occupancy
  Ge  Ge0  1  1.30649355  -0.12222565  0.27431583  1.0
  Ge  Ge1  1  1.12222565  -0.30649355  0.77431583  1.0
  Ge  Ge2  1  0.87777435  0.30649355  0.22568417  1.0
  Ge  Ge3  1  0.69350645  0.12222565  0.72568417  1.0
  O  O4  1  0.86227325  0.14117499  0.52201060  1.0
  O  O5  1  0.85882501  0.13772675  1.02201060  1.0
  O  O6  1  1.14117499  -0.13772675  -0.02201060  1.0
  O  O7  1  1.13772675  -0.14117499  0.47798940  1.0
  O  O8  1  1.47607947  -0.31424108  0.36984850  1.0
  O  O9  1  1.31424108  -0.47607947  0.86984850  1.0
  O  O10  1  0.68575892  0.47607947  0.13015150  1.0
  O  O11  1  0.52392053  0.31424108  0.63015150  1.0
  O  O12  1  0.41184391  0.12732267  0.21064252  1.0
  O  O13  1  0.87267733  0.58815609  0.71064252  1.0
  O  O14  1  1.12732267  -0.58815609  0.28935748  1.0
  O  O15  1  1.58815609  -0.12732267  0.78935748  1.0
  Na  Na16  1  0.79593529  0.79593529  0.25000000  1.0
  Na  Na17  1  0.20406471  0.20406471  0.75000000  1.0
  Fe  Fe18  1  0.39851936  0.39851936  0.25000000  1.0
  Fe  Fe19  1  0.60148064  0.60148064  0.75000000  1.0
