# generated using pymatgen
data_TaBRu
_symmetry_space_group_name_H-M   'P 1'
_cell_length_a   10.85016832
_cell_length_b   3.20176915
_cell_length_c   6.34029716
_cell_angle_alpha   90.00000000
_cell_angle_beta   90.00000000
_cell_angle_gamma   90.00000000
_symmetry_Int_Tables_number   1
_chemical_formula_structural   TaBRu
_chemical_formula_sum   'Ta6 B6 Ru6'
_cell_volume   220.26023796
_cell_formula_units_Z   6
loop_
 _symmetry_equiv_pos_site_id
 _symmetry_equiv_pos_as_xyz
  1  'x, y, z'
loop_
 _atom_site_type_symbol
 _atom_site_label
 _atom_site_symmetry_multiplicity
 _atom_site_fract_x
 _atom_site_fract_y
 _atom_site_fract_z
 _atom_site_occupancy
  Ta  Ta0  1  0.95602699  0.00000000  0.22269659  1.0
  Ta  Ta1  1  0.04397301  0.00000000  0.77730341  1.0
  Ta  Ta2  1  0.54397301  0.00000000  0.22269659  1.0
  Ta  Ta3  1  0.45602699  0.00000000  0.77730341  1.0
  Ta  Ta4  1  0.25000000  0.00000000  0.14424288  1.0
  Ta  Ta5  1  0.75000000  0.00000000  0.85575712  1.0
  B  B6  1  0.08426859  0.50000000  0.04990738  1.0
  B  B7  1  0.91573141  0.50000000  0.95009262  1.0
  B  B8  1  0.41573141  0.50000000  0.04990738  1.0
  B  B9  1  0.58426859  0.50000000  0.95009262  1.0
  B  B10  1  0.25000000  0.00000000  0.55010238  1.0
  B  B11  1  0.75000000  0.00000000  0.44989762  1.0
  Ru  Ru12  1  0.12502141  0.50000000  0.42611878  1.0
  Ru  Ru13  1  0.87497859  0.50000000  0.57388122  1.0
  Ru  Ru14  1  0.37497859  0.50000000  0.42611878  1.0
  Ru  Ru15  1  0.62502141  0.50000000  0.57388122  1.0
  Ru  Ru16  1  0.25000000  0.50000000  0.79820046  1.0
  Ru  Ru17  1  0.75000000  0.50000000  0.20179954  1.0
