# generated using pymatgen
data_Ga3Os
_symmetry_space_group_name_H-M   'P 1'
_cell_length_a   6.54749440
_cell_length_b   6.54749440
_cell_length_c   6.83589073
_cell_angle_alpha   90.00000000
_cell_angle_beta   90.00000000
_cell_angle_gamma   90.00000000
_symmetry_Int_Tables_number   1
_chemical_formula_structural   Ga3Os
_chemical_formula_sum   'Ga12 Os4'
_cell_volume   293.05246801
_cell_formula_units_Z   4
loop_
 _symmetry_equiv_pos_site_id
 _symmetry_equiv_pos_as_xyz
  1  'x, y, z'
loop_
 _atom_site_type_symbol
 _atom_site_label
 _atom_site_symmetry_multiplicity
 _atom_site_fract_x
 _atom_site_fract_y
 _atom_site_fract_z
 _atom_site_occupancy
  Ga  Ga0  1  0.15547296  0.84452704  0.23446057  1.0
  Ga  Ga1  1  0.15547296  0.84452704  0.76553943  1.0
  Ga  Ga2  1  0.65547296  0.65547296  0.73446057  1.0
  Ga  Ga3  1  0.65547296  0.65547296  0.26553943  1.0
  Ga  Ga4  1  0.84452704  0.15547296  0.23446057  1.0
  Ga  Ga5  1  0.84452704  0.15547296  0.76553943  1.0
  Ga  Ga6  1  0.34452704  0.34452704  0.73446057  1.0
  Ga  Ga7  1  0.34452704  0.34452704  0.26553943  1.0
  Ga  Ga8  1  0.50000000  0.00000000  0.50000000  1.0
  Ga  Ga9  1  0.00000000  0.50000000  0.00000000  1.0
  Ga  Ga10  1  0.00000000  0.50000000  0.50000000  1.0
  Ga  Ga11  1  0.50000000  0.00000000  0.00000000  1.0
  Os  Os12  1  0.34006568  0.65993432  0.50000000  1.0
  Os  Os13  1  0.84006568  0.84006568  0.00000000  1.0
  Os  Os14  1  0.65993432  0.34006568  0.50000000  1.0
  Os  Os15  1  0.15993432  0.15993432  0.00000000  1.0
