# generated using pymatgen
data_KV2SeO7
_symmetry_space_group_name_H-M   'P 1'
_cell_length_a   18.70151275
_cell_length_b   5.46305234
_cell_length_c   7.00418004
_cell_angle_alpha   90.00000000
_cell_angle_beta   90.00000000
_cell_angle_gamma   90.00000000
_symmetry_Int_Tables_number   1
_chemical_formula_structural   KV2SeO7
_chemical_formula_sum   'K4 V8 Se4 O28'
_cell_volume   715.59846383
_cell_formula_units_Z   4
loop_
 _symmetry_equiv_pos_site_id
 _symmetry_equiv_pos_as_xyz
  1  'x, y, z'
loop_
 _atom_site_type_symbol
 _atom_site_label
 _atom_site_symmetry_multiplicity
 _atom_site_fract_x
 _atom_site_fract_y
 _atom_site_fract_z
 _atom_site_occupancy
  K  K0  1  0.47023937  0.75000000  0.25812853  1.0
  K  K1  1  0.97023937  0.75000000  0.24187147  1.0
  K  K2  1  0.52976063  0.25000000  0.74187147  1.0
  K  K3  1  0.02976063  0.25000000  0.75812853  1.0
  O  O4  1  0.40571088  0.49069089  0.56726208  1.0
  O  O5  1  0.40571088  0.00930911  0.56726208  1.0
  O  O6  1  0.90571088  0.49069089  0.93273792  1.0
  O  O7  1  0.90571088  0.00930911  0.93273792  1.0
  O  O8  1  0.59428912  0.99069089  0.43273792  1.0
  O  O9  1  0.59428912  0.50930911  0.43273792  1.0
  O  O10  1  0.09428912  0.99069089  0.06726208  1.0
  O  O11  1  0.09428912  0.50930911  0.06726208  1.0
  O  O12  1  0.33205450  0.50509453  0.91955825  1.0
  O  O13  1  0.33205450  -0.00509453  0.91955825  1.0
  O  O14  1  0.83205450  0.50509453  0.58044175  1.0
  O  O15  1  0.83205450  -0.00509453  0.58044175  1.0
  O  O16  1  0.66794550  1.00509453  0.08044175  1.0
  O  O17  1  0.66794550  0.49490547  0.08044175  1.0
  O  O18  1  0.16794550  1.00509453  0.41955825  1.0
  O  O19  1  0.16794550  0.49490547  0.41955825  1.0
  O  O20  1  0.45879071  0.75000000  0.86645117  1.0
  O  O21  1  0.95879071  0.75000000  0.63354883  1.0
  O  O22  1  0.54120929  0.25000000  0.13354883  1.0
  O  O23  1  0.04120929  0.25000000  0.36645117  1.0
  O  O24  1  0.27642693  0.75000000  0.59811735  1.0
  O  O25  1  0.77642693  0.75000000  0.90188265  1.0
  O  O26  1  0.72357307  0.25000000  0.40188265  1.0
  O  O27  1  0.22357307  0.25000000  0.09811735  1.0
  O  O28  1  0.13495052  0.75000000  0.76664232  1.0
  O  O29  1  0.63495052  0.75000000  0.73335768  1.0
  O  O30  1  0.86504948  0.25000000  0.23335768  1.0
  O  O31  1  0.36504948  0.25000000  0.26664232  1.0
  V  V32  1  0.18985759  0.75000000  0.54713335  1.0
  V  V33  1  0.68985759  0.75000000  0.95286665  1.0
  V  V34  1  0.81014241  0.25000000  0.45286665  1.0
  V  V35  1  0.31014241  0.25000000  0.04713335  1.0
  V  V36  1  0.38013667  0.75000000  0.76846570  1.0
  V  V37  1  0.88013667  0.75000000  0.73153430  1.0
  V  V38  1  0.61986333  0.25000000  0.23153430  1.0
  V  V39  1  0.11986333  0.25000000  0.26846570  1.0
  Se  Se40  1  0.15012048  0.75000000  0.01673987  1.0
  Se  Se41  1  0.65012048  0.75000000  0.48326013  1.0
  Se  Se42  1  0.84987952  0.25000000  0.98326013  1.0
  Se  Se43  1  0.34987952  0.25000000  0.51673987  1.0
