# generated using pymatgen
data_Sn2P2O7
_symmetry_space_group_name_H-M   'P 1'
_cell_length_a   11.99082865
_cell_length_b   11.91398171
_cell_length_c   5.42358447
_cell_angle_alpha   98.29338200
_cell_angle_beta   98.86065735
_cell_angle_gamma   105.11469423
_symmetry_Int_Tables_number   1
_chemical_formula_structural   Sn2P2O7
_chemical_formula_sum   'Sn8 P8 O28'
_cell_volume   725.13243716
_cell_formula_units_Z   4
loop_
 _symmetry_equiv_pos_site_id
 _symmetry_equiv_pos_as_xyz
  1  'x, y, z'
loop_
 _atom_site_type_symbol
 _atom_site_label
 _atom_site_symmetry_multiplicity
 _atom_site_fract_x
 _atom_site_fract_y
 _atom_site_fract_z
 _atom_site_occupancy
  Sn  Sn0  1  -0.63996568  -0.54058488  -0.81916449  1.0
  Sn  Sn1  1  -0.36003432  -0.45941512  -0.18083551  1.0
  Sn  Sn2  1  -0.47698668  -0.86782619  -0.72795071  1.0
  Sn  Sn3  1  -0.52301332  -0.13217381  -0.27204929  1.0
  Sn  Sn4  1  -0.98017756  -0.33863616  -0.65682256  1.0
  Sn  Sn5  1  -0.01982244  -0.66136384  -0.34317744  1.0
  Sn  Sn6  1  -0.84864201  -0.99034634  -0.21017973  1.0
  Sn  Sn7  1  -0.15135799  -0.00965366  -0.78982027  1.0
  P  P8  1  -0.74142111  -0.16062284  -0.79969510  1.0
  P  P9  1  -0.25857889  -0.83937716  -0.20030490  1.0
  P  P10  1  -0.24562435  -0.62773400  -0.80351118  1.0
  P  P11  1  -0.75437565  -0.37226600  -0.19648882  1.0
  P  P12  1  -0.85105620  -0.77533577  -0.70731858  1.0
  P  P13  1  -0.14894380  -0.22466423  -0.29268142  1.0
  P  P14  1  -0.63951875  -0.75723030  -0.31017367  1.0
  P  P15  1  -0.36048125  -0.24276970  -0.68982633  1.0
  O  O16  1  -0.24567968  -0.90359595  -0.97601086  1.0
  O  O17  1  -0.75432032  -0.09640405  -0.02398914  1.0
  O  O18  1  -0.75545262  -0.29882424  -0.91800973  1.0
  O  O19  1  -0.24454738  -0.70117576  -0.08199027  1.0
  O  O20  1  -0.42217370  -0.35431207  -0.89851525  1.0
  O  O21  1  -0.57782630  -0.64568793  -0.10148475  1.0
  O  O22  1  -0.26501315  -0.51145159  -0.86484673  1.0
  O  O23  1  -0.73498685  -0.48854841  -0.13515327  1.0
  O  O24  1  -0.80282843  -0.68566980  -0.86997792  1.0
  O  O25  1  -0.19717157  -0.31433020  -0.13002208  1.0
  O  O26  1  -0.85709591  -0.90311601  -0.82015523  1.0
  O  O27  1  -0.14290409  -0.09688399  -0.17984477  1.0
  O  O28  1  -0.34304449  -0.69858885  -0.68826262  1.0
  O  O29  1  -0.65695551  -0.30141115  -0.31173738  1.0
  O  O30  1  -0.97143449  -0.76738879  -0.64917092  1.0
  O  O31  1  -0.02856551  -0.23261121  -0.35082908  1.0
  O  O32  1  -0.83908036  -0.16956911  -0.64236102  1.0
  O  O33  1  -0.16091964  -0.83043089  -0.35763898  1.0
  O  O34  1  -0.57054965  -0.76135126  -0.52547249  1.0
  O  O35  1  -0.42945035  -0.23864874  -0.47452751  1.0
  O  O36  1  -0.76564186  -0.73785094  -0.42665966  1.0
  O  O37  1  -0.23435814  -0.26214906  -0.57334034  1.0
  O  O38  1  -0.87836273  -0.39901642  -0.36255759  1.0
  O  O39  1  -0.12163727  -0.60098358  -0.63744241  1.0
  O  O40  1  -0.38385482  -0.89179469  -0.36314125  1.0
  O  O41  1  -0.61614518  -0.10820531  -0.63685875  1.0
  O  O42  1  -0.66870000  -0.87158430  -0.20171728  1.0
  O  O43  1  -0.33130000  -0.12841570  -0.79828272  1.0
