# generated using pymatgen
data_K2P3
_symmetry_space_group_name_H-M   'P 1'
_cell_length_a   12.03983729
_cell_length_b   10.34706253
_cell_length_c   8.56220656
_cell_angle_alpha   78.47032541
_cell_angle_beta   57.35835633
_cell_angle_gamma   44.17131826
_symmetry_Int_Tables_number   1
_chemical_formula_structural   K2P3
_chemical_formula_sum   'K8 P12'
_cell_volume   593.22556645
_cell_formula_units_Z   4
loop_
 _symmetry_equiv_pos_site_id
 _symmetry_equiv_pos_as_xyz
  1  'x, y, z'
loop_
 _atom_site_type_symbol
 _atom_site_label
 _atom_site_symmetry_multiplicity
 _atom_site_fract_x
 _atom_site_fract_y
 _atom_site_fract_z
 _atom_site_occupancy
  K  K0  1  0.61447868  0.61447868  -0.11447868  1.0
  K  K1  1  -0.11447868  0.88552132  0.61447868  1.0
  K  K2  1  -0.36447868  0.63552132  0.36447868  1.0
  K  K3  1  0.36447868  0.36447868  -0.36447868  1.0
  K  K4  1  0.12497830  1.12497830  0.37502170  1.0
  K  K5  1  0.37502170  0.37502170  0.12497830  1.0
  K  K6  1  0.12502170  0.12502170  -0.12502170  1.0
  K  K7  1  -0.12502170  0.87497830  0.12502170  1.0
  P  P8  1  0.89552444  -0.39552444  0.89552444  1.0
  P  P9  1  -0.39552444  0.89552444  0.60447556  1.0
  P  P10  1  0.35447556  0.64552444  0.35447556  1.0
  P  P11  1  0.64552444  0.35447556  -0.35447556  1.0
  P  P12  1  0.04516382  0.45082104  0.60081185  1.0
  P  P13  1  -0.54917896  1.04516382  0.90320328  1.0
  P  P14  1  -0.39918815  0.90320328  1.04516382  1.0
  P  P15  1  -0.09679672  0.60081185  0.45082104  1.0
  P  P16  1  1.20483618  -0.20082104  0.64918815  1.0
  P  P17  1  -0.20082104  1.20483618  0.34679672  1.0
  P  P18  1  0.64918815  0.34679672  1.20483618  1.0
  P  P19  1  0.34679672  0.64918815  -0.20082104  1.0
