# generated using pymatgen
data_SiO2
_symmetry_space_group_name_H-M   'P 1'
_cell_length_a   9.10870916
_cell_length_b   9.10870916
_cell_length_c   8.11964030
_cell_angle_alpha   90.00000000
_cell_angle_beta   90.00000000
_cell_angle_gamma   90.00000000
_symmetry_Int_Tables_number   1
_chemical_formula_structural   SiO2
_chemical_formula_sum   'Si16 O32'
_cell_volume   673.67504723
_cell_formula_units_Z   16
loop_
 _symmetry_equiv_pos_site_id
 _symmetry_equiv_pos_as_xyz
  1  'x, y, z'
loop_
 _atom_site_type_symbol
 _atom_site_label
 _atom_site_symmetry_multiplicity
 _atom_site_fract_x
 _atom_site_fract_y
 _atom_site_fract_z
 _atom_site_occupancy
  Si  Si0  1  0.55714636  0.28443760  0.06282515  1.0
  Si  Si1  1  0.55714636  0.71556240  0.43717485  1.0
  Si  Si2  1  0.05714636  0.21556240  0.06282515  1.0
  Si  Si3  1  0.05714636  0.78443760  0.43717485  1.0
  Si  Si4  1  0.44285364  0.71556240  0.06282515  1.0
  Si  Si5  1  0.44285364  0.28443760  0.43717485  1.0
  Si  Si6  1  0.94285364  0.78443760  0.06282515  1.0
  Si  Si7  1  0.94285364  0.21556240  0.43717485  1.0
  Si  Si8  1  0.28443760  0.44285364  0.93717485  1.0
  Si  Si9  1  0.71556240  0.44285364  0.56282515  1.0
  Si  Si10  1  0.21556240  0.94285364  0.93717485  1.0
  Si  Si11  1  0.78443760  0.94285364  0.56282515  1.0
  Si  Si12  1  0.71556240  0.55714636  0.93717485  1.0
  Si  Si13  1  0.28443760  0.55714636  0.56282515  1.0
  Si  Si14  1  0.78443760  0.05714636  0.93717485  1.0
  Si  Si15  1  0.21556240  0.05714636  0.56282515  1.0
  O  O16  1  0.63340139  0.86659861  0.50000000  1.0
  O  O17  1  0.63340139  0.13340139  -0.00000000  1.0
  O  O18  1  0.13340139  0.63340139  0.50000000  1.0
  O  O19  1  0.13340139  0.36659861  0.00000000  1.0
  O  O20  1  0.36659861  0.13340139  0.50000000  1.0
  O  O21  1  0.36659861  0.86659861  0.00000000  1.0
  O  O22  1  0.86659861  0.36659861  0.50000000  1.0
  O  O23  1  0.86659861  0.63340139  0.00000000  1.0
  O  O24  1  0.23820950  0.00000000  0.75000000  1.0
  O  O25  1  0.73820950  0.50000000  0.75000000  1.0
  O  O26  1  0.76179050  0.00000000  0.75000000  1.0
  O  O27  1  0.26179050  0.50000000  0.75000000  1.0
  O  O28  1  0.00000000  0.76179050  0.25000000  1.0
  O  O29  1  0.50000000  0.26179050  0.25000000  1.0
  O  O30  1  0.00000000  0.23820950  0.25000000  1.0
  O  O31  1  0.50000000  0.73820950  0.25000000  1.0
  O  O32  1  0.41906162  0.32353654  0.94169561  1.0
  O  O33  1  0.41906162  0.67646346  0.55830439  1.0
  O  O34  1  0.91906162  0.17646346  0.94169561  1.0
  O  O35  1  0.91906162  0.82353654  0.55830439  1.0
  O  O36  1  0.58093838  0.67646346  0.94169561  1.0
  O  O37  1  0.58093838  0.32353654  0.55830439  1.0
  O  O38  1  0.08093838  0.82353654  0.94169561  1.0
  O  O39  1  0.08093838  0.17646346  0.55830439  1.0
  O  O40  1  0.32353654  0.58093838  0.05830439  1.0
  O  O41  1  0.67646346  0.58093838  0.44169561  1.0
  O  O42  1  0.17646346  0.08093838  0.05830439  1.0
  O  O43  1  0.82353654  0.08093838  0.44169561  1.0
  O  O44  1  0.67646346  0.41906162  0.05830439  1.0
  O  O45  1  0.32353654  0.41906162  0.44169561  1.0
  O  O46  1  0.82353654  0.91906162  0.05830439  1.0
  O  O47  1  0.17646346  0.91906162  0.44169561  1.0
