# generated using pymatgen
data_Zn3Cu6(AsS3)4
_symmetry_space_group_name_H-M   'P 1'
_cell_length_a   8.41360314
_cell_length_b   8.41360314
_cell_length_c   8.41360314
_cell_angle_alpha   107.41700089
_cell_angle_beta   107.41700089
_cell_angle_gamma   107.41700089
_symmetry_Int_Tables_number   1
_chemical_formula_structural   Zn3Cu6(AsS3)4
_chemical_formula_sum   'Zn3 Cu6 As4 S12'
_cell_volume   490.25982125
_cell_formula_units_Z   1
loop_
 _symmetry_equiv_pos_site_id
 _symmetry_equiv_pos_as_xyz
  1  'x, y, z'
loop_
 _atom_site_type_symbol
 _atom_site_label
 _atom_site_symmetry_multiplicity
 _atom_site_fract_x
 _atom_site_fract_y
 _atom_site_fract_z
 _atom_site_occupancy
  Zn  Zn0  1  0.78914957  0.93403704  0.32408999  1.0
  Zn  Zn1  1  0.93403704  1.32408999  -0.21085043  1.0
  Zn  Zn2  1  1.32408999  0.78914957  -0.06596296  1.0
  Cu  Cu3  1  0.47961338  1.19730578  -0.58317678  1.0
  Cu  Cu4  1  1.19730578  0.41682322  -0.52038662  1.0
  Cu  Cu5  1  0.41682322  0.47961338  0.19730578  1.0
  Cu  Cu6  1  1.09370657  -0.27686660  0.24066674  1.0
  Cu  Cu7  1  0.72313340  0.24066674  0.09370657  1.0
  Cu  Cu8  1  1.24066674  0.09370657  -0.27686660  1.0
  As  As9  1  1.56586922  -0.15506222  0.63698827  1.0
  As  As10  1  0.84493778  0.63698827  0.56586922  1.0
  As  As11  1  1.63698827  0.56586922  -0.15506222  1.0
  As  As12  1  -0.00104174  -0.00104174  -0.00104174  1.0
  S  S13  1  1.00372788  0.83948229  0.46728856  1.0
  S  S14  1  0.83948229  1.46728856  0.00372788  1.0
  S  S15  1  1.46728856  1.00372788  -0.16051771  1.0
  S  S16  1  0.67541614  1.07043479  -0.46922652  1.0
  S  S17  1  1.07043479  0.53077348  -0.32458386  1.0
  S  S18  1  0.53077348  0.67541614  0.07043479  1.0
  S  S19  1  1.23853351  -0.05609008  0.16021775  1.0
  S  S20  1  0.94390992  0.16021775  0.23853351  1.0
  S  S21  1  1.16021775  0.23853351  -0.05609008  1.0
  S  S22  1  1.37863169  0.30695651  -0.36925174  1.0
  S  S23  1  1.30695651  -0.36925174  0.37863169  1.0
  S  S24  1  0.63074826  0.37863169  0.30695651  1.0
