# generated using pymatgen
data_TiGa2
_symmetry_space_group_name_H-M   'P 1'
_cell_length_a   12.54428415
_cell_length_b   12.54428415
_cell_length_c   12.54428415
_cell_angle_alpha   161.94613323
_cell_angle_beta   161.94613323
_cell_angle_gamma   25.63993485
_symmetry_Int_Tables_number   1
_chemical_formula_structural   TiGa2
_chemical_formula_sum   'Ti4 Ga8'
_cell_volume   189.52794613
_cell_formula_units_Z   4
loop_
 _symmetry_equiv_pos_site_id
 _symmetry_equiv_pos_as_xyz
  1  'x, y, z'
loop_
 _atom_site_type_symbol
 _atom_site_label
 _atom_site_symmetry_multiplicity
 _atom_site_fract_x
 _atom_site_fract_y
 _atom_site_fract_z
 _atom_site_occupancy
  Ti  Ti0  1  0.82607081  0.32607081  0.50000000  1.0
  Ti  Ti1  1  0.92392919  0.92392919  1.00000000  1.0
  Ti  Ti2  1  0.67392919  0.17392919  0.50000000  1.0
  Ti  Ti3  1  0.07607081  0.07607081  -0.00000000  1.0
  Ga  Ga4  1  0.00054317  0.50054317  0.50000000  1.0
  Ga  Ga5  1  0.74945683  0.74945683  1.00000000  1.0
  Ga  Ga6  1  0.49945683  -0.00054317  0.50000000  1.0
  Ga  Ga7  1  0.25054317  0.25054317  -0.00000000  1.0
  Ga  Ga8  1  0.16147744  0.66147744  0.50000000  1.0
  Ga  Ga9  1  0.58852256  0.58852256  1.00000000  1.0
  Ga  Ga10  1  0.33852256  0.83852256  0.50000000  1.0
  Ga  Ga11  1  0.41147744  0.41147744  -0.00000000  1.0
