# generated using pymatgen
data_NaNi2(MoO5)2
_symmetry_space_group_name_H-M   'P 1'
_cell_length_a   5.72149382
_cell_length_b   5.72149382
_cell_length_c   8.15357709
_cell_angle_alpha   66.16760658
_cell_angle_beta   113.83239342
_cell_angle_gamma   118.33274861
_symmetry_Int_Tables_number   1
_chemical_formula_structural   NaNi2(MoO5)2
_chemical_formula_sum   'Na1 Ni2 Mo2 O10'
_cell_volume   207.29919750
_cell_formula_units_Z   1
loop_
 _symmetry_equiv_pos_site_id
 _symmetry_equiv_pos_as_xyz
  1  'x, y, z'
loop_
 _atom_site_type_symbol
 _atom_site_label
 _atom_site_symmetry_multiplicity
 _atom_site_fract_x
 _atom_site_fract_y
 _atom_site_fract_z
 _atom_site_occupancy
  Ni  Ni0  1  1.50000000  -0.00000000  0.50000000  1.0
  Ni  Ni1  1  1.00000000  0.50000000  0.50000000  1.0
  Mo  Mo2  1  0.56745716  0.43254284  0.75412692  1.0
  Mo  Mo3  1  1.43254284  -0.43254284  0.24587308  1.0
  O  O4  1  1.28115183  -0.28115183  1.02495636  1.0
  O  O5  1  0.71884817  0.28115183  -0.02495636  1.0
  O  O6  1  0.65697727  0.34302273  0.59693241  1.0
  O  O7  1  1.34302273  -0.34302273  0.40306759  1.0
  O  O8  1  1.69882458  -0.20501168  0.73309501  1.0
  O  O9  1  1.20501168  -0.69882458  0.73309501  1.0
  O  O10  1  0.79498832  0.69882458  0.26690499  1.0
  O  O11  1  0.30117542  0.20501168  0.26690499  1.0
  O  O12  1  0.81031655  0.18968345  0.42204187  1.0
  O  O13  1  1.18968345  -0.18968345  0.57795813  1.0
  Na  Na14  1  0.00000000  0.00000000  0.00000000  1.0
