# generated using pymatgen
data_Lu2Nb3Si4
_symmetry_space_group_name_H-M   'P 1'
_cell_length_a   6.99353304
_cell_length_b   6.99353304
_cell_length_c   12.89591555
_cell_angle_alpha   90.00000000
_cell_angle_beta   90.00000000
_cell_angle_gamma   90.00000000
_symmetry_Int_Tables_number   1
_chemical_formula_structural   Lu2Nb3Si4
_chemical_formula_sum   'Lu8 Nb12 Si16'
_cell_volume   630.73283873
_cell_formula_units_Z   4
loop_
 _symmetry_equiv_pos_site_id
 _symmetry_equiv_pos_as_xyz
  1  'x, y, z'
loop_
 _atom_site_type_symbol
 _atom_site_label
 _atom_site_symmetry_multiplicity
 _atom_site_fract_x
 _atom_site_fract_y
 _atom_site_fract_z
 _atom_site_occupancy
  Lu  Lu0  1  0.50036090  0.84106260  0.03192174  1.0
  Lu  Lu1  1  1.00036090  0.65893740  0.71807826  1.0
  Lu  Lu2  1  0.15893740  0.49963910  0.46807826  1.0
  Lu  Lu3  1  0.65893740  1.00036090  0.28192174  1.0
  Lu  Lu4  1  0.49963910  0.15893740  0.53192174  1.0
  Lu  Lu5  1  -0.00036090  0.34106260  0.21807826  1.0
  Lu  Lu6  1  0.84106260  0.50036090  0.96807826  1.0
  Lu  Lu7  1  0.34106260  -0.00036090  0.78192174  1.0
  Nb  Nb8  1  0.34875462  0.49307840  0.87315679  1.0
  Nb  Nb9  1  0.84875462  1.00692160  0.87684321  1.0
  Nb  Nb10  1  0.50692160  0.65124538  0.62684321  1.0
  Nb  Nb11  1  1.00692160  0.84875462  0.12315679  1.0
  Nb  Nb12  1  0.65124538  0.50692160  0.37315679  1.0
  Nb  Nb13  1  0.15124538  -0.00692160  0.37684321  1.0
  Nb  Nb14  1  0.49307840  0.34875462  0.12684321  1.0
  Nb  Nb15  1  -0.00692160  0.15124538  0.62315679  1.0
  Nb  Nb16  1  0.32804195  0.67195805  0.25000000  1.0
  Nb  Nb17  1  0.82804195  0.82804195  0.50000000  1.0
  Nb  Nb18  1  0.67195805  0.32804195  0.75000000  1.0
  Nb  Nb19  1  0.17195805  0.17195805  -0.00000000  1.0
  Si  Si20  1  0.20352894  0.54578953  0.06335001  1.0
  Si  Si21  1  0.70352894  0.95421047  0.68664999  1.0
  Si  Si22  1  0.45421047  0.79647106  0.43664999  1.0
  Si  Si23  1  0.95421047  0.70352894  0.31335001  1.0
  Si  Si24  1  0.79647106  0.45421047  0.56335001  1.0
  Si  Si25  1  0.29647106  0.04578953  0.18664999  1.0
  Si  Si26  1  0.54578953  0.20352894  0.93664999  1.0
  Si  Si27  1  0.04578953  0.29647106  0.81335001  1.0
  Si  Si28  1  0.13686721  0.79489755  0.93046338  1.0
  Si  Si29  1  0.63686721  0.70510245  0.81953662  1.0
  Si  Si30  1  0.20510245  0.86313279  0.56953662  1.0
  Si  Si31  1  0.70510245  0.63686721  0.18046338  1.0
  Si  Si32  1  0.86313279  0.20510245  0.43046338  1.0
  Si  Si33  1  0.36313279  0.29489755  0.31953662  1.0
  Si  Si34  1  0.79489755  0.13686721  0.06953662  1.0
  Si  Si35  1  0.29489755  0.36313279  0.68046338  1.0
