# generated using pymatgen
data_YGeRh
_symmetry_space_group_name_H-M   'P 1'
_cell_length_a   6.94195599
_cell_length_b   4.31946094
_cell_length_c   7.57468838
_cell_angle_alpha   90.00000000
_cell_angle_beta   90.00000000
_cell_angle_gamma   90.00000000
_symmetry_Int_Tables_number   1
_chemical_formula_structural   YGeRh
_chemical_formula_sum   'Y4 Ge4 Rh4'
_cell_volume   227.13087693
_cell_formula_units_Z   4
loop_
 _symmetry_equiv_pos_site_id
 _symmetry_equiv_pos_as_xyz
  1  'x, y, z'
loop_
 _atom_site_type_symbol
 _atom_site_label
 _atom_site_symmetry_multiplicity
 _atom_site_fract_x
 _atom_site_fract_y
 _atom_site_fract_z
 _atom_site_occupancy
  Y  Y0  1  0.99821111  0.75000000  0.69534462  1.0
  Y  Y1  1  0.49821111  0.75000000  0.80465538  1.0
  Y  Y2  1  0.00178889  0.25000000  0.30465538  1.0
  Y  Y3  1  0.50178889  0.25000000  0.19534462  1.0
  Ge  Ge4  1  0.71043834  0.75000000  0.39555805  1.0
  Ge  Ge5  1  0.21043834  0.75000000  0.10444195  1.0
  Ge  Ge6  1  0.28956166  0.25000000  0.60444195  1.0
  Ge  Ge7  1  0.78956166  0.25000000  0.89555805  1.0
  Rh  Rh8  1  0.84396468  0.75000000  0.06811595  1.0
  Rh  Rh9  1  0.34396468  0.75000000  0.43188405  1.0
  Rh  Rh10  1  0.15603532  0.25000000  0.93188405  1.0
  Rh  Rh11  1  0.65603532  0.25000000  0.56811595  1.0
