# generated using pymatgen
data_Li5Si2
_symmetry_space_group_name_H-M   'P 1'
_cell_length_a   6.47945966
_cell_length_b   6.47945966
_cell_length_c   6.47945966
_cell_angle_alpha   39.56227033
_cell_angle_beta   39.56227033
_cell_angle_gamma   39.56227033
_symmetry_Int_Tables_number   1
_chemical_formula_structural   Li5Si2
_chemical_formula_sum   'Li5 Si2'
_cell_volume   99.34717667
_cell_formula_units_Z   1
loop_
 _symmetry_equiv_pos_site_id
 _symmetry_equiv_pos_as_xyz
  1  'x, y, z'
loop_
 _atom_site_type_symbol
 _atom_site_label
 _atom_site_symmetry_multiplicity
 _atom_site_fract_x
 _atom_site_fract_y
 _atom_site_fract_z
 _atom_site_occupancy
  Li  Li0  1  0.21027113  0.21027113  0.21027113  1.0
  Li  Li1  1  0.78972887  -0.21027113  -0.21027113  1.0
  Li  Li2  1  0.64698170  0.64698170  -0.35301830  1.0
  Li  Li3  1  0.35301830  0.35301830  -0.64698170  1.0
  Li  Li4  1  0.50000000  0.50000000  -0.50000000  1.0
  Si  Si5  1  0.93282876  -0.06717124  -0.06717124  1.0
  Si  Si6  1  0.06717124  0.06717124  0.06717124  1.0
