# generated using pymatgen
data_CsGa(SeO3)2
_symmetry_space_group_name_H-M   'P 1'
_cell_length_a   7.59353529
_cell_length_b   7.59353529
_cell_length_c   18.69664036
_cell_angle_alpha   73.55139737
_cell_angle_beta   106.44860263
_cell_angle_gamma   137.01463940
_symmetry_Int_Tables_number   1
_chemical_formula_structural   CsGa(SeO3)2
_chemical_formula_sum   'Cs4 Ga4 Se8 O24'
_cell_volume   700.18586900
_cell_formula_units_Z   4
loop_
 _symmetry_equiv_pos_site_id
 _symmetry_equiv_pos_as_xyz
  1  'x, y, z'
loop_
 _atom_site_type_symbol
 _atom_site_label
 _atom_site_symmetry_multiplicity
 _atom_site_fract_x
 _atom_site_fract_y
 _atom_site_fract_z
 _atom_site_occupancy
  Cs  Cs0  1  1.45001329  -0.45001329  0.79310760  1.0
  Cs  Cs1  1  0.54998671  0.45001329  0.20689240  1.0
  Cs  Cs2  1  0.50000000  0.50000000  0.50000000  1.0
  Cs  Cs3  1  0.00000000  0.00000000  0.00000000  1.0
  Ga  Ga4  1  0.84204270  -0.84204270  0.62814657  1.0
  Ga  Ga5  1  0.15795730  -0.15795730  0.37185343  1.0
  Ga  Ga6  1  0.20095621  -0.20095621  0.86580094  1.0
  Ga  Ga7  1  0.79904379  -0.79904379  0.13419906  1.0
  Se  Se8  1  0.94678963  -0.94678963  0.31898700  1.0
  Se  Se9  1  0.05321037  -0.05321037  0.68101300  1.0
  Se  Se10  1  0.74266724  0.25733276  0.76830573  1.0
  Se  Se11  1  1.25733276  -0.25733276  0.23169427  1.0
  Se  Se12  1  0.73680782  -0.73680782  0.44460012  1.0
  Se  Se13  1  0.26319218  -0.26319218  0.55539988  1.0
  Se  Se14  1  0.70546756  0.29453244  0.95406770  1.0
  Se  Se15  1  1.29453244  -0.29453244  0.04593230  1.0
  O  O16  1  1.74065674  -0.18870281  0.65273401  1.0
  O  O17  1  1.18870281  -0.74065674  0.65273401  1.0
  O  O18  1  0.81129719  0.74065674  0.34726599  1.0
  O  O19  1  0.25934326  0.18870281  0.34726599  1.0
  O  O20  1  0.53534154  -0.01676652  0.82939215  1.0
  O  O21  1  1.01676652  0.46465846  0.82939215  1.0
  O  O22  1  0.98323348  -0.46465846  0.17060785  1.0
  O  O23  1  1.46465846  0.01676652  0.17060785  1.0
  O  O24  1  0.48148684  -0.00156545  0.60730153  1.0
  O  O25  1  1.00156545  0.51851316  0.60730153  1.0
  O  O26  1  0.99843455  -0.51851316  0.39269847  1.0
  O  O27  1  1.51851316  0.00156545  0.39269847  1.0
  O  O28  1  0.39014465  0.12584068  0.91102427  1.0
  O  O29  1  0.87415932  0.60985535  0.91102427  1.0
  O  O30  1  1.12584068  -0.60985535  0.08897573  1.0
  O  O31  1  1.60985535  -0.12584068  0.08897573  1.0
  O  O32  1  0.92087312  -0.92087312  0.22242225  1.0
  O  O33  1  0.07912688  -0.07912688  0.77757775  1.0
  O  O34  1  0.84432830  0.15567170  0.73601005  1.0
  O  O35  1  1.15567170  -0.15567170  0.26398995  1.0
  O  O36  1  0.84626977  -0.84626977  0.51808875  1.0
  O  O37  1  0.15373023  -0.15373023  0.48191125  1.0
  O  O38  1  0.32029657  -0.32029657  0.96076053  1.0
  O  O39  1  0.67970343  -0.67970343  0.03923947  1.0
