# generated using pymatgen
data_Mn5(AsO8)2
_symmetry_space_group_name_H-M   'P 1'
_cell_length_a   5.08637602
_cell_length_b   19.52673947
_cell_length_c   6.21624469
_cell_angle_alpha   90.00000000
_cell_angle_beta   95.11636977
_cell_angle_gamma   90.00000000
_symmetry_Int_Tables_number   1
_chemical_formula_structural   Mn5(AsO8)2
_chemical_formula_sum   'Mn10 As4 O32'
_cell_volume   614.93958226
_cell_formula_units_Z   2
loop_
 _symmetry_equiv_pos_site_id
 _symmetry_equiv_pos_as_xyz
  1  'x, y, z'
loop_
 _atom_site_type_symbol
 _atom_site_label
 _atom_site_symmetry_multiplicity
 _atom_site_fract_x
 _atom_site_fract_y
 _atom_site_fract_z
 _atom_site_occupancy
  O  O0  1  0.34437015  0.95982354  0.12911610  1.0
  O  O1  1  0.65562985  0.45982354  0.37088390  1.0
  O  O2  1  0.65562985  0.04017646  0.87088390  1.0
  O  O3  1  0.34437015  0.54017646  0.62911610  1.0
  O  O4  1  0.58637983  0.92721088  0.55445227  1.0
  O  O5  1  0.41362017  0.42721088  0.94554773  1.0
  O  O6  1  0.41362017  0.07278912  0.44554773  1.0
  O  O7  1  0.58637983  0.57278912  0.05445227  1.0
  O  O8  1  0.05649467  0.88803036  0.41649781  1.0
  O  O9  1  0.94350533  0.38803036  0.08350219  1.0
  O  O10  1  0.94350533  0.11196964  0.58350219  1.0
  O  O11  1  0.05649467  0.61196964  0.91649781  1.0
  O  O12  1  0.28886014  0.86002274  0.81351635  1.0
  O  O13  1  0.71113986  0.36002274  0.68648365  1.0
  O  O14  1  0.71113986  0.13997726  0.18648365  1.0
  O  O15  1  0.28886014  0.63997726  0.31351635  1.0
  O  O16  1  0.50720676  0.81883885  0.23229872  1.0
  O  O17  1  0.49279324  0.31883885  0.26770128  1.0
  O  O18  1  0.49279324  0.18116115  0.76770128  1.0
  O  O19  1  0.50720676  0.68116115  0.73229872  1.0
  O  O20  1  0.83800138  0.69941469  0.18890528  1.0
  O  O21  1  0.16199862  0.19941469  0.31109472  1.0
  O  O22  1  0.16199862  0.30058531  0.81109472  1.0
  O  O23  1  0.83800138  0.80058531  0.68890528  1.0
  O  O24  1  0.81978766  0.91537536  0.93003047  1.0
  O  O25  1  0.18021234  0.41537536  0.56996953  1.0
  O  O26  1  0.18021234  0.08462464  0.06996953  1.0
  O  O27  1  0.81978766  0.58462464  0.43003047  1.0
  O  O28  1  0.15494196  0.98383697  0.74561323  1.0
  O  O29  1  0.84505804  0.48383697  0.75438677  1.0
  O  O30  1  0.84505804  0.01616303  0.25438677  1.0
  O  O31  1  0.15494196  0.51616303  0.24561323  1.0
  Mn  Mn32  1  0.46127217  0.94009739  0.82676746  1.0
  Mn  Mn33  1  0.53872783  0.44009739  0.67323254  1.0
  Mn  Mn34  1  0.53872783  0.05990261  0.17323254  1.0
  Mn  Mn35  1  0.46127217  0.55990261  0.32676746  1.0
  Mn  Mn36  1  0.00000000  0.00000000  0.00000000  1.0
  Mn  Mn37  1  0.00000000  0.50000000  0.50000000  1.0
  Mn  Mn38  1  0.96416631  0.87382327  0.69122820  1.0
  Mn  Mn39  1  0.03583369  0.37382327  0.80877180  1.0
  Mn  Mn40  1  0.03583369  0.12617673  0.30877180  1.0
  Mn  Mn41  1  0.96416631  0.62617673  0.19122820  1.0
  As  As42  1  0.38062826  0.88721017  0.33896512  1.0
  As  As43  1  0.61937174  0.38721017  0.16103488  1.0
  As  As44  1  0.61937174  0.11278983  0.66103488  1.0
  As  As45  1  0.38062826  0.61278983  0.83896512  1.0
