# generated using pymatgen
data_BaSn2(HO2)2
_symmetry_space_group_name_H-M   'P 1'
_cell_length_a   7.30973724
_cell_length_b   5.87182426
_cell_length_c   7.72577659
_cell_angle_alpha   90.00000000
_cell_angle_beta   106.72225946
_cell_angle_gamma   90.00000000
_symmetry_Int_Tables_number   1
_chemical_formula_structural   BaSn2(HO2)2
_chemical_formula_sum   'Ba2 Sn4 H4 O8'
_cell_volume   317.57867847
_cell_formula_units_Z   2
loop_
 _symmetry_equiv_pos_site_id
 _symmetry_equiv_pos_as_xyz
  1  'x, y, z'
loop_
 _atom_site_type_symbol
 _atom_site_label
 _atom_site_symmetry_multiplicity
 _atom_site_fract_x
 _atom_site_fract_y
 _atom_site_fract_z
 _atom_site_occupancy
  Ba  Ba0  1  0.68457988  0.49935854  0.43031417  1.0
  Ba  Ba1  1  0.31542012  0.99935854  0.56968583  1.0
  Sn  Sn2  1  0.84788272  0.00018756  0.84127078  1.0
  Sn  Sn3  1  0.15211728  0.50018756  0.15872922  1.0
  Sn  Sn4  1  0.58637924  0.50012701  0.88423572  1.0
  Sn  Sn5  1  0.41362076  0.00012701  0.11576428  1.0
  H  H6  1  0.86889031  1.00065211  0.50939854  1.0
  H  H7  1  0.13110969  0.50065211  0.49060146  1.0
  H  H8  1  0.21006782  0.50136257  0.78895733  1.0
  H  H9  1  0.78993218  1.00136257  0.21104267  1.0
  O  O10  1  0.97046853  0.00134887  0.62684262  1.0
  O  O11  1  0.02953147  0.50134887  0.37315738  1.0
  O  O12  1  0.70486932  0.00155718  0.28812853  1.0
  O  O13  1  0.29513068  0.50155718  0.71187147  1.0
  O  O14  1  0.64585339  0.75008328  0.71683602  1.0
  O  O15  1  0.35414661  0.25008328  0.28316398  1.0
  O  O16  1  0.64476797  0.24932287  0.71694775  1.0
  O  O17  1  0.35523203  0.74932287  0.28305225  1.0
