# generated using pymatgen
data_MnHgF6
_symmetry_space_group_name_H-M   'P 1'
_cell_length_a   5.67886356
_cell_length_b   5.67886356
_cell_length_c   5.67886356
_cell_angle_alpha   55.85554574
_cell_angle_beta   55.85554574
_cell_angle_gamma   55.85554573
_symmetry_Int_Tables_number   1
_chemical_formula_structural   MnHgF6
_chemical_formula_sum   'Mn1 Hg1 F6'
_cell_volume   117.05789390
_cell_formula_units_Z   1
loop_
 _symmetry_equiv_pos_site_id
 _symmetry_equiv_pos_as_xyz
  1  'x, y, z'
loop_
 _atom_site_type_symbol
 _atom_site_label
 _atom_site_symmetry_multiplicity
 _atom_site_fract_x
 _atom_site_fract_y
 _atom_site_fract_z
 _atom_site_occupancy
  Mn  Mn0  1  0.00000000  0.00000000  0.00000000  1.0
  Hg  Hg1  1  0.50000000  0.50000000  -0.50000000  1.0
  F  F2  1  0.07807815  0.79016812  -0.64704025  1.0
  F  F3  1  0.64704025  -0.07807815  0.20983188  1.0
  F  F4  1  1.20983188  -0.35295975  -0.07807815  1.0
  F  F5  1  0.92192185  0.20983188  -0.35295975  1.0
  F  F6  1  0.35295975  0.07807815  -0.20983188  1.0
  F  F7  1  0.79016812  0.35295975  -0.92192185  1.0
