# generated using pymatgen
data_NaP(HO2)2
_symmetry_space_group_name_H-M   'P 1'
_cell_length_a   9.65251730
_cell_length_b   6.74182786
_cell_length_c   6.46077535
_cell_angle_alpha   107.76618152
_cell_angle_beta   103.12363962
_cell_angle_gamma   93.84813832
_symmetry_Int_Tables_number   1
_chemical_formula_structural   NaP(HO2)2
_chemical_formula_sum   'Na4 P4 H8 O16'
_cell_volume   385.69105017
_cell_formula_units_Z   4
loop_
 _symmetry_equiv_pos_site_id
 _symmetry_equiv_pos_as_xyz
  1  'x, y, z'
loop_
 _atom_site_type_symbol
 _atom_site_label
 _atom_site_symmetry_multiplicity
 _atom_site_fract_x
 _atom_site_fract_y
 _atom_site_fract_z
 _atom_site_occupancy
  Na  Na0  1  -0.63141884  -0.33129178  -0.92886527  1.0
  Na  Na1  1  -0.36858116  -0.66870822  -0.07113473  1.0
  Na  Na2  1  -0.90766344  -0.05734543  -0.74128504  1.0
  Na  Na3  1  -0.09233656  -0.94265457  -0.25871496  1.0
  P  P4  1  -0.58915466  -0.77336895  -0.75126601  1.0
  P  P5  1  -0.41084534  -0.22663105  -0.24873399  1.0
  P  P6  1  -0.71280240  -0.40521441  -0.48730797  1.0
  P  P7  1  -0.28719760  -0.59478559  -0.51269203  1.0
  H  H8  1  -0.93296387  -0.62795852  -0.82175621  1.0
  H  H9  1  -0.06703613  -0.37204148  -0.17824379  1.0
  H  H10  1  -0.07768197  -0.71047749  -0.79047495  1.0
  H  H11  1  -0.92231803  -0.28952251  -0.20952505  1.0
  H  H12  1  -0.84434464  -0.68993257  -0.32745850  1.0
  H  H13  1  -0.15565536  -0.31006743  -0.67254150  1.0
  H  H14  1  -0.77386831  -0.83864555  -0.21217125  1.0
  H  H15  1  -0.22613169  -0.16135445  -0.78782875  1.0
  O  O16  1  -0.58268274  -0.66968091  -0.92631037  1.0
  O  O17  1  -0.41731726  -0.33031909  -0.07368963  1.0
  O  O18  1  -0.99746226  -0.75959599  -0.85485502  1.0
  O  O19  1  -0.00253774  -0.24040401  -0.14514498  1.0
  O  O20  1  -0.67245489  -0.98837268  -0.81858657  1.0
  O  O21  1  -0.32754511  -0.01162732  -0.18141343  1.0
  O  O22  1  -0.21862990  -0.58939399  -0.69965342  1.0
  O  O23  1  -0.78137010  -0.41060601  -0.30034658  1.0
  O  O24  1  -0.80023599  -0.37717781  -0.69885392  1.0
  O  O25  1  -0.19976401  -0.62282219  -0.30114608  1.0
  O  O26  1  -0.42612221  -0.77962676  -0.61076191  1.0
  O  O27  1  -0.57387779  -0.22037324  -0.38923809  1.0
  O  O28  1  -0.64342258  -0.62163592  -0.54361337  1.0
  O  O29  1  -0.35657742  -0.37836408  -0.45638663  1.0
  O  O30  1  -0.85945001  -0.83560652  -0.32566690  1.0
  O  O31  1  -0.14054999  -0.16439348  -0.67433310  1.0
