# generated using pymatgen
data_KBeH3
_symmetry_space_group_name_H-M   'P 1'
_cell_length_a   7.07378254
_cell_length_b   5.46890911
_cell_length_c   9.10871730
_cell_angle_alpha   90.00000000
_cell_angle_beta   108.42848921
_cell_angle_gamma   90.00000000
_symmetry_Int_Tables_number   1
_chemical_formula_structural   KBeH3
_chemical_formula_sum   'K4 Be4 H12'
_cell_volume   334.30833643
_cell_formula_units_Z   4
loop_
 _symmetry_equiv_pos_site_id
 _symmetry_equiv_pos_as_xyz
  1  'x, y, z'
loop_
 _atom_site_type_symbol
 _atom_site_label
 _atom_site_symmetry_multiplicity
 _atom_site_fract_x
 _atom_site_fract_y
 _atom_site_fract_z
 _atom_site_occupancy
  K  K0  1  0.22951198  0.24986434  0.20704409  1.0
  K  K1  1  0.77048802  0.74986434  0.29295591  1.0
  K  K2  1  0.77048802  0.75013566  0.79295591  1.0
  K  K3  1  0.22951198  0.25013566  0.70704409  1.0
  Be  Be4  1  0.24158976  0.74938024  1.00404796  1.0
  Be  Be5  1  0.75841024  0.24938024  0.49595204  1.0
  Be  Be6  1  0.75841024  0.25061976  -0.00404796  1.0
  Be  Be7  1  0.24158976  0.75061976  0.50404796  1.0
  H  H8  1  0.37332136  0.74867061  0.15608528  1.0
  H  H9  1  0.62667864  0.24867061  0.34391472  1.0
  H  H10  1  0.62667864  0.25132939  0.84391472  1.0
  H  H11  1  0.37332136  0.75132939  0.65608528  1.0
  H  H12  1  0.16733727  0.52814729  0.93131871  1.0
  H  H13  1  0.83266273  0.02814729  0.56868129  1.0
  H  H14  1  0.83266273  0.47185271  0.06868129  1.0
  H  H15  1  0.16733727  0.97185271  0.43131871  1.0
  H  H16  1  0.16823743  0.97132714  0.93197522  1.0
  H  H17  1  0.83176257  0.47132714  0.56802478  1.0
  H  H18  1  0.83176257  0.02867286  0.06802478  1.0
  H  H19  1  0.16823743  0.52867286  0.43197522  1.0
