# generated using pymatgen
data_Al2Si2H4O9
_symmetry_space_group_name_H-M   'P 1'
_cell_length_a   5.22579044
_cell_length_b   5.22579044
_cell_length_c   14.56471602
_cell_angle_alpha   86.66427704
_cell_angle_beta   93.33572296
_cell_angle_gamma   59.82171051
_symmetry_Int_Tables_number   1
_chemical_formula_structural   Al2Si2H4O9
_chemical_formula_sum   'Al4 Si4 H8 O18'
_cell_volume   341.48890903
_cell_formula_units_Z   2
loop_
 _symmetry_equiv_pos_site_id
 _symmetry_equiv_pos_as_xyz
  1  'x, y, z'
loop_
 _atom_site_type_symbol
 _atom_site_label
 _atom_site_symmetry_multiplicity
 _atom_site_fract_x
 _atom_site_fract_y
 _atom_site_fract_z
 _atom_site_occupancy
  Al  Al0  1  0.91489890  -0.08748626  0.50037977  1.0
  Al  Al1  1  0.08748626  0.08510110  0.00037977  1.0
  Al  Al2  1  1.24429425  -0.74628364  0.50160163  1.0
  Al  Al3  1  0.74628364  -0.24429425  0.00160163  1.0
  Si  Si4  1  1.01127015  -0.14562008  0.80909360  1.0
  Si  Si5  1  0.14562008  -0.01127015  0.30909360  1.0
  Si  Si6  1  0.69620810  -0.48731591  0.80974974  1.0
  Si  Si7  1  0.48731591  0.30379190  0.30974974  1.0
  H  H8  1  0.94204626  -0.78417207  0.62739648  1.0
  H  H9  1  0.78417207  0.05795374  0.12739648  1.0
  H  H10  1  1.11897762  -0.63282173  0.13014468  1.0
  H  H11  1  0.63282173  -0.11897762  0.63014468  1.0
  H  H12  1  1.33540835  -0.45100050  0.62308881  1.0
  H  H13  1  0.45100050  -0.33540835  0.12308881  1.0
  H  H14  1  0.39246511  0.25093035  0.92621267  1.0
  H  H15  1  0.74906965  -0.39246511  0.42621267  1.0
  O  O16  1  0.80524805  -0.26988663  0.76215100  1.0
  O  O17  1  0.26988663  0.19475195  0.26215100  1.0
  O  O18  1  1.00922597  -0.16270530  0.92053766  1.0
  O  O19  1  0.16270530  -0.00922597  0.42053766  1.0
  O  O20  1  0.77335637  -0.54432060  0.92094785  1.0
  O  O21  1  0.54432060  0.22664363  0.42094785  1.0
  O  O22  1  1.05064442  -0.59978643  0.06474276  1.0
  O  O23  1  0.59978643  -0.05064442  0.56474276  1.0
  O  O24  1  1.21542838  -0.43844181  0.56814356  1.0
  O  O25  1  0.43844181  -0.21542838  0.06814356  1.0
  O  O26  1  0.86886171  -0.80172929  0.76168912  1.0
  O  O27  1  0.80172929  0.13113829  0.26168912  1.0
  O  O28  1  0.34313496  -0.34379555  0.77492217  1.0
  O  O29  1  0.34379555  -0.34313496  0.27492217  1.0
  O  O30  1  0.98672505  -0.82641914  0.56436268  1.0
  O  O31  1  0.82641914  0.01327495  0.06436268  1.0
  O  O32  1  0.39328166  0.06432989  0.92683583  1.0
  O  O33  1  0.93567011  -0.39328166  0.42683583  1.0
