# generated using pymatgen
data_InBi2S4Br
_symmetry_space_group_name_H-M   'P 1'
_cell_length_a   6.73361332
_cell_length_b   6.73361332
_cell_length_c   9.86226265
_cell_angle_alpha   61.87801962
_cell_angle_beta   118.12198038
_cell_angle_gamma   145.96088565
_symmetry_Int_Tables_number   1
_chemical_formula_structural   InBi2S4Br
_chemical_formula_sum   'In1 Bi2 S4 Br1'
_cell_volume   217.78354108
_cell_formula_units_Z   1
loop_
 _symmetry_equiv_pos_site_id
 _symmetry_equiv_pos_as_xyz
  1  'x, y, z'
loop_
 _atom_site_type_symbol
 _atom_site_label
 _atom_site_symmetry_multiplicity
 _atom_site_fract_x
 _atom_site_fract_y
 _atom_site_fract_z
 _atom_site_occupancy
  In  In0  1  0.00000000  0.00000000  0.00000000  1.0
  Bi  Bi1  1  0.80042475  -0.80042475  0.23479327  1.0
  Bi  Bi2  1  0.19957525  -0.19957525  0.76520673  1.0
  S  S3  1  0.82339407  0.17660593  0.71984875  1.0
  S  S4  1  1.17660593  -0.17660593  0.28015125  1.0
  S  S5  1  0.61688751  0.38311249  0.93896215  1.0
  S  S6  1  1.38311249  -0.38311249  0.06103785  1.0
  Br  Br7  1  0.50000000  0.50000000  0.50000000  1.0
