# generated using pymatgen
data_HfNi3
_symmetry_space_group_name_H-M   'P 1'
_cell_length_a   7.12379359
_cell_length_b   7.12379359
_cell_length_c   7.12379359
_cell_angle_alpha   43.58859953
_cell_angle_beta   43.58859953
_cell_angle_gamma   43.58859953
_symmetry_Int_Tables_number   1
_chemical_formula_structural   HfNi3
_chemical_formula_sum   'Hf3 Ni9'
_cell_volume   155.96135482
_cell_formula_units_Z   3
loop_
 _symmetry_equiv_pos_site_id
 _symmetry_equiv_pos_as_xyz
  1  'x, y, z'
loop_
 _atom_site_type_symbol
 _atom_site_label
 _atom_site_symmetry_multiplicity
 _atom_site_fract_x
 _atom_site_fract_y
 _atom_site_fract_z
 _atom_site_occupancy
  Hf  Hf0  1  0.78139607  0.78139607  0.78139607  1.0
  Hf  Hf1  1  1.21860393  1.21860393  0.21860393  1.0
  Hf  Hf2  1  0.00000000  0.00000000  0.00000000  1.0
  Ni  Ni3  1  1.28778583  0.28778583  0.75440716  1.0
  Ni  Ni4  1  1.28778583  0.75440716  0.28778583  1.0
  Ni  Ni5  1  1.24559284  0.71221417  0.71221417  1.0
  Ni  Ni6  1  1.71221417  0.24559284  0.71221417  1.0
  Ni  Ni7  1  1.71221417  0.71221417  0.24559284  1.0
  Ni  Ni8  1  1.75440716  0.28778583  0.28778583  1.0
  Ni  Ni9  1  0.50000000  -0.00000000  -0.50000000  1.0
  Ni  Ni10  1  0.50000000  -0.50000000  -0.00000000  1.0
  Ni  Ni11  1  -0.00000000  0.50000000  -0.50000000  1.0
