# generated using pymatgen
data_Sn(Bi3O5)4
_symmetry_space_group_name_H-M   'P 1'
_cell_length_a   8.99191225
_cell_length_b   8.99191225
_cell_length_c   8.99191225
_cell_angle_alpha   109.47122063
_cell_angle_beta   109.47122063
_cell_angle_gamma   109.47122063
_symmetry_Int_Tables_number   1
_chemical_formula_structural   Sn(Bi3O5)4
_chemical_formula_sum   'Sn1 Bi12 O20'
_cell_volume   559.67291376
_cell_formula_units_Z   1
loop_
 _symmetry_equiv_pos_site_id
 _symmetry_equiv_pos_as_xyz
  1  'x, y, z'
loop_
 _atom_site_type_symbol
 _atom_site_label
 _atom_site_symmetry_multiplicity
 _atom_site_fract_x
 _atom_site_fract_y
 _atom_site_fract_z
 _atom_site_occupancy
  Sn  Sn0  1  -0.00000000  -0.00000000  0.00000000  1.0
  Bi  Bi1  1  0.49708373  0.33509452  0.19314589  1.0
  Bi  Bi2  1  1.14194864  1.30393784  0.80685411  1.0
  Bi  Bi3  1  0.19314589  0.49708373  0.33509452  1.0
  Bi  Bi4  1  1.16198921  0.85805136  1.66490548  1.0
  Bi  Bi5  1  0.33509452  0.19314589  0.49708373  1.0
  Bi  Bi6  1  0.69606216  0.83801079  0.50291627  1.0
  Bi  Bi7  1  0.85805136  1.66490548  1.16198921  1.0
  Bi  Bi8  1  0.50291627  0.69606216  0.83801079  1.0
  Bi  Bi9  1  0.83801079  0.50291627  0.69606216  1.0
  Bi  Bi10  1  0.80685411  1.14194864  1.30393784  1.0
  Bi  Bi11  1  1.30393784  0.80685411  1.14194864  1.0
  Bi  Bi12  1  1.66490548  1.16198921  0.85805136  1.0
  O  O13  1  0.73379042  0.62238191  0.37615631  1.0
  O  O14  1  1.24622559  1.35763410  0.62384369  1.0
  O  O15  1  0.37615631  0.73379042  0.62238191  1.0
  O  O16  1  1.11140851  0.75377441  1.37761809  1.0
  O  O17  1  0.62238191  0.37615631  0.73379042  1.0
  O  O18  1  0.64236590  0.88859149  0.26620958  1.0
  O  O19  1  0.75377441  1.37761809  1.11140851  1.0
  O  O20  1  0.26620958  0.64236590  0.88859149  1.0
  O  O21  1  0.88859149  0.26620958  0.64236590  1.0
  O  O22  1  0.62384369  1.24622559  1.35763410  1.0
  O  O23  1  1.35763410  0.62384369  1.24622559  1.0
  O  O24  1  1.37761809  1.11140851  0.75377441  1.0
  O  O25  1  0.77824143  0.77824143  0.77824143  1.0
  O  O26  1  1.00000000  1.00000000  0.22175857  1.0
  O  O27  1  1.00000000  0.22175857  1.00000000  1.0
  O  O28  1  0.22175857  1.00000000  1.00000000  1.0
  O  O29  1  0.37870487  0.37870487  0.37870487  1.0
  O  O30  1  1.00000000  1.00000000  0.62129513  1.0
  O  O31  1  1.00000000  0.62129513  1.00000000  1.0
  O  O32  1  0.62129513  1.00000000  1.00000000  1.0
