# generated using pymatgen
data_AlHg3(OF3)2
_symmetry_space_group_name_H-M   'P 1'
_cell_length_a   5.57713515
_cell_length_b   5.57713515
_cell_length_c   5.57713515
_cell_angle_alpha   81.58040492
_cell_angle_beta   81.58040492
_cell_angle_gamma   81.58040492
_symmetry_Int_Tables_number   1
_chemical_formula_structural   AlHg3(OF3)2
_chemical_formula_sum   'Al1 Hg3 O2 F6'
_cell_volume   168.36425582
_cell_formula_units_Z   1
loop_
 _symmetry_equiv_pos_site_id
 _symmetry_equiv_pos_as_xyz
  1  'x, y, z'
loop_
 _atom_site_type_symbol
 _atom_site_label
 _atom_site_symmetry_multiplicity
 _atom_site_fract_x
 _atom_site_fract_y
 _atom_site_fract_z
 _atom_site_occupancy
  Al  Al0  1  0.00000000  0.00000000  -0.00000000  1.0
  Hg  Hg1  1  0.50000000  1.00000000  -0.50000000  1.0
  Hg  Hg2  1  0.50000000  -0.50000000  0.00000000  1.0
  Hg  Hg3  1  -0.00000000  0.50000000  -0.50000000  1.0
  O  O4  1  0.65734752  0.65734752  -0.34265248  1.0
  O  O5  1  0.34265248  0.34265248  -0.65734752  1.0
  F  F6  1  0.21508184  0.21508184  -0.14435542  1.0
  F  F7  1  0.21508184  0.85564458  -0.78491816  1.0
  F  F8  1  1.14435542  -0.21508184  -0.21508184  1.0
  F  F9  1  0.78491816  0.14435542  -0.21508184  1.0
  F  F10  1  0.78491816  -0.21508184  0.14435542  1.0
  F  F11  1  0.85564458  0.21508184  -0.78491816  1.0
