# generated using pymatgen
data_BPd6
_symmetry_space_group_name_H-M   'P 1'
_cell_length_a   9.51567772
_cell_length_b   9.08088481
_cell_length_c   4.95624741
_cell_angle_alpha   79.45147947
_cell_angle_beta   69.74814833
_cell_angle_gamma   30.80037219
_symmetry_Int_Tables_number   1
_chemical_formula_structural   BPd6
_chemical_formula_sum   'B2 Pd12'
_cell_volume   199.83582810
_cell_formula_units_Z   2
loop_
 _symmetry_equiv_pos_site_id
 _symmetry_equiv_pos_as_xyz
  1  'x, y, z'
loop_
 _atom_site_type_symbol
 _atom_site_label
 _atom_site_symmetry_multiplicity
 _atom_site_fract_x
 _atom_site_fract_y
 _atom_site_fract_z
 _atom_site_occupancy
  B  B0  1  0.50000000  0.50000000  0.50000000  1.0
  B  B1  1  0.75000000  -0.25000000  0.75000000  1.0
  Pd  Pd2  1  0.33006256  0.84032311  -0.33053566  1.0
  Pd  Pd3  1  0.16014999  0.66946434  -0.15967689  1.0
  Pd  Pd4  1  -0.33053566  1.16014999  0.33006256  1.0
  Pd  Pd5  1  -0.15967689  1.33006256  0.16014999  1.0
  Pd  Pd6  1  -0.08006256  0.40967689  0.58053566  1.0
  Pd  Pd7  1  0.08985001  0.58053566  0.40967689  1.0
  Pd  Pd8  1  0.58053566  0.08985001  -0.08006256  1.0
  Pd  Pd9  1  0.40967689  -0.08006256  0.08985001  1.0
  Pd  Pd10  1  0.75537561  0.24462439  0.75537561  1.0
  Pd  Pd11  1  0.24462439  0.75537561  0.24462439  1.0
  Pd  Pd12  1  0.49462439  0.00537561  0.49462439  1.0
  Pd  Pd13  1  0.00537561  0.49462439  0.00537561  1.0
