# generated using pymatgen
data_S3N
_symmetry_space_group_name_H-M   'P 1'
_cell_length_a   8.83258685
_cell_length_b   13.80902433
_cell_length_c   8.03922847
_cell_angle_alpha   90.00000000
_cell_angle_beta   90.00000000
_cell_angle_gamma   90.00000000
_symmetry_Int_Tables_number   1
_chemical_formula_structural   S3N
_chemical_formula_sum   'S24 N8'
_cell_volume   980.53992726
_cell_formula_units_Z   8
loop_
 _symmetry_equiv_pos_site_id
 _symmetry_equiv_pos_as_xyz
  1  'x, y, z'
loop_
 _atom_site_type_symbol
 _atom_site_label
 _atom_site_symmetry_multiplicity
 _atom_site_fract_x
 _atom_site_fract_y
 _atom_site_fract_z
 _atom_site_occupancy
  N  N0  1  0.47650747  0.75000000  0.30053639  1.0
  N  N1  1  0.97650747  0.75000000  0.19946361  1.0
  N  N2  1  0.52349253  0.25000000  0.69946361  1.0
  N  N3  1  0.02349253  0.25000000  0.80053639  1.0
  N  N4  1  0.31918256  0.75000000  0.84882366  1.0
  N  N5  1  0.81918256  0.75000000  0.65117634  1.0
  N  N6  1  0.68081744  0.25000000  0.15117634  1.0
  N  N7  1  0.18081744  0.25000000  0.34882366  1.0
  S  S8  1  0.28034950  0.88070736  0.53467491  1.0
  S  S9  1  0.28034950  0.61929264  0.53467491  1.0
  S  S10  1  0.78034950  0.88070736  0.96532509  1.0
  S  S11  1  0.78034950  0.61929264  0.96532509  1.0
  S  S12  1  0.71965050  0.38070736  0.46532509  1.0
  S  S13  1  0.71965050  0.11929264  0.46532509  1.0
  S  S14  1  0.21965050  0.38070736  0.03467491  1.0
  S  S15  1  0.21965050  0.11929264  0.03467491  1.0
  S  S16  1  0.46350221  0.85876148  0.37404472  1.0
  S  S17  1  0.46350221  0.64123852  0.37404472  1.0
  S  S18  1  0.96350221  0.85876148  0.12595528  1.0
  S  S19  1  0.96350221  0.64123852  0.12595528  1.0
  S  S20  1  0.53649779  0.35876148  0.62595528  1.0
  S  S21  1  0.53649779  0.14123852  0.62595528  1.0
  S  S22  1  0.03649779  0.35876148  0.87404472  1.0
  S  S23  1  0.03649779  0.14123852  0.87404472  1.0
  S  S24  1  0.35107048  0.85854504  0.78049231  1.0
  S  S25  1  0.35107048  0.64145496  0.78049231  1.0
  S  S26  1  0.85107048  0.85854504  0.71950769  1.0
  S  S27  1  0.85107048  0.64145496  0.71950769  1.0
  S  S28  1  0.64892952  0.35854504  0.21950769  1.0
  S  S29  1  0.64892952  0.14145496  0.21950769  1.0
  S  S30  1  0.14892952  0.35854504  0.28049231  1.0
  S  S31  1  0.14892952  0.14145496  0.28049231  1.0
