# generated using pymatgen
data_Cs2Sb2Pt
_symmetry_space_group_name_H-M   'P 1'
_cell_length_a   8.41985199
_cell_length_b   8.41985199
_cell_length_c   7.10595607
_cell_angle_alpha   90.00000000
_cell_angle_beta   90.00000000
_cell_angle_gamma   125.32021207
_symmetry_Int_Tables_number   1
_chemical_formula_structural   Cs2Sb2Pt
_chemical_formula_sum   'Cs4 Sb4 Pt2'
_cell_volume   411.04209301
_cell_formula_units_Z   2
loop_
 _symmetry_equiv_pos_site_id
 _symmetry_equiv_pos_as_xyz
  1  'x, y, z'
loop_
 _atom_site_type_symbol
 _atom_site_label
 _atom_site_symmetry_multiplicity
 _atom_site_fract_x
 _atom_site_fract_y
 _atom_site_fract_z
 _atom_site_occupancy
  Cs  Cs0  1  0.19752304  0.80247696  0.75000000  1.0
  Cs  Cs1  1  -0.19752304  0.19752304  0.25000000  1.0
  Cs  Cs2  1  -0.39812016  0.39812016  0.75000000  1.0
  Cs  Cs3  1  0.39812016  0.60187984  0.25000000  1.0
  Sb  Sb4  1  0.08585602  0.27971850  0.75000000  1.0
  Sb  Sb5  1  0.27971850  1.08585602  0.25000000  1.0
  Sb  Sb6  1  0.72028150  0.91414398  0.75000000  1.0
  Sb  Sb7  1  -0.08585602  0.72028150  0.25000000  1.0
  Pt  Pt8  1  0.00000000  0.00000000  0.00000000  1.0
  Pt  Pt9  1  0.00000000  0.00000000  0.50000000  1.0
