# generated using pymatgen
data_Nb9PO25
_symmetry_space_group_name_H-M   'P 1'
_cell_length_a   11.34713990
_cell_length_b   11.34713990
_cell_length_c   11.34713990
_cell_angle_alpha   91.64621718
_cell_angle_beta   91.64621718
_cell_angle_gamma   160.48328792
_symmetry_Int_Tables_number   1
_chemical_formula_structural   Nb9PO25
_chemical_formula_sum   'Nb9 P1 O25'
_cell_volume   481.04143168
_cell_formula_units_Z   1
loop_
 _symmetry_equiv_pos_site_id
 _symmetry_equiv_pos_as_xyz
  1  'x, y, z'
loop_
 _atom_site_type_symbol
 _atom_site_label
 _atom_site_symmetry_multiplicity
 _atom_site_fract_x
 _atom_site_fract_y
 _atom_site_fract_z
 _atom_site_occupancy
  Nb  Nb0  1  0.89033388  0.67574258  0.55865946  1.0
  Nb  Nb1  1  0.66832558  0.10966612  0.78540870  1.0
  Nb  Nb2  1  1.11708312  1.33167442  1.44134054  1.0
  Nb  Nb3  1  0.32425742  0.88291688  1.21459130  1.0
  Nb  Nb4  1  0.77466131  0.88342302  1.67355653  1.0
  Nb  Nb5  1  0.89889522  1.22533869  1.10876171  1.0
  Nb  Nb6  1  0.20986649  0.10110478  0.32644347  1.0
  Nb  Nb7  1  1.11657698  0.79013351  0.89123829  1.0
  Nb  Nb8  1  0.00000000  0.00000000  0.00000000  1.0
  P  P9  1  0.75000000  0.25000000  0.50000000  1.0
  O  O10  1  0.99922518  0.73180701  0.70973878  1.0
  O  O11  1  0.71051360  0.00077482  0.73258183  1.0
  O  O12  1  1.02206823  1.28948640  1.29026122  1.0
  O  O13  1  0.26819299  0.97793177  1.26741817  1.0
  O  O14  1  0.90569593  0.52200626  0.48926507  1.0
  O  O15  1  0.58356914  0.09430407  0.61631033  1.0
  O  O16  1  1.03274119  1.41643086  1.51073493  1.0
  O  O17  1  0.47799374  0.96725881  1.38368967  1.0
  O  O18  1  0.88150886  0.94376793  1.83108175  1.0
  O  O19  1  0.94957289  1.11849114  1.06225907  1.0
  O  O20  1  0.11268618  0.05042711  0.16891825  1.0
  O  O21  1  1.05623207  0.88731382  0.93774093  1.0
  O  O22  1  0.80677385  0.76250691  0.60556015  1.0
  O  O23  1  0.79878629  0.19322615  0.95573306  1.0
  O  O24  1  1.15694677  1.20121371  1.39443985  1.0
  O  O25  1  0.23749309  0.84305323  1.04426694  1.0
  O  O26  1  0.74169562  0.60269467  0.36406980  1.0
  O  O27  1  0.62237418  0.25830438  0.86099906  1.0
  O  O28  1  1.23862488  1.37762582  1.63593020  1.0
  O  O29  1  0.39730533  0.76137512  1.13900094  1.0
  O  O30  1  0.63455077  0.83377278  1.48896695  1.0
  O  O31  1  0.85441618  1.36544923  1.19922201  1.0
  O  O32  1  0.34480584  0.14558382  0.51103305  1.0
  O  O33  1  1.16622722  0.65519416  0.80077799  1.0
  O  O34  1  0.50000000  0.50000000  -0.00000000  1.0
