# generated using pymatgen
data_Te2Au
_symmetry_space_group_name_H-M   'P 1'
_cell_length_a   16.85656690
_cell_length_b   8.92451000
_cell_length_c   4.46872501
_cell_angle_alpha   90.00000000
_cell_angle_beta   90.00000000
_cell_angle_gamma   90.00000000
_symmetry_Int_Tables_number   1
_chemical_formula_structural   Te2Au
_chemical_formula_sum   'Te16 Au8'
_cell_volume   672.25979559
_cell_formula_units_Z   8
loop_
 _symmetry_equiv_pos_site_id
 _symmetry_equiv_pos_as_xyz
  1  'x, y, z'
loop_
 _atom_site_type_symbol
 _atom_site_label
 _atom_site_symmetry_multiplicity
 _atom_site_fract_x
 _atom_site_fract_y
 _atom_site_fract_z
 _atom_site_occupancy
  Te  Te0  1  0.37009473  0.64258890  0.51376705  1.0
  Te  Te1  1  0.87009473  0.35741110  0.51376705  1.0
  Te  Te2  1  0.62990527  0.35741110  0.51376705  1.0
  Te  Te3  1  0.12990527  0.64258890  0.51376705  1.0
  Te  Te4  1  -0.00634593  0.69500163  0.91371636  1.0
  Te  Te5  1  0.49365407  0.30499837  0.91371636  1.0
  Te  Te6  1  0.00634593  0.30499837  0.91371636  1.0
  Te  Te7  1  0.50634593  0.69500163  0.91371636  1.0
  Te  Te8  1  0.88072934  0.97005990  0.45414021  1.0
  Te  Te9  1  0.38072934  0.02994010  0.45414021  1.0
  Te  Te10  1  0.11927066  0.02994010  0.45414021  1.0
  Te  Te11  1  0.61927066  0.97005990  0.45414021  1.0
  Te  Te12  1  0.25000000  0.98330981  1.01323222  1.0
  Te  Te13  1  0.75000000  0.01669019  1.01323222  1.0
  Te  Te14  1  0.25000000  0.37536252  1.09880339  1.0
  Te  Te15  1  0.75000000  0.62463748  1.09880339  1.0
  Au  Au16  1  0.37434671  0.33528835  0.49280852  1.0
  Au  Au17  1  0.87434671  0.66471165  0.49280852  1.0
  Au  Au18  1  0.62565329  0.66471165  0.49280852  1.0
  Au  Au19  1  0.12565329  0.33528835  0.49280852  1.0
  Au  Au20  1  0.25000000  0.67720125  1.00657426  1.0
  Au  Au21  1  0.75000000  0.32279875  1.00657426  1.0
  Au  Au22  1  0.50000000  0.00000000  -0.03747414  1.0
  Au  Au23  1  0.00000000  0.00000000  -0.03747414  1.0
