# generated using pymatgen
data_Na2Fe2F7
_symmetry_space_group_name_H-M   'P 1'
_cell_length_a   7.47815808
_cell_length_b   7.47815808
_cell_length_c   7.47815808
_cell_angle_alpha   119.64218987
_cell_angle_beta   90.92706386
_cell_angle_gamma   119.29053625
_symmetry_Int_Tables_number   1
_chemical_formula_structural   Na2Fe2F7
_chemical_formula_sum   'Na4 Fe4 F14'
_cell_volume   298.05149677
_cell_formula_units_Z   2
loop_
 _symmetry_equiv_pos_site_id
 _symmetry_equiv_pos_as_xyz
  1  'x, y, z'
loop_
 _atom_site_type_symbol
 _atom_site_label
 _atom_site_symmetry_multiplicity
 _atom_site_fract_x
 _atom_site_fract_y
 _atom_site_fract_z
 _atom_site_occupancy
  Fe  Fe0  1  1.11225788  1.36229414  0.74996374  1.0
  Fe  Fe1  1  1.61233040  1.36229414  1.25003626  1.0
  Fe  Fe2  1  1.11229968  0.86227154  0.74997186  1.0
  Fe  Fe3  1  1.11229968  1.36232783  1.25002814  1.0
  Na  Na4  1  1.61276188  0.86243719  0.75032469  1.0
  Na  Na5  1  1.11211250  0.86243719  0.24967531  1.0
  Na  Na6  1  0.61153634  0.36155758  0.75002124  1.0
  Na  Na7  1  0.61153634  0.86151510  1.24997876  1.0
  F  F8  1  0.43434686  0.59197496  0.84237190  1.0
  F  F9  1  0.74960306  0.59197496  1.15762810  1.0
  F  F10  1  0.79019979  0.13250939  0.65769039  1.0
  F  F11  1  0.47481900  0.13250939  0.34230961  1.0
  F  F12  1  1.19811112  0.69811112  0.50000000  1.0
  F  F13  1  0.02647874  0.02647874  0.00000000  1.0
  F  F14  1  1.16917058  1.09250210  0.66117197  1.0
  F  F15  1  1.43133013  1.09250210  0.92333152  1.0
  F  F16  1  1.16917058  1.50799861  1.07666848  1.0
  F  F17  1  1.43133013  1.50799861  1.33882803  1.0
  F  F18  1  1.05559960  1.21668547  0.42338242  1.0
  F  F19  1  1.79330305  1.21668547  1.16108587  1.0
  F  F20  1  1.05559960  1.63221718  0.83891413  1.0
  F  F21  1  1.79330305  1.63221718  1.57661758  1.0
