# generated using pymatgen
data_LiS
_symmetry_space_group_name_H-M   'P 1'
_cell_length_a   5.45137781
_cell_length_b   5.45137781
_cell_length_c   12.08555118
_cell_angle_alpha   90.00000000
_cell_angle_beta   90.00000000
_cell_angle_gamma   90.00000000
_symmetry_Int_Tables_number   1
_chemical_formula_structural   LiS
_chemical_formula_sum   'Li4 S4'
_cell_volume   359.15260895
_cell_formula_units_Z   4
loop_
 _symmetry_equiv_pos_site_id
 _symmetry_equiv_pos_as_xyz
  1  'x, y, z'
loop_
 _atom_site_type_symbol
 _atom_site_label
 _atom_site_symmetry_multiplicity
 _atom_site_fract_x
 _atom_site_fract_y
 _atom_site_fract_z
 _atom_site_occupancy
  Li  Li0  1  0.50000000  0.00000000  0.00000000  1.0
  Li  Li1  1  0.00000000  0.50000000  0.00000000  1.0
  Li  Li2  1  0.00000000  0.00000000  0.23805186  1.0
  Li  Li3  1  0.00000000  0.00000000  0.76194814  1.0
  S  S4  1  0.22013927  0.77986073  0.11932455  1.0
  S  S5  1  0.77986073  0.77986073  0.88067545  1.0
  S  S6  1  0.77986073  0.22013927  0.11932455  1.0
  S  S7  1  0.22013927  0.22013927  0.88067545  1.0
