# generated using pymatgen
data_Sr2GaCu2(BiO4)2
_symmetry_space_group_name_H-M   'P 1'
_cell_length_a   17.29123035
_cell_length_b   17.29123035
_cell_length_c   5.27280959
_cell_angle_alpha   90.00000000
_cell_angle_beta   90.00000000
_cell_angle_gamma   163.47527720
_symmetry_Int_Tables_number   1
_chemical_formula_structural   Sr2GaCu2(BiO4)2
_chemical_formula_sum   'Sr4 Ga2 Cu4 Bi4 O16'
_cell_volume   448.40229055
_cell_formula_units_Z   2
loop_
 _symmetry_equiv_pos_site_id
 _symmetry_equiv_pos_as_xyz
  1  'x, y, z'
loop_
 _atom_site_type_symbol
 _atom_site_label
 _atom_site_symmetry_multiplicity
 _atom_site_fract_x
 _atom_site_fract_y
 _atom_site_fract_z
 _atom_site_occupancy
  Sr  Sr0  1  -0.60250866  1.13454881  0.50000000  1.0
  Sr  Sr1  1  0.13454881  1.39749134  0.00000000  1.0
  Sr  Sr2  1  -0.13454881  1.60250866  0.00000000  1.0
  Sr  Sr3  1  -0.39749134  0.86545119  0.50000000  1.0
  Ga  Ga4  1  -0.50000000  1.00000000  0.50000000  1.0
  Ga  Ga5  1  -0.00000000  1.50000000  -0.00000000  1.0
  Cu  Cu6  1  -0.05853529  1.53791649  0.50000000  1.0
  Cu  Cu7  1  -0.46208351  0.94146471  -0.00000000  1.0
  Cu  Cu8  1  -0.53791649  1.05853529  0.00000000  1.0
  Cu  Cu9  1  0.05853529  1.46208351  0.50000000  1.0
  Bi  Bi10  1  -0.18813156  1.71528392  0.50000000  1.0
  Bi  Bi11  1  -0.28471608  0.81186844  0.00000000  1.0
  Bi  Bi12  1  -0.71528392  1.18813156  0.00000000  1.0
  Bi  Bi13  1  0.18813156  1.28471608  0.50000000  1.0
  O  O14  1  -0.68319315  0.68319315  0.25000000  1.0
  O  O15  1  -0.68319315  0.68319315  0.75000000  1.0
  O  O16  1  -0.31680685  1.31680685  0.75000000  1.0
  O  O17  1  -0.31680685  1.31680685  0.25000000  1.0
  O  O18  1  -0.77351600  0.77351600  0.25000000  1.0
  O  O19  1  -0.77351600  0.77351600  0.75000000  1.0
  O  O20  1  -0.22648400  1.22648400  0.75000000  1.0
  O  O21  1  -0.22648400  1.22648400  0.25000000  1.0
  O  O22  1  -0.73633077  1.16221928  0.50000000  1.0
  O  O23  1  0.16221928  1.26366923  -0.00000000  1.0
  O  O24  1  -0.16221928  1.73633077  0.00000000  1.0
  O  O25  1  -0.26366923  0.83778072  0.50000000  1.0
  O  O26  1  -0.13699857  1.64389631  0.50000000  1.0
  O  O27  1  -0.35610369  0.86300143  -0.00000000  1.0
  O  O28  1  -0.64389631  1.13699857  0.00000000  1.0
  O  O29  1  0.13699857  1.35610369  0.50000000  1.0
