# generated using pymatgen
data_Lu5(In2Ni)2
_symmetry_space_group_name_H-M   'P 1'
_cell_length_a   7.86160050
_cell_length_b   17.67422595
_cell_length_c   3.53887000
_cell_angle_alpha   90.00000000
_cell_angle_beta   90.00000000
_cell_angle_gamma   90.00000000
_symmetry_Int_Tables_number   1
_chemical_formula_structural   Lu5(In2Ni)2
_chemical_formula_sum   'Lu10 In8 Ni4'
_cell_volume   491.71785918
_cell_formula_units_Z   2
loop_
 _symmetry_equiv_pos_site_id
 _symmetry_equiv_pos_as_xyz
  1  'x, y, z'
loop_
 _atom_site_type_symbol
 _atom_site_label
 _atom_site_symmetry_multiplicity
 _atom_site_fract_x
 _atom_site_fract_y
 _atom_site_fract_z
 _atom_site_occupancy
  Lu  Lu0  1  0.38252713  0.91201005  0.00000000  1.0
  Lu  Lu1  1  0.88252713  0.58798995  0.00000000  1.0
  Lu  Lu2  1  0.61747287  0.08798995  0.00000000  1.0
  Lu  Lu3  1  0.11747287  0.41201005  0.00000000  1.0
  Lu  Lu4  1  0.25147250  0.72148236  0.00000000  1.0
  Lu  Lu5  1  0.75147250  0.77851764  0.00000000  1.0
  Lu  Lu6  1  0.74852750  0.27851764  0.00000000  1.0
  Lu  Lu7  1  0.24852750  0.22148236  0.00000000  1.0
  Lu  Lu8  1  0.50000000  0.50000000  0.00000000  1.0
  Lu  Lu9  1  0.00000000  0.00000000  0.00000000  1.0
  In  In10  1  0.20501964  0.56793774  0.50000000  1.0
  In  In11  1  0.70501964  0.93206226  0.50000000  1.0
  In  In12  1  0.79498036  0.43206226  0.50000000  1.0
  In  In13  1  0.29498036  0.06793774  0.50000000  1.0
  In  In14  1  0.07177913  0.84878110  0.50000000  1.0
  In  In15  1  0.57177913  0.65121890  0.50000000  1.0
  In  In16  1  0.92822087  0.15121890  0.50000000  1.0
  In  In17  1  0.42822087  0.34878110  0.50000000  1.0
  Ni  Ni18  1  0.47085571  0.80361247  0.50000000  1.0
  Ni  Ni19  1  0.97085571  0.69638753  0.50000000  1.0
  Ni  Ni20  1  0.52914429  0.19638753  0.50000000  1.0
  Ni  Ni21  1  0.02914429  0.30361247  0.50000000  1.0
