# generated using pymatgen
data_ClO2
_symmetry_space_group_name_H-M   'P 1'
_cell_length_a   6.44063887
_cell_length_b   10.78693414
_cell_length_c   6.84048254
_cell_angle_alpha   90.00000000
_cell_angle_beta   90.00000000
_cell_angle_gamma   90.00000000
_symmetry_Int_Tables_number   1
_chemical_formula_structural   ClO2
_chemical_formula_sum   'Cl8 O16'
_cell_volume   475.24079575
_cell_formula_units_Z   8
loop_
 _symmetry_equiv_pos_site_id
 _symmetry_equiv_pos_as_xyz
  1  'x, y, z'
loop_
 _atom_site_type_symbol
 _atom_site_label
 _atom_site_symmetry_multiplicity
 _atom_site_fract_x
 _atom_site_fract_y
 _atom_site_fract_z
 _atom_site_occupancy
  Cl  Cl0  1  0.37390943  0.11948275  0.02460079  1.0
  Cl  Cl1  1  0.37390943  0.38051725  0.52460079  1.0
  Cl  Cl2  1  0.87390943  0.11948275  0.47539921  1.0
  Cl  Cl3  1  0.87390943  0.38051725  0.97539921  1.0
  Cl  Cl4  1  0.62609057  0.61948275  0.47539921  1.0
  Cl  Cl5  1  0.62609057  0.88051725  0.97539921  1.0
  Cl  Cl6  1  0.12609057  0.61948275  0.02460079  1.0
  Cl  Cl7  1  0.12609057  0.88051725  0.52460079  1.0
  O  O8  1  0.48502783  0.21547214  0.14164556  1.0
  O  O9  1  0.48502783  0.28452786  0.64164556  1.0
  O  O10  1  0.98502783  0.21547214  0.35835444  1.0
  O  O11  1  0.98502783  0.28452786  0.85835444  1.0
  O  O12  1  0.51497217  0.71547214  0.35835444  1.0
  O  O13  1  0.51497217  0.78452786  0.85835444  1.0
  O  O14  1  0.01497217  0.71547214  0.14164556  1.0
  O  O15  1  0.01497217  0.78452786  0.64164556  1.0
  O  O16  1  0.16396867  0.49766040  0.12590224  1.0
  O  O17  1  0.16396867  0.00233960  0.62590224  1.0
  O  O18  1  0.66396867  0.49766040  0.37409776  1.0
  O  O19  1  0.66396867  0.00233960  0.87409776  1.0
  O  O20  1  0.83603133  0.99766040  0.37409776  1.0
  O  O21  1  0.83603133  0.50233960  0.87409776  1.0
  O  O22  1  0.33603133  0.99766040  0.12590224  1.0
  O  O23  1  0.33603133  0.50233960  0.62590224  1.0
