# generated using pymatgen
data_Cs3Fe2Cl9
_symmetry_space_group_name_H-M   'P 1'
_cell_length_a   7.45828782
_cell_length_b   7.45828782
_cell_length_c   18.32734953
_cell_angle_alpha   90.00000000
_cell_angle_beta   90.00000000
_cell_angle_gamma   120.00000000
_symmetry_Int_Tables_number   1
_chemical_formula_structural   Cs3Fe2Cl9
_chemical_formula_sum   'Cs6 Fe4 Cl18'
_cell_volume   882.89401502
_cell_formula_units_Z   2
loop_
 _symmetry_equiv_pos_site_id
 _symmetry_equiv_pos_as_xyz
  1  'x, y, z'
loop_
 _atom_site_type_symbol
 _atom_site_label
 _atom_site_symmetry_multiplicity
 _atom_site_fract_x
 _atom_site_fract_y
 _atom_site_fract_z
 _atom_site_occupancy
  Cs  Cs0  1  0.33333333  0.66666667  0.41840183  1.0
  Cs  Cs1  1  0.33333333  0.66666667  0.08159817  1.0
  Cs  Cs2  1  0.66666667  0.33333333  0.91840183  1.0
  Cs  Cs3  1  0.66666667  0.33333333  0.58159817  1.0
  Cs  Cs4  1  0.00000000  0.00000000  0.25000000  1.0
  Cs  Cs5  1  0.00000000  0.00000000  0.75000000  1.0
  Fe  Fe6  1  0.33333333  0.66666667  0.84429872  1.0
  Fe  Fe7  1  0.33333333  0.66666667  0.65570128  1.0
  Fe  Fe8  1  0.66666667  0.33333333  0.34429872  1.0
  Fe  Fe9  1  0.66666667  0.33333333  0.15570128  1.0
  Cl  Cl10  1  0.17934856  0.82065144  0.90678102  1.0
  Cl  Cl11  1  0.17934856  0.82065144  0.59321898  1.0
  Cl  Cl12  1  0.17934856  0.35869712  0.90678102  1.0
  Cl  Cl13  1  0.17934856  0.35869712  0.59321898  1.0
  Cl  Cl14  1  0.82065144  0.17934856  0.40678102  1.0
  Cl  Cl15  1  0.82065144  0.17934856  0.09321898  1.0
  Cl  Cl16  1  0.82065144  0.64130288  0.40678102  1.0
  Cl  Cl17  1  0.82065144  0.64130288  0.09321898  1.0
  Cl  Cl18  1  0.64130288  0.82065144  0.90678102  1.0
  Cl  Cl19  1  0.64130288  0.82065144  0.59321898  1.0
  Cl  Cl20  1  0.35869712  0.17934856  0.40678102  1.0
  Cl  Cl21  1  0.35869712  0.17934856  0.09321898  1.0
  Cl  Cl22  1  0.52010218  0.47989782  0.25000000  1.0
  Cl  Cl23  1  0.52010218  0.04020437  0.25000000  1.0
  Cl  Cl24  1  0.47989782  0.52010218  0.75000000  1.0
  Cl  Cl25  1  0.47989782  0.95979563  0.75000000  1.0
  Cl  Cl26  1  0.95979563  0.47989782  0.25000000  1.0
  Cl  Cl27  1  0.04020437  0.52010218  0.75000000  1.0
