# generated using pymatgen
data_RbNb3CuCl9
_symmetry_space_group_name_H-M   'P 1'
_cell_length_a   9.60734787
_cell_length_b   9.49536699
_cell_length_c   9.52371139
_cell_angle_alpha   60.15778559
_cell_angle_beta   69.93085123
_cell_angle_gamma   74.66295150
_symmetry_Int_Tables_number   1
_chemical_formula_structural   RbNb3CuCl9
_chemical_formula_sum   'Rb2 Nb6 Cu2 Cl18'
_cell_volume   703.13936779
_cell_formula_units_Z   2
loop_
 _symmetry_equiv_pos_site_id
 _symmetry_equiv_pos_as_xyz
  1  'x, y, z'
loop_
 _atom_site_type_symbol
 _atom_site_label
 _atom_site_symmetry_multiplicity
 _atom_site_fract_x
 _atom_site_fract_y
 _atom_site_fract_z
 _atom_site_occupancy
  Rb  Rb0  1  0.66578768  -0.28520902  -0.25032145  1.0
  Rb  Rb1  1  0.33421232  0.28520902  -0.74967855  1.0
  Nb  Nb2  1  0.13659623  -0.16980906  -0.07808661  1.0
  Nb  Nb3  1  0.86340377  0.16980906  -0.92191339  1.0
  Nb  Nb4  1  0.13350432  0.17959911  -0.18991582  1.0
  Nb  Nb5  1  0.86649568  -0.17959911  -0.81008418  1.0
  Nb  Nb6  1  0.86856285  0.05562582  -0.15850623  1.0
  Nb  Nb7  1  0.13143715  -0.05562582  -0.84149377  1.0
  Cu  Cu8  1  0.68564191  0.36838974  -0.57589151  1.0
  Cu  Cu9  1  0.31435809  -0.36838974  -0.42410849  1.0
  Cl  Cl10  1  -0.00581470  -0.58817613  -0.13262368  1.0
  Cl  Cl11  1  1.00581470  0.58817613  -0.86737632  1.0
  Cl  Cl12  1  0.00549619  -0.13745064  -0.27538148  1.0
  Cl  Cl13  1  0.99450381  0.13745064  -0.72461852  1.0
  Cl  Cl14  1  0.00359075  0.27459803  -0.41045367  1.0
  Cl  Cl15  1  0.99640925  -0.27459803  -0.58954633  1.0
  Cl  Cl16  1  0.31652842  0.73234508  -0.90511889  1.0
  Cl  Cl17  1  0.68347158  -0.73234508  -0.09488111  1.0
  Cl  Cl18  1  0.31113810  -0.85467509  -0.03723266  1.0
  Cl  Cl19  1  0.68886190  0.85467509  -0.96276734  1.0
  Cl  Cl20  1  0.31996661  -0.38838051  -0.17722418  1.0
  Cl  Cl21  1  0.68003339  0.38838051  -0.82277582  1.0
  Cl  Cl22  1  0.30721193  0.40249860  -0.43614325  1.0
  Cl  Cl23  1  0.69278807  -0.40249860  -0.56385675  1.0
  Cl  Cl24  1  0.31897635  0.01012935  -0.31667156  1.0
  Cl  Cl25  1  0.68102365  -0.01012935  -0.68332844  1.0
  Cl  Cl26  1  0.69977392  0.12049569  -0.35566313  1.0
  Cl  Cl27  1  0.30022608  -0.12049569  -0.64433687  1.0
