# generated using pymatgen
data_Li3FeN2
_symmetry_space_group_name_H-M   'P 1'
_cell_length_a   5.81339163
_cell_length_b   5.81339163
_cell_length_c   5.81339163
_cell_angle_alpha   131.25273944
_cell_angle_beta   70.22392386
_cell_angle_gamma   132.76268189
_symmetry_Int_Tables_number   1
_chemical_formula_structural   Li3FeN2
_chemical_formula_sum   'Li6 Fe2 N4'
_cell_volume   106.29163783
_cell_formula_units_Z   2
loop_
 _symmetry_equiv_pos_site_id
 _symmetry_equiv_pos_as_xyz
  1  'x, y, z'
loop_
 _atom_site_type_symbol
 _atom_site_label
 _atom_site_symmetry_multiplicity
 _atom_site_fract_x
 _atom_site_fract_y
 _atom_site_fract_z
 _atom_site_occupancy
  Li  Li0  1  0.99307193  1.25000000  0.74307193  1.0
  Li  Li1  1  0.49307193  0.75000000  0.74307193  1.0
  Li  Li2  1  1.00692807  0.75000000  0.25692807  1.0
  Li  Li3  1  0.50692807  0.25000000  0.25692807  1.0
  Li  Li4  1  0.25000000  0.75000000  0.50000000  1.0
  Li  Li5  1  0.75000000  1.25000000  0.50000000  1.0
  Fe  Fe6  1  0.25000000  0.25000000  0.00000000  1.0
  Fe  Fe7  1  0.75000000  0.75000000  0.00000000  1.0
  N  N8  1  0.38592988  0.27982650  0.66575638  1.0
  N  N9  1  0.11407012  0.77982650  0.89389662  1.0
  N  N10  1  0.88592988  1.22017350  1.10610338  1.0
  N  N11  1  0.61407012  0.72017350  0.33424362  1.0
