# generated using pymatgen
data_Sr3Fe2TeO9
_symmetry_space_group_name_H-M   'P 1'
_cell_length_a   5.65117995
_cell_length_b   5.65117995
_cell_length_c   13.81965466
_cell_angle_alpha   90.00000000
_cell_angle_beta   90.00000000
_cell_angle_gamma   120.00000000
_symmetry_Int_Tables_number   1
_chemical_formula_structural   Sr3Fe2TeO9
_chemical_formula_sum   'Sr6 Fe4 Te2 O18'
_cell_volume   382.21356503
_cell_formula_units_Z   2
loop_
 _symmetry_equiv_pos_site_id
 _symmetry_equiv_pos_as_xyz
  1  'x, y, z'
loop_
 _atom_site_type_symbol
 _atom_site_label
 _atom_site_symmetry_multiplicity
 _atom_site_fract_x
 _atom_site_fract_y
 _atom_site_fract_z
 _atom_site_occupancy
  Fe  Fe0  1  0.33333333  0.66666667  0.17296566  1.0
  Fe  Fe1  1  0.33333333  0.66666667  0.67296566  1.0
  Fe  Fe2  1  0.66666667  0.33333333  0.82703434  1.0
  Fe  Fe3  1  0.66666667  0.33333333  0.32703434  1.0
  O  O4  1  0.87489669  0.65858981  0.91199424  1.0
  O  O5  1  0.78369312  0.12510331  0.91199424  1.0
  O  O6  1  0.34141019  0.21630688  0.91199424  1.0
  O  O7  1  0.87489669  0.21630688  0.41199424  1.0
  O  O8  1  0.34141019  0.12510331  0.41199424  1.0
  O  O9  1  0.78369312  0.65858981  0.41199424  1.0
  O  O10  1  0.12510331  0.34141019  0.08800576  1.0
  O  O11  1  0.21630688  0.87489669  0.08800576  1.0
  O  O12  1  0.65858981  0.78369312  0.08800576  1.0
  O  O13  1  0.12510331  0.78369312  0.58800576  1.0
  O  O14  1  0.65858981  0.87489669  0.58800576  1.0
  O  O15  1  0.21630688  0.34141019  0.58800576  1.0
  O  O16  1  0.53277691  0.00000000  0.25000000  1.0
  O  O17  1  0.46722309  0.46722309  0.25000000  1.0
  O  O18  1  0.00000000  0.53277691  0.25000000  1.0
  O  O19  1  0.53277691  0.53277691  0.75000000  1.0
  O  O20  1  -0.00000000  0.46722309  0.75000000  1.0
  O  O21  1  0.46722309  0.00000000  0.75000000  1.0
  Sr  Sr22  1  0.00000000  0.00000000  0.25000000  1.0
  Sr  Sr23  1  0.00000000  0.00000000  0.75000000  1.0
  Sr  Sr24  1  0.33333333  0.66666667  0.90941730  1.0
  Sr  Sr25  1  0.33333333  0.66666667  0.40941730  1.0
  Sr  Sr26  1  0.66666667  0.33333333  0.09058270  1.0
  Sr  Sr27  1  0.66666667  0.33333333  0.59058270  1.0
  Te  Te28  1  0.00000000  0.00000000  0.50000000  1.0
  Te  Te29  1  0.00000000  0.00000000  0.00000000  1.0
