# generated using pymatgen
data_EuCN2
_symmetry_space_group_name_H-M   'P 1'
_cell_length_a   12.26038841
_cell_length_b   3.88266088
_cell_length_c   5.40683692
_cell_angle_alpha   90.00000000
_cell_angle_beta   90.00000000
_cell_angle_gamma   90.00000000
_symmetry_Int_Tables_number   1
_chemical_formula_structural   EuCN2
_chemical_formula_sum   'Eu4 C4 N8'
_cell_volume   257.38128148
_cell_formula_units_Z   4
loop_
 _symmetry_equiv_pos_site_id
 _symmetry_equiv_pos_as_xyz
  1  'x, y, z'
loop_
 _atom_site_type_symbol
 _atom_site_label
 _atom_site_symmetry_multiplicity
 _atom_site_fract_x
 _atom_site_fract_y
 _atom_site_fract_z
 _atom_site_occupancy
  C  C0  1  0.37858014  0.25000000  0.11003638  1.0
  C  C1  1  0.12141986  0.75000000  0.61003638  1.0
  C  C2  1  0.87858014  0.25000000  0.38996362  1.0
  C  C3  1  0.62141986  0.75000000  0.88996362  1.0
  N  N4  1  0.32918915  0.25000000  -0.09080957  1.0
  N  N5  1  0.17081085  0.75000000  0.40919043  1.0
  N  N6  1  0.82918915  0.25000000  0.59080957  1.0
  N  N7  1  0.67081085  0.75000000  1.09080957  1.0
  N  N8  1  0.42566566  0.25000000  0.31292762  1.0
  N  N9  1  0.07433434  0.75000000  0.81292762  1.0
  N  N10  1  0.92566566  0.25000000  0.18707238  1.0
  N  N11  1  0.57433434  0.75000000  0.68707238  1.0
  Eu  Eu12  1  0.13170927  0.25000000  0.10652095  1.0
  Eu  Eu13  1  0.36829073  0.75000000  0.60652095  1.0
  Eu  Eu14  1  0.63170927  0.25000000  0.39347905  1.0
  Eu  Eu15  1  0.86829073  0.75000000  0.89347905  1.0
