# generated using pymatgen
data_InCuPO5
_symmetry_space_group_name_H-M   'P 1'
_cell_length_a   7.97259085
_cell_length_b   6.71667413
_cell_length_c   7.36939882
_cell_angle_alpha   90.00000000
_cell_angle_beta   90.00000000
_cell_angle_gamma   90.00000000
_symmetry_Int_Tables_number   1
_chemical_formula_structural   InCuPO5
_chemical_formula_sum   'In4 Cu4 P4 O20'
_cell_volume   394.62610929
_cell_formula_units_Z   4
loop_
 _symmetry_equiv_pos_site_id
 _symmetry_equiv_pos_as_xyz
  1  'x, y, z'
loop_
 _atom_site_type_symbol
 _atom_site_label
 _atom_site_symmetry_multiplicity
 _atom_site_fract_x
 _atom_site_fract_y
 _atom_site_fract_z
 _atom_site_occupancy
  P  P0  1  0.10460698  0.75000000  0.35990093  1.0
  P  P1  1  0.60460698  0.75000000  0.14009907  1.0
  P  P2  1  0.89539302  0.25000000  0.64009907  1.0
  P  P3  1  0.39539302  0.25000000  0.85990093  1.0
  O  O4  1  0.37791509  0.43688785  0.73154974  1.0
  O  O5  1  0.37791509  0.06311215  0.73154974  1.0
  O  O6  1  0.87791509  0.43688785  0.76845026  1.0
  O  O7  1  0.87791509  0.06311215  0.76845026  1.0
  O  O8  1  0.62208491  0.93688785  0.26845026  1.0
  O  O9  1  0.62208491  0.56311215  0.26845026  1.0
  O  O10  1  0.12208491  0.93688785  0.23154974  1.0
  O  O11  1  0.12208491  0.56311215  0.23154974  1.0
  O  O12  1  0.43165276  0.75000000  0.04963067  1.0
  O  O13  1  0.93165276  0.75000000  0.45036933  1.0
  O  O14  1  0.56834724  0.25000000  0.95036933  1.0
  O  O15  1  0.06834724  0.25000000  0.54963067  1.0
  O  O16  1  0.25305777  0.75000000  0.49408284  1.0
  O  O17  1  0.75305777  0.75000000  0.00591716  1.0
  O  O18  1  0.74694223  0.25000000  0.50591716  1.0
  O  O19  1  0.24694223  0.25000000  0.99408284  1.0
  O  O20  1  0.06736900  0.75000000  0.87507775  1.0
  O  O21  1  0.56736900  0.75000000  0.62492225  1.0
  O  O22  1  0.93263100  0.25000000  0.12492225  1.0
  O  O23  1  0.43263100  0.25000000  0.37507775  1.0
  Cu  Cu24  1  0.50000000  0.00000000  0.50000000  1.0
  Cu  Cu25  1  0.50000000  0.50000000  0.50000000  1.0
  Cu  Cu26  1  0.00000000  0.00000000  0.00000000  1.0
  Cu  Cu27  1  -0.00000000  0.50000000  0.00000000  1.0
  In  In28  1  0.32242812  0.75000000  0.78881863  1.0
  In  In29  1  0.82242812  0.75000000  0.71118137  1.0
  In  In30  1  0.67757188  0.25000000  0.21118137  1.0
  In  In31  1  0.17757188  0.25000000  0.28881863  1.0
