# generated using pymatgen
data_K4CoMo4O15
_symmetry_space_group_name_H-M   'P 1'
_cell_length_a   10.41315689
_cell_length_b   10.41315689
_cell_length_c   8.27129934
_cell_angle_alpha   90.00000000
_cell_angle_beta   90.00000000
_cell_angle_gamma   120.00000000
_symmetry_Int_Tables_number   1
_chemical_formula_structural   K4CoMo4O15
_chemical_formula_sum   'K8 Co2 Mo8 O30'
_cell_volume   776.72841528
_cell_formula_units_Z   2
loop_
 _symmetry_equiv_pos_site_id
 _symmetry_equiv_pos_as_xyz
  1  'x, y, z'
loop_
 _atom_site_type_symbol
 _atom_site_label
 _atom_site_symmetry_multiplicity
 _atom_site_fract_x
 _atom_site_fract_y
 _atom_site_fract_z
 _atom_site_occupancy
  K  K0  1  0.09478100  0.69510387  0.35927191  1.0
  K  K1  1  0.69510387  0.60032287  0.64072809  1.0
  K  K2  1  0.60032287  0.90521900  0.35927191  1.0
  K  K3  1  0.30489613  0.39967713  0.35927191  1.0
  K  K4  1  0.90521900  0.30489613  0.64072809  1.0
  K  K5  1  0.39967713  0.09478100  0.64072809  1.0
  K  K6  1  0.00000000  0.00000000  0.50000000  1.0
  K  K7  1  0.00000000  0.00000000  0.00000000  1.0
  Co  Co8  1  0.33333333  0.66666667  0.02389493  1.0
  Co  Co9  1  0.66666667  0.33333333  0.97610507  1.0
  Mo  Mo10  1  0.67038494  0.65845186  0.13338704  1.0
  Mo  Mo11  1  0.65845186  0.98806693  0.86661296  1.0
  Mo  Mo12  1  0.98806693  0.32961506  0.13338704  1.0
  Mo  Mo13  1  0.34154814  0.01193307  0.13338704  1.0
  Mo  Mo14  1  0.32961506  0.34154814  0.86661296  1.0
  Mo  Mo15  1  0.01193307  0.67038494  0.86661296  1.0
  Mo  Mo16  1  0.33333333  0.66666667  0.65023862  1.0
  Mo  Mo17  1  0.66666667  0.33333333  0.34976138  1.0
  O  O18  1  0.36067556  0.84942423  0.15256993  1.0
  O  O19  1  0.84942423  0.48874866  0.84743007  1.0
  O  O20  1  0.48874866  0.63932444  0.15256993  1.0
  O  O21  1  0.15057577  0.51125134  0.15256993  1.0
  O  O22  1  0.63932444  0.15057577  0.84743007  1.0
  O  O23  1  0.51125134  0.36067556  0.84743007  1.0
  O  O24  1  0.78270949  0.77972921  0.28797625  1.0
  O  O25  1  0.77972921  0.99701972  0.71202375  1.0
  O  O26  1  0.99701972  0.21729051  0.28797625  1.0
  O  O27  1  0.22027079  0.00298028  0.28797625  1.0
  O  O28  1  0.21729051  0.22027079  0.71202375  1.0
  O  O29  1  0.00298028  0.78270949  0.71202375  1.0
  O  O30  1  0.00892648  0.73840693  0.05817400  1.0
  O  O31  1  0.73840693  0.72948045  0.94182600  1.0
  O  O32  1  0.72948045  0.99107352  0.05817400  1.0
  O  O33  1  0.26159307  0.27051955  0.05817400  1.0
  O  O34  1  0.99107352  0.26159307  0.94182600  1.0
  O  O35  1  0.27051955  0.00892648  0.94182600  1.0
  O  O36  1  0.82375302  0.48028495  0.44141582  1.0
  O  O37  1  0.48028495  0.65653193  0.55858418  1.0
  O  O38  1  0.65653193  0.17624698  0.44141582  1.0
  O  O39  1  0.51971505  0.34346807  0.44141582  1.0
  O  O40  1  0.17624698  0.51971505  0.55858418  1.0
  O  O41  1  0.34346807  0.82375302  0.55858418  1.0
  O  O42  1  0.66262996  0.47852040  0.15200630  1.0
  O  O43  1  0.47852040  0.81589043  0.84799370  1.0
  O  O44  1  0.81589043  0.33737004  0.15200630  1.0
  O  O45  1  0.52147960  0.18410957  0.15200630  1.0
  O  O46  1  0.33737004  0.52147960  0.84799370  1.0
  O  O47  1  0.18410957  0.66262996  0.84799370  1.0
