# generated using pymatgen
data_CuH4(OF)2
_symmetry_space_group_name_H-M   'P 1'
_cell_length_a   5.15863007
_cell_length_b   5.15863007
_cell_length_c   3.58110601
_cell_angle_alpha   72.39061628
_cell_angle_beta   107.60938372
_cell_angle_gamma   88.81800294
_symmetry_Int_Tables_number   1
_chemical_formula_structural   CuH4(OF)2
_chemical_formula_sum   'Cu1 H4 O2 F2'
_cell_volume   85.91434321
_cell_formula_units_Z   1
loop_
 _symmetry_equiv_pos_site_id
 _symmetry_equiv_pos_as_xyz
  1  'x, y, z'
loop_
 _atom_site_type_symbol
 _atom_site_label
 _atom_site_symmetry_multiplicity
 _atom_site_fract_x
 _atom_site_fract_y
 _atom_site_fract_z
 _atom_site_occupancy
  Cu  Cu0  1  0.00000000  0.00000000  0.00000000  1.0
  H  H1  1  0.55066039  -0.22730672  0.79883371  1.0
  H  H2  1  1.22730672  0.44933961  0.79883371  1.0
  H  H3  1  0.77269328  -0.44933961  0.20116629  1.0
  H  H4  1  1.44933961  0.22730672  0.20116629  1.0
  O  O5  1  0.73944042  -0.26055958  -0.00000000  1.0
  O  O6  1  1.26055958  0.26055958  -0.00000000  1.0
  F  F7  1  0.76911033  -0.76911033  0.45806380  1.0
  F  F8  1  0.23088967  -0.23088967  0.54193620  1.0
