# generated using pymatgen
data_CsIn3F10
_symmetry_space_group_name_H-M   'P 1'
_cell_length_a   6.96780983
_cell_length_b   7.90382676
_cell_length_c   8.32869844
_cell_angle_alpha   90.00000000
_cell_angle_beta   90.00000000
_cell_angle_gamma   90.00000000
_symmetry_Int_Tables_number   1
_chemical_formula_structural   CsIn3F10
_chemical_formula_sum   'Cs2 In6 F20'
_cell_volume   458.68109352
_cell_formula_units_Z   2
loop_
 _symmetry_equiv_pos_site_id
 _symmetry_equiv_pos_as_xyz
  1  'x, y, z'
loop_
 _atom_site_type_symbol
 _atom_site_label
 _atom_site_symmetry_multiplicity
 _atom_site_fract_x
 _atom_site_fract_y
 _atom_site_fract_z
 _atom_site_occupancy
  Cs  Cs0  1  -0.01619877  0.50000000  0.50000000  1.0
  Cs  Cs1  1  0.01619877  0.50000000  0.00000000  1.0
  In  In2  1  0.00000000  0.00006481  0.75000000  1.0
  In  In3  1  0.00000000  -0.00006481  0.25000000  1.0
  In  In4  1  0.50000000  0.26941077  0.75000000  1.0
  In  In5  1  0.50000000  0.73058923  0.25000000  1.0
  In  In6  1  0.50000000  0.73068808  0.75000000  1.0
  In  In7  1  0.50000000  0.26931192  0.25000000  1.0
  F  F8  1  0.80357581  0.80188760  0.21213513  1.0
  F  F9  1  0.80357581  0.19811240  0.78786487  1.0
  F  F10  1  0.19642419  0.80188760  0.28786487  1.0
  F  F11  1  0.19642419  0.19811240  0.71213513  1.0
  F  F12  1  0.93666782  0.00000000  0.50000000  1.0
  F  F13  1  0.06333218  0.00000000  0.00000000  1.0
  F  F14  1  0.50000000  0.00006709  0.75000000  1.0
  F  F15  1  0.50000000  -0.00006709  0.25000000  1.0
  F  F16  1  0.55537763  0.72219262  0.49999533  1.0
  F  F17  1  0.55537763  0.27780738  0.50000467  1.0
  F  F18  1  0.44462237  0.72219262  1.00000467  1.0
  F  F19  1  0.44462237  0.27780738  -0.00000467  1.0
  F  F20  1  0.67428521  0.50003821  0.77169719  1.0
  F  F21  1  0.67428521  0.49996179  0.22830281  1.0
  F  F22  1  0.32571479  0.50003821  0.72830281  1.0
  F  F23  1  0.32571479  0.49996179  0.27169719  1.0
  F  F24  1  0.80352410  0.80200318  0.78762576  1.0
  F  F25  1  0.80352410  0.19799682  0.21237424  1.0
  F  F26  1  0.19647590  0.80200318  0.71237424  1.0
  F  F27  1  0.19647590  0.19799682  0.28762576  1.0
