# generated using pymatgen
data_CsLu(WO4)2
_symmetry_space_group_name_H-M   'P 1'
_cell_length_a   7.62717599
_cell_length_b   7.62717599
_cell_length_c   7.63488299
_cell_angle_alpha   61.90047617
_cell_angle_beta   118.09952383
_cell_angle_gamma   92.36381015
_symmetry_Int_Tables_number   1
_chemical_formula_structural   CsLu(WO4)2
_chemical_formula_sum   'Cs2 Lu2 W4 O16'
_cell_volume   336.18042093
_cell_formula_units_Z   2
loop_
 _symmetry_equiv_pos_site_id
 _symmetry_equiv_pos_as_xyz
  1  'x, y, z'
loop_
 _atom_site_type_symbol
 _atom_site_label
 _atom_site_symmetry_multiplicity
 _atom_site_fract_x
 _atom_site_fract_y
 _atom_site_fract_z
 _atom_site_occupancy
  Cs  Cs0  1  0.19616207  0.19616207  0.25000000  1.0
  Cs  Cs1  1  0.80383793  0.80383793  0.75000000  1.0
  Lu  Lu2  1  0.77674093  0.77674093  0.25000000  1.0
  Lu  Lu3  1  0.22325907  0.22325907  0.75000000  1.0
  W  W4  1  0.69464461  0.30867671  0.22316295  1.0
  W  W5  1  0.69132329  0.30535539  0.72316295  1.0
  W  W6  1  1.30867671  -0.30535539  0.27683705  1.0
  W  W7  1  1.30535539  -0.30867671  0.77683705  1.0
  O  O8  1  1.59538495  -0.37590281  0.04281176  1.0
  O  O9  1  1.37590281  -0.59538495  0.54281176  1.0
  O  O10  1  0.62409719  0.59538495  0.45718824  1.0
  O  O11  1  0.40461505  0.37590281  0.95718824  1.0
  O  O12  1  0.76245701  0.05084912  0.28644450  1.0
  O  O13  1  0.94915088  0.23754299  0.78644450  1.0
  O  O14  1  1.05084912  -0.23754299  0.21355550  1.0
  O  O15  1  1.23754299  -0.05084912  0.71355550  1.0
  O  O16  1  1.35457253  -0.05687828  0.11813469  1.0
  O  O17  1  1.05687828  -0.35457253  0.61813469  1.0
  O  O18  1  0.94312172  0.35457253  0.38186531  1.0
  O  O19  1  0.64542747  0.05687828  0.88186531  1.0
  O  O20  1  0.61923216  0.24845840  0.43297497  1.0
  O  O21  1  0.75154160  0.38076784  0.93297497  1.0
  O  O22  1  1.24845840  -0.38076784  0.06702503  1.0
  O  O23  1  1.38076784  -0.24845840  0.56702503  1.0
