# generated using pymatgen
data_Tm4Ni
_symmetry_space_group_name_H-M   'P 1'
_cell_length_a   7.60888813
_cell_length_b   7.60888813
_cell_length_c   7.60888813
_cell_angle_alpha   60.00000000
_cell_angle_beta   60.00000000
_cell_angle_gamma   60.00000000
_symmetry_Int_Tables_number   1
_chemical_formula_structural   Tm4Ni
_chemical_formula_sum   'Tm8 Ni2'
_cell_volume   311.49322005
_cell_formula_units_Z   2
loop_
 _symmetry_equiv_pos_site_id
 _symmetry_equiv_pos_as_xyz
  1  'x, y, z'
loop_
 _atom_site_type_symbol
 _atom_site_label
 _atom_site_symmetry_multiplicity
 _atom_site_fract_x
 _atom_site_fract_y
 _atom_site_fract_z
 _atom_site_occupancy
  Tm  Tm0  1  -0.11398668  0.88601332  0.34196005  1.0
  Tm  Tm1  1  0.88601332  -0.65803995  0.88601332  1.0
  Tm  Tm2  1  0.36398668  0.36398668  0.36398668  1.0
  Tm  Tm3  1  -0.09196005  0.36398668  0.36398668  1.0
  Tm  Tm4  1  -0.65803995  0.88601332  0.88601332  1.0
  Tm  Tm5  1  0.88601332  -0.11398668  0.88601332  1.0
  Tm  Tm6  1  0.36398668  -0.09196005  0.36398668  1.0
  Tm  Tm7  1  0.36398668  0.36398668  -0.09196005  1.0
  Ni  Ni8  1  0.50000000  0.50000000  -0.50000000  1.0
  Ni  Ni9  1  0.75000000  -0.25000000  0.75000000  1.0
