# generated using pymatgen
data_Ag(CO)2
_symmetry_space_group_name_H-M   'P 1'
_cell_length_a   3.55184468
_cell_length_b   7.51267862
_cell_length_c   11.28738219
_cell_angle_alpha   90.00000000
_cell_angle_beta   89.60457626
_cell_angle_gamma   90.00000000
_symmetry_Int_Tables_number   1
_chemical_formula_structural   Ag(CO)2
_chemical_formula_sum   'Ag4 C8 O8'
_cell_volume   301.18383880
_cell_formula_units_Z   4
loop_
 _symmetry_equiv_pos_site_id
 _symmetry_equiv_pos_as_xyz
  1  'x, y, z'
loop_
 _atom_site_type_symbol
 _atom_site_label
 _atom_site_symmetry_multiplicity
 _atom_site_fract_x
 _atom_site_fract_y
 _atom_site_fract_z
 _atom_site_occupancy
  Ag  Ag0  1  0.68741268  0.43256121  0.14723511  1.0
  Ag  Ag1  1  0.68741268  0.06743879  0.64723511  1.0
  Ag  Ag2  1  0.31258732  0.93256121  0.35276489  1.0
  Ag  Ag3  1  0.31258732  0.56743879  0.85276489  1.0
  C  C4  1  0.59240141  0.36995835  0.48736296  1.0
  C  C5  1  0.59240141  0.13004165  0.98736296  1.0
  C  C6  1  0.40759859  0.86995835  0.01263704  1.0
  C  C7  1  0.40759859  0.63004165  0.51263704  1.0
  C  C8  1  0.43140885  0.02969558  0.08758210  1.0
  C  C9  1  0.43140885  0.47030442  0.58758210  1.0
  C  C10  1  0.56859115  0.52969558  0.41241790  1.0
  C  C11  1  0.56859115  0.97030442  0.91241790  1.0
  O  O12  1  0.70462101  0.21095997  0.47774598  1.0
  O  O13  1  0.70462101  0.28904003  0.97774598  1.0
  O  O14  1  0.29537899  0.71095997  0.02225402  1.0
  O  O15  1  0.29537899  0.78904003  0.52225402  1.0
  O  O16  1  0.35311142  0.08206385  0.19088537  1.0
  O  O17  1  0.35311142  0.41793615  0.69088537  1.0
  O  O18  1  0.64688858  0.58206385  0.30911463  1.0
  O  O19  1  0.64688858  0.91793615  0.80911463  1.0
