# generated using pymatgen
data_Na(Mo3Se4)2
_symmetry_space_group_name_H-M   'P 1'
_cell_length_a   6.85883026
_cell_length_b   6.85883026
_cell_length_c   6.85883026
_cell_angle_alpha   90.09017320
_cell_angle_beta   90.09017320
_cell_angle_gamma   90.09017320
_symmetry_Int_Tables_number   1
_chemical_formula_structural   Na(Mo3Se4)2
_chemical_formula_sum   'Na1 Mo6 Se8'
_cell_volume   322.66254108
_cell_formula_units_Z   1
loop_
 _symmetry_equiv_pos_site_id
 _symmetry_equiv_pos_as_xyz
  1  'x, y, z'
loop_
 _atom_site_type_symbol
 _atom_site_label
 _atom_site_symmetry_multiplicity
 _atom_site_fract_x
 _atom_site_fract_y
 _atom_site_fract_z
 _atom_site_occupancy
  Na  Na0  1  0.00000000  0.00000000  0.00000000  1.0
  Mo  Mo1  1  1.44352901  0.57986568  -0.23856643  1.0
  Mo  Mo2  1  0.42013432  1.23856643  -0.44352901  1.0
  Mo  Mo3  1  1.23856643  0.55647099  -0.57986568  1.0
  Mo  Mo4  1  0.55647099  0.42013432  0.23856643  1.0
  Mo  Mo5  1  1.57986568  -0.23856643  0.44352901  1.0
  Mo  Mo6  1  0.76143357  0.44352901  0.57986568  1.0
  Se  Se7  1  0.87646421  0.61604612  0.25823457  1.0
  Se  Se8  1  1.38395388  -0.25823457  0.12353579  1.0
  Se  Se9  1  0.74176543  0.12353579  0.38395388  1.0
  Se  Se10  1  1.12353579  0.38395388  -0.25823457  1.0
  Se  Se11  1  0.61604612  1.25823457  -0.12353579  1.0
  Se  Se12  1  1.25823457  0.87646421  -0.38395388  1.0
  Se  Se13  1  0.76365372  0.76365372  0.76365372  1.0
  Se  Se14  1  0.23634628  0.23634628  0.23634628  1.0
