# generated using pymatgen
data_Ba2InClO3
_symmetry_space_group_name_H-M   'P 1'
_cell_length_a   4.28143718
_cell_length_b   4.28143718
_cell_length_c   15.25278772
_cell_angle_alpha   90.00000000
_cell_angle_beta   90.00000000
_cell_angle_gamma   90.00000000
_symmetry_Int_Tables_number   1
_chemical_formula_structural   Ba2InClO3
_chemical_formula_sum   'Ba4 In2 Cl2 O6'
_cell_volume   279.59434230
_cell_formula_units_Z   2
loop_
 _symmetry_equiv_pos_site_id
 _symmetry_equiv_pos_as_xyz
  1  'x, y, z'
loop_
 _atom_site_type_symbol
 _atom_site_label
 _atom_site_symmetry_multiplicity
 _atom_site_fract_x
 _atom_site_fract_y
 _atom_site_fract_z
 _atom_site_occupancy
  Ba  Ba0  1  0.50000000  0.00000000  0.59447019  1.0
  Ba  Ba1  1  0.00000000  0.50000000  0.40552981  1.0
  Ba  Ba2  1  0.50000000  0.00000000  0.85084681  1.0
  Ba  Ba3  1  0.00000000  0.50000000  0.14915319  1.0
  In  In4  1  0.50000000  0.00000000  0.28769431  1.0
  In  In5  1  0.00000000  0.50000000  0.71230569  1.0
  Cl  Cl6  1  0.50000000  0.00000000  0.07586622  1.0
  Cl  Cl7  1  0.00000000  0.50000000  0.92413378  1.0
  O  O8  1  0.00000000  0.00000000  0.26282788  1.0
  O  O9  1  0.50000000  0.50000000  0.73717212  1.0
  O  O10  1  0.50000000  0.50000000  0.26282788  1.0
  O  O11  1  0.00000000  0.00000000  0.73717212  1.0
  O  O12  1  0.50000000  0.00000000  0.42652112  1.0
  O  O13  1  0.00000000  0.50000000  0.57347888  1.0
