# generated using pymatgen
data_CsOsF6
_symmetry_space_group_name_H-M   'P 1'
_cell_length_a   5.48490213
_cell_length_b   5.48490213
_cell_length_c   5.48490213
_cell_angle_alpha   96.67123148
_cell_angle_beta   96.67123148
_cell_angle_gamma   96.67123148
_symmetry_Int_Tables_number   1
_chemical_formula_structural   CsOsF6
_chemical_formula_sum   'Cs1 Os1 F6'
_cell_volume   161.36936417
_cell_formula_units_Z   1
loop_
 _symmetry_equiv_pos_site_id
 _symmetry_equiv_pos_as_xyz
  1  'x, y, z'
loop_
 _atom_site_type_symbol
 _atom_site_label
 _atom_site_symmetry_multiplicity
 _atom_site_fract_x
 _atom_site_fract_y
 _atom_site_fract_z
 _atom_site_occupancy
  Cs  Cs0  1  0.50000000  0.50000000  0.50000000  1.0
  Os  Os1  1  0.00000000  0.00000000  -0.00000000  1.0
  F  F2  1  0.77854401  0.73557736  0.08141760  1.0
  F  F3  1  1.26442264  -0.08141760  0.22145599  1.0
  F  F4  1  0.91858240  0.22145599  0.26442264  1.0
  F  F5  1  1.22145599  0.26442264  -0.08141760  1.0
  F  F6  1  0.73557736  1.08141760  -0.22145599  1.0
  F  F7  1  1.08141760  0.77854401  -0.26442264  1.0
