# generated using pymatgen
data_SrIn4Pt
_symmetry_space_group_name_H-M   'P 1'
_cell_length_a   8.96731181
_cell_length_b   8.96731181
_cell_length_c   7.60714664
_cell_angle_alpha   90.00000000
_cell_angle_beta   90.00000000
_cell_angle_gamma   150.14850210
_symmetry_Int_Tables_number   1
_chemical_formula_structural   SrIn4Pt
_chemical_formula_sum   'Sr2 In8 Pt2'
_cell_volume   304.48145066
_cell_formula_units_Z   2
loop_
 _symmetry_equiv_pos_site_id
 _symmetry_equiv_pos_as_xyz
  1  'x, y, z'
loop_
 _atom_site_type_symbol
 _atom_site_label
 _atom_site_symmetry_multiplicity
 _atom_site_fract_x
 _atom_site_fract_y
 _atom_site_fract_z
 _atom_site_occupancy
  Sr  Sr0  1  -0.62587669  0.62587669  0.25000000  1.0
  Sr  Sr1  1  -0.37412331  1.37412331  0.75000000  1.0
  In  In2  1  -0.81556290  0.81556290  0.45051668  1.0
  In  In3  1  -0.81556290  0.81556290  0.04948332  1.0
  In  In4  1  -0.18443710  1.18443710  0.95051668  1.0
  In  In5  1  -0.18443710  1.18443710  0.54948332  1.0
  In  In6  1  -0.43220838  1.43220838  0.25000000  1.0
  In  In7  1  -0.56779162  0.56779162  0.75000000  1.0
  In  In8  1  0.00000000  0.00000000  0.50000000  1.0
  In  In9  1  0.00000000  0.00000000  0.00000000  1.0
  Pt  Pt10  1  -0.27507400  1.27507400  0.25000000  1.0
  Pt  Pt11  1  -0.72492600  0.72492600  0.75000000  1.0
