# generated using pymatgen
data_Gd2ReB6
_symmetry_space_group_name_H-M   'P 1'
_cell_length_a   9.22921562
_cell_length_b   11.61043483
_cell_length_c   3.70994413
_cell_angle_alpha   90.00000000
_cell_angle_beta   90.00000000
_cell_angle_gamma   90.00000000
_symmetry_Int_Tables_number   1
_chemical_formula_structural   Gd2ReB6
_chemical_formula_sum   'Gd8 Re4 B24'
_cell_volume   397.53982907
_cell_formula_units_Z   4
loop_
 _symmetry_equiv_pos_site_id
 _symmetry_equiv_pos_as_xyz
  1  'x, y, z'
loop_
 _atom_site_type_symbol
 _atom_site_label
 _atom_site_symmetry_multiplicity
 _atom_site_fract_x
 _atom_site_fract_y
 _atom_site_fract_z
 _atom_site_occupancy
  Gd  Gd0  1  0.17631661  0.91386157  0.50000000  1.0
  Gd  Gd1  1  0.67631661  0.58613843  0.50000000  1.0
  Gd  Gd2  1  0.82368339  0.08613843  0.50000000  1.0
  Gd  Gd3  1  0.32368339  0.41386157  0.50000000  1.0
  Gd  Gd4  1  0.05737763  0.62993438  0.50000000  1.0
  Gd  Gd5  1  0.55737763  0.87006562  0.50000000  1.0
  Gd  Gd6  1  0.94262237  0.37006562  0.50000000  1.0
  Gd  Gd7  1  0.44262237  0.12993438  0.50000000  1.0
  Re  Re8  1  0.36160931  0.67923769  0.50000000  1.0
  Re  Re9  1  0.86160931  0.82076231  0.50000000  1.0
  Re  Re10  1  0.63839069  0.32076231  0.50000000  1.0
  Re  Re11  1  0.13839069  0.17923769  0.50000000  1.0
  B  B12  1  0.44656357  0.56752872  0.00000000  1.0
  B  B13  1  0.94656357  0.93247128  0.00000000  1.0
  B  B14  1  0.55343643  0.43247128  0.00000000  1.0
  B  B15  1  0.05343643  0.06752872  0.00000000  1.0
  B  B16  1  0.39895381  0.97164711  0.00000000  1.0
  B  B17  1  0.89895381  0.52835289  0.00000000  1.0
  B  B18  1  0.60104619  0.02835289  0.00000000  1.0
  B  B19  1  0.10104619  0.47164711  0.00000000  1.0
  B  B20  1  0.36913775  0.81351383  0.00000000  1.0
  B  B21  1  0.86913775  0.68648617  0.00000000  1.0
  B  B22  1  0.63086225  0.18648617  0.00000000  1.0
  B  B23  1  0.13086225  0.31351383  0.00000000  1.0
  B  B24  1  0.25220406  0.58194218  0.00000000  1.0
  B  B25  1  0.75220406  0.91805782  0.00000000  1.0
  B  B26  1  0.74779594  0.41805782  0.00000000  1.0
  B  B27  1  0.24779594  0.08194218  0.00000000  1.0
  B  B28  1  0.20923571  0.73418108  0.00000000  1.0
  B  B29  1  0.70923571  0.76581892  0.00000000  1.0
  B  B30  1  0.79076429  0.26581892  0.00000000  1.0
  B  B31  1  0.29076429  0.23418108  0.00000000  1.0
  B  B32  1  0.01664194  0.78822320  0.00000000  1.0
  B  B33  1  0.51664194  0.71177680  0.00000000  1.0
  B  B34  1  0.98335806  0.21177680  0.00000000  1.0
  B  B35  1  0.48335806  0.28822320  0.00000000  1.0
