# generated using pymatgen
data_Ba2Sb2O5
_symmetry_space_group_name_H-M   'P 1'
_cell_length_a   14.86791118
_cell_length_b   6.42707847
_cell_length_c   8.20094910
_cell_angle_alpha   90.00000000
_cell_angle_beta   90.00000000
_cell_angle_gamma   90.00000000
_symmetry_Int_Tables_number   1
_chemical_formula_structural   Ba2Sb2O5
_chemical_formula_sum   'Ba8 Sb8 O20'
_cell_volume   783.65999469
_cell_formula_units_Z   4
loop_
 _symmetry_equiv_pos_site_id
 _symmetry_equiv_pos_as_xyz
  1  'x, y, z'
loop_
 _atom_site_type_symbol
 _atom_site_label
 _atom_site_symmetry_multiplicity
 _atom_site_fract_x
 _atom_site_fract_y
 _atom_site_fract_z
 _atom_site_occupancy
  Ba  Ba0  1  0.07441831  0.75000000  0.87416667  1.0
  Ba  Ba1  1  0.57441831  0.75000000  0.62583333  1.0
  Ba  Ba2  1  0.92558169  0.25000000  0.12583333  1.0
  Ba  Ba3  1  0.42558169  0.25000000  0.37416667  1.0
  Ba  Ba4  1  0.06616807  0.75000000  0.37493601  1.0
  Ba  Ba5  1  0.56616807  0.75000000  0.12506399  1.0
  Ba  Ba6  1  0.93383193  0.25000000  0.62506399  1.0
  Ba  Ba7  1  0.43383193  0.25000000  0.87493601  1.0
  Sb  Sb8  1  0.32372585  0.75000000  0.63320999  1.0
  Sb  Sb9  1  0.82372585  0.75000000  0.86679001  1.0
  Sb  Sb10  1  0.67627415  0.25000000  0.36679001  1.0
  Sb  Sb11  1  0.17627415  0.25000000  0.13320999  1.0
  Sb  Sb12  1  0.31872689  0.75000000  0.11219489  1.0
  Sb  Sb13  1  0.81872689  0.75000000  0.38780511  1.0
  Sb  Sb14  1  0.68127311  0.25000000  0.88780511  1.0
  Sb  Sb15  1  0.18127311  0.25000000  0.61219489  1.0
  O  O16  1  0.41219844  0.97572267  0.63061012  1.0
  O  O17  1  0.41219844  0.52427733  0.63061012  1.0
  O  O18  1  0.91219844  0.97572267  0.86938988  1.0
  O  O19  1  0.91219844  0.52427733  0.86938988  1.0
  O  O20  1  0.58780156  0.47572267  0.36938988  1.0
  O  O21  1  0.58780156  0.02427733  0.36938988  1.0
  O  O22  1  0.08780156  0.47572267  0.13061012  1.0
  O  O23  1  0.08780156  0.02427733  0.13061012  1.0
  O  O24  1  0.40714963  0.97565045  0.11920108  1.0
  O  O25  1  0.40714963  0.52434955  0.11920108  1.0
  O  O26  1  0.90714963  0.97565045  0.38079892  1.0
  O  O27  1  0.90714963  0.52434955  0.38079892  1.0
  O  O28  1  0.59285037  0.47565045  0.88079892  1.0
  O  O29  1  0.59285037  0.02434955  0.88079892  1.0
  O  O30  1  0.09285037  0.47565045  0.61920108  1.0
  O  O31  1  0.09285037  0.02434955  0.61920108  1.0
  O  O32  1  0.28180357  0.75000000  0.87152308  1.0
  O  O33  1  0.78180357  0.75000000  0.62847692  1.0
  O  O34  1  0.71819643  0.25000000  0.12847692  1.0
  O  O35  1  0.21819643  0.25000000  0.37152308  1.0
