# generated using pymatgen
data_Zn(N3O7)2
_symmetry_space_group_name_H-M   'P 1'
_cell_length_a   13.59330390
_cell_length_b   8.05428709
_cell_length_c   15.19716653
_cell_angle_alpha   63.02403266
_cell_angle_beta   31.87385185
_cell_angle_gamma   85.10211549
_symmetry_Int_Tables_number   1
_chemical_formula_structural   Zn(N3O7)2
_chemical_formula_sum   'Zn2 N12 O28'
_cell_volume   603.49817015
_cell_formula_units_Z   2
loop_
 _symmetry_equiv_pos_site_id
 _symmetry_equiv_pos_as_xyz
  1  'x, y, z'
loop_
 _atom_site_type_symbol
 _atom_site_label
 _atom_site_symmetry_multiplicity
 _atom_site_fract_x
 _atom_site_fract_y
 _atom_site_fract_z
 _atom_site_occupancy
  Zn  Zn0  1  0.99770784  -0.00229216  0.00229216  1.0
  Zn  Zn1  1  0.24770784  0.24770784  0.25229216  1.0
  N  N2  1  -0.14061218  0.51543498  0.50362509  1.0
  N  N3  1  0.74637491  1.12844788  -0.60938782  1.0
  N  N4  1  0.51543498  -0.14061218  0.12155212  1.0
  N  N5  1  1.12844788  0.74637491  -0.26543498  1.0
  N  N6  1  0.29041871  0.20430618  0.59745240  1.0
  N  N7  1  0.65254760  0.34217729  -0.04041871  1.0
  N  N8  1  0.20430618  0.29041871  -0.09217729  1.0
  N  N9  1  0.34217729  0.65254760  0.04569382  1.0
  N  N10  1  0.51539895  -0.16252864  0.35548076  1.0
  N  N11  1  0.89451924  0.95835107  -0.26539895  1.0
  N  N12  1  -0.16252864  0.51539895  0.29164893  1.0
  N  N13  1  0.95835107  0.89451924  -0.58747136  1.0
  O  O14  1  0.33854230  0.68159049  0.28385411  1.0
  O  O15  1  0.96614589  0.55398690  -0.08854230  1.0
  O  O16  1  0.68159049  0.33854230  -0.30398690  1.0
  O  O17  1  0.55398690  0.96614589  -0.43159049  1.0
  O  O18  1  0.23274790  0.31623272  0.65375612  1.0
  O  O19  1  0.59624388  0.45273674  0.01725210  1.0
  O  O20  1  0.31623272  0.23274790  -0.20273674  1.0
  O  O21  1  0.45273674  0.59624388  -0.06623272  1.0
  O  O22  1  0.19151419  -0.01135783  0.75734359  1.0
  O  O23  1  0.49265641  0.18749994  0.05848581  1.0
  O  O24  1  -0.01135783  0.19151419  0.06250006  1.0
  O  O25  1  0.18749994  0.49265641  0.26135783  1.0
  O  O26  1  0.42517420  0.28209348  0.41313827  1.0
  O  O27  1  0.83686173  0.37040595  -0.17517420  1.0
  O  O28  1  0.28209348  0.42517420  -0.12040595  1.0
  O  O29  1  0.37040595  0.83686173  -0.03209348  1.0
  O  O30  1  0.08835313  0.02533140  0.53511283  1.0
  O  O31  1  0.71488717  -0.10120265  0.16164687  1.0
  O  O32  1  0.02533140  0.08835313  0.35120265  1.0
  O  O33  1  -0.10120265  0.71488717  0.22466860  1.0
  O  O34  1  0.46170160  -0.20737775  0.48787439  1.0
  O  O35  1  0.76212561  0.99219824  -0.21170160  1.0
  O  O36  1  -0.20737775  0.46170160  0.25780176  1.0
  O  O37  1  0.99219824  0.76212561  -0.54262225  1.0
  O  O38  1  0.37419695  -0.17886860  0.41295395  1.0
  O  O39  1  0.83704605  0.85828230  -0.12419695  1.0
  O  O40  1  -0.17886860  0.37419695  0.39171770  1.0
  O  O41  1  0.85828230  0.83704605  -0.57113140  1.0
