# generated using pymatgen
data_Li2Se2O7
_symmetry_space_group_name_H-M   'P 1'
_cell_length_a   14.10298182
_cell_length_b   8.57526029
_cell_length_c   5.19357257
_cell_angle_alpha   90.00000000
_cell_angle_beta   90.00000000
_cell_angle_gamma   90.00000000
_symmetry_Int_Tables_number   1
_chemical_formula_structural   Li2Se2O7
_chemical_formula_sum   'Li8 Se8 O28'
_cell_volume   628.09373609
_cell_formula_units_Z   4
loop_
 _symmetry_equiv_pos_site_id
 _symmetry_equiv_pos_as_xyz
  1  'x, y, z'
loop_
 _atom_site_type_symbol
 _atom_site_label
 _atom_site_symmetry_multiplicity
 _atom_site_fract_x
 _atom_site_fract_y
 _atom_site_fract_z
 _atom_site_occupancy
  Li  Li0  1  0.89859439  0.93223425  0.40600293  1.0
  Li  Li1  1  0.89859439  0.56776575  0.40600293  1.0
  Li  Li2  1  0.39859439  0.93223425  0.09399707  1.0
  Li  Li3  1  0.39859439  0.56776575  0.09399707  1.0
  Li  Li4  1  0.10140561  0.43223425  0.59399707  1.0
  Li  Li5  1  0.10140561  0.06776575  0.59399707  1.0
  Li  Li6  1  0.60140561  0.43223425  0.90600293  1.0
  Li  Li7  1  0.60140561  0.06776575  0.90600293  1.0
  Se  Se8  1  0.99901551  0.25000000  0.11069542  1.0
  Se  Se9  1  0.49901551  0.25000000  0.38930458  1.0
  Se  Se10  1  0.00098449  0.75000000  0.88930458  1.0
  Se  Se11  1  0.50098449  0.75000000  0.61069542  1.0
  Se  Se12  1  0.78227412  0.25000000  0.23069308  1.0
  Se  Se13  1  0.28227412  0.25000000  0.26930692  1.0
  Se  Se14  1  0.21772588  0.75000000  0.76930692  1.0
  Se  Se15  1  0.71772588  0.75000000  0.73069308  1.0
  O  O16  1  0.79567036  0.41126704  0.39340951  1.0
  O  O17  1  0.79567036  0.08873296  0.39340951  1.0
  O  O18  1  0.29567036  0.41126704  0.10659049  1.0
  O  O19  1  0.29567036  0.08873296  0.10659049  1.0
  O  O20  1  0.20432964  0.91126704  0.60659049  1.0
  O  O21  1  0.20432964  0.58873296  0.60659049  1.0
  O  O22  1  0.70432964  0.91126704  0.89340951  1.0
  O  O23  1  0.70432964  0.58873296  0.89340951  1.0
  O  O24  1  0.50960661  0.41072269  0.21764088  1.0
  O  O25  1  0.50960661  0.08927731  0.21764088  1.0
  O  O26  1  0.00960661  0.41072269  0.28235912  1.0
  O  O27  1  0.00960661  0.08927731  0.28235912  1.0
  O  O28  1  0.49039339  0.91072269  0.78235912  1.0
  O  O29  1  0.49039339  0.58927731  0.78235912  1.0
  O  O30  1  0.99039339  0.91072269  0.71764088  1.0
  O  O31  1  0.99039339  0.58927731  0.71764088  1.0
  O  O32  1  0.88001196  0.25000000  0.98593220  1.0
  O  O33  1  0.38001196  0.25000000  0.51406780  1.0
  O  O34  1  0.11998804  0.75000000  0.01406780  1.0
  O  O35  1  0.61998804  0.75000000  0.48593220  1.0
  O  O36  1  0.68871553  0.25000000  0.04222596  1.0
  O  O37  1  0.18871553  0.25000000  0.45777404  1.0
  O  O38  1  0.31128447  0.75000000  0.95777404  1.0
  O  O39  1  0.81128447  0.75000000  0.54222596  1.0
  O  O40  1  0.56344172  0.25000000  0.65307531  1.0
  O  O41  1  0.06344172  0.25000000  0.84692469  1.0
  O  O42  1  0.43655828  0.75000000  0.34692469  1.0
  O  O43  1  0.93655828  0.75000000  0.15307531  1.0
