# generated using pymatgen
data_In2Rh3S2
_symmetry_space_group_name_H-M   'P 1'
_cell_length_a   5.63542721
_cell_length_b   5.63542721
_cell_length_c   5.63542721
_cell_angle_alpha   60.51205582
_cell_angle_beta   60.51205582
_cell_angle_gamma   60.51205582
_symmetry_Int_Tables_number   1
_chemical_formula_structural   In2Rh3S2
_chemical_formula_sum   'In2 Rh3 S2'
_cell_volume   128.01537098
_cell_formula_units_Z   1
loop_
 _symmetry_equiv_pos_site_id
 _symmetry_equiv_pos_as_xyz
  1  'x, y, z'
loop_
 _atom_site_type_symbol
 _atom_site_label
 _atom_site_symmetry_multiplicity
 _atom_site_fract_x
 _atom_site_fract_y
 _atom_site_fract_z
 _atom_site_occupancy
  In  In0  1  0.50000000  0.50000000  -0.50000000  1.0
  In  In1  1  0.00000000  0.00000000  0.00000000  1.0
  Rh  Rh2  1  0.50000000  1.00000000  -0.50000000  1.0
  Rh  Rh3  1  0.50000000  -0.50000000  -0.00000000  1.0
  Rh  Rh4  1  -0.00000000  0.50000000  -0.50000000  1.0
  S  S5  1  0.78401993  0.78401993  -0.21598007  1.0
  S  S6  1  1.21598007  1.21598007  0.21598007  1.0
