# generated using pymatgen
data_Sn4P3NO12
_symmetry_space_group_name_H-M   'P 1'
_cell_length_a   9.95136965
_cell_length_b   9.95136965
_cell_length_c   7.84175167
_cell_angle_alpha   90.00000000
_cell_angle_beta   90.00000000
_cell_angle_gamma   120.00000000
_symmetry_Int_Tables_number   1
_chemical_formula_structural   Sn4P3NO12
_chemical_formula_sum   'Sn8 P6 N2 O24'
_cell_volume   672.52655052
_cell_formula_units_Z   2
loop_
 _symmetry_equiv_pos_site_id
 _symmetry_equiv_pos_as_xyz
  1  'x, y, z'
loop_
 _atom_site_type_symbol
 _atom_site_label
 _atom_site_symmetry_multiplicity
 _atom_site_fract_x
 _atom_site_fract_y
 _atom_site_fract_z
 _atom_site_occupancy
  Sn  Sn0  1  0.91980919  0.60479597  0.27455409  1.0
  Sn  Sn1  1  0.60479597  0.68498678  0.77455409  1.0
  Sn  Sn2  1  0.68498678  0.08019081  0.27455409  1.0
  Sn  Sn3  1  0.39520403  0.31501322  0.27455409  1.0
  Sn  Sn4  1  0.08019081  0.39520403  0.77455409  1.0
  Sn  Sn5  1  0.31501322  0.91980919  0.77455409  1.0
  Sn  Sn6  1  0.33333333  0.66666667  0.44670822  1.0
  Sn  Sn7  1  0.66666667  0.33333333  0.94670822  1.0
  P  P8  1  0.28363676  0.93499370  0.21429388  1.0
  P  P9  1  0.93499370  0.65135694  0.71429388  1.0
  P  P10  1  0.65135694  0.71636324  0.21429388  1.0
  P  P11  1  0.06500630  0.34864306  0.21429388  1.0
  P  P12  1  0.71636324  0.06500630  0.71429388  1.0
  P  P13  1  0.34864306  0.28363676  0.71429388  1.0
  N  N14  1  0.00000000  0.00000000  -0.01929637  1.0
  N  N15  1  0.00000000  0.00000000  0.48070363  1.0
  O  O16  1  0.34863148  0.99663313  0.03221805  1.0
  O  O17  1  0.99663313  0.64800164  0.53221805  1.0
  O  O18  1  0.64800164  0.65136852  0.03221805  1.0
  O  O19  1  0.00336687  0.35199836  0.03221805  1.0
  O  O20  1  0.65136852  0.00336687  0.53221805  1.0
  O  O21  1  0.35199836  0.34863148  0.53221805  1.0
  O  O22  1  0.37585888  0.85525867  0.28498084  1.0
  O  O23  1  0.85525867  0.47939979  0.78498084  1.0
  O  O24  1  0.47939979  0.62414112  0.28498084  1.0
  O  O25  1  0.14474133  0.52060021  0.28498084  1.0
  O  O26  1  0.62414112  0.14474133  0.78498084  1.0
  O  O27  1  0.52060021  0.37585888  0.78498084  1.0
  O  O28  1  0.10767395  0.82175917  0.21315685  1.0
  O  O29  1  0.82175917  0.71408523  0.71315685  1.0
  O  O30  1  0.71408523  0.89232605  0.21315685  1.0
  O  O31  1  0.17824083  0.28591477  0.21315685  1.0
  O  O32  1  0.89232605  0.17824083  0.71315685  1.0
  O  O33  1  0.28591477  0.10767395  0.71315685  1.0
  O  O34  1  0.75315033  0.67683606  0.32989234  1.0
  O  O35  1  0.67683606  0.92368573  0.82989234  1.0
  O  O36  1  0.92368573  0.24684967  0.32989234  1.0
  O  O37  1  0.32316394  0.07631427  0.32989234  1.0
  O  O38  1  0.24684967  0.32316394  0.82989234  1.0
  O  O39  1  0.07631427  0.75315033  0.82989234  1.0
