# generated using pymatgen
data_LuGa4Ni
_symmetry_space_group_name_H-M   'P 1'
_cell_length_a   7.80581275
_cell_length_b   7.80581275
_cell_length_c   6.61220996
_cell_angle_alpha   90.00000000
_cell_angle_beta   90.00000000
_cell_angle_gamma   149.80927363
_symmetry_Int_Tables_number   1
_chemical_formula_structural   LuGa4Ni
_chemical_formula_sum   'Lu2 Ga8 Ni2'
_cell_volume   202.60366762
_cell_formula_units_Z   2
loop_
 _symmetry_equiv_pos_site_id
 _symmetry_equiv_pos_as_xyz
  1  'x, y, z'
loop_
 _atom_site_type_symbol
 _atom_site_label
 _atom_site_symmetry_multiplicity
 _atom_site_fract_x
 _atom_site_fract_y
 _atom_site_fract_z
 _atom_site_occupancy
  Lu  Lu0  1  -0.62264721  0.62264721  0.25000000  1.0
  Lu  Lu1  1  -0.37735279  1.37735279  0.75000000  1.0
  Ga  Ga2  1  -0.81626229  0.81626229  0.44967324  1.0
  Ga  Ga3  1  -0.81626229  0.81626229  0.05032676  1.0
  Ga  Ga4  1  -0.18373771  1.18373771  0.94967324  1.0
  Ga  Ga5  1  -0.18373771  1.18373771  0.55032676  1.0
  Ga  Ga6  1  -0.43232682  1.43232682  0.25000000  1.0
  Ga  Ga7  1  -0.56767318  0.56767318  0.75000000  1.0
  Ga  Ga8  1  0.00000000  0.00000000  0.50000000  1.0
  Ga  Ga9  1  0.00000000  0.00000000  0.00000000  1.0
  Ni  Ni10  1  -0.27569687  1.27569687  0.25000000  1.0
  Ni  Ni11  1  -0.72430313  0.72430313  0.75000000  1.0
