# generated using pymatgen
data_SrCu(SeO3)2
_symmetry_space_group_name_H-M   'P 1'
_cell_length_a   4.85166879
_cell_length_b   4.85166879
_cell_length_c   15.07578845
_cell_angle_alpha   90.97194226
_cell_angle_beta   89.02805774
_cell_angle_gamma   114.85736974
_symmetry_Int_Tables_number   1
_chemical_formula_structural   SrCu(SeO3)2
_chemical_formula_sum   'Sr2 Cu2 Se4 O12'
_cell_volume   321.92339224
_cell_formula_units_Z   2
loop_
 _symmetry_equiv_pos_site_id
 _symmetry_equiv_pos_as_xyz
  1  'x, y, z'
loop_
 _atom_site_type_symbol
 _atom_site_label
 _atom_site_symmetry_multiplicity
 _atom_site_fract_x
 _atom_site_fract_y
 _atom_site_fract_z
 _atom_site_occupancy
  Sr  Sr0  1  0.93851269  -0.06148731  0.25000000  1.0
  Sr  Sr1  1  1.06148731  0.06148731  0.75000000  1.0
  Cu  Cu2  1  0.00000000  -0.00000000  0.50000000  1.0
  Cu  Cu3  1  0.00000000  0.00000000  0.00000000  1.0
  Se  Se4  1  0.35682232  -0.35794562  0.09390491  1.0
  Se  Se5  1  1.35794562  0.64317768  0.59390491  1.0
  Se  Se6  1  0.64205438  -0.64317768  0.40609509  1.0
  Se  Se7  1  1.64317768  0.35794562  0.90609509  1.0
  O  O8  1  0.68201344  -0.26660707  0.41798033  1.0
  O  O9  1  1.26660707  0.31798656  0.91798033  1.0
  O  O10  1  0.73339293  -0.31798656  0.08201967  1.0
  O  O11  1  1.31798656  0.26660707  0.58201967  1.0
  O  O12  1  0.36302099  -0.24199993  0.20049344  1.0
  O  O13  1  1.24199993  0.63697901  0.70049344  1.0
  O  O14  1  0.75800007  -0.63697901  0.29950656  1.0
  O  O15  1  1.63697901  0.24199993  0.79950656  1.0
  O  O16  1  1.24886119  0.16102400  0.39399195  1.0
  O  O17  1  0.83897600  -0.24886119  0.89399195  1.0
  O  O18  1  1.16102400  0.24886119  0.10600805  1.0
  O  O19  1  0.75113881  -0.16102400  0.60600805  1.0
