# generated using pymatgen
data_Gd4PdO7
_symmetry_space_group_name_H-M   'P 1'
_cell_length_a   7.20901139
_cell_length_b   6.85659892
_cell_length_c   7.82762669
_cell_angle_alpha   108.26361003
_cell_angle_beta   110.92328373
_cell_angle_gamma   84.46091769
_symmetry_Int_Tables_number   1
_chemical_formula_structural   Gd4PdO7
_chemical_formula_sum   'Gd8 Pd2 O14'
_cell_volume   343.14342318
_cell_formula_units_Z   2
loop_
 _symmetry_equiv_pos_site_id
 _symmetry_equiv_pos_as_xyz
  1  'x, y, z'
loop_
 _atom_site_type_symbol
 _atom_site_label
 _atom_site_symmetry_multiplicity
 _atom_site_fract_x
 _atom_site_fract_y
 _atom_site_fract_z
 _atom_site_occupancy
  Gd  Gd0  1  0.39755850  0.79007088  -0.73047441  1.0
  Gd  Gd1  1  0.60244150  0.20992912  -0.26952559  1.0
  Gd  Gd2  1  0.82518790  0.66352290  -0.38030124  1.0
  Gd  Gd3  1  0.17481210  0.33647710  -0.61969876  1.0
  Gd  Gd4  1  0.85565528  0.63346177  -0.85549729  1.0
  Gd  Gd5  1  0.14434472  0.36653823  -0.14450271  1.0
  Gd  Gd6  1  0.62672705  0.20663171  -0.78592590  1.0
  Gd  Gd7  1  0.37327295  0.79336829  -0.21407410  1.0
  Pd  Pd8  1  -0.00000000  -0.00000000  -0.50000000  1.0
  Pd  Pd9  1  0.00000000  0.00000000  0.00000000  1.0
  O  O10  1  0.07164037  0.94007778  -0.74255313  1.0
  O  O11  1  0.92835963  0.05992222  -0.25744687  1.0
  O  O12  1  0.58695274  0.84662236  -0.90376875  1.0
  O  O13  1  0.41304726  0.15337764  -0.09623125  1.0
  O  O14  1  0.53901665  0.84261816  -0.39998271  1.0
  O  O15  1  0.46098335  0.15738184  -0.60001729  1.0
  O  O16  1  0.65414929  0.55904434  -0.70248334  1.0
  O  O17  1  0.34585071  0.44095566  -0.29751666  1.0
  O  O18  1  0.20741681  0.49372219  -0.82555324  1.0
  O  O19  1  0.79258319  0.50627781  -0.17444676  1.0
  O  O20  1  0.93019452  0.29887945  -0.49458801  1.0
  O  O21  1  0.06980548  0.70112055  -0.50541199  1.0
  O  O22  1  0.85595681  0.26165315  -0.91290207  1.0
  O  O23  1  0.14404319  0.73834685  -0.08709793  1.0
