# generated using pymatgen
data_KIn9Co2
_symmetry_space_group_name_H-M   'P 1'
_cell_length_a   8.86553929
_cell_length_b   8.86553929
_cell_length_c   4.28595902
_cell_angle_alpha   90.00000000
_cell_angle_beta   90.00000000
_cell_angle_gamma   120.00000000
_symmetry_Int_Tables_number   1
_chemical_formula_structural   KIn9Co2
_chemical_formula_sum   'K1 In9 Co2'
_cell_volume   291.73528773
_cell_formula_units_Z   1
loop_
 _symmetry_equiv_pos_site_id
 _symmetry_equiv_pos_as_xyz
  1  'x, y, z'
loop_
 _atom_site_type_symbol
 _atom_site_label
 _atom_site_symmetry_multiplicity
 _atom_site_fract_x
 _atom_site_fract_y
 _atom_site_fract_z
 _atom_site_occupancy
  K  K0  1  0.00000000  0.00000000  0.00000000  1.0
  In  In1  1  0.20928268  0.79071732  0.50000000  1.0
  In  In2  1  0.20928268  0.41856535  0.50000000  1.0
  In  In3  1  0.79071732  0.20928268  0.50000000  1.0
  In  In4  1  0.79071732  0.58143465  0.50000000  1.0
  In  In5  1  0.58143465  0.79071732  0.50000000  1.0
  In  In6  1  0.41856535  0.20928268  0.50000000  1.0
  In  In7  1  0.50000000  0.50000000  0.00000000  1.0
  In  In8  1  0.50000000  0.00000000  0.00000000  1.0
  In  In9  1  0.00000000  0.50000000  0.00000000  1.0
  Co  Co10  1  0.33333333  0.66666667  0.00000000  1.0
  Co  Co11  1  0.66666667  0.33333333  0.00000000  1.0
