# generated using pymatgen
data_KSnC2O4F
_symmetry_space_group_name_H-M   'P 1'
_cell_length_a   8.70300350
_cell_length_b   9.79253029
_cell_length_c   7.78895203
_cell_angle_alpha   90.00000000
_cell_angle_beta   111.73537446
_cell_angle_gamma   90.00000000
_symmetry_Int_Tables_number   1
_chemical_formula_structural   KSnC2O4F
_chemical_formula_sum   'K4 Sn4 C8 O16 F4'
_cell_volume   616.61487397
_cell_formula_units_Z   4
loop_
 _symmetry_equiv_pos_site_id
 _symmetry_equiv_pos_as_xyz
  1  'x, y, z'
loop_
 _atom_site_type_symbol
 _atom_site_label
 _atom_site_symmetry_multiplicity
 _atom_site_fract_x
 _atom_site_fract_y
 _atom_site_fract_z
 _atom_site_occupancy
  K  K0  1  0.39350188  0.68481091  0.58957546  1.0
  K  K1  1  0.39350188  0.81518909  0.08957546  1.0
  K  K2  1  0.60649812  0.18481091  0.91042454  1.0
  K  K3  1  0.60649812  0.31518909  0.41042454  1.0
  Sn  Sn4  1  0.84934278  0.81321686  1.00219690  1.0
  Sn  Sn5  1  0.84934278  0.68678314  0.50219690  1.0
  Sn  Sn6  1  0.15065722  0.31321686  0.49780310  1.0
  Sn  Sn7  1  0.15065722  0.18678314  -0.00219690  1.0
  C  C8  1  0.78114052  0.50715541  0.88261687  1.0
  C  C9  1  0.78114052  0.99284459  0.38261687  1.0
  C  C10  1  0.21885948  0.00715541  0.61738313  1.0
  C  C11  1  0.21885948  0.49284459  0.11738313  1.0
  C  C12  1  0.76253860  0.98661883  0.57516120  1.0
  C  C13  1  0.76253860  0.51338117  0.07516120  1.0
  C  C14  1  0.23746140  0.48661883  0.92483880  1.0
  C  C15  1  0.23746140  0.01338117  0.42483880  1.0
  O  O16  1  0.80014664  0.62509952  0.81678558  1.0
  O  O17  1  0.80014664  0.87490048  0.31678558  1.0
  O  O18  1  0.19985336  0.12509952  0.68321442  1.0
  O  O19  1  0.19985336  0.37490048  0.18321442  1.0
  O  O20  1  0.77558188  0.39601480  0.80521821  1.0
  O  O21  1  0.77558188  0.10398520  0.30521821  1.0
  O  O22  1  0.22441812  0.89601480  0.69478179  1.0
  O  O23  1  0.22441812  0.60398520  0.19478179  1.0
  O  O24  1  0.79604035  0.86906676  0.65662907  1.0
  O  O25  1  0.79604035  0.63093324  0.15662907  1.0
  O  O26  1  0.20395965  0.36906676  0.84337093  1.0
  O  O27  1  0.20395965  0.13093324  0.34337093  1.0
  O  O28  1  0.28160814  0.58959002  0.86312790  1.0
  O  O29  1  0.28160814  0.91040998  0.36312790  1.0
  O  O30  1  0.71839186  0.08959002  0.63687210  1.0
  O  O31  1  0.71839186  0.41040998  0.13687210  1.0
  F  F32  1  0.59772900  0.84906509  0.90359593  1.0
  F  F33  1  0.59772900  0.65093491  0.40359593  1.0
  F  F34  1  0.40227100  0.34906509  0.59640407  1.0
  F  F35  1  0.40227100  0.15093491  0.09640407  1.0
