# generated using pymatgen
data_Al3(V3C2)4
_symmetry_space_group_name_H-M   'P 1'
_cell_length_a   5.05587319
_cell_length_b   5.05587319
_cell_length_c   22.66180045
_cell_angle_alpha   90.00000000
_cell_angle_beta   90.00000000
_cell_angle_gamma   120.00000000
_symmetry_Int_Tables_number   1
_chemical_formula_structural   Al3(V3C2)4
_chemical_formula_sum   'Al6 V24 C16'
_cell_volume   501.66914250
_cell_formula_units_Z   2
loop_
 _symmetry_equiv_pos_site_id
 _symmetry_equiv_pos_as_xyz
  1  'x, y, z'
loop_
 _atom_site_type_symbol
 _atom_site_label
 _atom_site_symmetry_multiplicity
 _atom_site_fract_x
 _atom_site_fract_y
 _atom_site_fract_z
 _atom_site_occupancy
  Al  Al0  1  0.67094531  0.67094531  0.25000000  1.0
  Al  Al1  1  0.67094531  0.00000000  0.75000000  1.0
  Al  Al2  1  -0.00000000  0.67094531  0.75000000  1.0
  Al  Al3  1  0.00000000  0.32905469  0.25000000  1.0
  Al  Al4  1  0.32905469  0.32905469  0.75000000  1.0
  Al  Al5  1  0.32905469  0.00000000  0.25000000  1.0
  V  V6  1  0.64505944  0.64505944  0.44536976  1.0
  V  V7  1  0.64505944  0.64505944  0.05463024  1.0
  V  V8  1  0.64505944  0.00000000  0.94536976  1.0
  V  V9  1  0.64505944  0.00000000  0.55463024  1.0
  V  V10  1  0.00000000  0.64505944  0.94536976  1.0
  V  V11  1  0.00000000  0.64505944  0.55463024  1.0
  V  V12  1  0.00000000  0.35494056  0.44536976  1.0
  V  V13  1  0.00000000  0.35494056  0.05463024  1.0
  V  V14  1  0.35494056  0.35494056  0.94536976  1.0
  V  V15  1  0.35494056  0.35494056  0.55463024  1.0
  V  V16  1  0.35494056  0.00000000  0.44536976  1.0
  V  V17  1  0.35494056  0.00000000  0.05463024  1.0
  V  V18  1  0.33333333  0.66666667  0.34412988  1.0
  V  V19  1  0.33333333  0.66666667  0.15587012  1.0
  V  V20  1  0.33333333  0.66666667  0.84412988  1.0
  V  V21  1  0.33333333  0.66666667  0.65587012  1.0
  V  V22  1  0.66666667  0.33333333  0.34412988  1.0
  V  V23  1  0.66666667  0.33333333  0.15587012  1.0
  V  V24  1  0.66666667  0.33333333  0.84412988  1.0
  V  V25  1  0.66666667  0.33333333  0.65587012  1.0
  V  V26  1  0.00000000  0.00000000  0.34742846  1.0
  V  V27  1  0.00000000  0.00000000  0.15257154  1.0
  V  V28  1  0.00000000  0.00000000  0.84742846  1.0
  V  V29  1  0.00000000  0.00000000  0.65257154  1.0
  C  C30  1  0.33254242  0.33254242  0.39362664  1.0
  C  C31  1  0.33254242  0.33254242  0.10637336  1.0
  C  C32  1  0.33254242  0.00000000  0.89362664  1.0
  C  C33  1  0.33254242  0.00000000  0.60637336  1.0
  C  C34  1  0.00000000  0.33254242  0.89362664  1.0
  C  C35  1  0.00000000  0.33254242  0.60637336  1.0
  C  C36  1  -0.00000000  0.66745758  0.39362664  1.0
  C  C37  1  -0.00000000  0.66745758  0.10637336  1.0
  C  C38  1  0.66745758  0.66745758  0.89362664  1.0
  C  C39  1  0.66745758  0.66745758  0.60637336  1.0
  C  C40  1  0.66745758  0.00000000  0.39362664  1.0
  C  C41  1  0.66745758  0.00000000  0.10637336  1.0
  C  C42  1  0.33333333  0.66666667  0.50000000  1.0
  C  C43  1  0.33333333  0.66666667  0.00000000  1.0
  C  C44  1  0.66666667  0.33333333  0.50000000  1.0
  C  C45  1  0.66666667  0.33333333  0.00000000  1.0
