# generated using pymatgen
data_Hg3Se3O10
_symmetry_space_group_name_H-M   'P 1'
_cell_length_a   9.04586045
_cell_length_b   5.45247569
_cell_length_c   11.33123994
_cell_angle_alpha   90.00000000
_cell_angle_beta   106.69531722
_cell_angle_gamma   90.00000000
_symmetry_Int_Tables_number   1
_chemical_formula_structural   Hg3Se3O10
_chemical_formula_sum   'Hg6 Se6 O20'
_cell_volume   535.32402748
_cell_formula_units_Z   2
loop_
 _symmetry_equiv_pos_site_id
 _symmetry_equiv_pos_as_xyz
  1  'x, y, z'
loop_
 _atom_site_type_symbol
 _atom_site_label
 _atom_site_symmetry_multiplicity
 _atom_site_fract_x
 _atom_site_fract_y
 _atom_site_fract_z
 _atom_site_occupancy
  Hg  Hg0  1  1.01463933  0.25459061  0.87717544  1.0
  Hg  Hg1  1  -0.01463933  0.75459061  0.12282456  1.0
  Hg  Hg2  1  0.90165158  0.26454443  0.35619258  1.0
  Hg  Hg3  1  0.09834842  0.76454443  0.64380742  1.0
  Hg  Hg4  1  0.65133190  0.76909869  0.76231250  1.0
  Hg  Hg5  1  0.34866810  0.26909869  0.23768750  1.0
  Se  Se6  1  0.74151441  0.22650174  0.03849786  1.0
  Se  Se7  1  0.25848559  0.72650174  0.96150214  1.0
  Se  Se8  1  0.77444854  0.28216454  0.60074095  1.0
  Se  Se9  1  0.22555146  0.78216454  0.39925905  1.0
  Se  Se10  1  0.40069510  0.26744436  0.72409338  1.0
  Se  Se11  1  0.59930490  0.76744436  0.27590662  1.0
  O  O12  1  0.86374537  0.10531710  0.17898012  1.0
  O  O13  1  0.13625463  0.60531710  0.82101988  1.0
  O  O14  1  0.91208200  0.40241867  0.53287916  1.0
  O  O15  1  0.08791800  0.90241867  0.46712084  1.0
  O  O16  1  0.87668044  0.04855664  0.69060231  1.0
  O  O17  1  0.12331956  0.54855664  0.30939769  1.0
  O  O18  1  0.86610358  0.43640088  1.00116171  1.0
  O  O19  1  0.13389642  0.93640088  -0.00116171  1.0
  O  O20  1  0.77237676  -0.01763088  0.95362220  1.0
  O  O21  1  0.22762324  0.48236912  0.04637780  1.0
  O  O22  1  0.80588834  0.49132491  0.72136183  1.0
  O  O23  1  0.19411166  -0.00867509  0.27863817  1.0
  O  O24  1  0.51396786  0.07923410  0.66457192  1.0
  O  O25  1  0.48603214  0.57923410  0.33542808  1.0
  O  O26  1  0.51617046  0.44427423  0.83544200  1.0
  O  O27  1  0.48382954  0.94427423  0.16455800  1.0
  O  O28  1  0.30590887  0.44015441  0.60711430  1.0
  O  O29  1  0.69409113  0.94015441  0.39288570  1.0
  O  O30  1  0.29045983  0.09270557  0.78438542  1.0
  O  O31  1  0.70954017  0.59270557  0.21561458  1.0
