# generated using pymatgen
data_TiCdF6
_symmetry_space_group_name_H-M   'P 1'
_cell_length_a   5.81472066
_cell_length_b   5.81472066
_cell_length_c   5.81472066
_cell_angle_alpha   59.11613941
_cell_angle_beta   59.11613941
_cell_angle_gamma   59.11613941
_symmetry_Int_Tables_number   1
_chemical_formula_structural   TiCdF6
_chemical_formula_sum   'Ti1 Cd1 F6'
_cell_volume   136.21729565
_cell_formula_units_Z   1
loop_
 _symmetry_equiv_pos_site_id
 _symmetry_equiv_pos_as_xyz
  1  'x, y, z'
loop_
 _atom_site_type_symbol
 _atom_site_label
 _atom_site_symmetry_multiplicity
 _atom_site_fract_x
 _atom_site_fract_y
 _atom_site_fract_z
 _atom_site_occupancy
  Ti  Ti0  1  0.00000000  0.00000000  0.00000000  1.0
  Cd  Cd1  1  0.50000000  0.50000000  -0.50000000  1.0
  F  F2  1  0.16849797  0.77336247  -0.71410355  1.0
  F  F3  1  0.71410355  0.83150203  -0.77336247  1.0
  F  F4  1  0.22663753  0.71410355  -0.16849797  1.0
  F  F5  1  0.83150203  0.22663753  -0.28589645  1.0
  F  F6  1  0.28589645  0.16849797  -0.22663753  1.0
  F  F7  1  0.77336247  0.28589645  -0.83150203  1.0
