# generated using pymatgen
data_P2Pd
_symmetry_space_group_name_H-M   'P 1'
_cell_length_a   4.54819171
_cell_length_b   4.54819171
_cell_length_c   5.91345150
_cell_angle_alpha   66.32319866
_cell_angle_beta   113.67680134
_cell_angle_gamma   99.20964354
_symmetry_Int_Tables_number   1
_chemical_formula_structural   P2Pd
_chemical_formula_sum   'P4 Pd2'
_cell_volume   102.59905192
_cell_formula_units_Z   2
loop_
 _symmetry_equiv_pos_site_id
 _symmetry_equiv_pos_as_xyz
  1  'x, y, z'
loop_
 _atom_site_type_symbol
 _atom_site_label
 _atom_site_symmetry_multiplicity
 _atom_site_fract_x
 _atom_site_fract_y
 _atom_site_fract_z
 _atom_site_occupancy
  P  P0  1  0.68977132  0.06283844  0.66626281  1.0
  P  P1  1  0.93716156  0.31022868  0.16626281  1.0
  P  P2  1  1.06283844  0.68977132  0.83373719  1.0
  P  P3  1  0.31022868  -0.06283844  0.33373719  1.0
  Pd  Pd4  1  1.50000000  0.00000000  -0.00000000  1.0
  Pd  Pd5  1  1.00000000  0.50000000  0.50000000  1.0
