# generated using pymatgen
data_CsZn4(BO3)3
_symmetry_space_group_name_H-M   'P 1'
_cell_length_a   6.99183929
_cell_length_b   5.06309950
_cell_length_c   13.12142541
_cell_angle_alpha   90.00000000
_cell_angle_beta   93.52475577
_cell_angle_gamma   90.00000000
_symmetry_Int_Tables_number   1
_chemical_formula_structural   CsZn4(BO3)3
_chemical_formula_sum   'Cs2 Zn8 B6 O18'
_cell_volume   463.62473137
_cell_formula_units_Z   2
loop_
 _symmetry_equiv_pos_site_id
 _symmetry_equiv_pos_as_xyz
  1  'x, y, z'
loop_
 _atom_site_type_symbol
 _atom_site_label
 _atom_site_symmetry_multiplicity
 _atom_site_fract_x
 _atom_site_fract_y
 _atom_site_fract_z
 _atom_site_occupancy
  Cs  Cs0  1  0.50000000  0.75699879  0.25000000  1.0
  Cs  Cs1  1  0.50000000  0.24300121  0.75000000  1.0
  Zn  Zn2  1  0.98736470  0.85519222  0.12562161  1.0
  Zn  Zn3  1  0.98736470  0.14480778  0.62562161  1.0
  Zn  Zn4  1  0.01263530  0.85519222  0.37437839  1.0
  Zn  Zn5  1  0.01263530  0.14480778  0.87437839  1.0
  Zn  Zn6  1  0.71190689  0.33454122  0.05956952  1.0
  Zn  Zn7  1  0.71190689  0.66545878  0.55956952  1.0
  Zn  Zn8  1  0.28809311  0.33454122  0.44043048  1.0
  Zn  Zn9  1  0.28809311  0.66545878  0.94043048  1.0
  B  B10  1  0.69062357  0.84999596  0.95752275  1.0
  B  B11  1  0.69062357  0.15000404  0.45752275  1.0
  B  B12  1  0.30937643  0.84999596  0.54247725  1.0
  B  B13  1  0.30937643  0.15000404  0.04247725  1.0
  B  B14  1  -0.00000000  0.35078975  0.25000000  1.0
  B  B15  1  0.00000000  0.64921025  0.75000000  1.0
  O  O16  1  0.90839152  0.78600227  0.66988618  1.0
  O  O17  1  0.90839152  0.21399773  0.16988618  1.0
  O  O18  1  0.09160848  0.78600227  0.83011382  1.0
  O  O19  1  0.09160848  0.21399773  0.33011382  1.0
  O  O20  1  0.77606271  0.70379633  0.03843268  1.0
  O  O21  1  0.77606271  0.29620367  0.53843268  1.0
  O  O22  1  0.22393729  0.70379633  0.46156732  1.0
  O  O23  1  0.22393729  0.29620367  0.96156732  1.0
  O  O24  1  0.77070913  0.89786493  0.44108082  1.0
  O  O25  1  0.77070913  0.10213507  0.94108082  1.0
  O  O26  1  0.22929087  0.89786493  0.05891918  1.0
  O  O27  1  0.22929087  0.10213507  0.55891918  1.0
  O  O28  1  0.53857380  0.76085139  0.89887370  1.0
  O  O29  1  0.53857380  0.23914861  0.39887370  1.0
  O  O30  1  0.46142620  0.76085139  0.60112630  1.0
  O  O31  1  0.46142620  0.23914861  0.10112630  1.0
  O  O32  1  -0.00000000  0.62651056  0.25000000  1.0
  O  O33  1  0.00000000  0.37348944  0.75000000  1.0
