# generated using pymatgen
data_MoPt2
_symmetry_space_group_name_H-M   'P 1'
_cell_length_a   4.82879182
_cell_length_b   4.82879182
_cell_length_c   4.82879182
_cell_angle_alpha   146.55529426
_cell_angle_beta   131.46262429
_cell_angle_gamma   60.22802642
_symmetry_Int_Tables_number   1
_chemical_formula_structural   MoPt2
_chemical_formula_sum   'Mo1 Pt2'
_cell_volume   46.07404850
_cell_formula_units_Z   1
loop_
 _symmetry_equiv_pos_site_id
 _symmetry_equiv_pos_as_xyz
  1  'x, y, z'
loop_
 _atom_site_type_symbol
 _atom_site_label
 _atom_site_symmetry_multiplicity
 _atom_site_fract_x
 _atom_site_fract_y
 _atom_site_fract_z
 _atom_site_occupancy
  Mo  Mo0  1  0.00000000  0.00000000  0.00000000  1.0
  Pt  Pt1  1  0.66324263  0.66324263  1.00000000  1.0
  Pt  Pt2  1  0.33675737  0.33675737  -0.00000000  1.0
