# generated using pymatgen
data_CI4
_symmetry_space_group_name_H-M   'P 1'
_cell_length_a   6.71373545
_cell_length_b   6.71373545
_cell_length_c   6.71373545
_cell_angle_alpha   119.76324166
_cell_angle_beta   119.76324166
_cell_angle_gamma   90.41056899
_symmetry_Int_Tables_number   1
_chemical_formula_structural   CI4
_chemical_formula_sum   'C1 I4'
_cell_volume   214.74199890
_cell_formula_units_Z   1
loop_
 _symmetry_equiv_pos_site_id
 _symmetry_equiv_pos_as_xyz
  1  'x, y, z'
loop_
 _atom_site_type_symbol
 _atom_site_label
 _atom_site_symmetry_multiplicity
 _atom_site_fract_x
 _atom_site_fract_y
 _atom_site_fract_z
 _atom_site_occupancy
  C  C0  1  0.00000000  0.00000000  0.00000000  1.0
  I  I1  1  0.32187115  0.94738525  1.00000000  1.0
  I  I2  1  1.05261475  1.05261475  1.37448590  1.0
  I  I3  1  0.67812885  0.67812885  0.62551410  1.0
  I  I4  1  0.94738525  0.32187115  1.00000000  1.0
