# generated using pymatgen
data_K2CoS2
_symmetry_space_group_name_H-M   'P 1'
_cell_length_a   7.78844539
_cell_length_b   7.78844539
_cell_length_c   7.78844539
_cell_angle_alpha   128.00089754
_cell_angle_beta   70.97291703
_cell_angle_gamma   135.26268576
_symmetry_Int_Tables_number   1
_chemical_formula_structural   K2CoS2
_chemical_formula_sum   'K4 Co2 S4'
_cell_volume   256.70532983
_cell_formula_units_Z   2
loop_
 _symmetry_equiv_pos_site_id
 _symmetry_equiv_pos_as_xyz
  1  'x, y, z'
loop_
 _atom_site_type_symbol
 _atom_site_label
 _atom_site_symmetry_multiplicity
 _atom_site_fract_x
 _atom_site_fract_y
 _atom_site_fract_z
 _atom_site_occupancy
  K  K0  1  0.14617902  0.33396273  0.48014175  1.0
  K  K1  1  0.35382098  0.83396273  1.18778371  1.0
  K  K2  1  0.64617902  1.16603727  0.81221629  1.0
  K  K3  1  0.85382098  0.66603727  0.51985825  1.0
  Co  Co4  1  0.25000000  0.25000000  0.00000000  1.0
  Co  Co5  1  0.75000000  0.75000000  0.00000000  1.0
  S  S6  1  0.40086952  0.31824301  0.71911253  1.0
  S  S7  1  0.09913048  0.81824301  0.91737349  1.0
  S  S8  1  0.90086952  1.18175699  1.08262651  1.0
  S  S9  1  0.59913048  0.68175699  0.28088747  1.0
