# generated using pymatgen
data_YWO5
_symmetry_space_group_name_H-M   'P 1'
_cell_length_a   5.30273420
_cell_length_b   12.65044907
_cell_length_c   6.93674847
_cell_angle_alpha   90.00000000
_cell_angle_beta   116.59728505
_cell_angle_gamma   90.00000000
_symmetry_Int_Tables_number   1
_chemical_formula_structural   YWO5
_chemical_formula_sum   'Y4 W4 O20'
_cell_volume   416.08733003
_cell_formula_units_Z   4
loop_
 _symmetry_equiv_pos_site_id
 _symmetry_equiv_pos_as_xyz
  1  'x, y, z'
loop_
 _atom_site_type_symbol
 _atom_site_label
 _atom_site_symmetry_multiplicity
 _atom_site_fract_x
 _atom_site_fract_y
 _atom_site_fract_z
 _atom_site_occupancy
  W  W0  1  0.89096953  0.36270139  0.34702199  1.0
  W  W1  1  0.89096953  0.13729861  0.84702199  1.0
  W  W2  1  0.10903047  0.86270139  0.15297801  1.0
  W  W3  1  0.10903047  0.63729861  0.65297801  1.0
  O  O4  1  0.99151184  0.92815569  0.34173001  1.0
  O  O5  1  0.99151184  0.57184431  0.84173001  1.0
  O  O6  1  0.00848816  0.42815569  0.15826999  1.0
  O  O7  1  0.00848816  0.07184431  0.65826999  1.0
  O  O8  1  0.78575080  0.22868421  0.28493841  1.0
  O  O9  1  0.78575080  0.27131579  0.78493841  1.0
  O  O10  1  0.21424920  0.72868421  0.21506159  1.0
  O  O11  1  0.21424920  0.77131579  0.71506159  1.0
  O  O12  1  0.77782985  0.64629704  0.42048741  1.0
  O  O13  1  0.77782985  0.85370296  0.92048741  1.0
  O  O14  1  0.22217015  0.14629704  0.07951259  1.0
  O  O15  1  0.22217015  0.35370296  0.57951259  1.0
  O  O16  1  0.68835611  0.43402527  0.46393197  1.0
  O  O17  1  0.68835611  0.06597473  0.96393197  1.0
  O  O18  1  0.31164389  0.93402527  0.03606803  1.0
  O  O19  1  0.31164389  0.56597473  0.53606803  1.0
  O  O20  1  0.50187019  0.41748964  0.05235214  1.0
  O  O21  1  0.50187019  0.08251036  0.55235214  1.0
  O  O22  1  0.49812981  0.91748964  0.44764786  1.0
  O  O23  1  0.49812981  0.58251036  0.94764786  1.0
  Y  Y24  1  0.64292329  0.05651737  0.28563542  1.0
  Y  Y25  1  0.64292329  0.44348263  0.78563542  1.0
  Y  Y26  1  0.35707671  0.55651737  0.21436458  1.0
  Y  Y27  1  0.35707671  0.94348263  0.71436458  1.0
