# generated using pymatgen
data_V4Zn3(PO4)6
_symmetry_space_group_name_H-M   'P 1'
_cell_length_a   7.96945077
_cell_length_b   6.40762755
_cell_length_c   9.68133676
_cell_angle_alpha   68.11370840
_cell_angle_beta   66.80107333
_cell_angle_gamma   78.31934863
_symmetry_Int_Tables_number   1
_chemical_formula_structural   V4Zn3(PO4)6
_chemical_formula_sum   'V4 Zn3 P6 O24'
_cell_volume   420.75738838
_cell_formula_units_Z   1
loop_
 _symmetry_equiv_pos_site_id
 _symmetry_equiv_pos_as_xyz
  1  'x, y, z'
loop_
 _atom_site_type_symbol
 _atom_site_label
 _atom_site_symmetry_multiplicity
 _atom_site_fract_x
 _atom_site_fract_y
 _atom_site_fract_z
 _atom_site_occupancy
  V  V0  1  -0.78771542  -0.01739637  0.97842773  1.0
  V  V1  1  -0.21228458  0.01739637  0.02157227  1.0
  V  V2  1  -0.95919520  -0.21453455  0.60731743  1.0
  V  V3  1  -0.04080480  0.21453455  0.39268257  1.0
  Zn  Zn4  1  -0.68928479  0.50513333  0.20480874  1.0
  Zn  Zn5  1  -0.31071521  -0.50513333  0.79519126  1.0
  Zn  Zn6  1  -0.50000000  -0.50000000  0.50000000  1.0
  P  P7  1  -0.90467594  0.24934025  0.66642222  1.0
  P  P8  1  -0.09532406  -0.24934025  0.33357778  1.0
  P  P9  1  -0.35539893  0.04286262  0.73590782  1.0
  P  P10  1  -0.64460107  -0.04286262  0.26409218  1.0
  P  P11  1  -0.73265812  -0.46466348  0.86592037  1.0
  P  P12  1  -0.26734188  0.46466348  0.13407963  1.0
  O  O13  1  -0.95531712  0.11512483  0.58168695  1.0
  O  O14  1  -0.04468288  -0.11512483  0.41831305  1.0
  O  O15  1  -0.31212190  0.14397873  0.84198251  1.0
  O  O16  1  -0.68787810  -0.14397873  0.15801749  1.0
  O  O17  1  -0.95653929  0.09150764  0.84611025  1.0
  O  O18  1  -0.04346071  -0.09150764  0.15388975  1.0
  O  O19  1  -0.70658656  0.30230431  0.58829857  1.0
  O  O20  1  -0.29341344  -0.30230431  0.41170143  1.0
  O  O21  1  -0.96604672  0.53028513  0.34042067  1.0
  O  O22  1  -0.03395328  -0.53028513  0.65957933  1.0
  O  O23  1  -0.55715144  -0.00412259  0.80393110  1.0
  O  O24  1  -0.44284856  0.00412259  0.19606890  1.0
  O  O25  1  -0.30417015  0.21503247  0.56250655  1.0
  O  O26  1  -0.69582985  -0.21503247  0.43749345  1.0
  O  O27  1  -0.74665483  -0.35675979  0.99300364  1.0
  O  O28  1  -0.25334517  0.35675979  0.00699636  1.0
  O  O29  1  -0.76477239  0.18396196  0.26729817  1.0
  O  O30  1  -0.23522761  -0.18396196  0.73270183  1.0
  O  O31  1  -0.86441420  -0.32889284  0.77761836  1.0
  O  O32  1  -0.13558580  0.32889284  0.22238164  1.0
  O  O33  1  -0.53446840  -0.45665230  0.74135187  1.0
  O  O34  1  -0.46553160  0.45665230  0.25864813  1.0
  O  O35  1  -0.78198671  -0.71185364  0.95937445  1.0
  O  O36  1  -0.21801329  0.71185364  0.04062555  1.0
