# generated using pymatgen
data_Sr2V3BiO11
_symmetry_space_group_name_H-M   'P 1'
_cell_length_a   7.06809421
_cell_length_b   7.10986842
_cell_length_c   10.35470507
_cell_angle_alpha   99.23833899
_cell_angle_beta   95.70734450
_cell_angle_gamma   92.87988367
_symmetry_Int_Tables_number   1
_chemical_formula_structural   Sr2V3BiO11
_chemical_formula_sum   'Sr4 V6 Bi2 O22'
_cell_volume   509.89915724
_cell_formula_units_Z   2
loop_
 _symmetry_equiv_pos_site_id
 _symmetry_equiv_pos_as_xyz
  1  'x, y, z'
loop_
 _atom_site_type_symbol
 _atom_site_label
 _atom_site_symmetry_multiplicity
 _atom_site_fract_x
 _atom_site_fract_y
 _atom_site_fract_z
 _atom_site_occupancy
  Sr  Sr0  1  0.64575635  0.75101640  0.97830844  1.0
  Sr  Sr1  1  0.35424365  0.24898360  0.02169156  1.0
  Sr  Sr2  1  0.33781027  0.89472599  0.63481590  1.0
  Sr  Sr3  1  0.66218973  0.10527401  0.36518410  1.0
  V  V4  1  0.86382327  0.07393007  0.73513861  1.0
  V  V5  1  0.13617673  0.92606993  0.26486139  1.0
  V  V6  1  0.63546990  0.61161606  0.33747380  1.0
  V  V7  1  0.36453010  0.38838394  0.66252620  1.0
  V  V8  1  0.15804234  0.73754975  0.96208952  1.0
  V  V9  1  0.84195766  0.26245025  0.03791048  1.0
  Bi  Bi10  1  0.84940919  0.57196313  0.64085580  1.0
  Bi  Bi11  1  0.15059081  0.42803687  0.35914420  1.0
  O  O12  1  0.98930428  0.89891103  0.65713255  1.0
  O  O13  1  0.01069572  0.10108897  0.34286745  1.0
  O  O14  1  0.96844400  0.63145858  0.85191674  1.0
  O  O15  1  0.03155600  0.36854142  0.14808326  1.0
  O  O16  1  0.96840163  0.16271103  0.90199831  1.0
  O  O17  1  0.03159837  0.83728897  0.09800169  1.0
  O  O18  1  0.82361294  0.47218288  0.39332236  1.0
  O  O19  1  0.17638706  0.52781712  0.60667764  1.0
  O  O20  1  0.82843309  0.24359543  0.63535569  1.0
  O  O21  1  0.17156691  0.75640457  0.36464431  1.0
  O  O22  1  0.69590051  0.75671631  0.23296823  1.0
  O  O23  1  0.30409949  0.24328369  0.76703177  1.0
  O  O24  1  0.68702127  0.41558284  0.99371818  1.0
  O  O25  1  0.31297873  0.58441716  0.00628182  1.0
  O  O26  1  0.65792289  0.96661248  0.76041709  1.0
  O  O27  1  0.34207711  0.03338752  0.23958291  1.0
  O  O28  1  0.58166158  0.75773560  0.47434642  1.0
  O  O29  1  0.41833842  0.24226440  0.52565358  1.0
  O  O30  1  0.55104291  0.55437869  0.73148679  1.0
  O  O31  1  0.44895709  0.44562131  0.26851321  1.0
  O  O32  1  0.29921356  0.89905052  0.90533114  1.0
  O  O33  1  0.70078644  0.10094948  0.09466886  1.0
