# generated using pymatgen
data_CdP2
_symmetry_space_group_name_H-M   'P 1'
_cell_length_a   5.35685934
_cell_length_b   5.35685934
_cell_length_c   19.97651626
_cell_angle_alpha   90.00000000
_cell_angle_beta   90.00000000
_cell_angle_gamma   90.00000000
_symmetry_Int_Tables_number   1
_chemical_formula_structural   CdP2
_chemical_formula_sum   'Cd8 P16'
_cell_volume   573.24495093
_cell_formula_units_Z   8
loop_
 _symmetry_equiv_pos_site_id
 _symmetry_equiv_pos_as_xyz
  1  'x, y, z'
loop_
 _atom_site_type_symbol
 _atom_site_label
 _atom_site_symmetry_multiplicity
 _atom_site_fract_x
 _atom_site_fract_y
 _atom_site_fract_z
 _atom_site_occupancy
  Cd  Cd0  1  0.37284613  0.84705442  0.95152677  1.0
  Cd  Cd1  1  0.87284613  0.65294558  0.79847323  1.0
  Cd  Cd2  1  0.15294558  0.62715387  0.54847323  1.0
  Cd  Cd3  1  0.65294558  0.87284613  0.20152677  1.0
  Cd  Cd4  1  0.62715387  0.15294558  0.45152677  1.0
  Cd  Cd5  1  0.12715387  0.34705442  0.29847323  1.0
  Cd  Cd6  1  0.84705442  0.37284613  0.04847323  1.0
  Cd  Cd7  1  0.34705442  0.12715387  0.70152677  1.0
  P  P8  1  0.47682044  0.51986919  0.12417049  1.0
  P  P9  1  0.97682044  0.98013081  0.62582951  1.0
  P  P10  1  0.48013081  0.52317956  0.37582951  1.0
  P  P11  1  0.98013081  0.97682044  0.37417049  1.0
  P  P12  1  0.52317956  0.48013081  0.62417049  1.0
  P  P13  1  0.02317956  0.01986919  0.12582951  1.0
  P  P14  1  0.51986919  0.47682044  0.87582951  1.0
  P  P15  1  0.01986919  0.02317956  0.87417049  1.0
  P  P16  1  0.19205210  0.71288704  0.06519750  1.0
  P  P17  1  0.69205210  0.78711296  0.68480250  1.0
  P  P18  1  0.28711296  0.80794790  0.43480250  1.0
  P  P19  1  0.78711296  0.69205210  0.31519750  1.0
  P  P20  1  0.80794790  0.28711296  0.56519750  1.0
  P  P21  1  0.30794790  0.21288704  0.18480250  1.0
  P  P22  1  0.71288704  0.19205210  0.93480250  1.0
  P  P23  1  0.21288704  0.30794790  0.81519750  1.0
