# generated using pymatgen
data_RbCuPO4
_symmetry_space_group_name_H-M   'P 1'
_cell_length_a   5.29357271
_cell_length_b   9.77127993
_cell_length_c   8.59957810
_cell_angle_alpha   90.00000000
_cell_angle_beta   92.12915991
_cell_angle_gamma   90.00000000
_symmetry_Int_Tables_number   1
_chemical_formula_structural   RbCuPO4
_chemical_formula_sum   'Rb4 Cu4 P4 O16'
_cell_volume   444.50592005
_cell_formula_units_Z   4
loop_
 _symmetry_equiv_pos_site_id
 _symmetry_equiv_pos_as_xyz
  1  'x, y, z'
loop_
 _atom_site_type_symbol
 _atom_site_label
 _atom_site_symmetry_multiplicity
 _atom_site_fract_x
 _atom_site_fract_y
 _atom_site_fract_z
 _atom_site_occupancy
  P  P0  1  0.77353321  0.28373482  0.55889835  1.0
  P  P1  1  0.22646679  0.78373482  0.44110165  1.0
  P  P2  1  0.23611709  0.02611881  0.94767294  1.0
  P  P3  1  0.76388291  0.52611881  0.05232706  1.0
  O  O4  1  0.95172847  0.05328604  0.98156728  1.0
  O  O5  1  0.04827153  0.55328604  0.01843272  1.0
  O  O6  1  0.93173243  0.20001042  0.43959146  1.0
  O  O7  1  0.06826757  0.70001042  0.56040854  1.0
  O  O8  1  0.82370300  0.44005012  0.55504191  1.0
  O  O9  1  0.17629700  0.94005012  0.44495809  1.0
  O  O10  1  0.67046264  0.39958943  0.95709845  1.0
  O  O11  1  0.32953736  0.89958943  0.04290155  1.0
  O  O12  1  0.59645826  0.65031306  1.00296391  1.0
  O  O13  1  0.40354174  0.15031306  -0.00296391  1.0
  O  O14  1  0.49361684  0.24865229  0.55247160  1.0
  O  O15  1  0.50638316  0.74865229  0.44752840  1.0
  O  O16  1  0.26091326  -0.01070963  0.77039823  1.0
  O  O17  1  0.73908674  0.48929037  0.22960177  1.0
  O  O18  1  0.92126922  0.22381411  0.71588485  1.0
  O  O19  1  0.07873078  0.72381411  0.28411515  1.0
  Cu  Cu20  1  0.74432722  0.21007224  0.91505975  1.0
  Cu  Cu21  1  0.25567278  0.71007224  0.08494025  1.0
  Cu  Cu22  1  0.87820361  0.58988911  0.40366332  1.0
  Cu  Cu23  1  0.12179639  0.08988911  0.59633668  1.0
  Rb  Rb24  1  0.72716828  0.83246872  0.76367317  1.0
  Rb  Rb25  1  0.27283172  0.33246872  0.23632683  1.0
  Rb  Rb26  1  0.28859977  0.47361048  0.73858209  1.0
  Rb  Rb27  1  0.71140023  0.97361048  0.26141791  1.0
