# generated using pymatgen
data_SrF3
_symmetry_space_group_name_H-M   'P 1'
_cell_length_a   4.45877362
_cell_length_b   4.11921159
_cell_length_c   6.60936574
_cell_angle_alpha   90.00000000
_cell_angle_beta   98.84124059
_cell_angle_gamma   90.00000000
_symmetry_Int_Tables_number   1
_chemical_formula_structural   SrF3
_chemical_formula_sum   'Sr2 F6'
_cell_volume   119.94941202
_cell_formula_units_Z   2
loop_
 _symmetry_equiv_pos_site_id
 _symmetry_equiv_pos_as_xyz
  1  'x, y, z'
loop_
 _atom_site_type_symbol
 _atom_site_label
 _atom_site_symmetry_multiplicity
 _atom_site_fract_x
 _atom_site_fract_y
 _atom_site_fract_z
 _atom_site_occupancy
  Sr  Sr0  1  0.21129148  0.25000000  0.79337316  1.0
  Sr  Sr1  1  0.78870852  0.75000000  0.20662684  1.0
  F  F2  1  0.75374763  0.25000000  0.97142721  1.0
  F  F3  1  0.24625237  0.75000000  0.02857279  1.0
  F  F4  1  0.51642402  0.25000000  0.32754178  1.0
  F  F5  1  0.48357598  0.75000000  0.67245822  1.0
  F  F6  1  0.09900411  0.25000000  0.39100859  1.0
  F  F7  1  0.90099589  0.75000000  0.60899141  1.0
