# generated using pymatgen
data_TaFeSi
_symmetry_space_group_name_H-M   'P 1'
_cell_length_a   6.17777406
_cell_length_b   3.74226436
_cell_length_c   6.96579425
_cell_angle_alpha   90.00000000
_cell_angle_beta   90.00000000
_cell_angle_gamma   90.00000000
_symmetry_Int_Tables_number   1
_chemical_formula_structural   TaFeSi
_chemical_formula_sum   'Ta4 Fe4 Si4'
_cell_volume   161.04124756
_cell_formula_units_Z   4
loop_
 _symmetry_equiv_pos_site_id
 _symmetry_equiv_pos_as_xyz
  1  'x, y, z'
loop_
 _atom_site_type_symbol
 _atom_site_label
 _atom_site_symmetry_multiplicity
 _atom_site_fract_x
 _atom_site_fract_y
 _atom_site_fract_z
 _atom_site_occupancy
  Ta  Ta0  1  0.98611511  0.75000000  0.68816712  1.0
  Ta  Ta1  1  0.48611511  0.75000000  0.81183288  1.0
  Ta  Ta2  1  0.01388489  0.25000000  0.31183288  1.0
  Ta  Ta3  1  0.51388489  0.25000000  0.18816712  1.0
  Fe  Fe4  1  0.85135527  0.75000000  0.06574927  1.0
  Fe  Fe5  1  0.35135527  0.75000000  0.43425073  1.0
  Fe  Fe6  1  0.14864473  0.25000000  0.93425073  1.0
  Fe  Fe7  1  0.64864473  0.25000000  0.56574927  1.0
  Si  Si8  1  0.72112052  0.75000000  0.38617468  1.0
  Si  Si9  1  0.22112052  0.75000000  0.11382532  1.0
  Si  Si10  1  0.27887948  0.25000000  0.61382532  1.0
  Si  Si11  1  0.77887948  0.25000000  0.88617468  1.0
