# generated using pymatgen
data_Hf2Co3Si4
_symmetry_space_group_name_H-M   'P 1'
_cell_length_a   6.73431273
_cell_length_b   5.19232464
_cell_length_c   13.68775174
_cell_angle_alpha   90.00000000
_cell_angle_beta   90.00000000
_cell_angle_gamma   90.00000000
_symmetry_Int_Tables_number   1
_chemical_formula_structural   Hf2Co3Si4
_chemical_formula_sum   'Hf8 Co12 Si16'
_cell_volume   478.61602772
_cell_formula_units_Z   4
loop_
 _symmetry_equiv_pos_site_id
 _symmetry_equiv_pos_as_xyz
  1  'x, y, z'
loop_
 _atom_site_type_symbol
 _atom_site_label
 _atom_site_symmetry_multiplicity
 _atom_site_fract_x
 _atom_site_fract_y
 _atom_site_fract_z
 _atom_site_occupancy
  Hf  Hf0  1  0.60079832  0.76820573  0.14569219  1.0
  Hf  Hf1  1  0.60079832  0.23179427  0.64569219  1.0
  Hf  Hf2  1  0.10079832  0.26820573  0.35430781  1.0
  Hf  Hf3  1  0.10079832  0.73179427  0.85430781  1.0
  Hf  Hf4  1  0.39920168  0.76820573  0.35430781  1.0
  Hf  Hf5  1  0.39920168  0.23179427  0.85430781  1.0
  Hf  Hf6  1  0.89920168  0.26820573  0.14569219  1.0
  Hf  Hf7  1  0.89920168  0.73179427  0.64569219  1.0
  Co  Co8  1  0.00000000  0.77431392  0.25000000  1.0
  Co  Co9  1  0.00000000  0.22568608  0.75000000  1.0
  Co  Co10  1  0.50000000  0.27431392  0.25000000  1.0
  Co  Co11  1  0.50000000  0.72568608  0.75000000  1.0
  Co  Co12  1  0.72434810  0.99421231  0.48149458  1.0
  Co  Co13  1  0.72434810  0.00578769  0.98149458  1.0
  Co  Co14  1  0.22434810  0.49421231  0.01850542  1.0
  Co  Co15  1  0.22434810  0.50578769  0.51850542  1.0
  Co  Co16  1  0.27565190  0.99421231  0.01850542  1.0
  Co  Co17  1  0.27565190  0.00578769  0.51850542  1.0
  Co  Co18  1  0.77565190  0.49421231  0.48149458  1.0
  Co  Co19  1  0.77565190  0.50578769  0.98149458  1.0
  Si  Si20  1  0.98088906  0.78252173  0.06858569  1.0
  Si  Si21  1  0.98088906  0.21747827  0.56858569  1.0
  Si  Si22  1  0.48088906  0.28252173  0.43141431  1.0
  Si  Si23  1  0.48088906  0.71747827  0.93141431  1.0
  Si  Si24  1  0.01911094  0.78252173  0.43141431  1.0
  Si  Si25  1  0.01911094  0.21747827  0.93141431  1.0
  Si  Si26  1  0.51911094  0.28252173  0.06858569  1.0
  Si  Si27  1  0.51911094  0.71747827  0.56858569  1.0
  Si  Si28  1  0.75355130  0.51892950  0.31278580  1.0
  Si  Si29  1  0.75355130  0.48107050  0.81278580  1.0
  Si  Si30  1  0.25355130  0.01892950  0.18721420  1.0
  Si  Si31  1  0.25355130  0.98107050  0.68721420  1.0
  Si  Si32  1  0.24644870  0.51892950  0.18721420  1.0
  Si  Si33  1  0.24644870  0.48107050  0.68721420  1.0
  Si  Si34  1  0.74644870  0.01892950  0.31278580  1.0
  Si  Si35  1  0.74644870  0.98107050  0.81278580  1.0
