# generated using pymatgen
data_Ca9Mn4Bi9
_symmetry_space_group_name_H-M   'P 1'
_cell_length_a   12.57901595
_cell_length_b   22.40007078
_cell_length_c   4.75325788
_cell_angle_alpha   90.00000000
_cell_angle_beta   90.00000000
_cell_angle_gamma   90.00000000
_symmetry_Int_Tables_number   1
_chemical_formula_structural   Ca9Mn4Bi9
_chemical_formula_sum   'Ca18 Mn8 Bi18'
_cell_volume   1339.32950157
_cell_formula_units_Z   2
loop_
 _symmetry_equiv_pos_site_id
 _symmetry_equiv_pos_as_xyz
  1  'x, y, z'
loop_
 _atom_site_type_symbol
 _atom_site_label
 _atom_site_symmetry_multiplicity
 _atom_site_fract_x
 _atom_site_fract_y
 _atom_site_fract_z
 _atom_site_occupancy
  Ca  Ca0  1  0.43783749  0.90922790  0.50000000  1.0
  Ca  Ca1  1  0.93783749  0.59077210  0.50000000  1.0
  Ca  Ca2  1  0.56216251  0.09077210  0.50000000  1.0
  Ca  Ca3  1  0.06216251  0.40922790  0.50000000  1.0
  Ca  Ca4  1  0.37977687  0.73576918  0.50000000  1.0
  Ca  Ca5  1  0.87977687  0.76423082  0.50000000  1.0
  Ca  Ca6  1  0.62022313  0.26423082  0.50000000  1.0
  Ca  Ca7  1  0.12022313  0.23576918  0.50000000  1.0
  Ca  Ca8  1  0.13554423  0.86395590  0.50000000  1.0
  Ca  Ca9  1  0.63554423  0.63604410  0.50000000  1.0
  Ca  Ca10  1  0.86445577  0.13604410  0.50000000  1.0
  Ca  Ca11  1  0.36445577  0.36395590  0.50000000  1.0
  Ca  Ca12  1  0.21356934  0.60469565  0.00000000  1.0
  Ca  Ca13  1  0.71356934  0.89530435  0.00000000  1.0
  Ca  Ca14  1  0.78643066  0.39530435  0.00000000  1.0
  Ca  Ca15  1  0.28643066  0.10469565  0.00000000  1.0
  Ca  Ca16  1  0.50000000  0.50000000  0.00000000  1.0
  Ca  Ca17  1  0.00000000  0.00000000  0.00000000  1.0
  Mn  Mn18  1  0.27932442  0.95597894  0.00000000  1.0
  Mn  Mn19  1  0.77932442  0.54402106  0.00000000  1.0
  Mn  Mn20  1  0.72067558  0.04402106  0.00000000  1.0
  Mn  Mn21  1  0.22067558  0.45597894  0.00000000  1.0
  Mn  Mn22  1  0.11616923  0.76220590  0.00000000  1.0
  Mn  Mn23  1  0.61616923  0.73779410  0.00000000  1.0
  Mn  Mn24  1  0.88383077  0.23779410  0.00000000  1.0
  Mn  Mn25  1  0.38383077  0.26220590  0.00000000  1.0
  Bi  Bi26  1  0.30278637  0.50668273  0.50000000  1.0
  Bi  Bi27  1  0.80278637  0.99331727  0.50000000  1.0
  Bi  Bi28  1  0.69721363  0.49331727  0.50000000  1.0
  Bi  Bi29  1  0.19721363  0.00668273  0.50000000  1.0
  Bi  Bi30  1  0.12250049  0.69481442  0.50000000  1.0
  Bi  Bi31  1  0.62250049  0.80518558  0.50000000  1.0
  Bi  Bi32  1  0.87749951  0.30518558  0.50000000  1.0
  Bi  Bi33  1  0.37749951  0.19481442  0.50000000  1.0
  Bi  Bi34  1  0.46075425  0.64659486  0.00000000  1.0
  Bi  Bi35  1  0.96075425  0.85340514  0.00000000  1.0
  Bi  Bi36  1  0.53924575  0.35340514  0.00000000  1.0
  Bi  Bi37  1  0.03924575  0.14659486  0.00000000  1.0
  Bi  Bi38  1  0.31301744  0.83171520  0.00000000  1.0
  Bi  Bi39  1  0.81301744  0.66828480  0.00000000  1.0
  Bi  Bi40  1  0.68698256  0.16828480  0.00000000  1.0
  Bi  Bi41  1  0.18698256  0.33171520  0.00000000  1.0
  Bi  Bi42  1  0.50000000  0.00000000  0.00000000  1.0
  Bi  Bi43  1  0.00000000  0.50000000  0.00000000  1.0
