# generated using pymatgen
data_RbNiF3
_symmetry_space_group_name_H-M   'P 1'
_cell_length_a   5.95139448
_cell_length_b   5.95139448
_cell_length_c   14.53720843
_cell_angle_alpha   90.00000000
_cell_angle_beta   90.00000000
_cell_angle_gamma   120.00000000
_symmetry_Int_Tables_number   1
_chemical_formula_structural   RbNiF3
_chemical_formula_sum   'Rb6 Ni6 F18'
_cell_volume   445.91196429
_cell_formula_units_Z   6
loop_
 _symmetry_equiv_pos_site_id
 _symmetry_equiv_pos_as_xyz
  1  'x, y, z'
loop_
 _atom_site_type_symbol
 _atom_site_label
 _atom_site_symmetry_multiplicity
 _atom_site_fract_x
 _atom_site_fract_y
 _atom_site_fract_z
 _atom_site_occupancy
  Rb  Rb0  1  0.33333333  0.66666667  0.40780797  1.0
  Rb  Rb1  1  0.33333333  0.66666667  0.09219203  1.0
  Rb  Rb2  1  0.66666667  0.33333333  0.90780797  1.0
  Rb  Rb3  1  0.66666667  0.33333333  0.59219203  1.0
  Rb  Rb4  1  0.00000000  0.00000000  0.25000000  1.0
  Rb  Rb5  1  0.00000000  0.00000000  0.75000000  1.0
  Ni  Ni6  1  0.00000000  0.00000000  0.50000000  1.0
  Ni  Ni7  1  0.00000000  0.00000000  0.00000000  1.0
  Ni  Ni8  1  0.33333333  0.66666667  0.84404674  1.0
  Ni  Ni9  1  0.33333333  0.66666667  0.65595326  1.0
  Ni  Ni10  1  0.66666667  0.33333333  0.34404674  1.0
  Ni  Ni11  1  0.66666667  0.33333333  0.15595326  1.0
  F  F12  1  0.16515471  0.83484529  0.91983622  1.0
  F  F13  1  0.16515471  0.83484529  0.58016378  1.0
  F  F14  1  0.16515471  0.33030942  0.91983622  1.0
  F  F15  1  0.16515471  0.33030942  0.58016378  1.0
  F  F16  1  0.83484529  0.16515471  0.41983622  1.0
  F  F17  1  0.83484529  0.16515471  0.08016378  1.0
  F  F18  1  0.83484529  0.66969058  0.41983622  1.0
  F  F19  1  0.83484529  0.66969058  0.08016378  1.0
  F  F20  1  0.66969058  0.83484529  0.91983622  1.0
  F  F21  1  0.66969058  0.83484529  0.58016378  1.0
  F  F22  1  0.33030942  0.16515471  0.41983622  1.0
  F  F23  1  0.33030942  0.16515471  0.08016378  1.0
  F  F24  1  0.51898417  0.48101583  0.25000000  1.0
  F  F25  1  0.51898417  0.03796834  0.25000000  1.0
  F  F26  1  0.48101583  0.51898417  0.75000000  1.0
  F  F27  1  0.48101583  0.96203166  0.75000000  1.0
  F  F28  1  0.96203166  0.48101583  0.25000000  1.0
  F  F29  1  0.03796834  0.51898417  0.75000000  1.0
