# generated using pymatgen
data_Rb3In2Cl9
_symmetry_space_group_name_H-M   'P 1'
_cell_length_a   9.67257078
_cell_length_b   9.67257078
_cell_length_c   9.67257078
_cell_angle_alpha   82.11527223
_cell_angle_beta   82.11527223
_cell_angle_gamma   82.11527223
_symmetry_Int_Tables_number   1
_chemical_formula_structural   Rb3In2Cl9
_chemical_formula_sum   'Rb6 In4 Cl18'
_cell_volume   881.43833247
_cell_formula_units_Z   2
loop_
 _symmetry_equiv_pos_site_id
 _symmetry_equiv_pos_as_xyz
  1  'x, y, z'
loop_
 _atom_site_type_symbol
 _atom_site_label
 _atom_site_symmetry_multiplicity
 _atom_site_fract_x
 _atom_site_fract_y
 _atom_site_fract_z
 _atom_site_occupancy
  Rb  Rb0  1  0.58751555  0.25000000  -0.08751555  1.0
  Rb  Rb1  1  1.08751555  -0.58751555  -0.25000000  1.0
  Rb  Rb2  1  0.75000000  0.08751555  -0.58751555  1.0
  Rb  Rb3  1  0.25000000  0.91248445  -0.41248445  1.0
  Rb  Rb4  1  0.41248445  -0.25000000  0.08751555  1.0
  Rb  Rb5  1  0.91248445  -0.41248445  0.25000000  1.0
  In  In6  1  0.34587996  0.34587996  -0.65412004  1.0
  In  In7  1  0.84587996  0.84587996  -0.15412004  1.0
  In  In8  1  1.15412004  1.15412004  0.15412004  1.0
  In  In9  1  0.65412004  0.65412004  -0.34587996  1.0
  Cl  Cl10  1  0.23221437  0.57669027  -0.59156563  1.0
  Cl  Cl11  1  0.73221437  -0.09156563  0.07669027  1.0
  Cl  Cl12  1  1.09156563  -0.07669027  -0.73221437  1.0
  Cl  Cl13  1  0.59156563  0.76778563  -0.57669027  1.0
  Cl  Cl14  1  0.42330973  0.59156563  -0.23221437  1.0
  Cl  Cl15  1  0.92330973  -0.73221437  0.09156563  1.0
  Cl  Cl16  1  0.76778563  0.42330973  -0.40843437  1.0
  Cl  Cl17  1  0.26778563  0.09156563  -0.07669027  1.0
  Cl  Cl18  1  0.40843437  0.23221437  -0.42330973  1.0
  Cl  Cl19  1  0.90843437  0.07669027  -0.26778563  1.0
  Cl  Cl20  1  1.07669027  -0.26778563  -0.09156563  1.0
  Cl  Cl21  1  0.57669027  0.40843437  -0.76778563  1.0
  Cl  Cl22  1  1.09514075  1.25000000  0.40485925  1.0
  Cl  Cl23  1  0.59514075  0.90485925  -0.25000000  1.0
  Cl  Cl24  1  0.75000000  0.59514075  -0.09514075  1.0
  Cl  Cl25  1  1.25000000  1.40485925  0.09514075  1.0
  Cl  Cl26  1  0.90485925  0.75000000  -0.40485925  1.0
  Cl  Cl27  1  1.40485925  1.09514075  0.25000000  1.0
