# generated using pymatgen
data_Ho(NiSb)2
_symmetry_space_group_name_H-M   'P 1'
_cell_length_a   4.44351075
_cell_length_b   4.44351075
_cell_length_c   10.01418470
_cell_angle_alpha   90.00000000
_cell_angle_beta   90.00000000
_cell_angle_gamma   90.00000000
_symmetry_Int_Tables_number   1
_chemical_formula_structural   Ho(NiSb)2
_chemical_formula_sum   'Ho2 Ni4 Sb4'
_cell_volume   197.72795213
_cell_formula_units_Z   2
loop_
 _symmetry_equiv_pos_site_id
 _symmetry_equiv_pos_as_xyz
  1  'x, y, z'
loop_
 _atom_site_type_symbol
 _atom_site_label
 _atom_site_symmetry_multiplicity
 _atom_site_fract_x
 _atom_site_fract_y
 _atom_site_fract_z
 _atom_site_occupancy
  Ho  Ho0  1  0.00000000  0.50000000  0.23938660  1.0
  Ho  Ho1  1  0.50000000  0.00000000  0.76061340  1.0
  Ni  Ni2  1  0.00000000  0.00000000  0.00000000  1.0
  Ni  Ni3  1  0.50000000  0.50000000  0.00000000  1.0
  Ni  Ni4  1  0.00000000  0.50000000  0.62510755  1.0
  Ni  Ni5  1  0.50000000  0.00000000  0.37489245  1.0
  Sb  Sb6  1  0.00000000  0.00000000  0.50000000  1.0
  Sb  Sb7  1  0.50000000  0.50000000  0.50000000  1.0
  Sb  Sb8  1  0.00000000  0.50000000  0.87222468  1.0
  Sb  Sb9  1  0.50000000  0.00000000  0.12777532  1.0
