# generated using pymatgen
data_MoCl4
_symmetry_space_group_name_H-M   'P 1'
_cell_length_a   12.87872844
_cell_length_b   12.87872844
_cell_length_c   6.69334864
_cell_angle_alpha   90.00000000
_cell_angle_beta   90.00000000
_cell_angle_gamma   120.00000000
_symmetry_Int_Tables_number   1
_chemical_formula_structural   MoCl4
_chemical_formula_sum   'Mo6 Cl24'
_cell_volume   961.43527063
_cell_formula_units_Z   6
loop_
 _symmetry_equiv_pos_site_id
 _symmetry_equiv_pos_as_xyz
  1  'x, y, z'
loop_
 _atom_site_type_symbol
 _atom_site_label
 _atom_site_symmetry_multiplicity
 _atom_site_fract_x
 _atom_site_fract_y
 _atom_site_fract_z
 _atom_site_occupancy
  Mo  Mo0  1  0.66328714  0.83164357  0.00000000  1.0
  Mo  Mo1  1  0.83164357  0.66328714  0.00000000  1.0
  Mo  Mo2  1  0.83164357  0.16835643  0.00000000  1.0
  Mo  Mo3  1  0.16835643  0.83164357  0.00000000  1.0
  Mo  Mo4  1  0.16835643  0.33671286  0.00000000  1.0
  Mo  Mo5  1  0.33671286  0.16835643  0.00000000  1.0
  Cl  Cl6  1  0.30120576  0.83417922  0.22396008  1.0
  Cl  Cl7  1  0.30120576  0.46702655  0.77603992  1.0
  Cl  Cl8  1  0.83417922  0.30120576  0.22396008  1.0
  Cl  Cl9  1  0.83417922  0.53297345  0.77603992  1.0
  Cl  Cl10  1  0.53297345  0.83417922  0.77603992  1.0
  Cl  Cl11  1  0.53297345  0.69879424  0.22396008  1.0
  Cl  Cl12  1  0.16582078  0.69879424  0.77603992  1.0
  Cl  Cl13  1  0.16582078  0.46702655  0.22396008  1.0
  Cl  Cl14  1  0.69879424  0.53297345  0.22396008  1.0
  Cl  Cl15  1  0.69879424  0.16582078  0.77603992  1.0
  Cl  Cl16  1  0.46702655  0.30120576  0.77603992  1.0
  Cl  Cl17  1  0.46702655  0.16582078  0.22396008  1.0
  Cl  Cl18  1  0.83354838  0.83354838  0.18530659  1.0
  Cl  Cl19  1  0.83354838  0.00000000  0.81469341  1.0
  Cl  Cl20  1  -0.00000000  0.83354838  0.81469341  1.0
  Cl  Cl21  1  -0.00000000  0.16645162  0.18530659  1.0
  Cl  Cl22  1  0.16645162  0.16645162  0.81469341  1.0
  Cl  Cl23  1  0.16645162  0.00000000  0.18530659  1.0
  Cl  Cl24  1  0.32113561  0.32113561  0.19881994  1.0
  Cl  Cl25  1  0.32113561  0.00000000  0.80118006  1.0
  Cl  Cl26  1  -0.00000000  0.32113561  0.80118006  1.0
  Cl  Cl27  1  -0.00000000  0.67886439  0.19881994  1.0
  Cl  Cl28  1  0.67886439  0.67886439  0.80118006  1.0
  Cl  Cl29  1  0.67886439  0.00000000  0.19881994  1.0
