# generated using pymatgen
data_La4Ru6O19
_symmetry_space_group_name_H-M   'P 1'
_cell_length_a   7.86681112
_cell_length_b   7.86681112
_cell_length_c   7.86681112
_cell_angle_alpha   109.47122063
_cell_angle_beta   109.47122063
_cell_angle_gamma   109.47122063
_symmetry_Int_Tables_number   1
_chemical_formula_structural   La4Ru6O19
_chemical_formula_sum   'La4 Ru6 O19'
_cell_volume   374.77816308
_cell_formula_units_Z   1
loop_
 _symmetry_equiv_pos_site_id
 _symmetry_equiv_pos_as_xyz
  1  'x, y, z'
loop_
 _atom_site_type_symbol
 _atom_site_label
 _atom_site_symmetry_multiplicity
 _atom_site_fract_x
 _atom_site_fract_y
 _atom_site_fract_z
 _atom_site_occupancy
  La  La0  1  0.68093837  0.68093837  0.68093837  1.0
  La  La1  1  1.00000000  1.00000000  0.31906163  1.0
  La  La2  1  1.00000000  0.31906163  1.00000000  1.0
  La  La3  1  0.31906163  1.00000000  1.00000000  1.0
  Ru  Ru4  1  0.36228159  0.86228159  0.50000000  1.0
  Ru  Ru5  1  0.50000000  0.36228159  0.86228159  1.0
  Ru  Ru6  1  0.50000000  0.63771841  0.13771841  1.0
  Ru  Ru7  1  0.86228159  0.50000000  0.36228159  1.0
  Ru  Ru8  1  0.13771841  0.50000000  0.63771841  1.0
  Ru  Ru9  1  0.63771841  0.13771841  0.50000000  1.0
  O  O10  1  0.35730714  0.62880829  0.29782781  1.0
  O  O11  1  1.33098048  1.05947933  0.70217219  1.0
  O  O12  1  0.29782781  0.35730714  0.62880829  1.0
  O  O13  1  0.72849885  0.66901952  0.37119171  1.0
  O  O14  1  0.62880829  0.29782781  0.35730714  1.0
  O  O15  1  0.94052067  1.27150115  1.64269286  1.0
  O  O16  1  0.66901952  0.37119171  0.72849885  1.0
  O  O17  1  1.64269286  0.94052067  1.27150115  1.0
  O  O18  1  1.27150115  1.64269286  0.94052067  1.0
  O  O19  1  0.70217219  1.33098048  1.05947933  1.0
  O  O20  1  1.05947933  0.70217219  1.33098048  1.0
  O  O21  1  0.37119171  0.72849885  0.66901952  1.0
  O  O22  1  0.67267451  0.67267451  0.00000000  1.0
  O  O23  1  0.00000000  0.67267451  0.67267451  1.0
  O  O24  1  0.00000000  0.32732549  0.32732549  1.0
  O  O25  1  0.67267451  -0.00000000  0.67267451  1.0
  O  O26  1  0.32732549  -0.00000000  0.32732549  1.0
  O  O27  1  0.32732549  0.32732549  0.00000000  1.0
  O  O28  1  0.00000000  0.00000000  0.00000000  1.0
