# generated using pymatgen
data_BaLiGe2
_symmetry_space_group_name_H-M   'P 1'
_cell_length_a   7.48288302
_cell_length_b   4.65033656
_cell_length_c   11.94605526
_cell_angle_alpha   90.00000000
_cell_angle_beta   90.00000000
_cell_angle_gamma   90.00000000
_symmetry_Int_Tables_number   1
_chemical_formula_structural   BaLiGe2
_chemical_formula_sum   'Ba4 Li4 Ge8'
_cell_volume   415.69792863
_cell_formula_units_Z   4
loop_
 _symmetry_equiv_pos_site_id
 _symmetry_equiv_pos_as_xyz
  1  'x, y, z'
loop_
 _atom_site_type_symbol
 _atom_site_label
 _atom_site_symmetry_multiplicity
 _atom_site_fract_x
 _atom_site_fract_y
 _atom_site_fract_z
 _atom_site_occupancy
  Ba  Ba0  1  0.86517646  0.75000000  0.85955557  1.0
  Ba  Ba1  1  0.36517646  0.75000000  0.64044443  1.0
  Ba  Ba2  1  0.13482354  0.25000000  0.14044443  1.0
  Ba  Ba3  1  0.63482354  0.25000000  0.35955557  1.0
  Li  Li4  1  0.88406823  0.75000000  0.56352106  1.0
  Li  Li5  1  0.38406823  0.75000000  0.93647894  1.0
  Li  Li6  1  0.11593177  0.25000000  0.43647894  1.0
  Li  Li7  1  0.61593177  0.25000000  0.06352106  1.0
  Ge  Ge8  1  0.96519348  0.75000000  0.34037973  1.0
  Ge  Ge9  1  0.46519348  0.75000000  0.15962027  1.0
  Ge  Ge10  1  0.03480652  0.25000000  0.65962027  1.0
  Ge  Ge11  1  0.53480652  0.25000000  0.84037973  1.0
  Ge  Ge12  1  0.79944702  0.75000000  0.15183238  1.0
  Ge  Ge13  1  0.29944702  0.75000000  0.34816762  1.0
  Ge  Ge14  1  0.20055298  0.25000000  0.84816762  1.0
  Ge  Ge15  1  0.70055298  0.25000000  0.65183238  1.0
