# generated using pymatgen
data_Hg3(SBr)2
_symmetry_space_group_name_H-M   'P 1'
_cell_length_a   10.48069848
_cell_length_b   10.48069848
_cell_length_c   10.61254031
_cell_angle_alpha   66.96502248
_cell_angle_beta   113.03497752
_cell_angle_gamma   126.05175899
_symmetry_Int_Tables_number   1
_chemical_formula_structural   Hg3(SBr)2
_chemical_formula_sum   'Hg12 S8 Br8'
_cell_volume   846.77964405
_cell_formula_units_Z   4
loop_
 _symmetry_equiv_pos_site_id
 _symmetry_equiv_pos_as_xyz
  1  'x, y, z'
loop_
 _atom_site_type_symbol
 _atom_site_label
 _atom_site_symmetry_multiplicity
 _atom_site_fract_x
 _atom_site_fract_y
 _atom_site_fract_z
 _atom_site_occupancy
  Hg  Hg0  1  0.66144760  -0.19535835  0.70909352  1.0
  Hg  Hg1  1  1.19535835  0.33855240  0.70909352  1.0
  Hg  Hg2  1  0.80464165  0.66144760  0.29090648  1.0
  Hg  Hg3  1  0.33855240  0.19535835  0.29090648  1.0
  Hg  Hg4  1  0.60615492  -0.13275418  0.99653515  1.0
  Hg  Hg5  1  1.13275418  0.39384508  0.99653515  1.0
  Hg  Hg6  1  0.86724582  0.60615492  0.00346485  1.0
  Hg  Hg7  1  0.39384508  0.13275418  0.00346485  1.0
  Hg  Hg8  1  0.92554113  0.07445887  0.27196696  1.0
  Hg  Hg9  1  0.07445887  -0.07445887  0.72803304  1.0
  Hg  Hg10  1  0.78706748  0.21293252  0.71975485  1.0
  Hg  Hg11  1  0.21293252  -0.21293252  0.28024515  1.0
  S  S12  1  0.55265537  -0.06088914  0.74254738  1.0
  S  S13  1  1.06088914  0.44734463  0.74254738  1.0
  S  S14  1  0.93911086  0.55265537  0.25745262  1.0
  S  S15  1  0.44734463  0.06088914  0.25745262  1.0
  S  S16  1  0.32275596  0.18699057  0.74961962  1.0
  S  S17  1  0.81300943  0.67724404  0.74961962  1.0
  S  S18  1  1.18699057  0.32275596  0.25038038  1.0
  S  S19  1  0.67724404  -0.18699057  0.25038038  1.0
  Br  Br20  1  0.88424615  0.11575385  0.51466429  1.0
  Br  Br21  1  0.11575385  -0.11575385  0.48533571  1.0
  Br  Br22  1  0.75050627  0.24949373  0.99783202  1.0
  Br  Br23  1  0.24949373  -0.24949373  0.00216798  1.0
  Br  Br24  1  0.62247808  0.37752192  0.49291314  1.0
  Br  Br25  1  0.37752192  -0.37752192  0.50708686  1.0
  Br  Br26  1  0.50000000  0.50000000  0.00000000  1.0
  Br  Br27  1  0.00000000  0.00000000  0.00000000  1.0
