# generated using pymatgen
data_H2O
_symmetry_space_group_name_H-M   'P 1'
_cell_length_a   6.57060040
_cell_length_b   6.57060040
_cell_length_c   7.28273720
_cell_angle_alpha   90.00000000
_cell_angle_beta   90.00000000
_cell_angle_gamma   90.00000000
_symmetry_Int_Tables_number   1
_chemical_formula_structural   H2O
_chemical_formula_sum   'H24 O12'
_cell_volume   314.41608144
_cell_formula_units_Z   12
loop_
 _symmetry_equiv_pos_site_id
 _symmetry_equiv_pos_as_xyz
  1  'x, y, z'
loop_
 _atom_site_type_symbol
 _atom_site_label
 _atom_site_symmetry_multiplicity
 _atom_site_fract_x
 _atom_site_fract_y
 _atom_site_fract_z
 _atom_site_occupancy
  H  H0  1  0.30883067  0.63039706  0.14855384  1.0
  H  H1  1  0.80883067  0.86960294  0.60144616  1.0
  H  H2  1  0.36960294  0.69116933  0.35144616  1.0
  H  H3  1  0.86960294  0.80883067  0.39855384  1.0
  H  H4  1  0.69116933  0.36960294  0.64855384  1.0
  H  H5  1  0.19116933  0.13039706  0.10144616  1.0
  H  H6  1  0.63039706  0.30883067  0.85144616  1.0
  H  H7  1  0.13039706  0.19116933  0.89855384  1.0
  H  H8  1  0.15209789  0.50635381  0.82209519  1.0
  H  H9  1  0.65209789  0.99364619  0.92790481  1.0
  H  H10  1  0.49364619  0.84790211  0.67790481  1.0
  H  H11  1  0.99364619  0.65209789  0.07209519  1.0
  H  H12  1  0.84790211  0.49364619  0.32209519  1.0
  H  H13  1  0.34790211  0.00635381  0.42790481  1.0
  H  H14  1  0.50635381  0.15209789  0.17790481  1.0
  H  H15  1  0.00635381  0.34790211  0.57209519  1.0
  H  H16  1  0.11255278  0.83255991  0.97557616  1.0
  H  H17  1  0.61255278  0.66744009  0.77442384  1.0
  H  H18  1  0.16744009  0.88744722  0.52442384  1.0
  H  H19  1  0.66744009  0.61255278  0.22557616  1.0
  H  H20  1  0.88744722  0.16744009  0.47557616  1.0
  H  H21  1  0.38744722  0.33255991  0.27442384  1.0
  H  H22  1  0.83255991  0.11255278  0.02442384  1.0
  H  H23  1  0.33255991  0.38744722  0.72557616  1.0
  O  O24  1  0.11442467  0.68199911  0.99319095  1.0
  O  O25  1  0.61442467  0.81800089  0.75680905  1.0
  O  O26  1  0.31800089  0.88557533  0.50680905  1.0
  O  O27  1  0.81800089  0.61442467  0.24319095  1.0
  O  O28  1  0.88557533  0.31800089  0.49319095  1.0
  O  O29  1  0.38557533  0.18199911  0.25680905  1.0
  O  O30  1  0.68199911  0.11442467  0.00680905  1.0
  O  O31  1  0.18199911  0.38557533  0.74319095  1.0
  O  O32  1  0.40498052  0.59501948  0.25000000  1.0
  O  O33  1  0.90498052  0.90498052  0.50000000  1.0
  O  O34  1  0.59501948  0.40498052  0.75000000  1.0
  O  O35  1  0.09501948  0.09501948  0.00000000  1.0
