# generated using pymatgen
data_ScHCl
_symmetry_space_group_name_H-M   'P 1'
_cell_length_a   9.96229293
_cell_length_b   9.96229293
_cell_length_c   9.96229293
_cell_angle_alpha   20.26736440
_cell_angle_beta   20.26736440
_cell_angle_gamma   20.26736440
_symmetry_Int_Tables_number   1
_chemical_formula_structural   ScHCl
_chemical_formula_sum   'Sc2 H2 Cl2'
_cell_volume   103.81772087
_cell_formula_units_Z   2
loop_
 _symmetry_equiv_pos_site_id
 _symmetry_equiv_pos_as_xyz
  1  'x, y, z'
loop_
 _atom_site_type_symbol
 _atom_site_label
 _atom_site_symmetry_multiplicity
 _atom_site_fract_x
 _atom_site_fract_y
 _atom_site_fract_z
 _atom_site_occupancy
  Sc  Sc0  1  0.87643035  -0.12356965  -0.12356965  1.0
  Sc  Sc1  1  0.12356965  0.12356965  0.12356965  1.0
  H  H2  1  0.80786406  -0.19213594  -0.19213594  1.0
  H  H3  1  0.19213594  0.19213594  0.19213594  1.0
  Cl  Cl4  1  0.59824464  0.59824464  -0.40175536  1.0
  Cl  Cl5  1  0.40175536  0.40175536  -0.59824464  1.0
