# generated using pymatgen
data_Ba8Dy3(Pt2O9)2
_symmetry_space_group_name_H-M   'P 1'
_cell_length_a   8.45552341
_cell_length_b   8.45552341
_cell_length_c   8.45552341
_cell_angle_alpha   90.00000000
_cell_angle_beta   90.00000000
_cell_angle_gamma   90.00000000
_symmetry_Int_Tables_number   1
_chemical_formula_structural   Ba8Dy3(Pt2O9)2
_chemical_formula_sum   'Ba8 Dy3 Pt4 O18'
_cell_volume   604.53505490
_cell_formula_units_Z   1
loop_
 _symmetry_equiv_pos_site_id
 _symmetry_equiv_pos_as_xyz
  1  'x, y, z'
loop_
 _atom_site_type_symbol
 _atom_site_label
 _atom_site_symmetry_multiplicity
 _atom_site_fract_x
 _atom_site_fract_y
 _atom_site_fract_z
 _atom_site_occupancy
  Ba  Ba0  1  0.76325951  0.76325951  0.76325951  1.0
  Ba  Ba1  1  0.76325951  0.76325951  0.23674049  1.0
  Ba  Ba2  1  0.76325951  0.23674049  0.76325951  1.0
  Ba  Ba3  1  0.76325951  0.23674049  0.23674049  1.0
  Ba  Ba4  1  0.23674049  0.76325951  0.76325951  1.0
  Ba  Ba5  1  0.23674049  0.76325951  0.23674049  1.0
  Ba  Ba6  1  0.23674049  0.23674049  0.76325951  1.0
  Ba  Ba7  1  0.23674049  0.23674049  0.23674049  1.0
  Dy  Dy8  1  0.50000000  0.00000000  0.00000000  1.0
  Dy  Dy9  1  0.00000000  0.50000000  0.00000000  1.0
  Dy  Dy10  1  0.00000000  0.00000000  0.50000000  1.0
  Pt  Pt11  1  0.00000000  0.50000000  0.50000000  1.0
  Pt  Pt12  1  0.50000000  0.00000000  0.50000000  1.0
  Pt  Pt13  1  0.50000000  0.50000000  0.00000000  1.0
  Pt  Pt14  1  0.00000000  0.00000000  0.00000000  1.0
  O  O15  1  0.73924820  0.50000000  -0.00000000  1.0
  O  O16  1  0.73924820  0.00000000  0.50000000  1.0
  O  O17  1  0.50000000  0.73924820  0.00000000  1.0
  O  O18  1  0.50000000  -0.00000000  0.73924820  1.0
  O  O19  1  0.50000000  -0.00000000  0.26075180  1.0
  O  O20  1  0.50000000  0.26075180  0.00000000  1.0
  O  O21  1  -0.00000000  0.73924820  0.50000000  1.0
  O  O22  1  -0.00000000  0.50000000  0.73924820  1.0
  O  O23  1  -0.00000000  0.50000000  0.26075180  1.0
  O  O24  1  -0.00000000  0.26075180  0.50000000  1.0
  O  O25  1  0.26075180  0.50000000  -0.00000000  1.0
  O  O26  1  0.26075180  0.00000000  0.50000000  1.0
  O  O27  1  0.76111532  -0.00000000  0.00000000  1.0
  O  O28  1  0.00000000  0.76111532  -0.00000000  1.0
  O  O29  1  0.00000000  0.00000000  0.76111532  1.0
  O  O30  1  0.00000000  0.00000000  0.23888468  1.0
  O  O31  1  0.00000000  0.23888468  -0.00000000  1.0
  O  O32  1  0.23888468  -0.00000000  0.00000000  1.0
