# generated using pymatgen
data_Li3H6Ir
_symmetry_space_group_name_H-M   'P 1'
_cell_length_a   8.48967921
_cell_length_b   4.75390570
_cell_length_c   8.52840185
_cell_angle_alpha   90.00000000
_cell_angle_beta   90.00000000
_cell_angle_gamma   90.00000000
_symmetry_Int_Tables_number   1
_chemical_formula_structural   Li3H6Ir
_chemical_formula_sum   'Li12 H24 Ir4'
_cell_volume   344.19891623
_cell_formula_units_Z   4
loop_
 _symmetry_equiv_pos_site_id
 _symmetry_equiv_pos_as_xyz
  1  'x, y, z'
loop_
 _atom_site_type_symbol
 _atom_site_label
 _atom_site_symmetry_multiplicity
 _atom_site_fract_x
 _atom_site_fract_y
 _atom_site_fract_z
 _atom_site_occupancy
  Li  Li0  1  0.95988050  0.75000000  0.13296389  1.0
  Li  Li1  1  0.45988050  0.75000000  0.36703611  1.0
  Li  Li2  1  0.04011950  0.25000000  0.86703611  1.0
  Li  Li3  1  0.54011950  0.25000000  0.63296389  1.0
  Li  Li4  1  0.76930082  0.75000000  0.74241012  1.0
  Li  Li5  1  0.26930082  0.75000000  0.75758988  1.0
  Li  Li6  1  0.23069918  0.25000000  0.25758988  1.0
  Li  Li7  1  0.73069918  0.25000000  0.24241012  1.0
  Li  Li8  1  0.60297053  0.75000000  0.02314020  1.0
  Li  Li9  1  0.10297053  0.75000000  0.47685980  1.0
  Li  Li10  1  0.39702947  0.25000000  0.97685980  1.0
  Li  Li11  1  0.89702947  0.25000000  0.52314020  1.0
  H  H12  1  0.89693232  0.99418363  0.32435882  1.0
  H  H13  1  0.89693232  0.50581637  0.32435882  1.0
  H  H14  1  0.39693232  0.99418363  0.17564118  1.0
  H  H15  1  0.39693232  0.50581637  0.17564118  1.0
  H  H16  1  0.10306768  0.49418363  0.67564118  1.0
  H  H17  1  0.10306768  0.00581637  0.67564118  1.0
  H  H18  1  0.60306768  0.49418363  0.82435882  1.0
  H  H19  1  0.60306768  0.00581637  0.82435882  1.0
  H  H20  1  0.65554591  0.99780236  0.47029833  1.0
  H  H21  1  0.65554591  0.50219764  0.47029833  1.0
  H  H22  1  0.15554591  0.99780236  0.02970167  1.0
  H  H23  1  0.15554591  0.50219764  0.02970167  1.0
  H  H24  1  0.34445409  0.49780236  0.52970167  1.0
  H  H25  1  0.34445409  0.00219764  0.52970167  1.0
  H  H26  1  0.84445409  0.49780236  0.97029833  1.0
  H  H27  1  0.84445409  0.00219764  0.97029833  1.0
  H  H28  1  0.88641634  0.75000000  0.55957507  1.0
  H  H29  1  0.38641634  0.75000000  0.94042493  1.0
  H  H30  1  0.11358366  0.25000000  0.44042493  1.0
  H  H31  1  0.61358366  0.25000000  0.05957507  1.0
  H  H32  1  0.66901539  0.75000000  0.23536205  1.0
  H  H33  1  0.16901539  0.75000000  0.26463795  1.0
  H  H34  1  0.33098461  0.25000000  0.76463795  1.0
  H  H35  1  0.83098461  0.25000000  0.73536205  1.0
  Ir  Ir36  1  0.77546057  0.75000000  0.39795626  1.0
  Ir  Ir37  1  0.27546057  0.75000000  0.10204374  1.0
  Ir  Ir38  1  0.22453943  0.25000000  0.60204374  1.0
  Ir  Ir39  1  0.72453943  0.25000000  0.89795626  1.0
