# generated using pymatgen
data_KSr4(BO3)3
_symmetry_space_group_name_H-M   'P 1'
_cell_length_a   6.97671354
_cell_length_b   6.97671354
_cell_length_c   11.12551731
_cell_angle_alpha   90.00000000
_cell_angle_beta   90.00000000
_cell_angle_gamma   59.64679362
_symmetry_Int_Tables_number   1
_chemical_formula_structural   KSr4(BO3)3
_chemical_formula_sum   'K2 Sr8 B6 O18'
_cell_volume   467.30011088
_cell_formula_units_Z   2
loop_
 _symmetry_equiv_pos_site_id
 _symmetry_equiv_pos_as_xyz
  1  'x, y, z'
loop_
 _atom_site_type_symbol
 _atom_site_label
 _atom_site_symmetry_multiplicity
 _atom_site_fract_x
 _atom_site_fract_y
 _atom_site_fract_z
 _atom_site_occupancy
  K  K0  1  -0.16038308  0.99871017  0.75000000  1.0
  K  K1  1  0.00128983  0.16038308  0.25000000  1.0
  Sr  Sr2  1  -0.76880138  1.19743527  0.53050243  1.0
  Sr  Sr3  1  -0.19743527  0.76880138  0.03050243  1.0
  Sr  Sr4  1  -0.19743527  0.76880138  0.46949757  1.0
  Sr  Sr5  1  -0.76880138  1.19743527  0.96949757  1.0
  Sr  Sr6  1  -0.20552929  0.49824071  0.75000000  1.0
  Sr  Sr7  1  -0.49824071  1.20552929  0.25000000  1.0
  Sr  Sr8  1  -0.62814749  0.62814749  0.50000000  1.0
  Sr  Sr9  1  -0.62814749  0.62814749  0.00000000  1.0
  B  B10  1  -0.59858248  0.94271357  0.75000000  1.0
  B  B11  1  0.05728643  0.59858248  0.25000000  1.0
  B  B12  1  0.22099758  0.53064622  0.75000000  1.0
  B  B13  1  -0.53064622  0.77900242  0.25000000  1.0
  B  B14  1  -0.19905651  0.19905651  0.50000000  1.0
  B  B15  1  -0.19905651  0.19905651  0.00000000  1.0
  O  O16  1  -0.20210753  0.39611814  0.52702618  1.0
  O  O17  1  -0.39611814  1.20210753  0.02702618  1.0
  O  O18  1  -0.39611814  1.20210753  0.47297382  1.0
  O  O19  1  -0.20210753  0.39611814  0.97297382  1.0
  O  O20  1  -0.48186050  0.85842453  0.64198806  1.0
  O  O21  1  0.14157547  0.48186050  0.14198806  1.0
  O  O22  1  0.14157547  0.48186050  0.35801194  1.0
  O  O23  1  -0.48186050  0.85842453  0.85801194  1.0
  O  O24  1  -0.56778199  0.89939073  0.14192700  1.0
  O  O25  1  0.10060927  0.56778199  0.64192700  1.0
  O  O26  1  0.10060927  0.56778199  0.85807300  1.0
  O  O27  1  -0.56778199  0.89939073  0.35807300  1.0
  O  O28  1  -0.81746793  1.11223591  0.75000000  1.0
  O  O29  1  -0.11223591  0.81746793  0.25000000  1.0
  O  O30  1  0.44067374  0.47154545  0.75000000  1.0
  O  O31  1  -0.47154545  0.55932626  0.25000000  1.0
  O  O32  1  0.00001581  -0.00001581  0.50000000  1.0
  O  O33  1  0.00001581  -0.00001581  -0.00000000  1.0
