# generated using pymatgen
data_ZnO2
_symmetry_space_group_name_H-M   'P 1'
_cell_length_a   4.20388058
_cell_length_b   4.20388058
_cell_length_c   4.20388058
_cell_angle_alpha   115.24942417
_cell_angle_beta   115.24942417
_cell_angle_gamma   98.44620158
_symmetry_Int_Tables_number   1
_chemical_formula_structural   ZnO2
_chemical_formula_sum   'Zn2 O4'
_cell_volume   55.64924057
_cell_formula_units_Z   2
loop_
 _symmetry_equiv_pos_site_id
 _symmetry_equiv_pos_as_xyz
  1  'x, y, z'
loop_
 _atom_site_type_symbol
 _atom_site_label
 _atom_site_symmetry_multiplicity
 _atom_site_fract_x
 _atom_site_fract_y
 _atom_site_fract_z
 _atom_site_occupancy
  Zn  Zn0  1  0.25000000  0.25000000  0.00000000  1.0
  Zn  Zn1  1  0.75000000  0.75000000  0.00000000  1.0
  O  O2  1  0.38401884  0.11598116  0.50000000  1.0
  O  O3  1  0.61598116  0.88401884  0.50000000  1.0
  O  O4  1  0.88401884  0.38401884  1.26803769  1.0
  O  O5  1  1.11598116  0.61598116  0.73196231  1.0
