# generated using pymatgen
data_AgHg3SbO6
_symmetry_space_group_name_H-M   'P 1'
_cell_length_a   7.15933674
_cell_length_b   7.15933674
_cell_length_c   7.15933674
_cell_angle_alpha   87.94982392
_cell_angle_beta   87.94982392
_cell_angle_gamma   87.94982392
_symmetry_Int_Tables_number   1
_chemical_formula_structural   AgHg3SbO6
_chemical_formula_sum   'Ag2 Hg6 Sb2 O12'
_cell_volume   366.27138544
_cell_formula_units_Z   2
loop_
 _symmetry_equiv_pos_site_id
 _symmetry_equiv_pos_as_xyz
  1  'x, y, z'
loop_
 _atom_site_type_symbol
 _atom_site_label
 _atom_site_symmetry_multiplicity
 _atom_site_fract_x
 _atom_site_fract_y
 _atom_site_fract_z
 _atom_site_occupancy
  Ag  Ag0  1  1.25000000  1.25000000  0.25000000  1.0
  Ag  Ag1  1  0.75000000  0.75000000  -0.25000000  1.0
  Hg  Hg2  1  0.89704848  0.25000000  -0.39704848  1.0
  Hg  Hg3  1  0.39704848  0.10295152  -0.25000000  1.0
  Hg  Hg4  1  0.75000000  0.39704848  -0.89704848  1.0
  Hg  Hg5  1  0.25000000  0.60295152  -0.10295152  1.0
  Hg  Hg6  1  0.10295152  0.75000000  -0.60295152  1.0
  Hg  Hg7  1  0.60295152  -0.10295152  0.25000000  1.0
  Sb  Sb8  1  0.50000000  0.50000000  -0.50000000  1.0
  Sb  Sb9  1  0.00000000  0.00000000  -0.00000000  1.0
  O  O10  1  0.21540166  0.50339010  -0.50190544  1.0
  O  O11  1  0.71540166  -0.00190544  0.00339010  1.0
  O  O12  1  1.00190544  -0.00339010  -0.71540166  1.0
  O  O13  1  0.50190544  0.78459834  -0.50339010  1.0
  O  O14  1  0.49660990  0.50190544  -0.21540166  1.0
  O  O15  1  0.99660990  -0.71540166  0.00190544  1.0
  O  O16  1  0.78459834  0.49660990  -0.49809456  1.0
  O  O17  1  0.28459834  0.00190544  -0.00339010  1.0
  O  O18  1  0.49809456  0.21540166  -0.49660990  1.0
  O  O19  1  0.99809456  0.00339010  -0.28459834  1.0
  O  O20  1  1.00339010  -0.28459834  -0.00190544  1.0
  O  O21  1  0.50339010  0.49809456  -0.78459834  1.0
