# generated using pymatgen
data_Ca10VP5(O12F)2
_symmetry_space_group_name_H-M   'P 1'
_cell_length_a   9.55232209
_cell_length_b   6.91801329
_cell_length_c   9.55876608
_cell_angle_alpha   90.00000000
_cell_angle_beta   119.59401579
_cell_angle_gamma   90.00000000
_symmetry_Int_Tables_number   1
_chemical_formula_structural   Ca10VP5(O12F)2
_chemical_formula_sum   'Ca10 V1 P5 O24 F2'
_cell_volume   549.26889071
_cell_formula_units_Z   1
loop_
 _symmetry_equiv_pos_site_id
 _symmetry_equiv_pos_as_xyz
  1  'x, y, z'
loop_
 _atom_site_type_symbol
 _atom_site_label
 _atom_site_symmetry_multiplicity
 _atom_site_fract_x
 _atom_site_fract_y
 _atom_site_fract_z
 _atom_site_occupancy
  Ca  Ca0  1  0.66599662  0.74769150  0.58100840  1.0
  Ca  Ca1  1  0.66599662  0.25230850  0.58100840  1.0
  Ca  Ca2  1  0.32799988  0.75091058  0.90607376  1.0
  Ca  Ca3  1  0.32799988  0.24908942  0.90607376  1.0
  Ca  Ca4  1  1.00033303  0.50000000  0.49351143  1.0
  Ca  Ca5  1  0.74845496  0.50000000  1.00118825  1.0
  Ca  Ca6  1  0.23126864  0.50000000  0.23840998  1.0
  Ca  Ca7  1  -0.00888131  0.00000000  -0.00512982  1.0
  Ca  Ca8  1  0.75452143  0.00000000  0.24625029  1.0
  Ca  Ca9  1  0.23908752  0.00000000  0.49483845  1.0
  V  V10  1  0.39232469  0.00000000  0.27340408  1.0
  P  P11  1  0.59498548  0.50000000  0.21582211  1.0
  P  P12  1  0.36976189  0.50000000  0.64832804  1.0
  P  P13  1  0.02346019  0.50000000  0.87478819  1.0
  P  P14  1  0.96906922  0.00000000  0.61184059  1.0
  P  P15  1  0.62504105  0.00000000  0.84388525  1.0
  O  O16  1  0.91549851  0.81858348  0.50039595  1.0
  O  O17  1  0.91549851  0.18141652  0.50039595  1.0
  O  O18  1  0.73723926  0.81896085  0.90156783  1.0
  O  O19  1  0.73723926  0.18103915  0.90156783  1.0
  O  O20  1  0.65307953  0.68140291  0.16131231  1.0
  O  O21  1  0.65307953  0.31859709  0.16131231  1.0
  O  O22  1  0.32846218  0.80585457  0.33625587  1.0
  O  O23  1  0.32846218  0.19414543  0.33625587  1.0
  O  O24  1  0.25720867  0.68053559  0.59243737  1.0
  O  O25  1  0.25720867  0.31946441  0.59243737  1.0
  O  O26  1  0.07503440  0.68057256  0.98682483  1.0
  O  O27  1  0.07503440  0.31942744  0.98682483  1.0
  O  O28  1  0.83940426  0.50000000  0.75542667  1.0
  O  O29  1  0.66319452  0.50000000  0.40108824  1.0
  O  O30  1  0.48903035  0.50000000  0.58269103  1.0
  O  O31  1  0.46314491  0.50000000  0.83723808  1.0
  O  O32  1  0.40601128  0.50000000  0.12238570  1.0
  O  O33  1  0.11997049  0.50000000  0.78152912  1.0
  O  O34  1  0.87745339  0.00000000  0.70994751  1.0
  O  O35  1  0.60040139  0.00000000  0.37935516  1.0
  O  O36  1  0.53135178  0.00000000  0.65514526  1.0
  O  O37  1  0.50740413  0.00000000  0.91194632  1.0
  O  O38  1  0.31197990  0.00000000  0.06824048  1.0
  O  O39  1  0.15456460  0.00000000  0.72440786  1.0
  F  F40  1  0.99199403  0.50000000  0.24602477  1.0
  F  F41  1  0.99703007  0.00000000  0.24338432  1.0
