# generated using pymatgen
data_Rb
_symmetry_space_group_name_H-M   'P 1'
_cell_length_a   11.50306619
_cell_length_b   11.50306619
_cell_length_c   11.50306619
_cell_angle_alpha   98.49618479
_cell_angle_beta   98.49618479
_cell_angle_gamma   134.79020471
_symmetry_Int_Tables_number   1
_chemical_formula_structural   Rb
_chemical_formula_sum   Rb10
_cell_volume   997.23018958
_cell_formula_units_Z   10
loop_
 _symmetry_equiv_pos_site_id
 _symmetry_equiv_pos_as_xyz
  1  'x, y, z'
loop_
 _atom_site_type_symbol
 _atom_site_label
 _atom_site_symmetry_multiplicity
 _atom_site_fract_x
 _atom_site_fract_y
 _atom_site_fract_z
 _atom_site_occupancy
  Rb  Rb0  1  0.29783181  0.41603555  0.71386736  1.0
  Rb  Rb1  1  1.20216819  0.91603555  1.11820374  1.0
  Rb  Rb2  1  0.91603555  0.79783181  1.71386736  1.0
  Rb  Rb3  1  0.58396445  1.29783181  0.88179626  1.0
  Rb  Rb4  1  0.79783181  1.08396445  0.88179626  1.0
  Rb  Rb5  1  0.70216819  0.58396445  1.28613264  1.0
  Rb  Rb6  1  1.41603555  0.70216819  1.11820374  1.0
  Rb  Rb7  1  0.08396445  0.20216819  0.28613264  1.0
  Rb  Rb8  1  0.75000000  1.25000000  0.50000000  1.0
  Rb  Rb9  1  0.25000000  0.75000000  0.50000000  1.0
