# generated using pymatgen
data_VO2
_symmetry_space_group_name_H-M   'P 1'
_cell_length_a   9.83949679
_cell_length_b   9.83949679
_cell_length_c   5.19608151
_cell_angle_alpha   90.00000000
_cell_angle_beta   90.00000000
_cell_angle_gamma   90.00000000
_symmetry_Int_Tables_number   1
_chemical_formula_structural   VO2
_chemical_formula_sum   'V16 O32'
_cell_volume   503.06225289
_cell_formula_units_Z   16
loop_
 _symmetry_equiv_pos_site_id
 _symmetry_equiv_pos_as_xyz
  1  'x, y, z'
loop_
 _atom_site_type_symbol
 _atom_site_label
 _atom_site_symmetry_multiplicity
 _atom_site_fract_x
 _atom_site_fract_y
 _atom_site_fract_z
 _atom_site_occupancy
  V  V0  1  0.25372939  0.94747473  1.13650735  1.0
  V  V1  1  0.25372939  0.05252527  0.63650735  1.0
  V  V2  1  0.75372939  0.44747473  -0.13650735  1.0
  V  V3  1  0.75372939  0.55252527  0.36349265  1.0
  V  V4  1  0.94747473  0.25372939  0.36349265  1.0
  V  V5  1  0.94747473  0.74627061  -0.13650735  1.0
  V  V6  1  0.44747473  0.75372939  0.63650735  1.0
  V  V7  1  0.44747473  0.24627061  1.13650735  1.0
  V  V8  1  0.74627061  0.94747473  0.63650735  1.0
  V  V9  1  0.74627061  0.05252527  1.13650735  1.0
  V  V10  1  0.24627061  0.44747473  0.36349265  1.0
  V  V11  1  0.24627061  0.55252527  -0.13650735  1.0
  V  V12  1  0.05252527  0.25372939  -0.13650735  1.0
  V  V13  1  0.05252527  0.74627061  0.36349265  1.0
  V  V14  1  0.55252527  0.75372939  1.13650735  1.0
  V  V15  1  0.55252527  0.24627061  0.63650735  1.0
  O  O16  1  0.33438777  0.41293333  1.05191182  1.0
  O  O17  1  0.33438777  0.58706667  0.55191182  1.0
  O  O18  1  0.83438777  0.91293333  -0.05191182  1.0
  O  O19  1  0.83438777  0.08706667  0.44808818  1.0
  O  O20  1  0.41293333  0.33438777  0.44808818  1.0
  O  O21  1  0.41293333  0.66561223  -0.05191182  1.0
  O  O22  1  0.91293333  0.83438777  0.55191182  1.0
  O  O23  1  0.91293333  0.16561223  1.05191182  1.0
  O  O24  1  0.66561223  0.41293333  0.55191182  1.0
  O  O25  1  0.66561223  0.58706667  1.05191182  1.0
  O  O26  1  0.16561223  0.91293333  0.44808818  1.0
  O  O27  1  0.16561223  0.08706667  -0.05191182  1.0
  O  O28  1  0.58706667  0.33438777  -0.05191182  1.0
  O  O29  1  0.58706667  0.66561223  0.44808818  1.0
  O  O30  1  0.08706667  0.83438777  1.05191182  1.0
  O  O31  1  0.08706667  0.16561223  0.55191182  1.0
  O  O32  1  0.33426100  0.90388764  0.81091655  1.0
  O  O33  1  0.33426100  0.09611236  0.31091655  1.0
  O  O34  1  0.83426100  0.40388764  0.18908345  1.0
  O  O35  1  0.83426100  0.59611236  0.68908345  1.0
  O  O36  1  0.90388764  0.33426100  0.68908345  1.0
  O  O37  1  0.90388764  0.66573900  0.18908345  1.0
  O  O38  1  0.40388764  0.83426100  0.31091655  1.0
  O  O39  1  0.40388764  0.16573900  0.81091655  1.0
  O  O40  1  0.66573900  0.90388764  0.31091655  1.0
  O  O41  1  0.66573900  0.09611236  0.81091655  1.0
  O  O42  1  0.16573900  0.40388764  0.68908345  1.0
  O  O43  1  0.16573900  0.59611236  0.18908345  1.0
  O  O44  1  0.09611236  0.33426100  0.18908345  1.0
  O  O45  1  0.09611236  0.66573900  0.68908345  1.0
  O  O46  1  0.59611236  0.83426100  0.81091655  1.0
  O  O47  1  0.59611236  0.16573900  0.31091655  1.0
