# generated using pymatgen
data_Ba3Ta6Si4O23
_symmetry_space_group_name_H-M   'P 1'
_cell_length_a   9.14750025
_cell_length_b   9.14750025
_cell_length_c   7.64004485
_cell_angle_alpha   90.00000000
_cell_angle_beta   90.00000000
_cell_angle_gamma   120.00000000
_symmetry_Int_Tables_number   1
_chemical_formula_structural   Ba3Ta6Si4O23
_chemical_formula_sum   'Ba3 Ta6 Si4 O23'
_cell_volume   553.64502258
_cell_formula_units_Z   1
loop_
 _symmetry_equiv_pos_site_id
 _symmetry_equiv_pos_as_xyz
  1  'x, y, z'
loop_
 _atom_site_type_symbol
 _atom_site_label
 _atom_site_symmetry_multiplicity
 _atom_site_fract_x
 _atom_site_fract_y
 _atom_site_fract_z
 _atom_site_occupancy
  Ba  Ba0  1  0.41054982  0.41054982  0.50000000  1.0
  Ba  Ba1  1  0.00000000  0.58945018  0.50000000  1.0
  Ba  Ba2  1  0.58945018  0.00000000  0.50000000  1.0
  Ta  Ta3  1  0.76290152  0.76290152  0.74838137  1.0
  Ta  Ta4  1  0.76290152  0.76290152  0.25161863  1.0
  Ta  Ta5  1  0.00000000  0.23709848  0.74838137  1.0
  Ta  Ta6  1  0.00000000  0.23709848  0.25161863  1.0
  Ta  Ta7  1  0.23709848  0.00000000  0.74838137  1.0
  Ta  Ta8  1  0.23709848  0.00000000  0.25161863  1.0
  Si  Si9  1  0.33333333  0.66666667  0.78950862  1.0
  Si  Si10  1  0.33333333  0.66666667  0.21049138  1.0
  Si  Si11  1  0.66666667  0.33333333  0.78950862  1.0
  Si  Si12  1  0.66666667  0.33333333  0.21049138  1.0
  O  O13  1  0.29913844  0.81417522  0.71229427  1.0
  O  O14  1  0.29913844  0.81417522  0.28770573  1.0
  O  O15  1  0.81417522  0.29913844  0.71229427  1.0
  O  O16  1  0.81417522  0.29913844  0.28770573  1.0
  O  O17  1  0.51503677  0.70086156  0.71229427  1.0
  O  O18  1  0.51503677  0.70086156  0.28770573  1.0
  O  O19  1  0.18582478  0.48496323  0.71229427  1.0
  O  O20  1  0.18582478  0.48496323  0.28770573  1.0
  O  O21  1  0.70086156  0.51503677  0.71229427  1.0
  O  O22  1  0.70086156  0.51503677  0.28770573  1.0
  O  O23  1  0.48496323  0.18582478  0.71229427  1.0
  O  O24  1  0.48496323  0.18582478  0.28770573  1.0
  O  O25  1  0.17288728  0.17288728  0.72983577  1.0
  O  O26  1  0.17288728  0.17288728  0.27016423  1.0
  O  O27  1  0.00000000  0.82711272  0.72983577  1.0
  O  O28  1  0.00000000  0.82711272  0.27016423  1.0
  O  O29  1  0.82711272  0.00000000  0.72983577  1.0
  O  O30  1  0.82711272  0.00000000  0.27016423  1.0
  O  O31  1  0.72625014  0.72625014  0.00000000  1.0
  O  O32  1  -0.00000000  0.27374986  0.00000000  1.0
  O  O33  1  0.27374986  0.00000000  0.00000000  1.0
  O  O34  1  0.33333333  0.66666667  0.00000000  1.0
  O  O35  1  0.66666667  0.33333333  0.00000000  1.0
