# generated using pymatgen
data_Fe(PdSe)2
_symmetry_space_group_name_H-M   'P 1'
_cell_length_a   6.62227805
_cell_length_b   6.62227805
_cell_length_c   6.62227805
_cell_angle_alpha   126.74938003
_cell_angle_beta   72.37182944
_cell_angle_gamma   134.79098675
_symmetry_Int_Tables_number   1
_chemical_formula_structural   Fe(PdSe)2
_chemical_formula_sum   'Fe2 Pd4 Se4'
_cell_volume   161.50537502
_cell_formula_units_Z   2
loop_
 _symmetry_equiv_pos_site_id
 _symmetry_equiv_pos_as_xyz
  1  'x, y, z'
loop_
 _atom_site_type_symbol
 _atom_site_label
 _atom_site_symmetry_multiplicity
 _atom_site_fract_x
 _atom_site_fract_y
 _atom_site_fract_z
 _atom_site_occupancy
  Fe  Fe0  1  0.25000000  0.25000000  -0.00000000  1.0
  Fe  Fe1  1  0.75000000  0.75000000  0.00000000  1.0
  Pd  Pd2  1  0.11121099  0.38005646  0.49126745  1.0
  Pd  Pd3  1  0.38878901  0.88005646  1.26884547  1.0
  Pd  Pd4  1  0.61121099  1.11994354  0.73115453  1.0
  Pd  Pd5  1  0.88878901  0.61994354  0.50873255  1.0
  Se  Se6  1  0.35605609  0.29794986  0.65400594  1.0
  Se  Se7  1  0.14394391  0.79794986  0.94189377  1.0
  Se  Se8  1  0.85605609  1.20205014  1.05810623  1.0
  Se  Se9  1  0.64394391  0.70205014  0.34599406  1.0
