# generated using pymatgen
data_LuNbO14
_symmetry_space_group_name_H-M   'P 1'
_cell_length_a   7.54289849
_cell_length_b   7.54289849
_cell_length_c   7.54289849
_cell_angle_alpha   60.00000000
_cell_angle_beta   60.00000000
_cell_angle_gamma   60.00000000
_symmetry_Int_Tables_number   1
_chemical_formula_structural   LuNbO14
_chemical_formula_sum   'Lu2 Nb2 O28'
_cell_volume   303.45883923
_cell_formula_units_Z   2
loop_
 _symmetry_equiv_pos_site_id
 _symmetry_equiv_pos_as_xyz
  1  'x, y, z'
loop_
 _atom_site_type_symbol
 _atom_site_label
 _atom_site_symmetry_multiplicity
 _atom_site_fract_x
 _atom_site_fract_y
 _atom_site_fract_z
 _atom_site_occupancy
  Lu  Lu0  1  0.50000000  0.50000000  -0.50000000  1.0
  Lu  Lu1  1  0.75000000  -0.25000000  0.75000000  1.0
  Nb  Nb2  1  0.00000000  1.00000000  -0.00000000  1.0
  Nb  Nb3  1  0.25000000  0.25000000  0.25000000  1.0
  O  O4  1  0.99153343  -0.68562909  0.70256223  1.0
  O  O5  1  -0.00846657  0.70256223  0.31437091  1.0
  O  O6  1  -0.06437091  0.25846657  0.25846657  1.0
  O  O7  1  0.54743777  0.25846657  0.25846657  1.0
  O  O8  1  -0.68562909  0.99153343  0.70256223  1.0
  O  O9  1  0.99153343  -0.00846657  0.70256223  1.0
  O  O10  1  0.99153343  -0.29743777  0.99153343  1.0
  O  O11  1  -0.68562909  0.70256223  0.99153343  1.0
  O  O12  1  0.25846657  -0.06437091  0.25846657  1.0
  O  O13  1  0.25846657  0.25846657  -0.06437091  1.0
  O  O14  1  0.54743777  0.25846657  -0.06437091  1.0
  O  O15  1  0.54743777  -0.06437091  0.25846657  1.0
  O  O16  1  0.70256223  -0.00846657  0.99153343  1.0
  O  O17  1  -0.68562909  0.99153343  0.99153343  1.0
  O  O18  1  0.25846657  0.54743777  -0.06437091  1.0
  O  O19  1  0.25846657  -0.06437091  0.54743777  1.0
  O  O20  1  -0.29743777  0.99153343  0.31437091  1.0
  O  O21  1  0.70256223  -0.68562909  0.99153343  1.0
  O  O22  1  0.99153343  -0.68562909  0.99153343  1.0
  O  O23  1  -0.00846657  0.99153343  0.31437091  1.0
  O  O24  1  0.25846657  0.54743777  0.25846657  1.0
  O  O25  1  -0.06437091  0.54743777  0.25846657  1.0
  O  O26  1  -0.06437091  0.25846657  0.54743777  1.0
  O  O27  1  0.25846657  0.25846657  0.54743777  1.0
  O  O28  1  0.62500000  -0.37500000  1.12500000  1.0
  O  O29  1  0.62500000  0.12500000  0.62500000  1.0
  O  O30  1  0.62500000  -0.37500000  0.62500000  1.0
  O  O31  1  1.12500000  -0.37500000  0.62500000  1.0
