# generated using pymatgen
data_P3Pb5ClO12
_symmetry_space_group_name_H-M   'P 1'
_cell_length_a   10.21381858
_cell_length_b   10.21381858
_cell_length_c   7.38167250
_cell_angle_alpha   90.00000000
_cell_angle_beta   90.00000000
_cell_angle_gamma   120.00000000
_symmetry_Int_Tables_number   1
_chemical_formula_structural   P3Pb5ClO12
_chemical_formula_sum   'P6 Pb10 Cl2 O24'
_cell_volume   666.90148435
_cell_formula_units_Z   2
loop_
 _symmetry_equiv_pos_site_id
 _symmetry_equiv_pos_as_xyz
  1  'x, y, z'
loop_
 _atom_site_type_symbol
 _atom_site_label
 _atom_site_symmetry_multiplicity
 _atom_site_fract_x
 _atom_site_fract_y
 _atom_site_fract_z
 _atom_site_occupancy
  P  P0  1  0.37823065  0.96717910  0.25000000  1.0
  P  P1  1  0.96717910  0.58894845  0.75000000  1.0
  P  P2  1  0.58894845  0.62176935  0.25000000  1.0
  P  P3  1  0.03282090  0.41105155  0.25000000  1.0
  P  P4  1  0.62176935  0.03282090  0.75000000  1.0
  P  P5  1  0.41105155  0.37823065  0.75000000  1.0
  Pb  Pb6  1  0.33333333  0.66666667  0.50513544  1.0
  Pb  Pb7  1  0.33333333  0.66666667  -0.00513544  1.0
  Pb  Pb8  1  0.66666667  0.33333333  0.00513544  1.0
  Pb  Pb9  1  0.66666667  0.33333333  0.49486456  1.0
  Pb  Pb10  1  0.01705648  0.75717307  0.25000000  1.0
  Pb  Pb11  1  0.75717307  0.74011659  0.75000000  1.0
  Pb  Pb12  1  0.74011659  0.98294352  0.25000000  1.0
  Pb  Pb13  1  0.24282693  0.25988341  0.25000000  1.0
  Pb  Pb14  1  0.98294352  0.24282693  0.75000000  1.0
  Pb  Pb15  1  0.25988341  0.01705648  0.75000000  1.0
  Cl  Cl16  1  -0.00000000  -0.00000000  0.50000000  1.0
  Cl  Cl17  1  0.00000000  0.00000000  0.00000000  1.0
  O  O18  1  0.27278287  0.91181827  0.42051614  1.0
  O  O19  1  0.27278287  0.91181827  0.07948386  1.0
  O  O20  1  0.91181827  0.63903539  0.92051614  1.0
  O  O21  1  0.91181827  0.63903539  0.57948386  1.0
  O  O22  1  0.63903539  0.72721713  0.42051614  1.0
  O  O23  1  0.63903539  0.72721713  0.07948386  1.0
  O  O24  1  0.08818173  0.36096461  0.42051614  1.0
  O  O25  1  0.08818173  0.36096461  0.07948386  1.0
  O  O26  1  0.72721713  0.08818173  0.92051614  1.0
  O  O27  1  0.72721713  0.08818173  0.57948386  1.0
  O  O28  1  0.36096461  0.27278287  0.92051614  1.0
  O  O29  1  0.36096461  0.27278287  0.57948386  1.0
  O  O30  1  0.65301416  0.51240708  0.25000000  1.0
  O  O31  1  0.51240708  0.85939292  0.75000000  1.0
  O  O32  1  0.85939292  0.34698584  0.25000000  1.0
  O  O33  1  0.48759292  0.14060708  0.25000000  1.0
  O  O34  1  0.34698584  0.48759292  0.75000000  1.0
  O  O35  1  0.14060708  0.65301416  0.75000000  1.0
  O  O36  1  0.47004261  0.87971799  0.25000000  1.0
  O  O37  1  0.87971799  0.40967537  0.75000000  1.0
  O  O38  1  0.40967537  0.52995739  0.25000000  1.0
  O  O39  1  0.12028201  0.59032463  0.25000000  1.0
  O  O40  1  0.52995739  0.12028201  0.75000000  1.0
  O  O41  1  0.59032463  0.47004261  0.75000000  1.0
