# generated using pymatgen
data_CsSb4F13
_symmetry_space_group_name_H-M   'P 1'
_cell_length_a   7.97469422
_cell_length_b   7.97469422
_cell_length_c   7.97469422
_cell_angle_alpha   101.17441786
_cell_angle_beta   101.17441786
_cell_angle_gamma   127.76377176
_symmetry_Int_Tables_number   1
_chemical_formula_structural   CsSb4F13
_chemical_formula_sum   'Cs1 Sb4 F13'
_cell_volume   359.98936170
_cell_formula_units_Z   1
loop_
 _symmetry_equiv_pos_site_id
 _symmetry_equiv_pos_as_xyz
  1  'x, y, z'
loop_
 _atom_site_type_symbol
 _atom_site_label
 _atom_site_symmetry_multiplicity
 _atom_site_fract_x
 _atom_site_fract_y
 _atom_site_fract_z
 _atom_site_occupancy
  Cs  Cs0  1  0.50000000  0.50000000  -0.00000000  1.0
  Sb  Sb1  1  0.72950647  1.00435053  1.73385700  1.0
  Sb  Sb2  1  1.00435053  1.27049353  1.27484406  1.0
  Sb  Sb3  1  0.27049353  -0.00435053  0.26614300  1.0
  Sb  Sb4  1  0.99564947  0.72950647  0.72515594  1.0
  F  F5  1  1.09049526  1.00289801  0.67874037  1.0
  F  F6  1  0.67584236  0.58824512  0.67874037  1.0
  F  F7  1  1.00289801  0.32415764  0.91240276  1.0
  F  F8  1  1.58824512  0.90950474  0.91240276  1.0
  F  F9  1  1.32415764  1.41175488  1.32125963  1.0
  F  F10  1  0.90950474  0.99710199  1.32125963  1.0
  F  F11  1  0.41175488  1.09049526  1.08759724  1.0
  F  F12  1  0.99710199  1.67584236  1.08759724  1.0
  F  F13  1  0.88127264  0.57046262  0.45173526  1.0
  F  F14  1  0.57046262  0.11872736  0.68918998  1.0
  F  F15  1  1.11872736  1.42953738  1.54826474  1.0
  F  F16  1  0.42953738  0.88127264  1.31081002  1.0
  F  F17  1  -0.00000000  -0.00000000  0.00000000  1.0
