# generated using pymatgen
data_LaPdO3
_symmetry_space_group_name_H-M   'P 1'
_cell_length_a   6.03160845
_cell_length_b   7.82730505
_cell_length_c   5.65609103
_cell_angle_alpha   90.00000000
_cell_angle_beta   90.00000000
_cell_angle_gamma   90.00000000
_symmetry_Int_Tables_number   1
_chemical_formula_structural   LaPdO3
_chemical_formula_sum   'La4 Pd4 O12'
_cell_volume   267.03106710
_cell_formula_units_Z   4
loop_
 _symmetry_equiv_pos_site_id
 _symmetry_equiv_pos_as_xyz
  1  'x, y, z'
loop_
 _atom_site_type_symbol
 _atom_site_label
 _atom_site_symmetry_multiplicity
 _atom_site_fract_x
 _atom_site_fract_y
 _atom_site_fract_z
 _atom_site_occupancy
  La  La0  1  0.06964743  0.75000000  0.51997054  1.0
  La  La1  1  0.56964743  0.75000000  0.98002946  1.0
  La  La2  1  0.93035257  0.25000000  0.48002946  1.0
  La  La3  1  0.43035257  0.25000000  0.01997054  1.0
  Pd  Pd4  1  0.50000000  0.00000000  0.50000000  1.0
  Pd  Pd5  1  0.50000000  0.50000000  0.50000000  1.0
  Pd  Pd6  1  0.00000000  0.00000000  0.00000000  1.0
  Pd  Pd7  1  0.00000000  0.50000000  0.00000000  1.0
  O  O8  1  0.29986251  0.94940016  0.80420716  1.0
  O  O9  1  0.29986251  0.55059984  0.80420716  1.0
  O  O10  1  0.79986251  0.94940016  0.69579284  1.0
  O  O11  1  0.79986251  0.55059984  0.69579284  1.0
  O  O12  1  0.70013749  0.44940016  0.19579284  1.0
  O  O13  1  0.70013749  0.05059984  0.19579284  1.0
  O  O14  1  0.20013749  0.44940016  0.30420716  1.0
  O  O15  1  0.20013749  0.05059984  0.30420716  1.0
  O  O16  1  0.96149103  0.75000000  0.10846205  1.0
  O  O17  1  0.46149103  0.75000000  0.39153795  1.0
  O  O18  1  0.03850897  0.25000000  0.89153795  1.0
  O  O19  1  0.53850897  0.25000000  0.60846205  1.0
