# generated using pymatgen
data_K3GaSe3
_symmetry_space_group_name_H-M   'P 1'
_cell_length_a   8.19099818
_cell_length_b   13.41075176
_cell_length_c   10.54518211
_cell_angle_alpha   90.00000000
_cell_angle_beta   127.65280005
_cell_angle_gamma   90.00000000
_symmetry_Int_Tables_number   1
_chemical_formula_structural   K3GaSe3
_chemical_formula_sum   'K12 Ga4 Se12'
_cell_volume   917.10595462
_cell_formula_units_Z   4
loop_
 _symmetry_equiv_pos_site_id
 _symmetry_equiv_pos_as_xyz
  1  'x, y, z'
loop_
 _atom_site_type_symbol
 _atom_site_label
 _atom_site_symmetry_multiplicity
 _atom_site_fract_x
 _atom_site_fract_y
 _atom_site_fract_z
 _atom_site_occupancy
  K  K0  1  0.84506956  0.68959862  0.07157458  1.0
  K  K1  1  0.84506956  0.81040138  0.57157458  1.0
  K  K2  1  0.15493044  0.18959862  0.42842542  1.0
  K  K3  1  0.15493044  0.31040138  0.92842542  1.0
  K  K4  1  0.68165076  0.10512395  0.40101770  1.0
  K  K5  1  0.68165076  0.39487605  0.90101770  1.0
  K  K6  1  0.31834924  0.60512395  0.09898230  1.0
  K  K7  1  0.31834924  0.89487605  0.59898230  1.0
  K  K8  1  0.63486611  0.38556366  0.47229641  1.0
  K  K9  1  0.63486611  0.11443634  0.97229641  1.0
  K  K10  1  0.36513389  0.88556366  0.02770359  1.0
  K  K11  1  0.36513389  0.61443634  0.52770359  1.0
  Ga  Ga12  1  0.94450705  0.43429886  0.33878114  1.0
  Ga  Ga13  1  0.94450705  0.06570114  0.83878114  1.0
  Ga  Ga14  1  0.05549295  0.93429886  0.16121886  1.0
  Ga  Ga15  1  0.05549295  0.56570114  0.66121886  1.0
  Se  Se16  1  0.86421952  0.94960373  0.26466710  1.0
  Se  Se17  1  0.86421952  0.55039627  0.76466710  1.0
  Se  Se18  1  0.13578048  0.44960373  0.23533290  1.0
  Se  Se19  1  0.13578048  0.05039627  0.73533290  1.0
  Se  Se20  1  0.82391379  0.90153050  0.86361193  1.0
  Se  Se21  1  0.82391379  0.59846950  0.36361193  1.0
  Se  Se22  1  0.17608621  0.40153050  0.63638807  1.0
  Se  Se23  1  0.17608621  0.09846950  0.13638807  1.0
  Se  Se24  1  0.67765046  0.30806188  0.19875162  1.0
  Se  Se25  1  0.67765046  0.19193812  0.69875162  1.0
  Se  Se26  1  0.32234954  0.80806188  0.30124838  1.0
  Se  Se27  1  0.32234954  0.69193812  0.80124838  1.0
