# generated using pymatgen
data_MnO2
_symmetry_space_group_name_H-M   'P 1'
_cell_length_a   7.08882802
_cell_length_b   7.08882802
_cell_length_c   7.08882802
_cell_angle_alpha   92.35161092
_cell_angle_beta   92.35161092
_cell_angle_gamma   156.62622919
_symmetry_Int_Tables_number   1
_chemical_formula_structural   MnO2
_chemical_formula_sum   'Mn4 O8'
_cell_volume   138.39422106
_cell_formula_units_Z   4
loop_
 _symmetry_equiv_pos_site_id
 _symmetry_equiv_pos_as_xyz
  1  'x, y, z'
loop_
 _atom_site_type_symbol
 _atom_site_label
 _atom_site_symmetry_multiplicity
 _atom_site_fract_x
 _atom_site_fract_y
 _atom_site_fract_z
 _atom_site_occupancy
  Mn  Mn0  1  0.65177195  0.83247413  1.48424608  1.0
  Mn  Mn1  1  0.83247413  1.34822805  1.18070218  1.0
  Mn  Mn2  1  0.34822805  0.16752587  0.51575392  1.0
  Mn  Mn3  1  1.16752587  0.65177195  0.81929782  1.0
  O  O4  1  0.84417088  0.79605859  0.64022947  1.0
  O  O5  1  0.79605859  0.15582912  0.95188771  1.0
  O  O6  1  1.15582912  1.20394141  1.35977053  1.0
  O  O7  1  0.20394141  0.84417088  1.04811229  1.0
  O  O8  1  0.83512341  0.54231243  0.37743585  1.0
  O  O9  1  0.54231243  0.16487659  0.70718902  1.0
  O  O10  1  1.16487659  1.45768757  1.62256415  1.0
  O  O11  1  0.45768757  0.83512341  1.29281098  1.0
