# generated using pymatgen
data_Ba3(ZnAs2)2
_symmetry_space_group_name_H-M   'P 1'
_cell_length_a   8.80817469
_cell_length_b   8.80817469
_cell_length_c   7.30508518
_cell_angle_alpha   67.71680305
_cell_angle_beta   112.28319695
_cell_angle_gamma   150.29361736
_symmetry_Int_Tables_number   1
_chemical_formula_structural   Ba3(ZnAs2)2
_chemical_formula_sum   'Ba3 Zn2 As4'
_cell_volume   258.34604085
_cell_formula_units_Z   1
loop_
 _symmetry_equiv_pos_site_id
 _symmetry_equiv_pos_as_xyz
  1  'x, y, z'
loop_
 _atom_site_type_symbol
 _atom_site_label
 _atom_site_symmetry_multiplicity
 _atom_site_fract_x
 _atom_site_fract_y
 _atom_site_fract_z
 _atom_site_occupancy
  Ba  Ba0  1  0.85586162  -0.85586162  0.41334190  1.0
  Ba  Ba1  1  1.14413838  -0.14413838  0.58665810  1.0
  Ba  Ba2  1  0.00000000  0.00000000  0.00000000  1.0
  Zn  Zn3  1  0.67061986  -0.67061986  0.96176007  1.0
  Zn  Zn4  1  1.32938014  -0.32938014  0.03823993  1.0
  As  As5  1  0.79419845  -0.79419845  0.83561475  1.0
  As  As6  1  1.20580155  -0.20580155  0.16438525  1.0
  As  As7  1  0.51072986  -0.51072986  0.68025638  1.0
  As  As8  1  1.48927014  -0.48927014  0.31974362  1.0
