# generated using pymatgen
data_V2Pb3O8
_symmetry_space_group_name_H-M   'P 1'
_cell_length_a   7.48710950
_cell_length_b   6.55521032
_cell_length_c   9.47409220
_cell_angle_alpha   90.00000000
_cell_angle_beta   114.18530039
_cell_angle_gamma   90.00000000
_symmetry_Int_Tables_number   1
_chemical_formula_structural   V2Pb3O8
_chemical_formula_sum   'V4 Pb6 O16'
_cell_volume   424.17055088
_cell_formula_units_Z   2
loop_
 _symmetry_equiv_pos_site_id
 _symmetry_equiv_pos_as_xyz
  1  'x, y, z'
loop_
 _atom_site_type_symbol
 _atom_site_label
 _atom_site_symmetry_multiplicity
 _atom_site_fract_x
 _atom_site_fract_y
 _atom_site_fract_z
 _atom_site_occupancy
  V  V0  1  0.79920218  0.97949552  0.10030600  1.0
  V  V1  1  0.79920218  0.52050448  0.60030600  1.0
  V  V2  1  0.20079782  0.47949552  0.39969400  1.0
  V  V3  1  0.20079782  0.02050448  0.89969400  1.0
  Pb  Pb4  1  0.61679542  0.38831251  0.21286184  1.0
  Pb  Pb5  1  0.61679542  0.11168749  0.71286184  1.0
  Pb  Pb6  1  0.38320458  0.88831251  0.28713816  1.0
  Pb  Pb7  1  0.38320458  0.61168749  0.78713816  1.0
  Pb  Pb8  1  0.00000000  0.50000000  0.00000000  1.0
  Pb  Pb9  1  -0.00000000  0.00000000  0.50000000  1.0
  O  O10  1  0.96261363  0.45731781  0.27180271  1.0
  O  O11  1  0.96261363  0.04268219  0.77180271  1.0
  O  O12  1  0.03738637  0.95731781  0.22819729  1.0
  O  O13  1  0.03738637  0.54268219  0.72819729  1.0
  O  O14  1  0.76015990  0.30617274  0.48085698  1.0
  O  O15  1  0.76015990  0.19382726  0.98085698  1.0
  O  O16  1  0.23984010  0.80617274  0.01914302  1.0
  O  O17  1  0.23984010  0.69382726  0.51914302  1.0
  O  O18  1  0.72712837  0.73421646  0.48805248  1.0
  O  O19  1  0.72712837  0.76578354  0.98805248  1.0
  O  O20  1  0.27287163  0.23421646  0.01194752  1.0
  O  O21  1  0.27287163  0.26578354  0.51194752  1.0
  O  O22  1  0.67042989  0.02389173  0.21596378  1.0
  O  O23  1  0.67042989  0.47610827  0.71596378  1.0
  O  O24  1  0.32957011  0.52389173  0.28403622  1.0
  O  O25  1  0.32957011  0.97610827  0.78403622  1.0
