# generated using pymatgen
data_InSb
_symmetry_space_group_name_H-M   'P 1'
_cell_length_a   4.36992453
_cell_length_b   4.36992453
_cell_length_c   18.40462364
_cell_angle_alpha   90.00000000
_cell_angle_beta   90.00000000
_cell_angle_gamma   91.58911642
_symmetry_Int_Tables_number   1
_chemical_formula_structural   InSb
_chemical_formula_sum   'In6 Sb6'
_cell_volume   351.32394590
_cell_formula_units_Z   6
loop_
 _symmetry_equiv_pos_site_id
 _symmetry_equiv_pos_as_xyz
  1  'x, y, z'
loop_
 _atom_site_type_symbol
 _atom_site_label
 _atom_site_symmetry_multiplicity
 _atom_site_fract_x
 _atom_site_fract_y
 _atom_site_fract_z
 _atom_site_occupancy
  In  In0  1  0.43186119  0.56813881  0.40878687  1.0
  In  In1  1  0.43186119  0.56813881  0.09121313  1.0
  In  In2  1  -0.43186119  1.43186119  0.90878687  1.0
  In  In3  1  -0.43186119  1.43186119  0.59121313  1.0
  In  In4  1  0.07033413  0.92966587  0.25000000  1.0
  In  In5  1  -0.07033413  1.07033413  0.75000000  1.0
  Sb  Sb6  1  0.06731843  0.93268157  0.92449801  1.0
  Sb  Sb7  1  0.06731843  0.93268157  0.57550199  1.0
  Sb  Sb8  1  -0.06731843  1.06731843  0.42449801  1.0
  Sb  Sb9  1  -0.06731843  1.06731843  0.07550199  1.0
  Sb  Sb10  1  -0.43099121  1.43099121  0.25000000  1.0
  Sb  Sb11  1  0.43099121  0.56900879  0.75000000  1.0
