# generated using pymatgen
data_Sr2CaTl2(CuO4)2
_symmetry_space_group_name_H-M   'P 1'
_cell_length_a   14.82821584
_cell_length_b   14.82821584
_cell_length_c   14.82821584
_cell_angle_alpha   165.16211127
_cell_angle_beta   165.16211127
_cell_angle_gamma   21.04343098
_symmetry_Int_Tables_number   1
_chemical_formula_structural   Sr2CaTl2(CuO4)2
_chemical_formula_sum   'Sr2 Ca1 Tl2 Cu2 O8'
_cell_volume   213.78276871
_cell_formula_units_Z   1
loop_
 _symmetry_equiv_pos_site_id
 _symmetry_equiv_pos_as_xyz
  1  'x, y, z'
loop_
 _atom_site_type_symbol
 _atom_site_label
 _atom_site_symmetry_multiplicity
 _atom_site_fract_x
 _atom_site_fract_y
 _atom_site_fract_z
 _atom_site_occupancy
  Sr  Sr0  1  0.88400582  0.88400582  1.00000000  1.0
  Sr  Sr1  1  0.11599418  0.11599418  0.00000000  1.0
  Ca  Ca2  1  0.00000000  0.00000000  0.00000000  1.0
  Tl  Tl3  1  0.71077148  0.71077148  1.00000000  1.0
  Tl  Tl4  1  0.28922852  0.28922852  0.00000000  1.0
  Cu  Cu5  1  0.55475864  0.55475864  1.00000000  1.0
  Cu  Cu6  1  0.44524136  0.44524136  0.00000000  1.0
  O  O7  1  0.44528307  0.94528307  0.50000000  1.0
  O  O8  1  0.55471693  0.05471693  0.50000000  1.0
  O  O9  1  0.94528307  0.44528307  0.50000000  1.0
  O  O10  1  0.05471693  0.55471693  0.50000000  1.0
  O  O11  1  0.78318869  0.78318869  1.00000000  1.0
  O  O12  1  0.21681131  0.21681131  0.00000000  1.0
  O  O13  1  0.64044258  0.64044258  1.00000000  1.0
  O  O14  1  0.35955742  0.35955742  0.00000000  1.0
