# generated using pymatgen
data_NaZnPO4
_symmetry_space_group_name_H-M   'P 1'
_cell_length_a   5.28706252
_cell_length_b   10.23486600
_cell_length_c   9.10671898
_cell_angle_alpha   90.00000000
_cell_angle_beta   125.22322851
_cell_angle_gamma   90.00000000
_symmetry_Int_Tables_number   1
_chemical_formula_structural   NaZnPO4
_chemical_formula_sum   'Na4 Zn4 P4 O16'
_cell_volume   402.56253974
_cell_formula_units_Z   4
loop_
 _symmetry_equiv_pos_site_id
 _symmetry_equiv_pos_as_xyz
  1  'x, y, z'
loop_
 _atom_site_type_symbol
 _atom_site_label
 _atom_site_symmetry_multiplicity
 _atom_site_fract_x
 _atom_site_fract_y
 _atom_site_fract_z
 _atom_site_occupancy
  Na  Na0  1  0.80214604  0.37937765  0.01898829  1.0
  Na  Na1  1  0.80214604  0.12062235  0.51898829  1.0
  Na  Na2  1  0.19785396  0.87937765  0.48101171  1.0
  Na  Na3  1  0.19785396  0.62062235  0.98101171  1.0
  Zn  Zn4  1  0.69509282  0.66580981  0.48787253  1.0
  Zn  Zn5  1  0.69509282  0.83419019  0.98787253  1.0
  Zn  Zn6  1  0.30490718  0.16580981  0.01212747  1.0
  Zn  Zn7  1  0.30490718  0.33419019  0.51212747  1.0
  P  P8  1  0.57771596  0.39940446  0.28236828  1.0
  P  P9  1  0.57771596  0.10059554  0.78236828  1.0
  P  P10  1  0.42228404  0.89940446  0.21763172  1.0
  P  P11  1  0.42228404  0.60059554  0.71763172  1.0
  O  O12  1  0.88676987  0.37340752  0.30218790  1.0
  O  O13  1  0.88676987  0.12659248  0.80218790  1.0
  O  O14  1  0.11323013  0.87340752  0.19781210  1.0
  O  O15  1  0.11323013  0.62659248  0.69781210  1.0
  O  O16  1  0.69347005  0.84952645  0.40946751  1.0
  O  O17  1  0.69347005  0.65047355  0.90946751  1.0
  O  O18  1  0.30652995  0.34952645  0.09053249  1.0
  O  O19  1  0.30652995  0.15047355  0.59053249  1.0
  O  O20  1  0.58541395  0.32716354  0.43470359  1.0
  O  O21  1  0.58541395  0.17283646  0.93470359  1.0
  O  O22  1  0.41458605  0.82716354  0.06529641  1.0
  O  O23  1  0.41458605  0.67283646  0.56529641  1.0
  O  O24  1  0.48325842  0.04845581  0.21904116  1.0
  O  O25  1  0.48325842  0.45154419  0.71904116  1.0
  O  O26  1  0.51674158  0.54845581  0.28095884  1.0
  O  O27  1  0.51674158  0.95154419  0.78095884  1.0
