# generated using pymatgen
data_AgPtF6
_symmetry_space_group_name_H-M   'P 1'
_cell_length_a   5.31667074
_cell_length_b   10.36598987
_cell_length_c   5.31474781
_cell_angle_alpha   75.30484044
_cell_angle_beta   60.11779911
_cell_angle_gamma   75.23065947
_symmetry_Int_Tables_number   1
_chemical_formula_structural   AgPtF6
_chemical_formula_sum   'Ag2 Pt2 F12'
_cell_volume   242.75754820
_cell_formula_units_Z   2
loop_
 _symmetry_equiv_pos_site_id
 _symmetry_equiv_pos_as_xyz
  1  'x, y, z'
loop_
 _atom_site_type_symbol
 _atom_site_label
 _atom_site_symmetry_multiplicity
 _atom_site_fract_x
 _atom_site_fract_y
 _atom_site_fract_z
 _atom_site_occupancy
  Ag  Ag0  1  -0.50000000  -0.50000000  -0.50000000  1.0
  Ag  Ag1  1  0.00000000  0.00000000  0.00000000  1.0
  Pt  Pt2  1  -0.75858428  -0.75000539  -0.73822958  1.0
  Pt  Pt3  1  -0.24141572  -0.24999461  -0.26177042  1.0
  F  F4  1  -0.97803795  -0.13619870  -0.59542837  1.0
  F  F5  1  -0.02196205  -0.86380130  -0.40457163  1.0
  F  F6  1  -0.79981239  -0.63589680  -0.47620946  1.0
  F  F7  1  -0.20018761  -0.36410320  -0.52379054  1.0
  F  F8  1  -0.71501771  -0.86443416  -1.00120345  1.0
  F  F9  1  -0.28498229  -0.13556584  0.00120345  1.0
  F  F10  1  -0.50156957  -0.36410601  -0.92971793  1.0
  F  F11  1  -0.49843043  -0.63589399  -0.07028207  1.0
  F  F12  1  -0.42565597  -0.86404576  -0.69694312  1.0
  F  F13  1  -0.57434403  -0.13595424  -0.30305688  1.0
  F  F14  1  -0.09212125  -0.63594681  -0.78302224  1.0
  F  F15  1  -0.90787875  -0.36405319  -0.21697776  1.0
