# generated using pymatgen
data_K2AsAuS4
_symmetry_space_group_name_H-M   'P 1'
_cell_length_a   6.79768539
_cell_length_b   7.02905607
_cell_length_c   9.71843275
_cell_angle_alpha   90.00000000
_cell_angle_beta   93.39389183
_cell_angle_gamma   90.00000000
_symmetry_Int_Tables_number   1
_chemical_formula_structural   K2AsAuS4
_chemical_formula_sum   'K4 As2 Au2 S8'
_cell_volume   463.54504527
_cell_formula_units_Z   2
loop_
 _symmetry_equiv_pos_site_id
 _symmetry_equiv_pos_as_xyz
  1  'x, y, z'
loop_
 _atom_site_type_symbol
 _atom_site_label
 _atom_site_symmetry_multiplicity
 _atom_site_fract_x
 _atom_site_fract_y
 _atom_site_fract_z
 _atom_site_occupancy
  K  K0  1  0.51955659  0.75000000  0.15903075  1.0
  K  K1  1  0.48044341  0.25000000  0.84096925  1.0
  K  K2  1  0.20254985  0.75000000  0.53675184  1.0
  K  K3  1  0.79745015  0.25000000  0.46324816  1.0
  As  As4  1  0.72822599  0.75000000  0.72007149  1.0
  As  As5  1  0.27177401  0.25000000  0.27992851  1.0
  Au  Au6  1  0.00000000  0.00000000  0.00000000  1.0
  Au  Au7  1  0.00000000  0.50000000  0.00000000  1.0
  S  S8  1  0.90608615  0.48680612  0.76818777  1.0
  S  S9  1  0.90608615  0.01319388  0.76818777  1.0
  S  S10  1  0.09391385  0.98680612  0.23181223  1.0
  S  S11  1  0.09391385  0.51319388  0.23181223  1.0
  S  S12  1  0.69651425  0.75000000  0.49707740  1.0
  S  S13  1  0.30348575  0.25000000  0.50292260  1.0
  S  S14  1  0.45609313  0.75000000  0.82550964  1.0
  S  S15  1  0.54390687  0.25000000  0.17449036  1.0
