# generated using pymatgen
data_Sr2FeO3
_symmetry_space_group_name_H-M   'P 1'
_cell_length_a   6.83577524
_cell_length_b   6.83577524
_cell_length_c   6.83577524
_cell_angle_alpha   149.12603159
_cell_angle_beta   146.83067857
_cell_angle_gamma   45.94444569
_symmetry_Int_Tables_number   1
_chemical_formula_structural   Sr2FeO3
_chemical_formula_sum   'Sr2 Fe1 O3'
_cell_volume   89.37454394
_cell_formula_units_Z   1
loop_
 _symmetry_equiv_pos_site_id
 _symmetry_equiv_pos_as_xyz
  1  'x, y, z'
loop_
 _atom_site_type_symbol
 _atom_site_label
 _atom_site_symmetry_multiplicity
 _atom_site_fract_x
 _atom_site_fract_y
 _atom_site_fract_z
 _atom_site_occupancy
  Fe  Fe0  1  0.00000000  0.00000000  0.00000000  1.0
  Sr  Sr1  1  0.64488928  0.64488928  1.00000000  1.0
  Sr  Sr2  1  0.35511072  0.35511072  0.00000000  1.0
  O  O3  1  0.84641799  0.84641799  1.00000000  1.0
  O  O4  1  0.15358201  0.15358201  0.00000000  1.0
  O  O5  1  0.50000000  0.00000000  0.50000000  1.0
