# generated using pymatgen
data_BaTiSi2O7
_symmetry_space_group_name_H-M   'P 1'
_cell_length_a   10.06245080
_cell_length_b   8.32117409
_cell_length_c   7.64074502
_cell_angle_alpha   76.89611989
_cell_angle_beta   90.58105747
_cell_angle_gamma   90.17684328
_symmetry_Int_Tables_number   1
_chemical_formula_structural   BaTiSi2O7
_chemical_formula_sum   'Ba4 Ti4 Si8 O28'
_cell_volume   623.07884385
_cell_formula_units_Z   4
loop_
 _symmetry_equiv_pos_site_id
 _symmetry_equiv_pos_as_xyz
  1  'x, y, z'
loop_
 _atom_site_type_symbol
 _atom_site_label
 _atom_site_symmetry_multiplicity
 _atom_site_fract_x
 _atom_site_fract_y
 _atom_site_fract_z
 _atom_site_occupancy
  Ba  Ba0  1  -0.72860178  -0.49203063  -0.51228898  1.0
  Ba  Ba1  1  -0.27139822  -0.50796937  -0.48771102  1.0
  Ba  Ba2  1  -0.77134234  -0.00772611  -0.98743096  1.0
  Ba  Ba3  1  -0.22865766  -0.99227389  -0.01256904  1.0
  Ti  Ti4  1  -0.49655782  -0.36606851  -0.85484207  1.0
  Ti  Ti5  1  -0.50344218  -0.63393149  -0.14515793  1.0
  Ti  Ti6  1  -0.99632122  -0.86617979  -0.35473324  1.0
  Ti  Ti7  1  -0.00367878  -0.13382021  -0.64526676  1.0
  Si  Si8  1  -0.52751518  -0.79816175  -0.75597943  1.0
  Si  Si9  1  -0.47248482  -0.20183825  -0.24402057  1.0
  Si  Si10  1  -0.97255078  -0.70170449  -0.74378205  1.0
  Si  Si11  1  -0.02744922  -0.29829551  -0.25621795  1.0
  Si  Si12  1  -0.27644126  -0.96801580  -0.52069956  1.0
  Si  Si13  1  -0.72355874  -0.03198420  -0.47930044  1.0
  Si  Si14  1  -0.22352356  -0.53185346  -0.97926709  1.0
  Si  Si15  1  -0.77647644  -0.46814654  -0.02073291  1.0
  O  O16  1  -0.69151415  -0.34019716  -0.92879402  1.0
  O  O17  1  -0.30848585  -0.65980284  -0.07120598  1.0
  O  O18  1  -0.53586889  -0.83671752  -0.95729550  1.0
  O  O19  1  -0.46413111  -0.16328248  -0.04270450  1.0
  O  O20  1  -0.50185976  -0.68410903  -0.34777794  1.0
  O  O21  1  -0.49814024  -0.31589097  -0.65222206  1.0
  O  O22  1  -0.84922970  -0.60100336  -0.85763238  1.0
  O  O23  1  -0.15077030  -0.39899664  -0.14236762  1.0
  O  O24  1  -0.30900807  -0.43124117  -0.85805835  1.0
  O  O25  1  -0.69099193  -0.56875883  -0.14194165  1.0
  O  O26  1  -0.11425870  -0.63906392  -0.84043429  1.0
  O  O27  1  -0.88574130  -0.36093608  -0.15956571  1.0
  O  O28  1  -1.00203628  -0.18378656  -0.84801210  1.0
  O  O29  1  0.00203628  -0.81621344  -0.15198790  1.0
  O  O30  1  -0.54402454  -0.60084224  -0.77802095  1.0
  O  O31  1  -0.45597546  -0.39915776  -0.22197905  1.0
  O  O32  1  -0.95619950  -0.89904659  -0.72166258  1.0
  O  O33  1  -0.04380050  -0.10095341  -0.27833742  1.0
  O  O34  1  -0.38586892  -0.86050867  -0.65896240  1.0
  O  O35  1  -0.61413108  -0.13949133  -0.34103760  1.0
  O  O36  1  -0.65094203  -0.89904904  -0.64250266  1.0
  O  O37  1  -0.34905797  -0.10095096  -0.35749734  1.0
  O  O38  1  -0.80875440  -0.15975507  -0.57123398  1.0
  O  O39  1  -0.19124560  -0.84024493  -0.42876602  1.0
  O  O40  1  -0.96384560  -0.66326520  -0.54242726  1.0
  O  O41  1  -0.03615440  -0.33673480  -0.45757274  1.0
  O  O42  1  -0.80877627  -0.93145301  -0.35773791  1.0
  O  O43  1  -0.19122373  -0.06854699  -0.64226209  1.0
