# generated using pymatgen
data_RbBaTaS4
_symmetry_space_group_name_H-M   'P 1'
_cell_length_a   9.46397937
_cell_length_b   7.14700255
_cell_length_c   12.67063962
_cell_angle_alpha   90.00000000
_cell_angle_beta   90.00000000
_cell_angle_gamma   90.00000000
_symmetry_Int_Tables_number   1
_chemical_formula_structural   RbBaTaS4
_chemical_formula_sum   'Rb4 Ba4 Ta4 S16'
_cell_volume   857.03046590
_cell_formula_units_Z   4
loop_
 _symmetry_equiv_pos_site_id
 _symmetry_equiv_pos_as_xyz
  1  'x, y, z'
loop_
 _atom_site_type_symbol
 _atom_site_label
 _atom_site_symmetry_multiplicity
 _atom_site_fract_x
 _atom_site_fract_y
 _atom_site_fract_z
 _atom_site_occupancy
  Rb  Rb0  1  0.86441021  0.75000000  0.41634189  1.0
  Rb  Rb1  1  0.36441021  0.75000000  0.08365811  1.0
  Rb  Rb2  1  0.13558979  0.25000000  0.58365811  1.0
  Rb  Rb3  1  0.63558979  0.25000000  0.91634189  1.0
  Ba  Ba4  1  0.51532820  0.75000000  0.67690565  1.0
  Ba  Ba5  1  0.01532820  0.75000000  0.82309435  1.0
  Ba  Ba6  1  0.48467180  0.25000000  0.32309435  1.0
  Ba  Ba7  1  0.98467180  0.25000000  0.17690565  1.0
  Ta  Ta8  1  0.77321894  0.75000000  0.08004453  1.0
  Ta  Ta9  1  0.27321894  0.75000000  0.41995547  1.0
  Ta  Ta10  1  0.22678106  0.25000000  0.91995547  1.0
  Ta  Ta11  1  0.72678106  0.25000000  0.58004453  1.0
  S  S12  1  0.69138864  0.00822859  0.16487651  1.0
  S  S13  1  0.69138864  0.49177141  0.16487651  1.0
  S  S14  1  0.19138864  0.00822859  0.33512349  1.0
  S  S15  1  0.19138864  0.49177141  0.33512349  1.0
  S  S16  1  0.30861136  0.50822859  0.83512349  1.0
  S  S17  1  0.30861136  0.99177141  0.83512349  1.0
  S  S18  1  0.80861136  0.50822859  0.66487651  1.0
  S  S19  1  0.80861136  0.99177141  0.66487651  1.0
  S  S20  1  0.01377829  0.75000000  0.08077833  1.0
  S  S21  1  0.51377829  0.75000000  0.41922167  1.0
  S  S22  1  0.98622171  0.25000000  0.91922167  1.0
  S  S23  1  0.48622171  0.25000000  0.58077833  1.0
  S  S24  1  0.19241132  0.75000000  0.58989537  1.0
  S  S25  1  0.69241132  0.75000000  0.91010463  1.0
  S  S26  1  0.80758868  0.25000000  0.41010463  1.0
  S  S27  1  0.30758868  0.25000000  0.08989537  1.0
