# generated using pymatgen
data_CaGaAu
_symmetry_space_group_name_H-M   'P 1'
_cell_length_a   7.34313349
_cell_length_b   4.58474117
_cell_length_c   7.76192239
_cell_angle_alpha   90.00000000
_cell_angle_beta   90.00000000
_cell_angle_gamma   90.00000000
_symmetry_Int_Tables_number   1
_chemical_formula_structural   CaGaAu
_chemical_formula_sum   'Ca4 Ga4 Au4'
_cell_volume   261.31572341
_cell_formula_units_Z   4
loop_
 _symmetry_equiv_pos_site_id
 _symmetry_equiv_pos_as_xyz
  1  'x, y, z'
loop_
 _atom_site_type_symbol
 _atom_site_label
 _atom_site_symmetry_multiplicity
 _atom_site_fract_x
 _atom_site_fract_y
 _atom_site_fract_z
 _atom_site_occupancy
  Ca  Ca0  1  0.99341372  0.75000000  0.69974592  1.0
  Ca  Ca1  1  0.49341372  0.75000000  0.80025408  1.0
  Ca  Ca2  1  0.00658628  0.25000000  0.30025408  1.0
  Ca  Ca3  1  0.50658628  0.25000000  0.19974592  1.0
  Ga  Ga4  1  0.81999220  0.75000000  0.07922646  1.0
  Ga  Ga5  1  0.31999220  0.75000000  0.42077354  1.0
  Ga  Ga6  1  0.18000780  0.25000000  0.92077354  1.0
  Ga  Ga7  1  0.68000780  0.25000000  0.57922646  1.0
  Au  Au8  1  0.70683863  0.75000000  0.40620964  1.0
  Au  Au9  1  0.20683863  0.75000000  0.09379036  1.0
  Au  Au10  1  0.29316137  0.25000000  0.59379036  1.0
  Au  Au11  1  0.79316137  0.25000000  0.90620964  1.0
