# generated using pymatgen
data_CuPH6NO5
_symmetry_space_group_name_H-M   'P 1'
_cell_length_a   5.72463431
_cell_length_b   8.91295097
_cell_length_c   4.79349128
_cell_angle_alpha   90.00000000
_cell_angle_beta   90.00000000
_cell_angle_gamma   90.00000000
_symmetry_Int_Tables_number   1
_chemical_formula_structural   CuPH6NO5
_chemical_formula_sum   'Cu2 P2 H12 N2 O10'
_cell_volume   244.58015041
_cell_formula_units_Z   2
loop_
 _symmetry_equiv_pos_site_id
 _symmetry_equiv_pos_as_xyz
  1  'x, y, z'
loop_
 _atom_site_type_symbol
 _atom_site_label
 _atom_site_symmetry_multiplicity
 _atom_site_fract_x
 _atom_site_fract_y
 _atom_site_fract_z
 _atom_site_occupancy
  O  O0  1  0.50000000  0.15892387  0.73900976  1.0
  O  O1  1  0.00000000  0.84107613  0.23900976  1.0
  O  O2  1  0.50000000  0.36498130  0.38252422  1.0
  O  O3  1  0.00000000  0.63501870  0.88252422  1.0
  O  O4  1  0.50000000  0.80659642  0.28830911  1.0
  O  O5  1  0.00000000  0.19340358  0.78830911  1.0
  O  O6  1  0.28175967  0.11914169  0.27176304  1.0
  O  O7  1  0.71824033  0.11914169  0.27176304  1.0
  O  O8  1  0.21824033  0.88085831  0.77176304  1.0
  O  O9  1  0.78175967  0.88085831  0.77176304  1.0
  Cu  Cu10  1  0.50000000  0.97479937  -0.01784693  1.0
  Cu  Cu11  1  0.00000000  0.02520063  0.48215307  1.0
  N  N12  1  0.50000000  0.52294980  0.88156261  1.0
  N  N13  1  0.00000000  0.47705020  0.38156261  1.0
  H  H14  1  0.50000000  0.45394572  0.06038667  1.0
  H  H15  1  0.00000000  0.54605428  0.56038667  1.0
  H  H16  1  0.64862985  0.58903570  0.88438227  1.0
  H  H17  1  0.35137015  0.58903570  0.88438227  1.0
  H  H18  1  0.85137015  0.41096430  0.38438227  1.0
  H  H19  1  0.14862985  0.41096430  0.38438227  1.0
  H  H20  1  0.50000000  0.45669712  0.69888844  1.0
  H  H21  1  0.00000000  0.54330288  0.19888844  1.0
  H  H22  1  0.63706928  0.82371200  0.40979959  1.0
  H  H23  1  0.36293072  0.82371200  0.40979959  1.0
  H  H24  1  0.86293072  0.17628800  0.90979959  1.0
  H  H25  1  0.13706928  0.17628800  0.90979959  1.0
  P  P26  1  0.50000000  0.19082018  0.42227634  1.0
  P  P27  1  0.00000000  0.80917982  0.92227634  1.0
