# generated using pymatgen
data_Na2MnSiO4
_symmetry_space_group_name_H-M   'P 1'
_cell_length_a   5.37878397
_cell_length_b   5.68439426
_cell_length_c   8.85316208
_cell_angle_alpha   90.00000000
_cell_angle_beta   127.18844105
_cell_angle_gamma   90.00000000
_symmetry_Int_Tables_number   1
_chemical_formula_structural   Na2MnSiO4
_chemical_formula_sum   'Na4 Mn2 Si2 O8'
_cell_volume   215.64296368
_cell_formula_units_Z   2
loop_
 _symmetry_equiv_pos_site_id
 _symmetry_equiv_pos_as_xyz
  1  'x, y, z'
loop_
 _atom_site_type_symbol
 _atom_site_label
 _atom_site_symmetry_multiplicity
 _atom_site_fract_x
 _atom_site_fract_y
 _atom_site_fract_z
 _atom_site_occupancy
  Na  Na0  1  0.48497936  0.17931261  0.05931425  1.0
  Na  Na1  1  0.48497936  0.82068739  0.55931425  1.0
  Na  Na2  1  0.23217854  0.33559292  0.30341618  1.0
  Na  Na3  1  0.23217854  0.66440708  0.80341618  1.0
  Mn  Mn4  1  0.97017594  0.81692328  0.05162501  1.0
  Mn  Mn5  1  0.97017594  0.18307672  0.55162501  1.0
  Si  Si6  1  0.71939921  0.68549553  0.30570690  1.0
  Si  Si7  1  0.71939921  0.31450447  0.80570690  1.0
  O  O8  1  0.82095891  0.40470918  0.32884978  1.0
  O  O9  1  0.82095891  0.59529082  0.82884978  1.0
  O  O10  1  -0.00591819  0.83515291  0.49759633  1.0
  O  O11  1  -0.00591819  0.16484709  -0.00240367  1.0
  O  O12  1  0.66089356  0.79327836  0.11259907  1.0
  O  O13  1  0.66089356  0.20672164  0.61259907  1.0
  O  O14  1  0.39023268  0.70669049  0.28169247  1.0
  O  O15  1  0.39023268  0.29330951  0.78169247  1.0
