# generated using pymatgen
data_MoCl2O
_symmetry_space_group_name_H-M   'P 1'
_cell_length_a   7.58924637
_cell_length_b   7.58924637
_cell_length_c   6.57903648
_cell_angle_alpha   76.24077379
_cell_angle_beta   103.75922621
_cell_angle_gamma   151.15520578
_symmetry_Int_Tables_number   1
_chemical_formula_structural   MoCl2O
_chemical_formula_sum   'Mo2 Cl4 O2'
_cell_volume   177.21231607
_cell_formula_units_Z   2
loop_
 _symmetry_equiv_pos_site_id
 _symmetry_equiv_pos_as_xyz
  1  'x, y, z'
loop_
 _atom_site_type_symbol
 _atom_site_label
 _atom_site_symmetry_multiplicity
 _atom_site_fract_x
 _atom_site_fract_y
 _atom_site_fract_z
 _atom_site_occupancy
  Mo  Mo0  1  0.99998915  -0.99998915  0.78700869  1.0
  Mo  Mo1  1  1.00001085  -0.00001085  0.21299131  1.0
  Cl  Cl2  1  0.88547910  -0.88547910  0.43715047  1.0
  Cl  Cl3  1  1.11452090  -0.11452090  0.56284953  1.0
  Cl  Cl4  1  0.86322679  -0.86322679  0.92496486  1.0
  Cl  Cl5  1  1.13677321  -0.13677321  0.07503514  1.0
  O  O6  1  0.49998485  -0.49998485  0.78226779  1.0
  O  O7  1  1.50001515  -0.50001515  0.21773221  1.0
