# generated using pymatgen
data_K3NaSi4
_symmetry_space_group_name_H-M   'P 1'
_cell_length_a   6.76161086
_cell_length_b   13.87368095
_cell_length_c   11.63925233
_cell_angle_alpha   90.00000000
_cell_angle_beta   114.05413632
_cell_angle_gamma   90.00000000
_symmetry_Int_Tables_number   1
_chemical_formula_structural   K3NaSi4
_chemical_formula_sum   'K12 Na4 Si16'
_cell_volume   997.04369537
_cell_formula_units_Z   4
loop_
 _symmetry_equiv_pos_site_id
 _symmetry_equiv_pos_as_xyz
  1  'x, y, z'
loop_
 _atom_site_type_symbol
 _atom_site_label
 _atom_site_symmetry_multiplicity
 _atom_site_fract_x
 _atom_site_fract_y
 _atom_site_fract_z
 _atom_site_occupancy
  K  K0  1  0.87549592  0.35704603  0.43049458  1.0
  K  K1  1  0.87549592  0.14295397  0.93049458  1.0
  K  K2  1  0.12450408  0.64295397  0.56950542  1.0
  K  K3  1  0.12450408  0.85704603  0.06950542  1.0
  K  K4  1  0.26739528  0.47636820  0.23711086  1.0
  K  K5  1  0.26739528  0.02363180  0.73711086  1.0
  K  K6  1  0.73260472  0.52363180  0.76288914  1.0
  K  K7  1  0.73260472  0.97636820  0.26288914  1.0
  K  K8  1  0.71341891  0.38685035  0.02542504  1.0
  K  K9  1  0.71341891  0.11314965  0.52542504  1.0
  K  K10  1  0.28658109  0.61314965  0.97457496  1.0
  K  K11  1  0.28658109  0.88685035  0.47457496  1.0
  Na  Na12  1  0.43189323  0.28366121  0.62928242  1.0
  Na  Na13  1  0.43189323  0.21633879  0.12928242  1.0
  Na  Na14  1  0.56810677  0.71633879  0.37071758  1.0
  Na  Na15  1  0.56810677  0.78366121  0.87071758  1.0
  Si  Si16  1  0.21827635  0.41599649  0.75410119  1.0
  Si  Si17  1  0.21827635  0.08400351  0.25410119  1.0
  Si  Si18  1  0.78172365  0.58400351  0.24589881  1.0
  Si  Si19  1  0.78172365  0.91599649  0.74589881  1.0
  Si  Si20  1  0.15229727  0.37207528  0.93724214  1.0
  Si  Si21  1  0.15229727  0.12792472  0.43724214  1.0
  Si  Si22  1  0.84770273  0.62792472  0.06275786  1.0
  Si  Si23  1  0.84770273  0.87207528  0.56275786  1.0
  Si  Si24  1  0.92303432  0.30712101  0.73120852  1.0
  Si  Si25  1  0.92303432  0.19287899  0.23120852  1.0
  Si  Si26  1  0.07696568  0.69287899  0.26879148  1.0
  Si  Si27  1  0.07696568  0.80712101  0.76879148  1.0
  Si  Si28  1  0.28811384  0.24984219  0.83903201  1.0
  Si  Si29  1  0.28811384  0.25015781  0.33903201  1.0
  Si  Si30  1  0.71188616  0.75015781  0.16096799  1.0
  Si  Si31  1  0.71188616  0.74984219  0.66096799  1.0
