# generated using pymatgen
data_Sr2ZnGe2S6O
_symmetry_space_group_name_H-M   'P 1'
_cell_length_a   9.51542999
_cell_length_b   9.51542999
_cell_length_c   6.24473775
_cell_angle_alpha   90.00000000
_cell_angle_beta   90.00000000
_cell_angle_gamma   90.00000000
_symmetry_Int_Tables_number   1
_chemical_formula_structural   Sr2ZnGe2S6O
_chemical_formula_sum   'Sr4 Zn2 Ge4 S12 O2'
_cell_volume   565.41983761
_cell_formula_units_Z   2
loop_
 _symmetry_equiv_pos_site_id
 _symmetry_equiv_pos_as_xyz
  1  'x, y, z'
loop_
 _atom_site_type_symbol
 _atom_site_label
 _atom_site_symmetry_multiplicity
 _atom_site_fract_x
 _atom_site_fract_y
 _atom_site_fract_z
 _atom_site_occupancy
  Sr  Sr0  1  0.84209846  0.34209846  0.50161518  1.0
  Sr  Sr1  1  0.65790154  0.84209846  0.49838482  1.0
  Sr  Sr2  1  0.15790154  0.65790154  0.50161518  1.0
  Sr  Sr3  1  0.34209846  0.15790154  0.49838482  1.0
  Zn  Zn4  1  0.50000000  0.50000000  0.00000000  1.0
  Zn  Zn5  1  0.00000000  0.00000000  0.00000000  1.0
  Ge  Ge6  1  0.37291816  0.87291816  0.07291980  1.0
  Ge  Ge7  1  0.12708184  0.37291816  0.92708020  1.0
  Ge  Ge8  1  0.62708184  0.12708184  0.07291980  1.0
  Ge  Ge9  1  0.87291816  0.62708184  0.92708020  1.0
  S  S10  1  0.32418748  0.43621907  0.75620608  1.0
  S  S11  1  0.17581252  0.93621907  0.24379392  1.0
  S  S12  1  0.56378093  0.32418748  0.24379392  1.0
  S  S13  1  0.93621907  0.82418748  0.75620608  1.0
  S  S14  1  0.67581252  0.56378093  0.75620608  1.0
  S  S15  1  0.82418748  0.06378093  0.24379392  1.0
  S  S16  1  0.43621907  0.67581252  0.24379392  1.0
  S  S17  1  0.06378093  0.17581252  0.75620608  1.0
  S  S18  1  0.36531035  0.86531035  0.72558563  1.0
  S  S19  1  0.13468965  0.36531035  0.27441437  1.0
  S  S20  1  0.63468965  0.13468965  0.72558563  1.0
  S  S21  1  0.86531035  0.63468965  0.27441437  1.0
  O  O22  1  0.00000000  0.50000000  0.80575192  1.0
  O  O23  1  0.50000000  0.00000000  0.19424808  1.0
