# generated using pymatgen
data_Cs2CuP2O7
_symmetry_space_group_name_H-M   'P 1'
_cell_length_a   7.58768445
_cell_length_b   7.58768445
_cell_length_c   10.12025991
_cell_angle_alpha   79.27159597
_cell_angle_beta   100.72840403
_cell_angle_gamma   59.51756994
_symmetry_Int_Tables_number   1
_chemical_formula_structural   Cs2CuP2O7
_chemical_formula_sum   'Cs4 Cu2 P4 O14'
_cell_volume   465.47002865
_cell_formula_units_Z   2
loop_
 _symmetry_equiv_pos_site_id
 _symmetry_equiv_pos_as_xyz
  1  'x, y, z'
loop_
 _atom_site_type_symbol
 _atom_site_label
 _atom_site_symmetry_multiplicity
 _atom_site_fract_x
 _atom_site_fract_y
 _atom_site_fract_z
 _atom_site_occupancy
  Cs  Cs0  1  0.61745040  -0.53280189  0.12547488  1.0
  Cs  Cs1  1  1.53280189  0.38254960  0.62547488  1.0
  Cs  Cs2  1  0.40904091  0.01243428  0.31651095  1.0
  Cs  Cs3  1  0.98756572  0.59095909  0.81651095  1.0
  Cu  Cu4  1  0.98765176  0.78012248  0.28801171  1.0
  Cu  Cu5  1  0.21987752  0.01234824  0.78801171  1.0
  P  P6  1  1.61252556  -0.01866374  1.00159340  1.0
  P  P7  1  1.01866374  -0.61252556  0.50159340  1.0
  P  P8  1  0.96905012  -0.96216261  0.98991712  1.0
  P  P9  1  1.96216261  0.03094988  0.48991713  1.0
  O  O10  1  1.72445919  0.12588829  0.41759161  1.0
  O  O11  1  0.87411171  -0.72445919  0.91759161  1.0
  O  O12  1  1.00971078  -0.78558273  0.42705660  1.0
  O  O13  1  1.78558273  -0.00971078  0.92705660  1.0
  O  O14  1  1.45438524  0.20292470  0.00813937  1.0
  O  O15  1  0.79707530  -0.45438524  0.50813937  1.0
  O  O16  1  1.01934654  0.97638463  0.15400471  1.0
  O  O17  1  0.02361537  -0.01934654  0.65400471  1.0
  O  O18  1  0.16742370  -0.12106804  0.95198826  1.0
  O  O19  1  1.12106804  0.83257630  0.45198826  1.0
  O  O20  1  0.51606151  -0.10580414  0.90489188  1.0
  O  O21  1  1.10580414  0.48393849  0.40489188  1.0
  O  O22  1  1.75648621  -0.20129930  0.14976951  1.0
  O  O23  1  1.20129930  -0.75648621  0.64976951  1.0
