# generated using pymatgen
data_Na5ReO6
_symmetry_space_group_name_H-M   'P 1'
_cell_length_a   5.71013842
_cell_length_b   5.71013842
_cell_length_c   5.67291442
_cell_angle_alpha   79.73086277
_cell_angle_beta   100.26913723
_cell_angle_gamma   60.45286649
_symmetry_Int_Tables_number   1
_chemical_formula_structural   Na5ReO6
_chemical_formula_sum   'Na5 Re1 O6'
_cell_volume   150.48661980
_cell_formula_units_Z   1
loop_
 _symmetry_equiv_pos_site_id
 _symmetry_equiv_pos_as_xyz
  1  'x, y, z'
loop_
 _atom_site_type_symbol
 _atom_site_label
 _atom_site_symmetry_multiplicity
 _atom_site_fract_x
 _atom_site_fract_y
 _atom_site_fract_z
 _atom_site_occupancy
  Na  Na0  1  0.66665370  -0.33334630  0.00000000  1.0
  Na  Na1  1  1.33334630  0.33334630  0.00000000  1.0
  Na  Na2  1  0.82985450  -0.17014550  0.50000000  1.0
  Na  Na3  1  1.17014550  0.17014550  0.50000000  1.0
  Na  Na4  1  0.50000000  -0.50000000  0.50000000  1.0
  Re  Re5  1  0.00000000  -0.00000000  0.00000000  1.0
  O  O6  1  1.65641367  0.06928615  0.78748904  1.0
  O  O7  1  1.06928615  0.65641367  0.21251096  1.0
  O  O8  1  0.34358633  -0.06928615  0.21251096  1.0
  O  O9  1  0.93071385  -0.65641367  0.78748904  1.0
  O  O10  1  0.79769107  -0.79769107  0.20094954  1.0
  O  O11  1  0.20230893  -0.20230893  0.79905046  1.0
