# generated using pymatgen
data_YSiPt
_symmetry_space_group_name_H-M   'P 1'
_cell_length_a   7.01542257
_cell_length_b   4.28984576
_cell_length_c   7.48539119
_cell_angle_alpha   90.00000000
_cell_angle_beta   90.00000000
_cell_angle_gamma   90.00000000
_symmetry_Int_Tables_number   1
_chemical_formula_structural   YSiPt
_chemical_formula_sum   'Y4 Si4 Pt4'
_cell_volume   225.27345270
_cell_formula_units_Z   4
loop_
 _symmetry_equiv_pos_site_id
 _symmetry_equiv_pos_as_xyz
  1  'x, y, z'
loop_
 _atom_site_type_symbol
 _atom_site_label
 _atom_site_symmetry_multiplicity
 _atom_site_fract_x
 _atom_site_fract_y
 _atom_site_fract_z
 _atom_site_occupancy
  Y  Y0  1  1.00234439  0.75000000  0.70054080  1.0
  Y  Y1  1  0.50234439  0.75000000  0.79945920  1.0
  Y  Y2  1  -0.00234439  0.25000000  0.29945920  1.0
  Y  Y3  1  0.49765561  0.25000000  0.20054080  1.0
  Si  Si4  1  0.68725024  0.75000000  0.41170124  1.0
  Si  Si5  1  0.18725024  0.75000000  0.08829876  1.0
  Si  Si6  1  0.31274976  0.25000000  0.58829876  1.0
  Si  Si7  1  0.81274976  0.25000000  0.91170124  1.0
  Pt  Pt8  1  0.80165211  0.75000000  0.08467122  1.0
  Pt  Pt9  1  0.30165211  0.75000000  0.41532878  1.0
  Pt  Pt10  1  0.19834789  0.25000000  0.91532878  1.0
  Pt  Pt11  1  0.69834789  0.25000000  0.58467122  1.0
