# generated using pymatgen
data_Hf4Mn4Si7
_symmetry_space_group_name_H-M   'P 1'
_cell_length_a   9.58329713
_cell_length_b   9.58329713
_cell_length_c   9.58329713
_cell_angle_alpha   94.03569153
_cell_angle_beta   94.03569153
_cell_angle_gamma   149.23183237
_symmetry_Int_Tables_number   1
_chemical_formula_structural   Hf4Mn4Si7
_chemical_formula_sum   'Hf8 Mn8 Si14'
_cell_volume   434.10959922
_cell_formula_units_Z   2
loop_
 _symmetry_equiv_pos_site_id
 _symmetry_equiv_pos_as_xyz
  1  'x, y, z'
loop_
 _atom_site_type_symbol
 _atom_site_label
 _atom_site_symmetry_multiplicity
 _atom_site_fract_x
 _atom_site_fract_y
 _atom_site_fract_z
 _atom_site_occupancy
  Hf  Hf0  1  0.00000000  0.80348891  0.80348891  1.0
  Hf  Hf1  1  0.80348891  1.00000000  0.80348891  1.0
  Hf  Hf2  1  1.19651109  1.00000000  1.19651109  1.0
  Hf  Hf3  1  -0.00000000  0.19651109  0.19651109  1.0
  Hf  Hf4  1  0.63895213  0.63895213  0.27790426  1.0
  Hf  Hf5  1  1.36104787  0.63895213  1.00000000  1.0
  Hf  Hf6  1  0.63895213  0.36104787  1.00000000  1.0
  Hf  Hf7  1  0.36104787  0.36104787  0.72209574  1.0
  Mn  Mn8  1  1.10173030  0.60173030  1.20346061  1.0
  Mn  Mn9  1  1.60173030  1.10173030  1.20346061  1.0
  Mn  Mn10  1  0.39826970  0.60173030  0.50000000  1.0
  Mn  Mn11  1  0.89826970  1.10173030  0.50000000  1.0
  Mn  Mn12  1  1.10173030  0.89826970  1.50000000  1.0
  Mn  Mn13  1  1.60173030  1.39826970  1.50000000  1.0
  Mn  Mn14  1  0.39826970  0.89826970  0.79653939  1.0
  Mn  Mn15  1  0.89826970  1.39826970  0.79653939  1.0
  Si  Si16  1  0.00000000  0.59146845  0.59146845  1.0
  Si  Si17  1  0.59146845  1.00000000  0.59146845  1.0
  Si  Si18  1  1.40853155  1.00000000  1.40853155  1.0
  Si  Si19  1  0.00000000  0.40853155  0.40853155  1.0
  Si  Si20  1  0.79126616  0.79126616  0.58253233  1.0
  Si  Si21  1  1.20873384  0.79126616  1.00000000  1.0
  Si  Si22  1  0.79126616  0.20873384  1.00000000  1.0
  Si  Si23  1  0.20873384  0.20873384  0.41746767  1.0
  Si  Si24  1  0.75029454  0.75029454  -0.00000000  1.0
  Si  Si25  1  0.24970546  0.24970546  -0.00000000  1.0
  Si  Si26  1  0.50000000  0.79689307  0.29689307  1.0
  Si  Si27  1  0.79689307  0.50000000  1.29689307  1.0
  Si  Si28  1  0.20310693  0.50000000  0.70310693  1.0
  Si  Si29  1  0.50000000  1.20310693  0.70310693  1.0
