# generated using pymatgen
data_Na4ZnP4H16C2(NO8)2
_symmetry_space_group_name_H-M   'P 1'
_cell_length_a   12.51890630
_cell_length_b   6.24251102
_cell_length_c   5.65071068
_cell_angle_alpha   93.91415000
_cell_angle_beta   92.40368315
_cell_angle_gamma   92.25035335
_symmetry_Int_Tables_number   1
_chemical_formula_structural   Na4ZnP4H16C2(NO8)2
_chemical_formula_sum   'Na4 Zn1 P4 H16 C2 N2 O16'
_cell_volume   439.78869167
_cell_formula_units_Z   1
loop_
 _symmetry_equiv_pos_site_id
 _symmetry_equiv_pos_as_xyz
  1  'x, y, z'
loop_
 _atom_site_type_symbol
 _atom_site_label
 _atom_site_symmetry_multiplicity
 _atom_site_fract_x
 _atom_site_fract_y
 _atom_site_fract_z
 _atom_site_occupancy
  Na  Na0  1  -0.68555333  -0.91257350  -0.47235304  1.0
  Na  Na1  1  -0.31444667  -0.08742650  -0.52764696  1.0
  Na  Na2  1  -0.88647692  -0.91020549  -0.88641205  1.0
  Na  Na3  1  -0.11352308  -0.08979451  -0.11358795  1.0
  Zn  Zn4  1  -0.50000000  -0.50000000  -0.50000000  1.0
  P  P5  1  -0.75132461  -0.40225089  -0.63527945  1.0
  P  P6  1  -0.24867539  -0.59774911  -0.36472055  1.0
  P  P7  1  -0.63470940  -0.70275555  -0.97916034  1.0
  P  P8  1  -0.36529060  -0.29724445  -0.02083966  1.0
  H  H9  1  -0.67790016  -0.11935973  -0.99327344  1.0
  H  H10  1  -0.32209984  -0.88064027  -0.00672656  1.0
  H  H11  1  -0.62963813  -0.29233876  -0.19599349  1.0
  H  H12  1  -0.37036187  -0.70766124  -0.80400651  1.0
  H  H13  1  -0.56652710  -0.26229175  -0.92246328  1.0
  H  H14  1  -0.43347290  -0.73770825  -0.07753672  1.0
  H  H15  1  -0.90367541  -0.64709803  -0.36164222  1.0
  H  H16  1  -0.09632459  -0.35290197  -0.63835778  1.0
  H  H17  1  -0.02401003  -0.68463145  -0.28700718  1.0
  H  H18  1  -0.97598997  -0.31536855  -0.71299282  1.0
  H  H19  1  -0.94809744  -0.34890486  -0.18831166  1.0
  H  H20  1  -0.05190256  -0.65109514  -0.81168834  1.0
  H  H21  1  -0.89966609  -0.18187583  -0.34974707  1.0
  H  H22  1  -0.10033391  -0.81812417  -0.65025293  1.0
  H  H23  1  -0.77976021  -0.47232987  -0.06316707  1.0
  H  H24  1  -0.22023979  -0.52767013  -0.93683293  1.0
  C  C25  1  -0.70866510  -0.45235293  -0.94222020  1.0
  C  C26  1  -0.29133490  -0.54764707  -0.05777980  1.0
  N  N27  1  -0.64142559  -0.26937505  -0.01340427  1.0
  N  N28  1  -0.35857441  -0.73062495  -0.98659573  1.0
  O  O29  1  -0.64369405  -0.32499425  -0.49806708  1.0
  O  O30  1  -0.35630595  -0.67500575  -0.50193292  1.0
  O  O31  1  -0.80146957  -0.61641122  -0.56571281  1.0
  O  O32  1  -0.19853043  -0.38358878  -0.43428719  1.0
  O  O33  1  -0.82826450  -0.21294685  -0.62724891  1.0
  O  O34  1  -0.17173550  -0.78705315  -0.37275109  1.0
  O  O35  1  -0.57149928  -0.73317258  -0.74239557  1.0
  O  O36  1  -0.42850072  -0.26682742  -0.25760443  1.0
  O  O37  1  -0.72149179  -0.88281190  -0.03632127  1.0
  O  O38  1  -0.27850821  -0.11718810  -0.96367873  1.0
  O  O39  1  -0.56138331  -0.68395498  -0.19187121  1.0
  O  O40  1  -0.43861669  -0.31604502  -0.80812879  1.0
  O  O41  1  -0.95077250  -0.64469907  -0.22386265  1.0
  O  O42  1  -0.04922750  -0.35530093  -0.77613735  1.0
  O  O43  1  -0.93981068  -0.19160591  -0.20325996  1.0
  O  O44  1  -0.06018932  -0.80839409  -0.79674004  1.0
