# generated using pymatgen
data_BaH6Cl2O11
_symmetry_space_group_name_H-M   'P 1'
_cell_length_a   7.44282236
_cell_length_b   7.44282236
_cell_length_c   9.80795955
_cell_angle_alpha   90.00000000
_cell_angle_beta   90.00000000
_cell_angle_gamma   120.00000000
_symmetry_Int_Tables_number   1
_chemical_formula_structural   BaH6Cl2O11
_chemical_formula_sum   'Ba2 H12 Cl4 O22'
_cell_volume   470.52706104
_cell_formula_units_Z   2
loop_
 _symmetry_equiv_pos_site_id
 _symmetry_equiv_pos_as_xyz
  1  'x, y, z'
loop_
 _atom_site_type_symbol
 _atom_site_label
 _atom_site_symmetry_multiplicity
 _atom_site_fract_x
 _atom_site_fract_y
 _atom_site_fract_z
 _atom_site_occupancy
  Ba  Ba0  1  0.00000000  0.00000000  0.50000000  1.0
  Ba  Ba1  1  0.00000000  0.00000000  0.00000000  1.0
  H  H2  1  0.19443606  0.79862400  0.25000000  1.0
  H  H3  1  0.79862400  0.60418794  0.75000000  1.0
  H  H4  1  0.60418794  0.80556394  0.25000000  1.0
  H  H5  1  0.20137600  0.39581206  0.25000000  1.0
  H  H6  1  0.80556394  0.20137600  0.75000000  1.0
  H  H7  1  0.39581206  0.19443606  0.75000000  1.0
  H  H8  1  0.95570179  0.69212722  0.25000000  1.0
  H  H9  1  0.69212722  0.73642543  0.75000000  1.0
  H  H10  1  0.73642543  0.04429821  0.25000000  1.0
  H  H11  1  0.30787278  0.26357457  0.25000000  1.0
  H  H12  1  0.04429821  0.30787278  0.75000000  1.0
  H  H13  1  0.26357457  0.95570179  0.75000000  1.0
  Cl  Cl14  1  0.33333333  0.66666667  0.96813967  1.0
  Cl  Cl15  1  0.33333333  0.66666667  0.53186033  1.0
  Cl  Cl16  1  0.66666667  0.33333333  0.46813967  1.0
  Cl  Cl17  1  0.66666667  0.33333333  0.03186033  1.0
  O  O18  1  0.72929230  0.54239533  0.41789593  1.0
  O  O19  1  0.72929230  0.54239533  0.08210407  1.0
  O  O20  1  0.54239533  0.81310304  0.91789593  1.0
  O  O21  1  0.54239533  0.81310304  0.58210407  1.0
  O  O22  1  0.81310304  0.27070770  0.41789593  1.0
  O  O23  1  0.81310304  0.27070770  0.08210407  1.0
  O  O24  1  0.45760467  0.18689696  0.41789593  1.0
  O  O25  1  0.45760467  0.18689696  0.08210407  1.0
  O  O26  1  0.27070770  0.45760467  0.91789593  1.0
  O  O27  1  0.27070770  0.45760467  0.58210407  1.0
  O  O28  1  0.18689696  0.72929230  0.91789593  1.0
  O  O29  1  0.18689696  0.72929230  0.58210407  1.0
  O  O30  1  0.08089618  0.82902131  0.25000000  1.0
  O  O31  1  0.82902131  0.74812513  0.75000000  1.0
  O  O32  1  0.74812513  0.91910382  0.25000000  1.0
  O  O33  1  0.17097869  0.25187487  0.25000000  1.0
  O  O34  1  0.91910382  0.17097869  0.75000000  1.0
  O  O35  1  0.25187487  0.08089618  0.75000000  1.0
  O  O36  1  0.33333333  0.66666667  0.38255736  1.0
  O  O37  1  0.33333333  0.66666667  0.11744264  1.0
  O  O38  1  0.66666667  0.33333333  0.88255736  1.0
  O  O39  1  0.66666667  0.33333333  0.61744264  1.0
