# generated using pymatgen
data_Nb3H12C4NCl9
_symmetry_space_group_name_H-M   'P 1'
_cell_length_a   11.31560079
_cell_length_b   11.31560079
_cell_length_c   9.07401382
_cell_angle_alpha   90.00000000
_cell_angle_beta   90.00000000
_cell_angle_gamma   120.00000000
_symmetry_Int_Tables_number   1
_chemical_formula_structural   Nb3H12C4NCl9
_chemical_formula_sum   'Nb6 H24 C8 N2 Cl18'
_cell_volume   1006.20229371
_cell_formula_units_Z   2
loop_
 _symmetry_equiv_pos_site_id
 _symmetry_equiv_pos_as_xyz
  1  'x, y, z'
loop_
 _atom_site_type_symbol
 _atom_site_label
 _atom_site_symmetry_multiplicity
 _atom_site_fract_x
 _atom_site_fract_y
 _atom_site_fract_z
 _atom_site_occupancy
  Nb  Nb0  1  0.17994544  0.08997272  0.86256828  1.0
  Nb  Nb1  1  0.91002728  0.82005456  0.86256828  1.0
  Nb  Nb2  1  0.91002728  0.08997272  0.86256828  1.0
  Nb  Nb3  1  0.82005456  0.91002728  0.13743172  1.0
  Nb  Nb4  1  0.08997272  0.17994544  0.13743172  1.0
  Nb  Nb5  1  0.08997272  0.91002728  0.13743172  1.0
  H  H6  1  0.56101761  0.28050881  0.11068615  1.0
  H  H7  1  0.71949119  0.43898239  0.11068615  1.0
  H  H8  1  0.71949119  0.28050881  0.11068615  1.0
  H  H9  1  0.43898239  0.71949119  0.88931385  1.0
  H  H10  1  0.28050881  0.56101761  0.88931385  1.0
  H  H11  1  0.28050881  0.71949119  0.88931385  1.0
  H  H12  1  0.80971342  0.40485671  0.49141175  1.0
  H  H13  1  0.59514329  0.19028658  0.49141175  1.0
  H  H14  1  0.59514329  0.40485671  0.49141175  1.0
  H  H15  1  0.19028658  0.59514329  0.50858825  1.0
  H  H16  1  0.40485671  0.80971342  0.50858825  1.0
  H  H17  1  0.40485671  0.59514329  0.50858825  1.0
  H  H18  1  0.86293129  0.51083889  0.33005981  1.0
  H  H19  1  0.64790760  0.13706871  0.33005981  1.0
  H  H20  1  0.48916111  0.35209240  0.33005981  1.0
  H  H21  1  0.86293129  0.35209240  0.33005981  1.0
  H  H22  1  0.48916111  0.13706871  0.33005981  1.0
  H  H23  1  0.64790760  0.51083889  0.33005981  1.0
  H  H24  1  0.13706871  0.48916111  0.66994019  1.0
  H  H25  1  0.35209240  0.86293129  0.66994019  1.0
  H  H26  1  0.51083889  0.64790760  0.66994019  1.0
  H  H27  1  0.13706871  0.64790760  0.66994019  1.0
  H  H28  1  0.51083889  0.86293129  0.66994019  1.0
  H  H29  1  0.35209240  0.48916111  0.66994019  1.0
  C  C30  1  0.66666667  0.33333333  0.14989206  1.0
  C  C31  1  0.33333333  0.66666667  0.85010794  1.0
  C  C32  1  0.81135498  0.40567749  0.37078394  1.0
  C  C33  1  0.59432251  0.18864502  0.37078394  1.0
  C  C34  1  0.59432251  0.40567749  0.37078394  1.0
  C  C35  1  0.18864502  0.59432251  0.62921606  1.0
  C  C36  1  0.40567749  0.81135498  0.62921606  1.0
  C  C37  1  0.40567749  0.59432251  0.62921606  1.0
  N  N38  1  0.66666667  0.33333333  0.31536363  1.0
  N  N39  1  0.33333333  0.66666667  0.68463637  1.0
  Cl  Cl40  1  0.30477027  0.00000000  0.00000000  1.0
  Cl  Cl41  1  0.69522973  0.69522973  0.00000000  1.0
  Cl  Cl42  1  0.00000000  0.30477027  0.00000000  1.0
  Cl  Cl43  1  0.30477027  0.30477027  0.00000000  1.0
  Cl  Cl44  1  0.00000000  0.69522973  0.00000000  1.0
  Cl  Cl45  1  0.69522973  0.00000000  0.00000000  1.0
  Cl  Cl46  1  0.20178379  0.10089190  0.30965291  1.0
  Cl  Cl47  1  0.89910810  0.79821621  0.30965291  1.0
  Cl  Cl48  1  0.89910810  0.10089190  0.30965291  1.0
  Cl  Cl49  1  0.79821621  0.89910810  0.69034709  1.0
  Cl  Cl50  1  0.10089190  0.20178379  0.69034709  1.0
  Cl  Cl51  1  0.10089190  0.89910810  0.69034709  1.0
  Cl  Cl52  1  0.38814725  0.19407362  0.70514399  1.0
  Cl  Cl53  1  0.80592638  0.61185275  0.70514399  1.0
  Cl  Cl54  1  0.80592638  0.19407362  0.70514399  1.0
  Cl  Cl55  1  0.61185275  0.80592638  0.29485601  1.0
  Cl  Cl56  1  0.19407362  0.38814725  0.29485601  1.0
  Cl  Cl57  1  0.19407362  0.80592638  0.29485601  1.0
