# generated using pymatgen
data_NiP8W
_symmetry_space_group_name_H-M   'P 1'
_cell_length_a   6.24834116
_cell_length_b   6.24834116
_cell_length_c   8.79002096
_cell_angle_alpha   90.00000000
_cell_angle_beta   90.00000000
_cell_angle_gamma   120.00000000
_symmetry_Int_Tables_number   1
_chemical_formula_structural   NiP8W
_chemical_formula_sum   'Ni2 P16 W2'
_cell_volume   297.20082423
_cell_formula_units_Z   2
loop_
 _symmetry_equiv_pos_site_id
 _symmetry_equiv_pos_as_xyz
  1  'x, y, z'
loop_
 _atom_site_type_symbol
 _atom_site_label
 _atom_site_symmetry_multiplicity
 _atom_site_fract_x
 _atom_site_fract_y
 _atom_site_fract_z
 _atom_site_occupancy
  Ni  Ni0  1  0.00000000  0.00000000  0.00000000  1.0
  Ni  Ni1  1  0.00000000  0.00000000  0.50000000  1.0
  P  P2  1  0.27611715  0.95624491  0.15326144  1.0
  P  P3  1  0.27611715  0.31987224  0.34673856  1.0
  P  P4  1  0.95624491  0.27611715  0.65326144  1.0
  P  P5  1  0.95624491  0.68012776  0.84673856  1.0
  P  P6  1  0.68012776  0.95624491  0.34673856  1.0
  P  P7  1  0.68012776  0.72388285  0.15326144  1.0
  P  P8  1  0.04375509  0.72388285  0.34673856  1.0
  P  P9  1  0.04375509  0.31987224  0.15326144  1.0
  P  P10  1  0.72388285  0.68012776  0.65326144  1.0
  P  P11  1  0.72388285  0.04375509  0.84673856  1.0
  P  P12  1  0.31987224  0.27611715  0.84673856  1.0
  P  P13  1  0.31987224  0.04375509  0.65326144  1.0
  P  P14  1  0.33333333  0.66666667  0.03635644  1.0
  P  P15  1  0.33333333  0.66666667  0.46364356  1.0
  P  P16  1  0.66666667  0.33333333  0.53635644  1.0
  P  P17  1  0.66666667  0.33333333  0.96364356  1.0
  W  W18  1  0.66666667  0.33333333  0.25000000  1.0
  W  W19  1  0.33333333  0.66666667  0.75000000  1.0
