# generated using pymatgen
data_Na3VS3O
_symmetry_space_group_name_H-M   'P 1'
_cell_length_a   5.96090168
_cell_length_b   9.74681244
_cell_length_c   12.02052289
_cell_angle_alpha   90.00000000
_cell_angle_beta   90.00000000
_cell_angle_gamma   90.00000000
_symmetry_Int_Tables_number   1
_chemical_formula_structural   Na3VS3O
_chemical_formula_sum   'Na12 V4 S12 O4'
_cell_volume   698.38986383
_cell_formula_units_Z   4
loop_
 _symmetry_equiv_pos_site_id
 _symmetry_equiv_pos_as_xyz
  1  'x, y, z'
loop_
 _atom_site_type_symbol
 _atom_site_label
 _atom_site_symmetry_multiplicity
 _atom_site_fract_x
 _atom_site_fract_y
 _atom_site_fract_z
 _atom_site_occupancy
  Na  Na0  1  0.24911932  0.95576253  0.87020147  1.0
  Na  Na1  1  0.24911932  0.54423747  0.87020147  1.0
  Na  Na2  1  0.74911932  0.95576253  0.62979853  1.0
  Na  Na3  1  0.74911932  0.54423747  0.62979853  1.0
  Na  Na4  1  0.75088068  0.45576253  0.12979853  1.0
  Na  Na5  1  0.75088068  0.04423747  0.12979853  1.0
  Na  Na6  1  0.25088068  0.45576253  0.37020147  1.0
  Na  Na7  1  0.25088068  0.04423747  0.37020147  1.0
  Na  Na8  1  0.26163450  0.75000000  0.13235704  1.0
  Na  Na9  1  0.76163450  0.75000000  0.36764296  1.0
  Na  Na10  1  0.73836550  0.25000000  0.86764296  1.0
  Na  Na11  1  0.23836550  0.25000000  0.63235704  1.0
  V  V12  1  0.34368066  0.75000000  0.54652960  1.0
  V  V13  1  0.84368066  0.75000000  0.95347040  1.0
  V  V14  1  0.65631934  0.25000000  0.45347040  1.0
  V  V15  1  0.15631934  0.25000000  0.04652960  1.0
  S  S16  1  0.22865663  0.93805648  0.62574768  1.0
  S  S17  1  0.22865663  0.56194352  0.62574768  1.0
  S  S18  1  0.72865663  0.93805648  0.87425232  1.0
  S  S19  1  0.72865663  0.56194352  0.87425232  1.0
  S  S20  1  0.77134337  0.43805648  0.37425232  1.0
  S  S21  1  0.77134337  0.06194352  0.37425232  1.0
  S  S22  1  0.27134337  0.43805648  0.12574768  1.0
  S  S23  1  0.27134337  0.06194352  0.12574768  1.0
  S  S24  1  0.24647121  0.75000000  0.36998452  1.0
  S  S25  1  0.74647121  0.75000000  0.13001548  1.0
  S  S26  1  0.75352879  0.25000000  0.63001548  1.0
  S  S27  1  0.25352879  0.25000000  0.86998452  1.0
  O  O28  1  0.12327963  0.75000000  0.94898715  1.0
  O  O29  1  0.62327963  0.75000000  0.55101285  1.0
  O  O30  1  0.87672037  0.25000000  0.05101285  1.0
  O  O31  1  0.37672037  0.25000000  0.44898715  1.0
