# generated using pymatgen
data_Nb5Ge3
_symmetry_space_group_name_H-M   'P 1'
_cell_length_a   7.69003001
_cell_length_b   7.69003001
_cell_length_c   5.33268835
_cell_angle_alpha   90.00000000
_cell_angle_beta   90.00000000
_cell_angle_gamma   120.00000000
_symmetry_Int_Tables_number   1
_chemical_formula_structural   Nb5Ge3
_chemical_formula_sum   'Nb10 Ge6'
_cell_volume   273.10704612
_cell_formula_units_Z   2
loop_
 _symmetry_equiv_pos_site_id
 _symmetry_equiv_pos_as_xyz
  1  'x, y, z'
loop_
 _atom_site_type_symbol
 _atom_site_label
 _atom_site_symmetry_multiplicity
 _atom_site_fract_x
 _atom_site_fract_y
 _atom_site_fract_z
 _atom_site_occupancy
  Nb  Nb0  1  0.75108393  0.75108393  0.25000000  1.0
  Nb  Nb1  1  0.75108393  0.00000000  0.75000000  1.0
  Nb  Nb2  1  -0.00000000  0.75108393  0.75000000  1.0
  Nb  Nb3  1  0.00000000  0.24891607  0.25000000  1.0
  Nb  Nb4  1  0.24891607  0.24891607  0.75000000  1.0
  Nb  Nb5  1  0.24891607  0.00000000  0.25000000  1.0
  Nb  Nb6  1  0.33333333  0.66666667  0.50000000  1.0
  Nb  Nb7  1  0.33333333  0.66666667  0.00000000  1.0
  Nb  Nb8  1  0.66666667  0.33333333  0.50000000  1.0
  Nb  Nb9  1  0.66666667  0.33333333  0.00000000  1.0
  Ge  Ge10  1  0.39157244  0.39157244  0.25000000  1.0
  Ge  Ge11  1  0.39157244  0.00000000  0.75000000  1.0
  Ge  Ge12  1  0.00000000  0.39157244  0.75000000  1.0
  Ge  Ge13  1  0.00000000  0.60842756  0.25000000  1.0
  Ge  Ge14  1  0.60842756  0.60842756  0.75000000  1.0
  Ge  Ge15  1  0.60842756  0.00000000  0.25000000  1.0
