# generated using pymatgen
data_RbHO
_symmetry_space_group_name_H-M   'P 1'
_cell_length_a   5.95409418
_cell_length_b   5.95409418
_cell_length_c   4.24915784
_cell_angle_alpha   90.00000000
_cell_angle_beta   90.00000000
_cell_angle_gamma   138.50967717
_symmetry_Int_Tables_number   1
_chemical_formula_structural   RbHO
_chemical_formula_sum   'Rb2 H2 O2'
_cell_volume   99.79663828
_cell_formula_units_Z   2
loop_
 _symmetry_equiv_pos_site_id
 _symmetry_equiv_pos_as_xyz
  1  'x, y, z'
loop_
 _atom_site_type_symbol
 _atom_site_label
 _atom_site_symmetry_multiplicity
 _atom_site_fract_x
 _atom_site_fract_y
 _atom_site_fract_z
 _atom_site_occupancy
  Rb  Rb0  1  -0.63950307  0.63950307  0.49307163  1.0
  Rb  Rb1  1  -0.36049693  1.36049693  -0.00692837  1.0
  H  H2  1  -0.96316206  0.96316206  0.61375171  1.0
  H  H3  1  -0.03683794  1.03683794  0.11375171  1.0
  O  O4  1  -0.89670341  0.89670341  0.46217666  1.0
  O  O5  1  -0.10329659  1.10329659  0.96217666  1.0
