# generated using pymatgen
data_Pb2BrOF
_symmetry_space_group_name_H-M   'P 1'
_cell_length_a   7.23659373
_cell_length_b   7.23659373
_cell_length_c   5.93454216
_cell_angle_alpha   90.00000000
_cell_angle_beta   90.00000000
_cell_angle_gamma   131.86114772
_symmetry_Int_Tables_number   1
_chemical_formula_structural   Pb2BrOF
_chemical_formula_sum   'Pb4 Br2 O2 F2'
_cell_volume   231.45918238
_cell_formula_units_Z   2
loop_
 _symmetry_equiv_pos_site_id
 _symmetry_equiv_pos_as_xyz
  1  'x, y, z'
loop_
 _atom_site_type_symbol
 _atom_site_label
 _atom_site_symmetry_multiplicity
 _atom_site_fract_x
 _atom_site_fract_y
 _atom_site_fract_z
 _atom_site_occupancy
  Pb  Pb0  1  0.09791925  0.90208075  0.78080591  1.0
  Pb  Pb1  1  -0.40208075  0.40208075  0.21919409  1.0
  Pb  Pb2  1  -0.09791925  0.09791925  0.21919409  1.0
  Pb  Pb3  1  0.40208075  0.59791925  0.78080591  1.0
  Br  Br4  1  -0.25000000  0.25000000  0.77505280  1.0
  Br  Br5  1  0.25000000  0.75000000  0.22494720  1.0
  O  O6  1  0.25000000  1.25000000  0.00000000  1.0
  O  O7  1  -0.25000000  0.75000000  0.00000000  1.0
  F  F8  1  0.25000000  1.25000000  0.50000000  1.0
  F  F9  1  -0.25000000  0.75000000  0.50000000  1.0
