# generated using pymatgen
data_Cs4Ge(PS3)4
_symmetry_space_group_name_H-M   'P 1'
_cell_length_a   7.91921520
_cell_length_b   7.91921520
_cell_length_c   25.02740655
_cell_angle_alpha   79.15375930
_cell_angle_beta   100.84624070
_cell_angle_gamma   113.41435723
_symmetry_Int_Tables_number   1
_chemical_formula_structural   Cs4Ge(PS3)4
_chemical_formula_sum   'Cs8 Ge2 P8 S24'
_cell_volume   1403.34986736
_cell_formula_units_Z   2
loop_
 _symmetry_equiv_pos_site_id
 _symmetry_equiv_pos_as_xyz
  1  'x, y, z'
loop_
 _atom_site_type_symbol
 _atom_site_label
 _atom_site_symmetry_multiplicity
 _atom_site_fract_x
 _atom_site_fract_y
 _atom_site_fract_z
 _atom_site_occupancy
  Cs  Cs0  1  1.79609311  0.17906699  0.45147255  1.0
  Cs  Cs1  1  0.82093301  0.20390689  0.95147255  1.0
  Cs  Cs2  1  1.17906699  0.79609311  0.04852745  1.0
  Cs  Cs3  1  1.20390689  -0.17906699  0.54852745  1.0
  Cs  Cs4  1  1.54539893  0.35100800  0.18223421  1.0
  Cs  Cs5  1  0.64899200  0.45460107  0.68223421  1.0
  Cs  Cs6  1  1.35100800  0.54539893  0.31776579  1.0
  Cs  Cs7  1  1.45460107  -0.35100800  0.81776579  1.0
  Ge  Ge8  1  0.99292668  0.99292668  0.25000000  1.0
  Ge  Ge9  1  1.00707332  0.00707332  0.75000000  1.0
  P  P10  1  1.73353828  -0.09243639  0.13190173  1.0
  P  P11  1  1.09243639  0.26646172  0.63190173  1.0
  P  P12  1  0.90756361  0.73353828  0.36809827  1.0
  P  P13  1  1.26646172  0.09243639  0.86809827  1.0
  P  P14  1  0.21024507  -0.06791941  0.38277874  1.0
  P  P15  1  1.06791941  0.78975493  0.88277874  1.0
  P  P16  1  0.93208059  0.21024507  0.11722126  1.0
  P  P17  1  0.78975493  0.06791941  0.61722126  1.0
  S  S18  1  0.80114759  -0.07417429  0.31329035  1.0
  S  S19  1  1.07417429  0.19885241  0.81329035  1.0
  S  S20  1  0.92582571  0.80114759  0.18670965  1.0
  S  S21  1  0.19885241  0.07417429  0.68670965  1.0
  S  S22  1  1.67565623  -0.20697671  0.06345264  1.0
  S  S23  1  1.20697671  -0.67565623  0.56345264  1.0
  S  S24  1  0.79302329  -0.32434377  0.43654736  1.0
  S  S25  1  1.32434377  0.20697671  0.93654736  1.0
  S  S26  1  0.52676588  -0.11503026  0.17119211  1.0
  S  S27  1  1.11503026  0.47323412  0.67119211  1.0
  S  S28  1  0.88496974  0.52676588  0.32880789  1.0
  S  S29  1  0.47323412  0.11503026  0.82880789  1.0
  S  S30  1  0.36384084  -0.21223452  0.42093887  1.0
  S  S31  1  1.21223452  0.63615916  0.92093887  1.0
  S  S32  1  0.78776548  0.36384084  0.07906113  1.0
  S  S33  1  0.63615916  0.21223452  0.57906113  1.0
  S  S34  1  1.27162516  0.00909271  0.29695946  1.0
  S  S35  1  0.99090729  0.72837484  0.79695946  1.0
  S  S36  1  1.00909271  0.27162516  0.20304054  1.0
  S  S37  1  1.72837484  -0.00909271  0.70304054  1.0
  S  S38  1  1.23123722  0.14904177  0.41635700  1.0
  S  S39  1  0.85095823  0.76876278  0.91635700  1.0
  S  S40  1  1.14904177  0.23123722  0.08364300  1.0
  S  S41  1  1.76876278  -0.14904177  0.58364300  1.0
