# generated using pymatgen
data_Si3Cl8
_symmetry_space_group_name_H-M   'P 1'
_cell_length_a   13.15129398
_cell_length_b   13.15129398
_cell_length_c   13.15129398
_cell_angle_alpha   60.00000000
_cell_angle_beta   60.00000000
_cell_angle_gamma   60.00000000
_symmetry_Int_Tables_number   1
_chemical_formula_structural   Si3Cl8
_chemical_formula_sum   'Si12 Cl32'
_cell_volume   1608.38665259
_cell_formula_units_Z   4
loop_
 _symmetry_equiv_pos_site_id
 _symmetry_equiv_pos_as_xyz
  1  'x, y, z'
loop_
 _atom_site_type_symbol
 _atom_site_label
 _atom_site_symmetry_multiplicity
 _atom_site_fract_x
 _atom_site_fract_y
 _atom_site_fract_z
 _atom_site_occupancy
  Si  Si0  1  0.92658466  0.92658466  -0.07341534  1.0
  Si  Si1  1  0.42658466  1.42658466  0.42658466  1.0
  Si  Si2  1  0.22024603  0.92658466  -0.07341534  1.0
  Si  Si3  1  -0.27975397  0.42658466  0.42658466  1.0
  Si  Si4  1  0.92658466  0.92658466  -0.77975397  1.0
  Si  Si5  1  0.42658466  1.42658466  -0.27975397  1.0
  Si  Si6  1  0.92658466  0.22024603  -0.07341534  1.0
  Si  Si7  1  0.42658466  -0.27975397  0.42658466  1.0
  Si  Si8  1  0.75000000  0.75000000  -0.25000000  1.0
  Si  Si9  1  0.25000000  0.25000000  0.25000000  1.0
  Si  Si10  1  0.00000000  0.00000000  0.00000000  1.0
  Si  Si11  1  -0.50000000  0.50000000  0.50000000  1.0
  Cl  Cl12  1  0.74534558  1.03354501  -0.06533027  1.0
  Cl  Cl13  1  0.24534558  1.43466973  0.53354501  1.0
  Cl  Cl14  1  -0.71356031  0.93466973  1.03354501  1.0
  Cl  Cl15  1  -0.21356031  0.53354501  0.43466973  1.0
  Cl  Cl16  1  0.43466973  1.53354501  0.24534558  1.0
  Cl  Cl17  1  -0.06533027  0.74534558  1.03354501  1.0
  Cl  Cl18  1  -0.21356031  0.24534558  0.53354501  1.0
  Cl  Cl19  1  0.28643969  1.03354501  -0.25465442  1.0
  Cl  Cl20  1  1.03354501  0.93466973  -0.25465442  1.0
  Cl  Cl21  1  0.53354501  1.24534558  0.43466973  1.0
  Cl  Cl22  1  -0.71356031  0.74534558  0.93466973  1.0
  Cl  Cl23  1  -0.21356031  0.43466973  0.24534558  1.0
  Cl  Cl24  1  1.03354501  0.74534558  -0.71356031  1.0
  Cl  Cl25  1  0.43466973  1.24534558  -0.21356031  1.0
  Cl  Cl26  1  -0.06533027  0.28643969  0.74534558  1.0
  Cl  Cl27  1  0.53354501  -0.21356031  0.24534558  1.0
  Cl  Cl28  1  0.53354501  1.43466973  -0.21356031  1.0
  Cl  Cl29  1  -0.25465442  0.93466973  0.28643969  1.0
  Cl  Cl30  1  0.24534558  -0.21356031  0.43466973  1.0
  Cl  Cl31  1  1.03354501  0.28643969  -0.06533027  1.0
  Cl  Cl32  1  0.93466973  1.03354501  -0.71356031  1.0
  Cl  Cl33  1  0.24534558  1.53354501  -0.21356031  1.0
  Cl  Cl34  1  -0.25465442  0.28643969  1.03354501  1.0
  Cl  Cl35  1  0.43466973  -0.21356031  0.53354501  1.0
  Cl  Cl36  1  0.68673629  0.68673629  -0.31326371  1.0
  Cl  Cl37  1  0.18673629  0.18673629  0.18673629  1.0
  Cl  Cl38  1  0.93979113  0.68673629  -0.31326371  1.0
  Cl  Cl39  1  0.43979113  0.18673629  0.18673629  1.0
  Cl  Cl40  1  0.68673629  0.68673629  -0.06020887  1.0
  Cl  Cl41  1  0.18673629  0.18673629  0.43979113  1.0
  Cl  Cl42  1  0.68673629  0.93979113  -0.31326371  1.0
  Cl  Cl43  1  0.18673629  0.43979113  0.18673629  1.0
