# generated using pymatgen
data_La3(Al3Ru)4
_symmetry_space_group_name_H-M   'P 1'
_cell_length_a   8.96047657
_cell_length_b   8.96047657
_cell_length_c   9.74775558
_cell_angle_alpha   90.00000000
_cell_angle_beta   90.00000000
_cell_angle_gamma   120.00000000
_symmetry_Int_Tables_number   1
_chemical_formula_structural   La3(Al3Ru)4
_chemical_formula_sum   'La6 Al24 Ru8'
_cell_volume   677.79362476
_cell_formula_units_Z   2
loop_
 _symmetry_equiv_pos_site_id
 _symmetry_equiv_pos_as_xyz
  1  'x, y, z'
loop_
 _atom_site_type_symbol
 _atom_site_label
 _atom_site_symmetry_multiplicity
 _atom_site_fract_x
 _atom_site_fract_y
 _atom_site_fract_z
 _atom_site_occupancy
  La  La0  1  0.19258808  0.80741192  0.25000000  1.0
  La  La1  1  0.19258808  0.38517617  0.25000000  1.0
  La  La2  1  0.80741192  0.19258808  0.75000000  1.0
  La  La3  1  0.80741192  0.61482383  0.75000000  1.0
  La  La4  1  0.61482383  0.80741192  0.25000000  1.0
  La  La5  1  0.38517617  0.19258808  0.75000000  1.0
  Al  Al6  1  0.16196997  0.83803003  0.92379320  1.0
  Al  Al7  1  0.16196997  0.83803003  0.57620680  1.0
  Al  Al8  1  0.16196997  0.32393995  0.92379320  1.0
  Al  Al9  1  0.16196997  0.32393995  0.57620680  1.0
  Al  Al10  1  0.83803003  0.16196997  0.42379320  1.0
  Al  Al11  1  0.83803003  0.16196997  0.07620680  1.0
  Al  Al12  1  0.83803003  0.67606005  0.42379320  1.0
  Al  Al13  1  0.83803003  0.67606005  0.07620680  1.0
  Al  Al14  1  0.67606005  0.83803003  0.92379320  1.0
  Al  Al15  1  0.67606005  0.83803003  0.57620680  1.0
  Al  Al16  1  0.32393995  0.16196997  0.42379320  1.0
  Al  Al17  1  0.32393995  0.16196997  0.07620680  1.0
  Al  Al18  1  0.56312595  0.43687405  0.25000000  1.0
  Al  Al19  1  0.56312595  0.12625190  0.25000000  1.0
  Al  Al20  1  0.43687405  0.56312595  0.75000000  1.0
  Al  Al21  1  0.43687405  0.87374810  0.75000000  1.0
  Al  Al22  1  0.87374810  0.43687405  0.25000000  1.0
  Al  Al23  1  0.12625190  0.56312595  0.75000000  1.0
  Al  Al24  1  0.33333333  0.66666667  0.49978513  1.0
  Al  Al25  1  0.33333333  0.66666667  0.00021487  1.0
  Al  Al26  1  0.66666667  0.33333333  0.99978513  1.0
  Al  Al27  1  0.66666667  0.33333333  0.50021487  1.0
  Al  Al28  1  0.00000000  0.00000000  0.25000000  1.0
  Al  Al29  1  0.00000000  0.00000000  0.75000000  1.0
  Ru  Ru30  1  0.50000000  0.50000000  0.50000000  1.0
  Ru  Ru31  1  0.50000000  0.50000000  0.00000000  1.0
  Ru  Ru32  1  0.50000000  0.00000000  0.50000000  1.0
  Ru  Ru33  1  0.50000000  0.00000000  0.00000000  1.0
  Ru  Ru34  1  0.00000000  0.50000000  0.50000000  1.0
  Ru  Ru35  1  0.00000000  0.50000000  0.00000000  1.0
  Ru  Ru36  1  0.00000000  0.00000000  0.50000000  1.0
  Ru  Ru37  1  0.00000000  0.00000000  0.00000000  1.0
