# generated using pymatgen
data_Ba2CaV2CuF14
_symmetry_space_group_name_H-M   'P 1'
_cell_length_a   7.62867901
_cell_length_b   7.62867901
_cell_length_c   15.10326790
_cell_angle_alpha   87.80516853
_cell_angle_beta   92.19483147
_cell_angle_gamma   137.92594652
_symmetry_Int_Tables_number   1
_chemical_formula_structural   Ba2CaV2CuF14
_chemical_formula_sum   'Ba4 Ca2 V4 Cu2 F28'
_cell_volume   588.48742456
_cell_formula_units_Z   2
loop_
 _symmetry_equiv_pos_site_id
 _symmetry_equiv_pos_as_xyz
  1  'x, y, z'
loop_
 _atom_site_type_symbol
 _atom_site_label
 _atom_site_symmetry_multiplicity
 _atom_site_fract_x
 _atom_site_fract_y
 _atom_site_fract_z
 _atom_site_occupancy
  Ba  Ba0  1  0.59453322  0.23334747  0.62444462  1.0
  Ba  Ba1  1  0.76665253  0.40546678  0.12444462  1.0
  Ba  Ba2  1  1.23334747  0.59453322  0.87555538  1.0
  Ba  Ba3  1  0.40546678  -0.23334747  0.37555538  1.0
  Ca  Ca4  1  0.92238208  0.92238208  0.75000000  1.0
  Ca  Ca5  1  0.07761792  0.07761792  0.25000000  1.0
  V  V6  1  0.60128018  0.34950714  0.87536816  1.0
  V  V7  1  0.65049286  0.39871982  0.37536816  1.0
  V  V8  1  1.34950714  0.60128018  0.62463184  1.0
  V  V9  1  0.39871982  -0.34950714  0.12463184  1.0
  Cu  Cu10  1  0.00000000  0.00000000  0.00000000  1.0
  Cu  Cu11  1  0.00000000  -0.00000000  0.50000000  1.0
  F  F12  1  0.57883502  -0.41908468  0.84737094  1.0
  F  F13  1  1.41908468  0.42116498  0.34737094  1.0
  F  F14  1  0.58091532  0.57883502  0.65262906  1.0
  F  F15  1  0.42116498  0.41908468  0.15262906  1.0
  F  F16  1  0.88490661  -0.01132246  0.38279942  1.0
  F  F17  1  1.01132246  0.11509339  0.88279942  1.0
  F  F18  1  0.98867754  0.88490661  0.11720058  1.0
  F  F19  1  0.11509339  0.01132246  0.61720058  1.0
  F  F20  1  0.60120704  -0.09259982  0.54723407  1.0
  F  F21  1  1.09259982  0.39879296  0.04723407  1.0
  F  F22  1  0.90740018  0.60120704  0.95276593  1.0
  F  F23  1  0.39879296  0.09259982  0.45276593  1.0
  F  F24  1  0.53442879  -0.14772959  0.72237770  1.0
  F  F25  1  1.14772959  0.46557121  0.22237770  1.0
  F  F26  1  0.85227041  0.53442879  0.77762230  1.0
  F  F27  1  0.46557121  0.14772959  0.27762230  1.0
  F  F28  1  0.64121087  0.13335780  0.88980486  1.0
  F  F29  1  0.86664220  0.35878913  0.38980486  1.0
  F  F30  1  1.13335780  0.64121087  0.61019514  1.0
  F  F31  1  0.35878913  -0.13335780  0.11019514  1.0
  F  F32  1  0.32735934  0.09725081  0.78869777  1.0
  F  F33  1  0.90274919  0.67264066  0.28869777  1.0
  F  F34  1  1.09725081  0.32735934  0.71130223  1.0
  F  F35  1  0.67264066  -0.09725081  0.21130223  1.0
  F  F36  1  0.40182339  0.21697880  0.97884814  1.0
  F  F37  1  0.78302120  0.59817661  0.47884814  1.0
  F  F38  1  1.21697880  0.40182339  0.52115186  1.0
  F  F39  1  0.59817661  -0.21697880  0.02115186  1.0
