# generated using pymatgen
data_Na2ZnGe
_symmetry_space_group_name_H-M   'P 1'
_cell_length_a   5.93653863
_cell_length_b   5.93653863
_cell_length_c   5.52276878
_cell_angle_alpha   90.00000000
_cell_angle_beta   90.00000000
_cell_angle_gamma   77.61457657
_symmetry_Int_Tables_number   1
_chemical_formula_structural   Na2ZnGe
_chemical_formula_sum   'Na4 Zn2 Ge2'
_cell_volume   190.10633783
_cell_formula_units_Z   2
loop_
 _symmetry_equiv_pos_site_id
 _symmetry_equiv_pos_as_xyz
  1  'x, y, z'
loop_
 _atom_site_type_symbol
 _atom_site_label
 _atom_site_symmetry_multiplicity
 _atom_site_fract_x
 _atom_site_fract_y
 _atom_site_fract_z
 _atom_site_occupancy
  Na  Na0  1  -0.18086607  1.53293608  0.25000000  1.0
  Na  Na1  1  0.53293608  0.81913393  0.75000000  1.0
  Na  Na2  1  -0.53293608  1.18086607  0.25000000  1.0
  Na  Na3  1  0.18086607  0.46706392  0.75000000  1.0
  Zn  Zn4  1  0.00000000  0.00000000  0.50000000  1.0
  Zn  Zn5  1  0.00000000  0.00000000  0.00000000  1.0
  Ge  Ge6  1  0.27185740  0.72814260  0.25000000  1.0
  Ge  Ge7  1  -0.27185740  1.27185740  0.75000000  1.0
