# generated using pymatgen
data_InPt
_symmetry_space_group_name_H-M   'P 1'
_cell_length_a   7.05382240
_cell_length_b   7.05382240
_cell_length_c   7.73282498
_cell_angle_alpha   58.64908470
_cell_angle_beta   121.35091530
_cell_angle_gamma   142.90515107
_symmetry_Int_Tables_number   1
_chemical_formula_structural   InPt
_chemical_formula_sum   'In5 Pt5'
_cell_volume   193.99528950
_cell_formula_units_Z   5
loop_
 _symmetry_equiv_pos_site_id
 _symmetry_equiv_pos_as_xyz
  1  'x, y, z'
loop_
 _atom_site_type_symbol
 _atom_site_label
 _atom_site_symmetry_multiplicity
 _atom_site_fract_x
 _atom_site_fract_y
 _atom_site_fract_z
 _atom_site_occupancy
  In  In0  1  0.87154917  -0.87154917  0.25756920  1.0
  In  In1  1  0.12845083  -0.12845083  0.74243080  1.0
  In  In2  1  0.64848087  0.35151913  0.34444377  1.0
  In  In3  1  1.35151913  -0.35151913  0.65555623  1.0
  In  In4  1  0.00000000  0.00000000  0.00000000  1.0
  Pt  Pt5  1  0.75973294  0.24026706  0.76262446  1.0
  Pt  Pt6  1  1.24026706  -0.24026706  0.23737554  1.0
  Pt  Pt7  1  0.60962047  0.39037953  0.94206983  1.0
  Pt  Pt8  1  1.39037953  -0.39037953  0.05793017  1.0
  Pt  Pt9  1  0.50000000  0.50000000  0.50000000  1.0
