# generated using pymatgen
data_CsCS(OF)3
_symmetry_space_group_name_H-M   'P 1'
_cell_length_a   5.60605493
_cell_length_b   6.20868738
_cell_length_c   10.34530263
_cell_angle_alpha   90.00000000
_cell_angle_beta   103.50775661
_cell_angle_gamma   90.00000000
_symmetry_Int_Tables_number   1
_chemical_formula_structural   CsCS(OF)3
_chemical_formula_sum   'Cs2 C2 S2 O6 F6'
_cell_volume   350.12065944
_cell_formula_units_Z   2
loop_
 _symmetry_equiv_pos_site_id
 _symmetry_equiv_pos_as_xyz
  1  'x, y, z'
loop_
 _atom_site_type_symbol
 _atom_site_label
 _atom_site_symmetry_multiplicity
 _atom_site_fract_x
 _atom_site_fract_y
 _atom_site_fract_z
 _atom_site_occupancy
  Cs  Cs0  1  0.95877792  0.53380943  0.34246327  1.0
  Cs  Cs1  1  0.04122208  0.03380943  0.65753673  1.0
  C  C2  1  0.64170029  0.60937145  0.85608382  1.0
  C  C3  1  0.35829971  0.10937145  0.14391618  1.0
  S  S4  1  0.58077720  0.49851202  0.68280477  1.0
  S  S5  1  0.41922280  -0.00148798  0.31719523  1.0
  O  O6  1  0.80631690  0.55021308  0.63987940  1.0
  O  O7  1  0.19368310  0.05021308  0.36012060  1.0
  O  O8  1  0.45591528  0.76780500  0.29767314  1.0
  O  O9  1  0.54408472  0.26780500  0.70232686  1.0
  O  O10  1  0.36136167  0.61661767  0.61389929  1.0
  O  O11  1  0.63863833  0.11661767  0.38610071  1.0
  F  F12  1  0.83605982  0.51057120  0.93736612  1.0
  F  F13  1  0.16394018  0.01057120  0.06263388  1.0
  F  F14  1  0.69221749  0.82431344  0.85611526  1.0
  F  F15  1  0.30778251  0.32431344  0.14388474  1.0
  F  F16  1  0.44375796  0.58378671  0.90891532  1.0
  F  F17  1  0.55624204  0.08378671  0.09108468  1.0
