# generated using pymatgen
data_Cs(CoSe)2
_symmetry_space_group_name_H-M   'P 1'
_cell_length_a   7.78723666
_cell_length_b   7.78723666
_cell_length_c   7.78723666
_cell_angle_alpha   150.79762354
_cell_angle_beta   150.79762354
_cell_angle_gamma   41.77182426
_symmetry_Int_Tables_number   1
_chemical_formula_structural   Cs(CoSe)2
_chemical_formula_sum   'Cs1 Co2 Se2'
_cell_volume   112.15072331
_cell_formula_units_Z   1
loop_
 _symmetry_equiv_pos_site_id
 _symmetry_equiv_pos_as_xyz
  1  'x, y, z'
loop_
 _atom_site_type_symbol
 _atom_site_label
 _atom_site_symmetry_multiplicity
 _atom_site_fract_x
 _atom_site_fract_y
 _atom_site_fract_z
 _atom_site_occupancy
  Cs  Cs0  1  0.00000000  0.00000000  0.00000000  1.0
  Co  Co1  1  0.75000000  0.25000000  0.50000000  1.0
  Co  Co2  1  0.25000000  0.75000000  0.50000000  1.0
  Se  Se3  1  0.66080684  0.66080684  1.00000000  1.0
  Se  Se4  1  0.33919316  0.33919316  0.00000000  1.0
