# generated using pymatgen
data_NaLaP2H4CO7
_symmetry_space_group_name_H-M   'P 1'
_cell_length_a   6.95360504
_cell_length_b   15.32168041
_cell_length_c   6.85324911
_cell_angle_alpha   90.00000000
_cell_angle_beta   90.79532053
_cell_angle_gamma   90.00000000
_symmetry_Int_Tables_number   1
_chemical_formula_structural   NaLaP2H4CO7
_chemical_formula_sum   'Na4 La4 P8 H16 C4 O28'
_cell_volume   730.08108286
_cell_formula_units_Z   4
loop_
 _symmetry_equiv_pos_site_id
 _symmetry_equiv_pos_as_xyz
  1  'x, y, z'
loop_
 _atom_site_type_symbol
 _atom_site_label
 _atom_site_symmetry_multiplicity
 _atom_site_fract_x
 _atom_site_fract_y
 _atom_site_fract_z
 _atom_site_occupancy
  Na  Na0  1  0.80747829  0.96153885  0.35286210  1.0
  Na  Na1  1  0.19252171  0.46153885  0.14713790  1.0
  Na  Na2  1  0.19252171  0.03846115  0.64713790  1.0
  Na  Na3  1  0.80747829  0.53846115  0.85286210  1.0
  La  La4  1  0.31792106  0.89815284  0.09979572  1.0
  La  La5  1  0.68207894  0.39815284  0.40020428  1.0
  La  La6  1  0.68207894  0.10184716  0.90020428  1.0
  La  La7  1  0.31792106  0.60184716  0.59979572  1.0
  P  P8  1  0.17807475  0.09826004  0.13813205  1.0
  P  P9  1  0.82192525  0.59826004  0.36186795  1.0
  P  P10  1  0.82192525  0.90173996  0.86186795  1.0
  P  P11  1  0.17807475  0.40173996  0.63813205  1.0
  P  P12  1  0.47277864  0.84141039  0.60171845  1.0
  P  P13  1  0.52722136  0.34141039  0.89828155  1.0
  P  P14  1  0.52722136  0.15858961  0.39828155  1.0
  P  P15  1  0.47277864  0.65858961  0.10171845  1.0
  H  H16  1  0.04526964  0.77376297  0.38233648  1.0
  H  H17  1  0.95473036  0.27376297  0.11766352  1.0
  H  H18  1  0.95473036  0.22623703  0.61766352  1.0
  H  H19  1  0.04526964  0.72623703  0.88233648  1.0
  H  H20  1  0.12023501  0.84750371  0.51262739  1.0
  H  H21  1  0.87976499  0.34750371  -0.01262739  1.0
  H  H22  1  0.87976499  0.15249629  0.48737261  1.0
  H  H23  1  0.12023501  0.65249629  1.01262739  1.0
  H  H24  1  0.33078354  0.23664901  0.17435859  1.0
  H  H25  1  0.66921646  0.73664901  0.32564141  1.0
  H  H26  1  0.66921646  0.76335099  0.82564141  1.0
  H  H27  1  0.33078354  0.26335099  0.67435859  1.0
  H  H28  1  0.19948014  0.20903100  0.38395244  1.0
  H  H29  1  0.80051986  0.70903100  0.11604756  1.0
  H  H30  1  0.80051986  0.79096900  0.61604756  1.0
  H  H31  1  0.19948014  0.29096900  0.88395244  1.0
  C  C32  1  0.29956779  0.18315067  0.27573736  1.0
  C  C33  1  0.70043221  0.68315067  0.22426264  1.0
  C  C34  1  0.70043221  0.81684933  0.72426264  1.0
  C  C35  1  0.29956779  0.31684933  0.77573736  1.0
  O  O36  1  0.34909689  0.89988786  0.73425235  1.0
  O  O37  1  0.65090310  0.39988786  0.76574765  1.0
  O  O38  1  0.65090310  0.10011214  0.26574765  1.0
  O  O39  1  0.34909689  0.60011214  0.23425235  1.0
  O  O40  1  -0.00139428  0.85786323  0.95761654  1.0
  O  O41  1  1.00139428  0.35786323  0.54238346  1.0
  O  O42  1  1.00139428  0.14213677  0.04238346  1.0
  O  O43  1  -0.00139428  0.64213677  0.45761654  1.0
  O  O44  1  0.67853943  0.93859785  0.01637900  1.0
  O  O45  1  0.32146057  0.43859785  0.48362100  1.0
  O  O46  1  0.32146057  0.06140215  0.98362100  1.0
  O  O47  1  0.67853943  0.56140215  0.51637900  1.0
  O  O48  1  0.37840849  0.74895176  0.06870135  1.0
  O  O49  1  0.62159151  0.24895176  0.43129865  1.0
  O  O50  1  0.62159151  0.25104824  0.93129865  1.0
  O  O51  1  0.37840849  0.75104824  0.56870135  1.0
  O  O52  1  0.05481673  0.83788535  0.38688499  1.0
  O  O53  1  0.94518327  0.33788535  0.11311501  1.0
  O  O54  1  0.94518327  0.16211465  0.61311501  1.0
  O  O55  1  0.05481673  0.66211465  0.88688499  1.0
  O  O56  1  0.12792560  0.02081123  0.27555147  1.0
  O  O57  1  0.87207440  0.52081123  0.22444853  1.0
  O  O58  1  0.87207440  0.97918877  0.72444853  1.0
  O  O59  1  0.12792560  0.47918877  0.77555147  1.0
  O  O60  1  0.51329887  0.88693330  0.40473543  1.0
  O  O61  1  0.48670113  0.38693330  0.09526457  1.0
  O  O62  1  0.48670113  0.11306670  0.59526457  1.0
  O  O63  1  0.51329887  0.61306670  0.90473543  1.0
