# generated using pymatgen
data_SnH4
_symmetry_space_group_name_H-M   'P 1'
_cell_length_a   5.43989380
_cell_length_b   5.43989380
_cell_length_c   9.59898489
_cell_angle_alpha   67.24398915
_cell_angle_beta   112.75601085
_cell_angle_gamma   123.64631896
_symmetry_Int_Tables_number   1
_chemical_formula_structural   SnH4
_chemical_formula_sum   'Sn2 H8'
_cell_volume   212.48757022
_cell_formula_units_Z   2
loop_
 _symmetry_equiv_pos_site_id
 _symmetry_equiv_pos_as_xyz
  1  'x, y, z'
loop_
 _atom_site_type_symbol
 _atom_site_label
 _atom_site_symmetry_multiplicity
 _atom_site_fract_x
 _atom_site_fract_y
 _atom_site_fract_z
 _atom_site_occupancy
  Sn  Sn0  1  0.93191561  0.93191561  0.25000000  1.0
  Sn  Sn1  1  0.06808439  0.06808439  0.75000000  1.0
  H  H2  1  1.70978620  -0.23306236  0.09361573  1.0
  H  H3  1  1.23306236  -0.70978620  0.59361573  1.0
  H  H4  1  0.76693764  0.70978620  0.40638427  1.0
  H  H5  1  0.29021380  0.23306236  0.90638427  1.0
  H  H6  1  0.28541388  -0.03525907  0.29493938  1.0
  H  H7  1  1.03525907  -0.28541388  0.79493938  1.0
  H  H8  1  0.96474093  0.28541388  0.20506062  1.0
  H  H9  1  1.71458612  0.03525907  0.70506062  1.0
