# generated using pymatgen
data_K(WO3)3
_symmetry_space_group_name_H-M   'P 1'
_cell_length_a   7.46369675
_cell_length_b   7.46369675
_cell_length_c   7.67585987
_cell_angle_alpha   90.00000000
_cell_angle_beta   90.00000000
_cell_angle_gamma   120.00000000
_symmetry_Int_Tables_number   1
_chemical_formula_structural   K(WO3)3
_chemical_formula_sum   'K2 W6 O18'
_cell_volume   370.31017113
_cell_formula_units_Z   2
loop_
 _symmetry_equiv_pos_site_id
 _symmetry_equiv_pos_as_xyz
  1  'x, y, z'
loop_
 _atom_site_type_symbol
 _atom_site_label
 _atom_site_symmetry_multiplicity
 _atom_site_fract_x
 _atom_site_fract_y
 _atom_site_fract_z
 _atom_site_occupancy
  K  K0  1  0.00000000  0.00000000  0.50000000  1.0
  K  K1  1  -0.00000000  -0.00000000  0.00000000  1.0
  W  W2  1  0.51111023  0.51111023  0.25000000  1.0
  W  W3  1  0.51111023  -0.00000000  0.75000000  1.0
  W  W4  1  0.00000000  0.51111023  0.75000000  1.0
  W  W5  1  -0.00000000  0.48888977  0.25000000  1.0
  W  W6  1  0.48888977  0.48888977  0.75000000  1.0
  W  W7  1  0.48888977  0.00000000  0.25000000  1.0
  O  O8  1  0.20885663  0.78727299  0.25000000  1.0
  O  O9  1  0.20885663  0.42158365  0.75000000  1.0
  O  O10  1  0.78727299  0.20885663  0.25000000  1.0
  O  O11  1  0.78727299  0.57841635  0.75000000  1.0
  O  O12  1  0.57841635  0.78727299  0.75000000  1.0
  O  O13  1  0.57841635  0.79114337  0.25000000  1.0
  O  O14  1  0.21272701  0.79114337  0.75000000  1.0
  O  O15  1  0.21272701  0.42158365  0.25000000  1.0
  O  O16  1  0.79114337  0.57841635  0.25000000  1.0
  O  O17  1  0.79114337  0.21272701  0.75000000  1.0
  O  O18  1  0.42158365  0.20885663  0.75000000  1.0
  O  O19  1  0.42158365  0.21272701  0.25000000  1.0
  O  O20  1  0.50000000  0.50000000  0.50000000  1.0
  O  O21  1  0.50000000  0.50000000  0.00000000  1.0
  O  O22  1  0.50000000  0.00000000  0.00000000  1.0
  O  O23  1  0.50000000  -0.00000000  0.50000000  1.0
  O  O24  1  -0.00000000  0.50000000  0.00000000  1.0
  O  O25  1  -0.00000000  0.50000000  0.50000000  1.0
