# generated using pymatgen
data_ScCoB4
_symmetry_space_group_name_H-M   'P 1'
_cell_length_a   5.76809392
_cell_length_b   11.16229314
_cell_length_c   3.21562765
_cell_angle_alpha   90.00000000
_cell_angle_beta   90.00000000
_cell_angle_gamma   90.00000000
_symmetry_Int_Tables_number   1
_chemical_formula_structural   ScCoB4
_chemical_formula_sum   'Sc4 Co4 B16'
_cell_volume   207.03868512
_cell_formula_units_Z   4
loop_
 _symmetry_equiv_pos_site_id
 _symmetry_equiv_pos_as_xyz
  1  'x, y, z'
loop_
 _atom_site_type_symbol
 _atom_site_label
 _atom_site_symmetry_multiplicity
 _atom_site_fract_x
 _atom_site_fract_y
 _atom_site_fract_z
 _atom_site_occupancy
  Sc  Sc0  1  0.12998465  0.64962503  0.50000000  1.0
  Sc  Sc1  1  0.62998465  0.85037497  0.50000000  1.0
  Sc  Sc2  1  0.87001535  0.35037497  0.50000000  1.0
  Sc  Sc3  1  0.37001535  0.14962503  0.50000000  1.0
  Co  Co4  1  0.13617814  0.90990422  0.50000000  1.0
  Co  Co5  1  0.63617814  0.59009578  0.50000000  1.0
  Co  Co6  1  0.86382186  0.09009578  0.50000000  1.0
  Co  Co7  1  0.36382186  0.40990422  0.50000000  1.0
  B  B8  1  0.47841496  0.69387893  0.00000000  1.0
  B  B9  1  0.97841496  0.80612107  0.00000000  1.0
  B  B10  1  0.52158504  0.30612107  0.00000000  1.0
  B  B11  1  0.02158504  0.19387893  0.00000000  1.0
  B  B12  1  0.38651655  0.54782239  0.00000000  1.0
  B  B13  1  0.88651655  0.95217761  0.00000000  1.0
  B  B14  1  0.61348345  0.45217761  0.00000000  1.0
  B  B15  1  0.11348345  0.04782239  0.00000000  1.0
  B  B16  1  0.36507217  0.96847751  0.00000000  1.0
  B  B17  1  0.86507217  0.53152249  0.00000000  1.0
  B  B18  1  0.63492783  0.03152249  0.00000000  1.0
  B  B19  1  0.13492783  0.46847751  0.00000000  1.0
  B  B20  1  0.28887649  0.81384656  0.00000000  1.0
  B  B21  1  0.78887649  0.68615344  0.00000000  1.0
  B  B22  1  0.71112351  0.18615344  0.00000000  1.0
  B  B23  1  0.21112351  0.31384656  0.00000000  1.0
