# generated using pymatgen
data_Mg2P2O7
_symmetry_space_group_name_H-M   'P 1'
_cell_length_a   5.32036768
_cell_length_b   5.32036768
_cell_length_c   4.55918179
_cell_angle_alpha   81.45926664
_cell_angle_beta   98.54073336
_cell_angle_gamma   75.96921476
_symmetry_Int_Tables_number   1
_chemical_formula_structural   Mg2P2O7
_chemical_formula_sum   'Mg2 P2 O7'
_cell_volume   121.50347138
_cell_formula_units_Z   1
loop_
 _symmetry_equiv_pos_site_id
 _symmetry_equiv_pos_as_xyz
  1  'x, y, z'
loop_
 _atom_site_type_symbol
 _atom_site_label
 _atom_site_symmetry_multiplicity
 _atom_site_fract_x
 _atom_site_fract_y
 _atom_site_fract_z
 _atom_site_occupancy
  Mg  Mg0  1  0.68769981  -0.31230019  -0.00000000  1.0
  Mg  Mg1  1  1.31230019  0.31230019  -0.00000000  1.0
  P  P2  1  0.78100515  -0.78100515  0.59417278  1.0
  P  P3  1  0.21899485  -0.21899485  0.40582722  1.0
  O  O4  1  0.38142475  -0.38142475  0.71314321  1.0
  O  O5  1  0.61857525  -0.61857525  0.28685679  1.0
  O  O6  1  -0.00000000  0.00000000  0.50000000  1.0
  O  O7  1  1.62255448  0.07265607  0.78036818  1.0
  O  O8  1  0.92734393  -0.62255448  0.78036818  1.0
  O  O9  1  1.07265607  0.62255448  0.21963182  1.0
  O  O10  1  0.37744552  -0.07265607  0.21963182  1.0
