# generated using pymatgen
data_CsGaS2
_symmetry_space_group_name_H-M   'P 1'
_cell_length_a   7.28814546
_cell_length_b   7.28814546
_cell_length_c   5.98406843
_cell_angle_alpha   78.22314804
_cell_angle_beta   101.77685196
_cell_angle_gamma   63.71986731
_symmetry_Int_Tables_number   1
_chemical_formula_structural   CsGaS2
_chemical_formula_sum   'Cs2 Ga2 S4'
_cell_volume   262.83475834
_cell_formula_units_Z   2
loop_
 _symmetry_equiv_pos_site_id
 _symmetry_equiv_pos_as_xyz
  1  'x, y, z'
loop_
 _atom_site_type_symbol
 _atom_site_label
 _atom_site_symmetry_multiplicity
 _atom_site_fract_x
 _atom_site_fract_y
 _atom_site_fract_z
 _atom_site_occupancy
  Cs  Cs0  1  0.85613250  -0.14386750  0.25000000  1.0
  Cs  Cs1  1  1.14386750  0.14386750  0.75000000  1.0
  Ga  Ga2  1  1.49616597  0.49616597  0.25000000  1.0
  Ga  Ga3  1  0.50383403  -0.49616597  0.75000000  1.0
  S  S4  1  0.42120754  -0.22297463  0.40530696  1.0
  S  S5  1  1.22297463  0.57879246  0.90530696  1.0
  S  S6  1  0.77702537  -0.57879246  0.09469304  1.0
  S  S7  1  1.57879246  0.22297463  0.59469304  1.0
