# generated using pymatgen
data_V2CdO6
_symmetry_space_group_name_H-M   'P 1'
_cell_length_a   5.49921903
_cell_length_b   5.49921903
_cell_length_c   7.21554263
_cell_angle_alpha   79.81976858
_cell_angle_beta   100.18023142
_cell_angle_gamma   141.68364335
_symmetry_Int_Tables_number   1
_chemical_formula_structural   V2CdO6
_chemical_formula_sum   'V2 Cd1 O6'
_cell_volume   132.90043475
_cell_formula_units_Z   1
loop_
 _symmetry_equiv_pos_site_id
 _symmetry_equiv_pos_as_xyz
  1  'x, y, z'
loop_
 _atom_site_type_symbol
 _atom_site_label
 _atom_site_symmetry_multiplicity
 _atom_site_fract_x
 _atom_site_fract_y
 _atom_site_fract_z
 _atom_site_occupancy
  V  V0  1  0.75327889  0.24672111  0.82252982  1.0
  V  V1  1  0.24672111  -0.24672111  0.17747018  1.0
  Cd  Cd2  1  -0.00000000  0.00000000  0.50000000  1.0
  O  O3  1  0.89104032  0.10895968  0.74308000  1.0
  O  O4  1  0.10895968  -0.10895968  0.25692000  1.0
  O  O5  1  0.62578412  0.37421588  0.63768602  1.0
  O  O6  1  0.37421588  -0.37421588  0.36231398  1.0
  O  O7  1  0.23925160  -0.23925160  0.89615715  1.0
  O  O8  1  0.76074840  0.23925160  0.10384285  1.0
