# generated using pymatgen
data_Rb2NbAgS2
_symmetry_space_group_name_H-M   'P 1'
_cell_length_a   19.08431004
_cell_length_b   18.29637528
_cell_length_c   6.91070196
_cell_angle_alpha   85.84914510
_cell_angle_beta   72.97912762
_cell_angle_gamma   21.17172728
_symmetry_Int_Tables_number   1
_chemical_formula_structural   Rb2NbAgS2
_chemical_formula_sum   'Rb8 Nb4 Ag4 S8'
_cell_volume   678.36326228
_cell_formula_units_Z   4
loop_
 _symmetry_equiv_pos_site_id
 _symmetry_equiv_pos_as_xyz
  1  'x, y, z'
loop_
 _atom_site_type_symbol
 _atom_site_label
 _atom_site_symmetry_multiplicity
 _atom_site_fract_x
 _atom_site_fract_y
 _atom_site_fract_z
 _atom_site_occupancy
  Rb  Rb0  1  1.10549685  0.46929929  0.62852155  1.0
  Rb  Rb1  1  0.79668230  0.62852155  0.46929929  1.0
  Rb  Rb2  1  0.78070071  1.14450315  0.45331770  1.0
  Rb  Rb3  1  0.62147845  0.45331770  1.14450315  1.0
  Rb  Rb4  1  1.62852155  -0.20331770  0.10549685  1.0
  Rb  Rb5  1  1.46929929  0.10549685  -0.20331770  1.0
  Rb  Rb6  1  0.45331770  0.62147845  0.78070071  1.0
  Rb  Rb7  1  1.14450315  0.78070071  0.62147845  1.0
  Nb  Nb8  1  1.12500000  0.12500000  0.62500000  1.0
  Nb  Nb9  1  1.12500000  0.62500000  0.12500000  1.0
  Nb  Nb10  1  1.12500000  0.12500000  0.12500000  1.0
  Nb  Nb11  1  1.62500000  0.12500000  0.12500000  1.0
  Ag  Ag12  1  0.62500000  0.62500000  1.12500000  1.0
  Ag  Ag13  1  0.62500000  1.12500000  0.62500000  1.0
  Ag  Ag14  1  0.62500000  0.62500000  0.62500000  1.0
  Ag  Ag15  1  1.12500000  0.62500000  0.62500000  1.0
  S  S16  1  1.13130868  -0.00875239  0.63000644  1.0
  S  S17  1  1.24743727  0.63000644  -0.00875239  1.0
  S  S18  1  0.25875239  1.11869132  1.00256273  1.0
  S  S19  1  0.61999356  1.00256273  1.11869132  1.0
  S  S20  1  1.63000644  0.24743727  0.13130868  1.0
  S  S21  1  0.99124761  0.13130868  0.24743727  1.0
  S  S22  1  1.00256273  0.61999356  0.25875239  1.0
  S  S23  1  1.11869132  0.25875239  0.61999356  1.0
