# generated using pymatgen
data_La(Sn2Rh)2
_symmetry_space_group_name_H-M   'P 1'
_cell_length_a   18.76321436
_cell_length_b   4.57044212
_cell_length_c   7.24912714
_cell_angle_alpha   90.00000000
_cell_angle_beta   90.00000000
_cell_angle_gamma   90.00000000
_symmetry_Int_Tables_number   1
_chemical_formula_structural   La(Sn2Rh)2
_chemical_formula_sum   'La4 Sn16 Rh8'
_cell_volume   621.65748972
_cell_formula_units_Z   4
loop_
 _symmetry_equiv_pos_site_id
 _symmetry_equiv_pos_as_xyz
  1  'x, y, z'
loop_
 _atom_site_type_symbol
 _atom_site_label
 _atom_site_symmetry_multiplicity
 _atom_site_fract_x
 _atom_site_fract_y
 _atom_site_fract_z
 _atom_site_occupancy
  La  La0  1  0.14148290  0.75000000  0.50152693  1.0
  La  La1  1  0.64148290  0.75000000  0.99847307  1.0
  La  La2  1  0.85851710  0.25000000  0.49847307  1.0
  La  La3  1  0.35851710  0.25000000  0.00152693  1.0
  Sn  Sn4  1  0.06787445  0.75000000  0.98051144  1.0
  Sn  Sn5  1  0.56787445  0.75000000  0.51948856  1.0
  Sn  Sn6  1  0.93212555  0.25000000  0.01948856  1.0
  Sn  Sn7  1  0.43212555  0.25000000  0.48051144  1.0
  Sn  Sn8  1  0.46873216  0.75000000  0.86431398  1.0
  Sn  Sn9  1  0.96873216  0.75000000  0.63568602  1.0
  Sn  Sn10  1  0.53126784  0.25000000  0.13568602  1.0
  Sn  Sn11  1  0.03126784  0.25000000  0.36431398  1.0
  Sn  Sn12  1  0.31805269  0.75000000  0.30269387  1.0
  Sn  Sn13  1  0.81805269  0.75000000  0.19730613  1.0
  Sn  Sn14  1  0.68194731  0.25000000  0.69730613  1.0
  Sn  Sn15  1  0.18194731  0.25000000  0.80269387  1.0
  Sn  Sn16  1  0.30481711  0.75000000  0.71980757  1.0
  Sn  Sn17  1  0.80481711  0.75000000  0.78019243  1.0
  Sn  Sn18  1  0.69518289  0.25000000  0.28019243  1.0
  Sn  Sn19  1  0.19518289  0.25000000  0.21980757  1.0
  Rh  Rh20  1  0.21284571  0.75000000  0.01525379  1.0
  Rh  Rh21  1  0.71284571  0.75000000  0.48474621  1.0
  Rh  Rh22  1  0.78715429  0.25000000  0.98474621  1.0
  Rh  Rh23  1  0.28715429  0.25000000  0.51525379  1.0
  Rh  Rh24  1  0.46593486  0.75000000  0.25128360  1.0
  Rh  Rh25  1  0.96593486  0.75000000  0.24871640  1.0
  Rh  Rh26  1  0.53406514  0.25000000  0.74871640  1.0
  Rh  Rh27  1  0.03406514  0.25000000  0.75128360  1.0
