# generated using pymatgen
data_MgTi2(PO5)2
_symmetry_space_group_name_H-M   'P 1'
_cell_length_a   7.42724957
_cell_length_b   7.49679256
_cell_length_c   7.45179259
_cell_angle_alpha   90.00000000
_cell_angle_beta   119.70970010
_cell_angle_gamma   90.00000000
_symmetry_Int_Tables_number   1
_chemical_formula_structural   MgTi2(PO5)2
_chemical_formula_sum   'Mg2 Ti4 P4 O20'
_cell_volume   360.37769641
_cell_formula_units_Z   2
loop_
 _symmetry_equiv_pos_site_id
 _symmetry_equiv_pos_as_xyz
  1  'x, y, z'
loop_
 _atom_site_type_symbol
 _atom_site_label
 _atom_site_symmetry_multiplicity
 _atom_site_fract_x
 _atom_site_fract_y
 _atom_site_fract_z
 _atom_site_occupancy
  Mg  Mg0  1  0.00000000  0.50000000  0.50000000  1.0
  Mg  Mg1  1  0.00000000  0.00000000  0.00000000  1.0
  Ti  Ti2  1  0.73397107  0.22196961  0.20478845  1.0
  Ti  Ti3  1  0.73397107  0.27803039  0.70478845  1.0
  Ti  Ti4  1  0.26602893  0.72196961  0.29521155  1.0
  Ti  Ti5  1  0.26602893  0.77803039  0.79521155  1.0
  P  P6  1  0.75558374  0.88168094  0.50534362  1.0
  P  P7  1  0.75558374  0.61831906  0.00534362  1.0
  P  P8  1  0.24441626  0.38168094  0.99465638  1.0
  P  P9  1  0.24441626  0.11831906  0.49465638  1.0
  O  O10  1  0.94061316  0.74953304  0.08361459  1.0
  O  O11  1  0.94061316  0.75046696  0.58361459  1.0
  O  O12  1  0.05938684  0.24953304  0.41638541  1.0
  O  O13  1  0.05938684  0.25046696  0.91638541  1.0
  O  O14  1  0.78996258  0.49402950  0.18752231  1.0
  O  O15  1  0.78996258  1.00597050  0.68752231  1.0
  O  O16  1  0.21003742  -0.00597050  0.31247769  1.0
  O  O17  1  0.21003742  0.50597050  0.81247769  1.0
  O  O18  1  0.76928235  0.34218082  0.50134618  1.0
  O  O19  1  0.76928235  0.15781918  1.00134618  1.0
  O  O20  1  0.23071765  0.84218082  -0.00134618  1.0
  O  O21  1  0.23071765  0.65781918  0.49865382  1.0
  O  O22  1  0.73704745  0.99525752  0.32320566  1.0
  O  O23  1  0.73704745  0.50474248  0.82320566  1.0
  O  O24  1  0.26295255  0.49525752  0.17679434  1.0
  O  O25  1  0.26295255  0.00474248  0.67679434  1.0
  O  O26  1  0.44425623  0.27049719  0.06974183  1.0
  O  O27  1  0.44425623  0.22950281  0.56974183  1.0
  O  O28  1  0.55574377  0.77049719  0.43025817  1.0
  O  O29  1  0.55574377  0.72950281  0.93025817  1.0
