# generated using pymatgen
data_Sr3Ga2Cl2O5
_symmetry_space_group_name_H-M   'P 1'
_cell_length_a   9.64332721
_cell_length_b   9.65099969
_cell_length_c   9.67046632
_cell_angle_alpha   90.00000000
_cell_angle_beta   90.00021267
_cell_angle_gamma   90.00000000
_symmetry_Int_Tables_number   1
_chemical_formula_structural   Sr3Ga2Cl2O5
_chemical_formula_sum   'Sr12 Ga8 Cl8 O20'
_cell_volume   900.00852207
_cell_formula_units_Z   4
loop_
 _symmetry_equiv_pos_site_id
 _symmetry_equiv_pos_as_xyz
  1  'x, y, z'
loop_
 _atom_site_type_symbol
 _atom_site_label
 _atom_site_symmetry_multiplicity
 _atom_site_fract_x
 _atom_site_fract_y
 _atom_site_fract_z
 _atom_site_occupancy
  Sr  Sr0  1  1.00305373  0.80777551  0.16662822  1.0
  Sr  Sr1  1  -0.00305373  0.30777551  0.83337178  1.0
  Sr  Sr2  1  0.91806102  0.57609753  0.50571233  1.0
  Sr  Sr3  1  0.08193898  0.07609753  0.49428767  1.0
  Sr  Sr4  1  0.77391843  0.94826343  0.76290241  1.0
  Sr  Sr5  1  0.22608157  0.44826343  0.23709759  1.0
  Sr  Sr6  1  0.50304663  0.75691700  0.33336950  1.0
  Sr  Sr7  1  0.49695337  0.25691700  0.66663050  1.0
  Sr  Sr8  1  0.41804983  0.98860283  0.99429051  1.0
  Sr  Sr9  1  0.58195017  0.48860283  0.00570949  1.0
  Sr  Sr10  1  0.27392760  0.61642450  0.73711361  1.0
  Sr  Sr11  1  0.72607240  0.11642450  0.26288639  1.0
  Ga  Ga12  1  0.90475950  0.63968274  0.84534972  1.0
  Ga  Ga13  1  0.09524050  0.13968274  0.15465028  1.0
  Ga  Ga14  1  0.60297198  0.62212629  0.64539792  1.0
  Ga  Ga15  1  0.39702802  0.12212629  0.35460208  1.0
  Ga  Ga16  1  0.40475406  0.92500927  0.65464993  1.0
  Ga  Ga17  1  0.59524594  0.42500927  0.34535007  1.0
  Ga  Ga18  1  0.10296854  0.94257087  0.85459400  1.0
  Ga  Ga19  1  0.89703146  0.44257087  0.14540600  1.0
  Cl  Cl20  1  0.83109210  0.26888211  0.56543855  1.0
  Cl  Cl21  1  0.16890790  0.76888211  0.43456145  1.0
  Cl  Cl22  1  0.78396873  0.87819927  0.45250224  1.0
  Cl  Cl23  1  0.21603127  0.37819927  0.54749776  1.0
  Cl  Cl24  1  0.71599865  0.18653071  0.95247678  1.0
  Cl  Cl25  1  0.28400135  0.68653071  0.04752322  1.0
  Cl  Cl26  1  0.66893565  0.79584705  0.06545126  1.0
  Cl  Cl27  1  0.33106435  0.29584705  0.93454874  1.0
  O  O28  1  0.98907764  0.56432840  0.25802172  1.0
  O  O29  1  0.01092236  0.06432840  0.74197828  1.0
  O  O30  1  0.96835085  0.04531941  0.26044460  1.0
  O  O31  1  0.03164915  0.54531941  0.73955540  1.0
  O  O32  1  0.96603600  0.81208343  0.91089925  1.0
  O  O33  1  0.03396400  0.31208343  0.08910075  1.0
  O  O34  1  0.83872694  0.50842451  0.97095065  1.0
  O  O35  1  0.16127306  0.00842451  0.02904935  1.0
  O  O36  1  0.76623192  0.69463210  0.71868432  1.0
  O  O37  1  0.23376808  0.19463210  0.28131568  1.0
  O  O38  1  0.66127448  0.55628209  0.47093981  1.0
  O  O39  1  0.33872552  0.05628209  0.52906019  1.0
  O  O40  1  0.53164037  0.01936744  0.76045444  1.0
  O  O41  1  0.46835963  0.51936744  0.23954556  1.0
  O  O42  1  0.51093591  0.50036824  0.75801938  1.0
  O  O43  1  0.48906409  0.00036824  0.24198062  1.0
  O  O44  1  0.46602952  0.75260848  0.58909820  1.0
  O  O45  1  0.53397048  0.25260848  0.41090180  1.0
  O  O46  1  0.26622652  0.87005678  0.78131413  1.0
  O  O47  1  0.73377348  0.37005678  0.21868587  1.0
