# generated using pymatgen
data_CaPH4O5F
_symmetry_space_group_name_H-M   'P 1'
_cell_length_a   5.79631675
_cell_length_b   8.62393294
_cell_length_c   6.15660028
_cell_angle_alpha   66.76769653
_cell_angle_beta   65.81197915
_cell_angle_gamma   70.74419410
_symmetry_Int_Tables_number   1
_chemical_formula_structural   CaPH4O5F
_chemical_formula_sum   'Ca2 P2 H8 O10 F2'
_cell_volume   252.72346389
_cell_formula_units_Z   2
loop_
 _symmetry_equiv_pos_site_id
 _symmetry_equiv_pos_as_xyz
  1  'x, y, z'
loop_
 _atom_site_type_symbol
 _atom_site_label
 _atom_site_symmetry_multiplicity
 _atom_site_fract_x
 _atom_site_fract_y
 _atom_site_fract_z
 _atom_site_occupancy
  Ca  Ca0  1  -0.47476267  0.85316643  -0.67727429  1.0
  Ca  Ca1  1  -0.52523733  0.14683357  0.67727429  1.0
  P  P2  1  -0.94463628  0.84848671  -0.19841579  1.0
  P  P3  1  -0.05536372  0.15151329  0.19841579  1.0
  H  H4  1  -0.88868544  0.33288439  0.36599822  1.0
  H  H5  1  -0.11131456  0.66711561  -0.36599822  1.0
  H  H6  1  -0.38976394  0.63454523  0.01558549  1.0
  H  H7  1  -0.61023606  0.36545477  -0.01558549  1.0
  H  H8  1  -0.30655041  0.49049237  0.24031094  1.0
  H  H9  1  -0.69344959  0.50950763  -0.24031094  1.0
  H  H10  1  -0.72538456  0.47144233  0.31228835  1.0
  H  H11  1  -0.27461544  0.52855767  -0.31228835  1.0
  O  O12  1  -0.86449882  0.71819053  -0.34289360  1.0
  O  O13  1  -0.13550118  0.28180947  0.34289360  1.0
  O  O14  1  -0.75162860  0.96733530  -0.32290917  1.0
  O  O15  1  -0.24837140  0.03266470  0.32290917  1.0
  O  O16  1  -0.72051764  0.34873813  0.35545942  1.0
  O  O17  1  -0.27948236  0.65126187  -0.35545942  1.0
  O  O18  1  -0.42085726  0.60484606  0.19530760  1.0
  O  O19  1  -0.57914274  0.39515394  -0.19530760  1.0
  O  O20  1  -0.23034203  0.93422572  -0.12604201  1.0
  O  O21  1  -0.76965797  0.06577428  0.12604201  1.0
  F  F22  1  -0.90891933  0.73241422  0.07165891  1.0
  F  F23  1  -0.09108067  0.26758578  -0.07165891  1.0
