# generated using pymatgen
data_NaMoP2O7
_symmetry_space_group_name_H-M   'P 1'
_cell_length_a   7.52473862
_cell_length_b   8.25768268
_cell_length_c   9.87094104
_cell_angle_alpha   90.00000000
_cell_angle_beta   111.55215283
_cell_angle_gamma   90.00000000
_symmetry_Int_Tables_number   1
_chemical_formula_structural   NaMoP2O7
_chemical_formula_sum   'Na4 Mo4 P8 O28'
_cell_volume   570.46649689
_cell_formula_units_Z   4
loop_
 _symmetry_equiv_pos_site_id
 _symmetry_equiv_pos_as_xyz
  1  'x, y, z'
loop_
 _atom_site_type_symbol
 _atom_site_label
 _atom_site_symmetry_multiplicity
 _atom_site_fract_x
 _atom_site_fract_y
 _atom_site_fract_z
 _atom_site_occupancy
  Na  Na0  1  0.71299898  0.52133496  0.71144826  1.0
  Na  Na1  1  0.71299898  0.97866504  0.21144826  1.0
  Na  Na2  1  0.28700102  0.02133496  0.78855174  1.0
  Na  Na3  1  0.28700102  0.47866504  0.28855174  1.0
  Mo  Mo4  1  0.74284034  0.99439411  0.75037109  1.0
  Mo  Mo5  1  0.74284034  0.50560589  0.25037109  1.0
  Mo  Mo6  1  0.25715966  0.49439411  0.74962891  1.0
  Mo  Mo7  1  0.25715966  0.00560589  0.24962891  1.0
  P  P8  1  0.92684535  0.74567084  0.54323028  1.0
  P  P9  1  0.92684535  0.75432916  0.04323028  1.0
  P  P10  1  0.07315465  0.24567084  0.95676972  1.0
  P  P11  1  0.07315465  0.25432916  0.45676972  1.0
  P  P12  1  0.67221422  0.28494706  0.95344621  1.0
  P  P13  1  0.67221422  0.21505294  0.45344621  1.0
  P  P14  1  0.32778578  0.78494706  0.54655379  1.0
  P  P15  1  0.32778578  0.71505294  0.04655379  1.0
  O  O16  1  0.97828008  0.58898877  0.63521129  1.0
  O  O17  1  0.97828008  0.91101123  0.13521129  1.0
  O  O18  1  0.02171992  0.08898877  0.86478871  1.0
  O  O19  1  0.02171992  0.41101123  0.36478871  1.0
  O  O20  1  0.87405686  0.33858478  0.93852272  1.0
  O  O21  1  0.87405686  0.16141522  0.43852272  1.0
  O  O22  1  0.12594314  0.83858478  0.56147728  1.0
  O  O23  1  0.12594314  0.66141522  0.06147728  1.0
  O  O24  1  0.82038975  0.86758063  0.60029813  1.0
  O  O25  1  0.82038975  0.63241937  0.10029813  1.0
  O  O26  1  0.17961025  0.36758063  0.89970187  1.0
  O  O27  1  0.17961025  0.13241937  0.39970187  1.0
  O  O28  1  0.81736371  0.78345719  0.87990878  1.0
  O  O29  1  0.81736371  0.71654281  0.37990878  1.0
  O  O30  1  0.18263629  0.28345719  0.62009122  1.0
  O  O31  1  0.18263629  0.21654281  0.12009122  1.0
  O  O32  1  0.46205953  0.90863607  0.64946243  1.0
  O  O33  1  0.46205953  0.59136393  0.14946243  1.0
  O  O34  1  0.53794047  0.40863607  0.85053757  1.0
  O  O35  1  0.53794047  0.09136393  0.35053757  1.0
  O  O36  1  0.36799418  0.60780729  0.60049870  1.0
  O  O37  1  0.36799418  0.89219271  0.10049870  1.0
  O  O38  1  0.63200582  0.10780729  0.89950130  1.0
  O  O39  1  0.63200582  0.39219271  0.39950130  1.0
  O  O40  1  0.30986047  0.70531404  0.88674608  1.0
  O  O41  1  0.30986047  0.79468596  0.38674608  1.0
  O  O42  1  0.69013953  0.20531404  0.61325392  1.0
  O  O43  1  0.69013953  0.29468596  0.11325392  1.0
