# generated using pymatgen
data_Mg(Co3P2)2
_symmetry_space_group_name_H-M   'P 1'
_cell_length_a   6.55704352
_cell_length_b   6.55704352
_cell_length_c   3.36004091
_cell_angle_alpha   90.00000000
_cell_angle_beta   90.00000000
_cell_angle_gamma   120.00000000
_symmetry_Int_Tables_number   1
_chemical_formula_structural   Mg(Co3P2)2
_chemical_formula_sum   'Mg1 Co6 P4'
_cell_volume   125.10979988
_cell_formula_units_Z   1
loop_
 _symmetry_equiv_pos_site_id
 _symmetry_equiv_pos_as_xyz
  1  'x, y, z'
loop_
 _atom_site_type_symbol
 _atom_site_label
 _atom_site_symmetry_multiplicity
 _atom_site_fract_x
 _atom_site_fract_y
 _atom_site_fract_z
 _atom_site_occupancy
  Mg  Mg0  1  0.00000000  0.00000000  0.00000000  1.0
  Co  Co1  1  0.60170955  0.80085477  0.50000000  1.0
  Co  Co2  1  0.19914523  0.80085477  0.50000000  1.0
  Co  Co3  1  0.19914523  0.39829045  0.50000000  1.0
  Co  Co4  1  0.93002518  0.46501259  0.00000000  1.0
  Co  Co5  1  0.53498741  0.46501259  0.00000000  1.0
  Co  Co6  1  0.53498741  0.06997482  0.00000000  1.0
  P  P7  1  0.37365293  0.18682647  0.50000000  1.0
  P  P8  1  0.81317353  0.18682647  0.50000000  1.0
  P  P9  1  0.81317353  0.62634707  0.50000000  1.0
  P  P10  1  0.33333333  0.66666667  0.00000000  1.0
