# generated using pymatgen
data_NaMgAs
_symmetry_space_group_name_H-M   'P 1'
_cell_length_a   4.41783021
_cell_length_b   4.41783021
_cell_length_c   7.19671556
_cell_angle_alpha   90.00000000
_cell_angle_beta   90.00000000
_cell_angle_gamma   90.00000000
_symmetry_Int_Tables_number   1
_chemical_formula_structural   NaMgAs
_chemical_formula_sum   'Na2 Mg2 As2'
_cell_volume   140.45990779
_cell_formula_units_Z   2
loop_
 _symmetry_equiv_pos_site_id
 _symmetry_equiv_pos_as_xyz
  1  'x, y, z'
loop_
 _atom_site_type_symbol
 _atom_site_label
 _atom_site_symmetry_multiplicity
 _atom_site_fract_x
 _atom_site_fract_y
 _atom_site_fract_z
 _atom_site_occupancy
  Na  Na0  1  0.50000000  0.00000000  0.63372125  1.0
  Na  Na1  1  0.00000000  0.50000000  0.36627875  1.0
  Mg  Mg2  1  0.00000000  0.00000000  0.00000000  1.0
  Mg  Mg3  1  0.50000000  0.50000000  0.00000000  1.0
  As  As4  1  0.50000000  0.00000000  0.21709843  1.0
  As  As5  1  0.00000000  0.50000000  0.78290157  1.0
