# generated using pymatgen
data_Ti2Sb
_symmetry_space_group_name_H-M   'P 1'
_cell_length_a   7.92357187
_cell_length_b   7.92357187
_cell_length_c   7.92357187
_cell_angle_alpha   151.35373141
_cell_angle_beta   151.35373141
_cell_angle_gamma   40.95782871
_symmetry_Int_Tables_number   1
_chemical_formula_structural   Ti2Sb
_chemical_formula_sum   'Ti4 Sb2'
_cell_volume   114.08682909
_cell_formula_units_Z   2
loop_
 _symmetry_equiv_pos_site_id
 _symmetry_equiv_pos_as_xyz
  1  'x, y, z'
loop_
 _atom_site_type_symbol
 _atom_site_label
 _atom_site_symmetry_multiplicity
 _atom_site_fract_x
 _atom_site_fract_y
 _atom_site_fract_z
 _atom_site_occupancy
  Ti  Ti0  1  0.82759996  0.82759996  1.00000000  1.0
  Ti  Ti1  1  0.17240004  0.17240004  -0.00000000  1.0
  Ti  Ti2  1  0.50000000  0.00000000  0.50000000  1.0
  Ti  Ti3  1  0.00000000  0.50000000  0.50000000  1.0
  Sb  Sb4  1  0.63949686  0.63949686  1.00000000  1.0
  Sb  Sb5  1  0.36050314  0.36050314  -0.00000000  1.0
