# generated using pymatgen
data_MgSnO6
_symmetry_space_group_name_H-M   'P 1'
_cell_length_a   8.08430675
_cell_length_b   8.08430675
_cell_length_c   8.08430675
_cell_angle_alpha   90.00000000
_cell_angle_beta   90.00000000
_cell_angle_gamma   90.00000000
_symmetry_Int_Tables_number   1
_chemical_formula_structural   MgSnO6
_chemical_formula_sum   'Mg4 Sn4 O24'
_cell_volume   528.35807883
_cell_formula_units_Z   4
loop_
 _symmetry_equiv_pos_site_id
 _symmetry_equiv_pos_as_xyz
  1  'x, y, z'
loop_
 _atom_site_type_symbol
 _atom_site_label
 _atom_site_symmetry_multiplicity
 _atom_site_fract_x
 _atom_site_fract_y
 _atom_site_fract_z
 _atom_site_occupancy
  Mg  Mg0  1  0.25000000  0.75000000  0.75000000  1.0
  Mg  Mg1  1  0.75000000  0.75000000  0.25000000  1.0
  Mg  Mg2  1  0.75000000  0.25000000  0.75000000  1.0
  Mg  Mg3  1  0.25000000  0.25000000  0.25000000  1.0
  Sn  Sn4  1  0.75000000  0.25000000  0.25000000  1.0
  Sn  Sn5  1  0.25000000  0.25000000  0.75000000  1.0
  Sn  Sn6  1  0.25000000  0.75000000  0.25000000  1.0
  Sn  Sn7  1  0.75000000  0.75000000  0.75000000  1.0
  O  O8  1  0.75001107  0.24998893  0.50299468  1.0
  O  O9  1  0.24998893  0.24998893  0.49700532  1.0
  O  O10  1  0.24998893  0.75001107  0.50299468  1.0
  O  O11  1  0.75001107  0.75001107  0.49700532  1.0
  O  O12  1  0.49700532  0.24998893  0.24998893  1.0
  O  O13  1  0.50299468  0.24998893  0.75001107  1.0
  O  O14  1  0.50299468  0.75001107  0.24998893  1.0
  O  O15  1  0.49700532  0.75001107  0.75001107  1.0
  O  O16  1  0.24998893  0.49700532  0.24998893  1.0
  O  O17  1  0.75001107  0.50299468  0.24998893  1.0
  O  O18  1  0.24998893  0.50299468  0.75001107  1.0
  O  O19  1  0.75001107  0.49700532  0.75001107  1.0
  O  O20  1  0.74998893  0.25001107  0.99700532  1.0
  O  O21  1  0.25001107  0.25001107  0.00299468  1.0
  O  O22  1  0.25001107  0.74998893  0.99700532  1.0
  O  O23  1  0.74998893  0.74998893  0.00299468  1.0
  O  O24  1  0.00299468  0.25001107  0.25001107  1.0
  O  O25  1  0.99700532  0.25001107  0.74998893  1.0
  O  O26  1  0.99700532  0.74998893  0.25001107  1.0
  O  O27  1  0.00299468  0.74998893  0.74998893  1.0
  O  O28  1  0.25001107  0.00299468  0.25001107  1.0
  O  O29  1  0.74998893  0.99700532  0.25001107  1.0
  O  O30  1  0.25001107  0.99700532  0.74998893  1.0
  O  O31  1  0.74998893  0.00299468  0.74998893  1.0
