# generated using pymatgen
data_Y4Si5Rh9
_symmetry_space_group_name_H-M   'P 1'
_cell_length_a   11.68510488
_cell_length_b   11.68510488
_cell_length_c   11.68510488
_cell_angle_alpha   27.37748212
_cell_angle_beta   27.37748212
_cell_angle_gamma   27.37748212
_symmetry_Int_Tables_number   1
_chemical_formula_structural   Y4Si5Rh9
_chemical_formula_sum   'Y4 Si5 Rh9'
_cell_volume   297.74180123
_cell_formula_units_Z   1
loop_
 _symmetry_equiv_pos_site_id
 _symmetry_equiv_pos_as_xyz
  1  'x, y, z'
loop_
 _atom_site_type_symbol
 _atom_site_label
 _atom_site_symmetry_multiplicity
 _atom_site_fract_x
 _atom_site_fract_y
 _atom_site_fract_z
 _atom_site_occupancy
  Y  Y0  1  0.94896143  0.94896143  0.94896143  1.0
  Y  Y1  1  1.05103857  1.05103857  0.05103857  1.0
  Y  Y2  1  0.85135158  0.85135158  0.85135158  1.0
  Y  Y3  1  1.14864842  1.14864842  0.14864842  1.0
  Si  Si4  1  0.72166772  0.72166772  0.72166772  1.0
  Si  Si5  1  1.27833228  1.27833228  0.27833228  1.0
  Si  Si6  1  1.61170524  0.61170524  0.61170524  1.0
  Si  Si7  1  1.38829476  0.38829476  0.38829476  1.0
  Si  Si8  1  1.50000000  0.50000000  0.50000000  1.0
  Rh  Rh9  1  1.39190857  0.39190857  0.89128205  1.0
  Rh  Rh10  1  1.39190857  0.89128205  0.39190857  1.0
  Rh  Rh11  1  1.10871795  0.60809143  0.60809143  1.0
  Rh  Rh12  1  1.60809143  0.10871795  0.60809143  1.0
  Rh  Rh13  1  1.60809143  0.60809143  0.10871795  1.0
  Rh  Rh14  1  1.89128205  0.39190857  0.39190857  1.0
  Rh  Rh15  1  0.50000000  -0.00000000  -0.50000000  1.0
  Rh  Rh16  1  0.50000000  -0.50000000  -0.00000000  1.0
  Rh  Rh17  1  -0.00000000  0.50000000  -0.50000000  1.0
