# generated using pymatgen
data_Sr2Zn(HO)6
_symmetry_space_group_name_H-M   'P 1'
_cell_length_a   5.78437161
_cell_length_b   6.24237092
_cell_length_c   9.97508574
_cell_angle_alpha   90.00000000
_cell_angle_beta   124.71428568
_cell_angle_gamma   90.00000000
_symmetry_Int_Tables_number   1
_chemical_formula_structural   Sr2Zn(HO)6
_chemical_formula_sum   'Sr4 Zn2 H12 O12'
_cell_volume   296.07061661
_cell_formula_units_Z   2
loop_
 _symmetry_equiv_pos_site_id
 _symmetry_equiv_pos_as_xyz
  1  'x, y, z'
loop_
 _atom_site_type_symbol
 _atom_site_label
 _atom_site_symmetry_multiplicity
 _atom_site_fract_x
 _atom_site_fract_y
 _atom_site_fract_z
 _atom_site_occupancy
  Sr  Sr0  1  0.71896482  0.07268423  0.25573380  1.0
  Sr  Sr1  1  0.71896482  0.42731577  0.75573380  1.0
  Sr  Sr2  1  0.28103518  0.57268423  0.24426620  1.0
  Sr  Sr3  1  0.28103518  0.92731577  0.74426620  1.0
  Zn  Zn4  1  0.00000000  0.50000000  0.50000000  1.0
  Zn  Zn5  1  0.00000000  0.00000000  0.00000000  1.0
  H  H6  1  0.70436813  0.18158348  0.53083503  1.0
  H  H7  1  0.70436813  0.31841652  1.03083503  1.0
  H  H8  1  0.29563187  0.68158348  -0.03083503  1.0
  H  H9  1  0.29563187  0.81841652  0.46916497  1.0
  H  H10  1  0.30180712  0.22243104  0.48801135  1.0
  H  H11  1  0.30180712  0.27756896  0.98801135  1.0
  H  H12  1  0.69819288  0.72243104  0.01198865  1.0
  H  H13  1  0.69819288  0.77756896  0.51198865  1.0
  H  H14  1  0.28571426  0.07135543  0.30887738  1.0
  H  H15  1  0.28571426  0.42864457  0.80887738  1.0
  H  H16  1  0.71428574  0.57135543  0.19112262  1.0
  H  H17  1  0.71428574  0.92864457  0.69112262  1.0
  O  O18  1  0.86302752  0.46356053  0.25231560  1.0
  O  O19  1  0.86302752  0.03643947  0.75231560  1.0
  O  O20  1  0.13697248  0.96356053  0.24768440  1.0
  O  O21  1  0.13697248  0.53643947  0.74768440  1.0
  O  O22  1  0.78155483  0.77747047  0.44960561  1.0
  O  O23  1  0.78155483  0.72252953  0.94960561  1.0
  O  O24  1  0.21844517  0.27747047  0.05039439  1.0
  O  O25  1  0.21844517  0.22252953  0.55039439  1.0
  O  O26  1  0.59820899  0.28140016  0.43920928  1.0
  O  O27  1  0.59820899  0.21859984  0.93920928  1.0
  O  O28  1  0.40179101  0.78140016  0.06079072  1.0
  O  O29  1  0.40179101  0.71859984  0.56079072  1.0
