# generated using pymatgen
data_Gd2B6Ru
_symmetry_space_group_name_H-M   'P 1'
_cell_length_a   9.22248835
_cell_length_b   11.57218507
_cell_length_c   3.69477669
_cell_angle_alpha   90.00000000
_cell_angle_beta   90.00000000
_cell_angle_gamma   90.00000000
_symmetry_Int_Tables_number   1
_chemical_formula_structural   Gd2B6Ru
_chemical_formula_sum   'Gd8 B24 Ru4'
_cell_volume   394.32261105
_cell_formula_units_Z   4
loop_
 _symmetry_equiv_pos_site_id
 _symmetry_equiv_pos_as_xyz
  1  'x, y, z'
loop_
 _atom_site_type_symbol
 _atom_site_label
 _atom_site_symmetry_multiplicity
 _atom_site_fract_x
 _atom_site_fract_y
 _atom_site_fract_z
 _atom_site_occupancy
  Ru  Ru0  1  0.36182917  0.67854445  0.50000000  1.0
  Ru  Ru1  1  0.86182917  0.82145555  0.50000000  1.0
  Ru  Ru2  1  0.63817083  0.32145555  0.50000000  1.0
  Ru  Ru3  1  0.13817083  0.17854445  0.50000000  1.0
  B  B4  1  0.44587397  0.56791510  0.00000000  1.0
  B  B5  1  0.94587397  0.93208490  0.00000000  1.0
  B  B6  1  0.55412603  0.43208490  0.00000000  1.0
  B  B7  1  0.05412603  0.06791510  0.00000000  1.0
  B  B8  1  0.36705871  0.81372821  0.00000000  1.0
  B  B9  1  0.86705871  0.68627179  0.00000000  1.0
  B  B10  1  0.63294129  0.18627179  0.00000000  1.0
  B  B11  1  0.13294129  0.31372821  0.00000000  1.0
  B  B12  1  0.25329335  0.58004321  0.00000000  1.0
  B  B13  1  0.75329335  0.91995679  0.00000000  1.0
  B  B14  1  0.74670665  0.41995679  0.00000000  1.0
  B  B15  1  0.24670665  0.08004321  0.00000000  1.0
  B  B16  1  0.20992062  0.73217650  0.00000000  1.0
  B  B17  1  0.70992062  0.76782350  0.00000000  1.0
  B  B18  1  0.79007938  0.26782350  0.00000000  1.0
  B  B19  1  0.29007938  0.23217650  0.00000000  1.0
  B  B20  1  0.01456735  0.78704052  0.00000000  1.0
  B  B21  1  0.51456735  0.71295948  0.00000000  1.0
  B  B22  1  0.98543265  0.21295948  0.00000000  1.0
  B  B23  1  0.48543265  0.28704052  0.00000000  1.0
  B  B24  1  0.38585634  0.96836751  0.00000000  1.0
  B  B25  1  0.88585634  0.53163249  0.00000000  1.0
  B  B26  1  0.61414366  0.03163249  0.00000000  1.0
  B  B27  1  0.11414366  0.46836751  0.00000000  1.0
  Gd  Gd28  1  0.17584815  0.91325335  0.50000000  1.0
  Gd  Gd29  1  0.67584815  0.58674665  0.50000000  1.0
  Gd  Gd30  1  0.82415185  0.08674665  0.50000000  1.0
  Gd  Gd31  1  0.32415185  0.41325335  0.50000000  1.0
  Gd  Gd32  1  0.05575452  0.62667827  0.50000000  1.0
  Gd  Gd33  1  0.55575452  0.87332173  0.50000000  1.0
  Gd  Gd34  1  0.94424548  0.37332173  0.50000000  1.0
  Gd  Gd35  1  0.44424548  0.12667827  0.50000000  1.0
