# generated using pymatgen
data_H7C2N8O
_symmetry_space_group_name_H-M   'P 1'
_cell_length_a   8.20241972
_cell_length_b   8.20241972
_cell_length_c   8.50727661
_cell_angle_alpha   61.73038605
_cell_angle_beta   118.26961395
_cell_angle_gamma   132.52688115
_symmetry_Int_Tables_number   1
_chemical_formula_structural   H7C2N8O
_chemical_formula_sum   'H14 C4 N16 O2'
_cell_volume   360.96543302
_cell_formula_units_Z   2
loop_
 _symmetry_equiv_pos_site_id
 _symmetry_equiv_pos_as_xyz
  1  'x, y, z'
loop_
 _atom_site_type_symbol
 _atom_site_label
 _atom_site_symmetry_multiplicity
 _atom_site_fract_x
 _atom_site_fract_y
 _atom_site_fract_z
 _atom_site_occupancy
  H  H0  1  0.38811965  0.35782152  0.79868284  1.0
  H  H1  1  0.64217848  0.61188035  0.79868284  1.0
  H  H2  1  1.35782152  -0.61188035  0.20131716  1.0
  H  H3  1  1.61188035  -0.35782152  0.20131716  1.0
  H  H4  1  0.85823343  0.14176657  0.84468655  1.0
  H  H5  1  1.14176657  -0.14176657  0.15531345  1.0
  H  H6  1  0.70671271  0.29328729  0.55426853  1.0
  H  H7  1  1.29328729  -0.29328729  0.44573147  1.0
  H  H8  1  0.68793778  0.31206222  1.01974679  1.0
  H  H9  1  1.31206222  -0.31206222  -0.01974679  1.0
  H  H10  1  0.58427326  0.41572674  0.53761557  1.0
  H  H11  1  1.41572674  -0.41572674  0.46238443  1.0
  H  H12  1  0.15165426  -0.15165426  0.95480767  1.0
  H  H13  1  0.84834574  -0.84834574  0.04519233  1.0
  C  C14  1  0.94513202  -0.94513202  0.46438357  1.0
  C  C15  1  0.05486798  -0.05486798  0.53561643  1.0
  C  C16  1  0.70996654  0.29003346  0.79853120  1.0
  C  C17  1  1.29003346  -0.29003346  0.20146880  1.0
  N  N18  1  0.90031096  -0.90031096  0.56944451  1.0
  N  N19  1  0.09968904  -0.09968904  0.43055549  1.0
  N  N20  1  0.86837456  -0.86837456  0.28713783  1.0
  N  N21  1  0.13162544  -0.13162544  0.71286217  1.0
  N  N22  1  0.81338883  0.18661117  0.90415462  1.0
  N  N23  1  1.18661117  -0.18661117  0.09584538  1.0
  N  N24  1  0.79581668  -0.79581668  0.45315443  1.0
  N  N25  1  0.20418332  -0.20418332  0.54684557  1.0
  N  N26  1  0.77908689  -0.77908689  0.28549035  1.0
  N  N27  1  0.22091311  -0.22091311  0.71450965  1.0
  N  N28  1  0.66321038  0.33678962  0.61591164  1.0
  N  N29  1  1.33678962  -0.33678962  0.38408836  1.0
  N  N30  1  0.65227916  0.34772084  0.87861002  1.0
  N  N31  1  1.34772084  -0.34772084  0.12138998  1.0
  N  N32  1  0.54349008  0.45650992  0.76994937  1.0
  N  N33  1  1.45650992  -0.45650992  0.23005063  1.0
  O  O34  1  0.94412235  -0.94412235  0.74607964  1.0
  O  O35  1  0.05587765  -0.05587765  0.25392036  1.0
