# generated using pymatgen
data_EuSiPd
_symmetry_space_group_name_H-M   'P 1'
_cell_length_a   6.42528424
_cell_length_b   6.42528424
_cell_length_c   6.42528424
_cell_angle_alpha   90.00000000
_cell_angle_beta   90.00000000
_cell_angle_gamma   90.00000000
_symmetry_Int_Tables_number   1
_chemical_formula_structural   EuSiPd
_chemical_formula_sum   'Eu4 Si4 Pd4'
_cell_volume   265.26321790
_cell_formula_units_Z   4
loop_
 _symmetry_equiv_pos_site_id
 _symmetry_equiv_pos_as_xyz
  1  'x, y, z'
loop_
 _atom_site_type_symbol
 _atom_site_label
 _atom_site_symmetry_multiplicity
 _atom_site_fract_x
 _atom_site_fract_y
 _atom_site_fract_z
 _atom_site_occupancy
  Eu  Eu0  1  0.11888945  0.61888945  0.88111055  1.0
  Eu  Eu1  1  0.61888945  0.88111055  0.11888945  1.0
  Eu  Eu2  1  0.88111055  0.11888945  0.61888945  1.0
  Eu  Eu3  1  0.38111055  0.38111055  0.38111055  1.0
  Si  Si4  1  0.82698990  0.32698990  0.17301010  1.0
  Si  Si5  1  0.32698990  0.17301010  0.82698990  1.0
  Si  Si6  1  0.17301010  0.82698990  0.32698990  1.0
  Si  Si7  1  0.67301010  0.67301010  0.67301010  1.0
  Pd  Pd8  1  0.41509806  0.91509806  0.58490194  1.0
  Pd  Pd9  1  0.91509806  0.58490194  0.41509806  1.0
  Pd  Pd10  1  0.58490194  0.41509806  0.91509806  1.0
  Pd  Pd11  1  0.08490194  0.08490194  0.08490194  1.0
