# generated using pymatgen
data_CuN3
_symmetry_space_group_name_H-M   'P 1'
_cell_length_a   6.76771512
_cell_length_b   10.55890755
_cell_length_c   5.98764691
_cell_angle_alpha   90.00000000
_cell_angle_beta   90.00000000
_cell_angle_gamma   90.00000000
_symmetry_Int_Tables_number   1
_chemical_formula_structural   CuN3
_chemical_formula_sum   'Cu8 N24'
_cell_volume   427.87532127
_cell_formula_units_Z   8
loop_
 _symmetry_equiv_pos_site_id
 _symmetry_equiv_pos_as_xyz
  1  'x, y, z'
loop_
 _atom_site_type_symbol
 _atom_site_label
 _atom_site_symmetry_multiplicity
 _atom_site_fract_x
 _atom_site_fract_y
 _atom_site_fract_z
 _atom_site_occupancy
  Cu  Cu0  1  0.37469640  0.26931070  0.24959657  1.0
  Cu  Cu1  1  0.37469640  0.23068930  0.74959657  1.0
  Cu  Cu2  1  0.87469640  0.26931070  0.25040343  1.0
  Cu  Cu3  1  0.87469640  0.23068930  0.75040343  1.0
  Cu  Cu4  1  0.62530360  0.76931070  0.25040343  1.0
  Cu  Cu5  1  0.62530360  0.73068930  0.75040343  1.0
  Cu  Cu6  1  0.12530360  0.76931070  0.24959657  1.0
  Cu  Cu7  1  0.12530360  0.73068930  0.74959657  1.0
  N  N8  1  0.37484352  0.44608210  0.24865501  1.0
  N  N9  1  0.37484352  0.05391790  0.74865501  1.0
  N  N10  1  0.87484352  0.44608210  0.25134499  1.0
  N  N11  1  0.87484352  0.05391790  0.75134499  1.0
  N  N12  1  0.62515648  0.94608210  0.25134499  1.0
  N  N13  1  0.62515648  0.55391790  0.75134499  1.0
  N  N14  1  0.12515648  0.94608210  0.24865501  1.0
  N  N15  1  0.12515648  0.55391790  0.74865501  1.0
  N  N16  1  0.12470054  0.17047206  0.24968149  1.0
  N  N17  1  0.12470054  0.32952794  0.74968149  1.0
  N  N18  1  0.62470054  0.17047206  0.25031851  1.0
  N  N19  1  0.62470054  0.32952794  0.75031851  1.0
  N  N20  1  0.87529946  0.67047206  0.25031851  1.0
  N  N21  1  0.87529946  0.82952794  0.75031851  1.0
  N  N22  1  0.37529946  0.67047206  0.24968149  1.0
  N  N23  1  0.37529946  0.82952794  0.74968149  1.0
  N  N24  1  0.12489348  0.05606371  0.24923299  1.0
  N  N25  1  0.12489348  0.44393629  0.74923299  1.0
  N  N26  1  0.62489348  0.05606371  0.25076701  1.0
  N  N27  1  0.62489348  0.44393629  0.75076701  1.0
  N  N28  1  0.87510652  0.55606371  0.25076701  1.0
  N  N29  1  0.87510652  0.94393629  0.75076701  1.0
  N  N30  1  0.37510652  0.55606371  0.24923299  1.0
  N  N31  1  0.37510652  0.94393629  0.74923299  1.0
