# generated using pymatgen
data_Ni(RhO2)2
_symmetry_space_group_name_H-M   'P 1'
_cell_length_a   6.04534940
_cell_length_b   6.04534940
_cell_length_c   6.04534940
_cell_angle_alpha   119.99398122
_cell_angle_beta   119.99398122
_cell_angle_gamma   90.01042516
_symmetry_Int_Tables_number   1
_chemical_formula_structural   Ni(RhO2)2
_chemical_formula_sum   'Ni2 Rh4 O8'
_cell_volume   156.23873797
_cell_formula_units_Z   2
loop_
 _symmetry_equiv_pos_site_id
 _symmetry_equiv_pos_as_xyz
  1  'x, y, z'
loop_
 _atom_site_type_symbol
 _atom_site_label
 _atom_site_symmetry_multiplicity
 _atom_site_fract_x
 _atom_site_fract_y
 _atom_site_fract_z
 _atom_site_occupancy
  Ni  Ni0  1  1.25000000  0.75000000  0.50000000  1.0
  Ni  Ni1  1  0.50000000  0.50000000  1.00000000  1.0
  Rh  Rh2  1  0.87500000  1.62500000  0.75000000  1.0
  Rh  Rh3  1  1.37500000  1.12500000  1.25000000  1.0
  Rh  Rh4  1  0.87500000  1.12500000  0.75000000  1.0
  Rh  Rh5  1  0.87500000  1.12500000  0.25000000  1.0
  O  O6  1  1.11599667  0.88405686  0.76806019  1.0
  O  O7  1  1.63405686  1.36599667  1.26806019  1.0
  O  O8  1  1.09793648  1.36599667  0.73193981  1.0
  O  O9  1  1.11599667  1.34793648  1.23193981  1.0
  O  O10  1  0.63400333  1.36594314  0.73193981  1.0
  O  O11  1  1.11594314  0.88400333  0.23193981  1.0
  O  O12  1  1.65206352  0.88400333  0.76806019  1.0
  O  O13  1  0.63400333  0.90206352  0.26806019  1.0
