# generated using pymatgen
data_NaCr(SO4)2
_symmetry_space_group_name_H-M   'P 1'
_cell_length_a   4.81508504
_cell_length_b   4.81508504
_cell_length_c   7.28157759
_cell_angle_alpha   89.20868216
_cell_angle_beta   90.79131784
_cell_angle_gamma   114.84800510
_symmetry_Int_Tables_number   1
_chemical_formula_structural   NaCr(SO4)2
_chemical_formula_sum   'Na1 Cr1 S2 O8'
_cell_volume   153.17438947
_cell_formula_units_Z   1
loop_
 _symmetry_equiv_pos_site_id
 _symmetry_equiv_pos_as_xyz
  1  'x, y, z'
loop_
 _atom_site_type_symbol
 _atom_site_label
 _atom_site_symmetry_multiplicity
 _atom_site_fract_x
 _atom_site_fract_y
 _atom_site_fract_z
 _atom_site_occupancy
  Na  Na0  1  0.00000000  -0.00000000  0.50000000  1.0
  Cr  Cr1  1  0.00000000  0.00000000  0.00000000  1.0
  S  S2  1  0.64364740  -0.64364740  0.78541789  1.0
  S  S3  1  0.35635260  -0.35635260  0.21458211  1.0
  O  O4  1  1.29802123  0.22965905  0.80259853  1.0
  O  O5  1  0.77034095  -0.29802123  0.80259853  1.0
  O  O6  1  1.22965905  0.29802123  0.19740147  1.0
  O  O7  1  0.70197877  -0.22965905  0.19740147  1.0
  O  O8  1  0.76251979  -0.76251979  0.94400067  1.0
  O  O9  1  0.23748021  -0.23748021  0.05599933  1.0
  O  O10  1  0.71804368  -0.71804368  0.60501708  1.0
  O  O11  1  0.28195632  -0.28195632  0.39498292  1.0
