# generated using pymatgen
data_Na5GeP3
_symmetry_space_group_name_H-M   'P 1'
_cell_length_a   8.11274552
_cell_length_b   7.40470030
_cell_length_c   15.47578613
_cell_angle_alpha   90.00000000
_cell_angle_beta   121.40979348
_cell_angle_gamma   90.00000000
_symmetry_Int_Tables_number   1
_chemical_formula_structural   Na5GeP3
_chemical_formula_sum   'Na20 Ge4 P12'
_cell_volume   793.43637966
_cell_formula_units_Z   4
loop_
 _symmetry_equiv_pos_site_id
 _symmetry_equiv_pos_as_xyz
  1  'x, y, z'
loop_
 _atom_site_type_symbol
 _atom_site_label
 _atom_site_symmetry_multiplicity
 _atom_site_fract_x
 _atom_site_fract_y
 _atom_site_fract_z
 _atom_site_occupancy
  Na  Na0  1  0.93581445  0.00707537  0.25779491  1.0
  Na  Na1  1  0.93581445  0.49292463  0.75779491  1.0
  Na  Na2  1  0.06418555  0.50707537  0.24220509  1.0
  Na  Na3  1  0.06418555  0.99292463  0.74220509  1.0
  Na  Na4  1  0.74766772  0.96579199  0.41553991  1.0
  Na  Na5  1  0.74766772  0.53420801  0.91553991  1.0
  Na  Na6  1  0.25233228  0.46579199  0.08446009  1.0
  Na  Na7  1  0.25233228  0.03420801  0.58446009  1.0
  Na  Na8  1  0.65941965  0.33723107  0.08145343  1.0
  Na  Na9  1  0.65941965  0.16276893  0.58145343  1.0
  Na  Na10  1  0.34058035  0.83723107  0.41854657  1.0
  Na  Na11  1  0.34058035  0.66276893  0.91854657  1.0
  Na  Na12  1  0.58544979  0.48133909  0.41301254  1.0
  Na  Na13  1  0.58544979  0.01866091  0.91301254  1.0
  Na  Na14  1  0.41455021  0.98133909  0.08698746  1.0
  Na  Na15  1  0.41455021  0.51866091  0.58698746  1.0
  Na  Na16  1  0.33299400  0.14890652  0.25818396  1.0
  Na  Na17  1  0.33299400  0.35109348  0.75818396  1.0
  Na  Na18  1  0.66700600  0.64890652  0.24181604  1.0
  Na  Na19  1  0.66700600  0.85109348  0.74181604  1.0
  Ge  Ge20  1  0.98508275  0.35775790  0.41384539  1.0
  Ge  Ge21  1  0.98508275  0.14224210  0.91384539  1.0
  Ge  Ge22  1  0.01491725  0.85775790  0.08615461  1.0
  Ge  Ge23  1  0.01491725  0.64224210  0.58615461  1.0
  P  P24  1  0.97791899  0.18639669  0.06652550  1.0
  P  P25  1  0.97791899  0.31360331  0.56652550  1.0
  P  P26  1  0.02208101  0.68639669  0.43347450  1.0
  P  P27  1  0.02208101  0.81360331  0.93347450  1.0
  P  P28  1  0.68734749  0.26416898  0.27341451  1.0
  P  P29  1  0.68734749  0.23583102  0.77341451  1.0
  P  P30  1  0.31265251  0.76416898  0.22658549  1.0
  P  P31  1  0.31265251  0.73583102  0.72658549  1.0
  P  P32  1  0.26213878  0.23770309  0.41905608  1.0
  P  P33  1  0.26213878  0.26229691  0.91905608  1.0
  P  P34  1  0.73786122  0.73770309  0.08094392  1.0
  P  P35  1  0.73786122  0.76229691  0.58094392  1.0
