# generated using pymatgen
data_Ca2Si3O11
_symmetry_space_group_name_H-M   'P 1'
_cell_length_a   11.78787483
_cell_length_b   11.78787483
_cell_length_c   6.75046898
_cell_angle_alpha   83.75233733
_cell_angle_beta   96.24766267
_cell_angle_gamma   33.38083041
_symmetry_Int_Tables_number   1
_chemical_formula_structural   Ca2Si3O11
_chemical_formula_sum   'Ca4 Si6 O22'
_cell_volume   477.60592718
_cell_formula_units_Z   2
loop_
 _symmetry_equiv_pos_site_id
 _symmetry_equiv_pos_as_xyz
  1  'x, y, z'
loop_
 _atom_site_type_symbol
 _atom_site_label
 _atom_site_symmetry_multiplicity
 _atom_site_fract_x
 _atom_site_fract_y
 _atom_site_fract_z
 _atom_site_occupancy
  Si  Si0  1  0.91808286  -0.61660731  0.66334208  1.0
  Si  Si1  1  0.61660731  0.08191714  0.66334208  1.0
  Si  Si2  1  1.20158080  -0.52592182  0.24702080  1.0
  Si  Si3  1  0.52592182  -0.20158080  0.24702080  1.0
  Si  Si4  1  1.08059262  -0.94425790  0.01801563  1.0
  Si  Si5  1  0.94425790  -0.08059262  0.01801563  1.0
  Ca  Ca6  1  1.10559840  -0.52910670  0.73343538  1.0
  Ca  Ca7  1  0.52910670  -0.10559840  0.73343538  1.0
  Ca  Ca8  1  1.02184981  -0.63363664  0.21182900  1.0
  Ca  Ca9  1  0.63363664  -0.02184981  0.21182900  1.0
  O  O10  1  0.87664226  -0.49269056  0.81515282  1.0
  O  O11  1  0.49269056  0.12335774  0.81515282  1.0
  O  O12  1  0.08559487  -0.08559487  0.02311166  1.0
  O  O13  1  0.92043326  -0.92043326  0.37899061  1.0
  O  O14  1  0.65629969  -0.65629969  0.02586317  1.0
  O  O15  1  0.59392435  -0.59392435  0.29614182  1.0
  O  O16  1  1.00838748  -0.25934759  0.51749961  1.0
  O  O17  1  0.25934759  -0.00838748  0.51749960  1.0
  O  O18  1  0.95753811  -0.78952779  0.16818720  1.0
  O  O19  1  0.78952779  0.04246189  0.16818720  1.0
  O  O20  1  0.95484614  -0.78009948  0.77208935  1.0
  O  O21  1  0.78009948  0.04515386  0.77208935  1.0
  O  O22  1  1.12105415  -0.33735070  0.09530159  1.0
  O  O23  1  0.33735070  -0.12105415  0.09530159  1.0
  O  O24  1  1.13270053  -0.74652667  0.60775968  1.0
  O  O25  1  0.74652667  -0.13270053  0.60775968  1.0
  O  O26  1  0.71051254  -0.44323442  0.43317180  1.0
  O  O27  1  0.44323442  0.28948746  0.43317180  1.0
  O  O28  1  1.23269992  -0.64906903  0.10520926  1.0
  O  O29  1  0.64906903  -0.23269992  0.10520926  1.0
  O  O30  1  1.01813827  -0.41754730  0.35063219  1.0
  O  O31  1  0.41754730  -0.01813827  0.35063219  1.0
