# generated using pymatgen
data_La3(GeRu)2
_symmetry_space_group_name_H-M   'P 1'
_cell_length_a   5.88692624
_cell_length_b   8.11898107
_cell_length_c   13.69445559
_cell_angle_alpha   90.00000000
_cell_angle_beta   90.00000000
_cell_angle_gamma   90.00000000
_symmetry_Int_Tables_number   1
_chemical_formula_structural   La3(GeRu)2
_chemical_formula_sum   'La12 Ge8 Ru8'
_cell_volume   654.53804494
_cell_formula_units_Z   4
loop_
 _symmetry_equiv_pos_site_id
 _symmetry_equiv_pos_as_xyz
  1  'x, y, z'
loop_
 _atom_site_type_symbol
 _atom_site_label
 _atom_site_symmetry_multiplicity
 _atom_site_fract_x
 _atom_site_fract_y
 _atom_site_fract_z
 _atom_site_occupancy
  La  La0  1  0.84395786  0.59448546  0.90459156  1.0
  La  La1  1  0.84395786  0.59448546  0.59540844  1.0
  La  La2  1  0.84395786  0.90551454  0.40459156  1.0
  La  La3  1  0.84395786  0.90551454  0.09540844  1.0
  La  La4  1  0.15604214  0.09448546  0.90459156  1.0
  La  La5  1  0.15604214  0.09448546  0.59540844  1.0
  La  La6  1  0.15604214  0.40551454  0.40459156  1.0
  La  La7  1  0.15604214  0.40551454  0.09540844  1.0
  La  La8  1  0.37376489  0.73291729  0.75000000  1.0
  La  La9  1  0.37376489  0.76708271  0.25000000  1.0
  La  La10  1  0.62623511  0.23291729  0.75000000  1.0
  La  La11  1  0.62623511  0.26708271  0.25000000  1.0
  Ge  Ge12  1  0.86274582  0.88642578  0.75000000  1.0
  Ge  Ge13  1  0.86274582  0.61357422  0.25000000  1.0
  Ge  Ge14  1  0.13725418  0.38642578  0.75000000  1.0
  Ge  Ge15  1  0.13725418  0.11357422  0.25000000  1.0
  Ge  Ge16  1  0.38751972  0.75000000  0.00000000  1.0
  Ge  Ge17  1  0.38751972  0.75000000  0.50000000  1.0
  Ge  Ge18  1  0.61248028  0.25000000  0.00000000  1.0
  Ge  Ge19  1  0.61248028  0.25000000  0.50000000  1.0
  Ru  Ru20  1  0.64847231  0.96891308  0.91189101  1.0
  Ru  Ru21  1  0.64847231  0.96891308  0.58810899  1.0
  Ru  Ru22  1  0.64847231  0.53108692  0.41189101  1.0
  Ru  Ru23  1  0.64847231  0.53108692  0.08810899  1.0
  Ru  Ru24  1  0.35152769  0.46891308  0.91189101  1.0
  Ru  Ru25  1  0.35152769  0.46891308  0.58810899  1.0
  Ru  Ru26  1  0.35152769  0.03108692  0.41189101  1.0
  Ru  Ru27  1  0.35152769  0.03108692  0.08810899  1.0
