# generated using pymatgen
data_BaCa4(CoN2)2
_symmetry_space_group_name_H-M   'P 1'
_cell_length_a   8.36156193
_cell_length_b   8.36156193
_cell_length_c   12.09942641
_cell_angle_alpha   90.00000000
_cell_angle_beta   90.00000000
_cell_angle_gamma   90.00000000
_symmetry_Int_Tables_number   1
_chemical_formula_structural   BaCa4(CoN2)2
_chemical_formula_sum   'Ba4 Ca16 Co8 N16'
_cell_volume   845.94008347
_cell_formula_units_Z   4
loop_
 _symmetry_equiv_pos_site_id
 _symmetry_equiv_pos_as_xyz
  1  'x, y, z'
loop_
 _atom_site_type_symbol
 _atom_site_label
 _atom_site_symmetry_multiplicity
 _atom_site_fract_x
 _atom_site_fract_y
 _atom_site_fract_z
 _atom_site_occupancy
  Ba  Ba0  1  0.00000000  0.50000000  0.34093387  1.0
  Ba  Ba1  1  0.00000000  0.50000000  0.84093387  1.0
  Ba  Ba2  1  0.50000000  0.00000000  0.65906613  1.0
  Ba  Ba3  1  0.50000000  0.00000000  0.15906613  1.0
  Ca  Ca4  1  0.38000115  0.33419083  0.40479079  1.0
  Ca  Ca5  1  0.61999885  0.33419083  0.90479079  1.0
  Ca  Ca6  1  0.38000115  0.66580917  0.90479079  1.0
  Ca  Ca7  1  0.61999885  0.66580917  0.40479079  1.0
  Ca  Ca8  1  0.83419083  0.88000115  0.90479079  1.0
  Ca  Ca9  1  0.16580917  0.88000115  0.40479079  1.0
  Ca  Ca10  1  0.83419083  0.11999885  0.40479079  1.0
  Ca  Ca11  1  0.16580917  0.11999885  0.90479079  1.0
  Ca  Ca12  1  0.11999885  0.16580917  0.59520921  1.0
  Ca  Ca13  1  0.88000115  0.16580917  0.09520921  1.0
  Ca  Ca14  1  0.11999885  0.83419083  0.09520921  1.0
  Ca  Ca15  1  0.88000115  0.83419083  0.59520921  1.0
  Ca  Ca16  1  0.66580917  0.61999885  0.09520921  1.0
  Ca  Ca17  1  0.33419083  0.61999885  0.59520921  1.0
  Ca  Ca18  1  0.66580917  0.38000115  0.59520921  1.0
  Ca  Ca19  1  0.33419083  0.38000115  0.09520921  1.0
  Co  Co20  1  0.34436991  0.65563009  0.25000000  1.0
  Co  Co21  1  0.65563009  0.65563009  0.75000000  1.0
  Co  Co22  1  0.34436991  0.34436991  0.75000000  1.0
  Co  Co23  1  0.65563009  0.34436991  0.25000000  1.0
  Co  Co24  1  0.15563009  0.84436991  0.75000000  1.0
  Co  Co25  1  0.84436991  0.84436991  0.25000000  1.0
  Co  Co26  1  0.15563009  0.15563009  0.25000000  1.0
  Co  Co27  1  0.84436991  0.15563009  0.75000000  1.0
  N  N28  1  0.87769525  0.81870461  0.39495642  1.0
  N  N29  1  0.12230475  0.81870461  0.89495642  1.0
  N  N30  1  0.87769525  0.18129539  0.89495642  1.0
  N  N31  1  0.12230475  0.18129539  0.39495642  1.0
  N  N32  1  0.31870461  0.37769525  0.89495642  1.0
  N  N33  1  0.68129539  0.37769525  0.39495642  1.0
  N  N34  1  0.31870461  0.62230475  0.39495642  1.0
  N  N35  1  0.68129539  0.62230475  0.89495642  1.0
  N  N36  1  0.62230475  0.68129539  0.60504358  1.0
  N  N37  1  0.37769525  0.68129539  0.10504358  1.0
  N  N38  1  0.62230475  0.31870461  0.10504358  1.0
  N  N39  1  0.37769525  0.31870461  0.60504358  1.0
  N  N40  1  0.18129539  0.12230475  0.10504358  1.0
  N  N41  1  0.81870461  0.12230475  0.60504358  1.0
  N  N42  1  0.18129539  0.87769525  0.60504358  1.0
  N  N43  1  0.81870461  0.87769525  0.10504358  1.0
