# generated using pymatgen
data_Gd3MnGaS7
_symmetry_space_group_name_H-M   'P 1'
_cell_length_a   9.80016668
_cell_length_b   9.80016668
_cell_length_c   6.19886427
_cell_angle_alpha   90.00000000
_cell_angle_beta   90.00000000
_cell_angle_gamma   120.00000000
_symmetry_Int_Tables_number   1
_chemical_formula_structural   Gd3MnGaS7
_chemical_formula_sum   'Gd6 Mn2 Ga2 S14'
_cell_volume   515.59617078
_cell_formula_units_Z   2
loop_
 _symmetry_equiv_pos_site_id
 _symmetry_equiv_pos_as_xyz
  1  'x, y, z'
loop_
 _atom_site_type_symbol
 _atom_site_label
 _atom_site_symmetry_multiplicity
 _atom_site_fract_x
 _atom_site_fract_y
 _atom_site_fract_z
 _atom_site_occupancy
  Mn  Mn0  1  0.00000000  0.00000000  0.02264033  1.0
  Mn  Mn1  1  0.00000000  0.00000000  0.52264033  1.0
  Gd  Gd2  1  0.77277670  0.62167446  0.21310580  1.0
  Gd  Gd3  1  0.62167446  0.84889776  0.71310580  1.0
  Gd  Gd4  1  0.84889776  0.22722330  0.21310580  1.0
  Gd  Gd5  1  0.37832554  0.15110224  0.21310580  1.0
  Gd  Gd6  1  0.22722330  0.37832554  0.71310580  1.0
  Gd  Gd7  1  0.15110224  0.77277670  0.71310580  1.0
  Ga  Ga8  1  0.33333333  0.66666667  0.13683769  1.0
  Ga  Ga9  1  0.66666667  0.33333333  0.63683769  1.0
  S  S10  1  0.42756024  0.90914132  -0.02134112  1.0
  S  S11  1  0.90914132  0.48158108  0.47865888  1.0
  S  S12  1  0.48158108  0.57243976  -0.02134112  1.0
  S  S13  1  0.09085868  0.51841892  -0.02134112  1.0
  S  S14  1  0.57243976  0.09085868  0.47865888  1.0
  S  S15  1  0.51841892  0.42756024  0.47865888  1.0
  S  S16  1  0.33333333  0.66666667  0.50345486  1.0
  S  S17  1  0.66666667  0.33333333  0.00345486  1.0
  S  S18  1  0.10233420  0.86093526  0.29759103  1.0
  S  S19  1  0.86093526  0.75860105  0.79759103  1.0
  S  S20  1  0.75860105  0.89766580  0.29759103  1.0
  S  S21  1  0.13906474  0.24139895  0.29759103  1.0
  S  S22  1  0.89766580  0.13906474  0.79759103  1.0
  S  S23  1  0.24139895  0.10233420  0.79759103  1.0
