# generated using pymatgen
data_TlIn5Se7
_symmetry_space_group_name_H-M   'P 1'
_cell_length_a   9.63405841
_cell_length_b   4.13831922
_cell_length_c   18.31039591
_cell_angle_alpha   90.00000000
_cell_angle_beta   101.07284285
_cell_angle_gamma   90.00000000
_symmetry_Int_Tables_number   1
_chemical_formula_structural   TlIn5Se7
_chemical_formula_sum   'Tl2 In10 Se14'
_cell_volume   716.42360195
_cell_formula_units_Z   2
loop_
 _symmetry_equiv_pos_site_id
 _symmetry_equiv_pos_as_xyz
  1  'x, y, z'
loop_
 _atom_site_type_symbol
 _atom_site_label
 _atom_site_symmetry_multiplicity
 _atom_site_fract_x
 _atom_site_fract_y
 _atom_site_fract_z
 _atom_site_occupancy
  Tl  Tl0  1  0.01661325  0.75000000  0.72654551  1.0
  Tl  Tl1  1  0.98338675  0.25000000  0.27345449  1.0
  In  In2  1  0.42796546  0.75000000  0.87510153  1.0
  In  In3  1  0.57203454  0.25000000  0.12489847  1.0
  In  In4  1  0.67909588  0.75000000  0.81543551  1.0
  In  In5  1  0.32090412  0.25000000  0.18456449  1.0
  In  In6  1  0.48164600  0.75000000  0.39960898  1.0
  In  In7  1  0.51835400  0.25000000  0.60039102  1.0
  In  In8  1  0.16980087  0.75000000  0.53403857  1.0
  In  In9  1  0.83019913  0.25000000  0.46596143  1.0
  In  In10  1  0.85249197  0.75000000  0.04683288  1.0
  In  In11  1  0.14750803  0.25000000  0.95316712  1.0
  Se  Se12  1  0.33529920  0.75000000  0.00413034  1.0
  Se  Se13  1  0.66470080  0.25000000  0.99586966  1.0
  Se  Se14  1  0.38004507  0.75000000  0.65318665  1.0
  Se  Se15  1  0.61995493  0.25000000  0.34681335  1.0
  Se  Se16  1  0.26716040  0.75000000  0.27055726  1.0
  Se  Se17  1  0.73283960  0.25000000  0.72944274  1.0
  Se  Se18  1  0.94199908  0.75000000  0.90975156  1.0
  Se  Se19  1  0.05800092  0.25000000  0.09024844  1.0
  Se  Se20  1  0.74768414  0.75000000  0.17792160  1.0
  Se  Se21  1  0.25231586  0.25000000  0.82207840  1.0
  Se  Se22  1  0.97124627  0.75000000  0.40970104  1.0
  Se  Se23  1  0.02875373  0.25000000  0.59029896  1.0
  Se  Se24  1  0.67006019  0.75000000  0.53400261  1.0
  Se  Se25  1  0.32993981  0.25000000  0.46599739  1.0
