# generated using pymatgen
data_Tl3V5O14
_symmetry_space_group_name_H-M   'P 1'
_cell_length_a   8.74500897
_cell_length_b   8.74500897
_cell_length_c   5.53200133
_cell_angle_alpha   90.00000000
_cell_angle_beta   90.00000000
_cell_angle_gamma   120.00000000
_symmetry_Int_Tables_number   1
_chemical_formula_structural   Tl3V5O14
_chemical_formula_sum   'Tl3 V5 O14'
_cell_volume   366.38140703
_cell_formula_units_Z   1
loop_
 _symmetry_equiv_pos_site_id
 _symmetry_equiv_pos_as_xyz
  1  'x, y, z'
loop_
 _atom_site_type_symbol
 _atom_site_label
 _atom_site_symmetry_multiplicity
 _atom_site_fract_x
 _atom_site_fract_y
 _atom_site_fract_z
 _atom_site_occupancy
  Tl  Tl0  1  0.39078550  0.39078550  0.77656364  1.0
  Tl  Tl1  1  0.00000000  0.60921450  0.77656364  1.0
  Tl  Tl2  1  0.60921450  0.00000000  0.77656364  1.0
  V  V3  1  0.77244081  0.77244081  0.31285900  1.0
  V  V4  1  -0.00000000  0.22755919  0.31285900  1.0
  V  V5  1  0.22755919  0.00000000  0.31285900  1.0
  V  V6  1  0.33333333  0.66666667  0.31680550  1.0
  V  V7  1  0.66666667  0.33333333  0.31680550  1.0
  O  O8  1  0.29266837  0.83073429  0.42806534  1.0
  O  O9  1  0.83073429  0.29266837  0.42806534  1.0
  O  O10  1  0.53806591  0.70733163  0.42806534  1.0
  O  O11  1  0.16926571  0.46193409  0.42806534  1.0
  O  O12  1  0.70733163  0.53806591  0.42806534  1.0
  O  O13  1  0.46193409  0.16926571  0.42806534  1.0
  O  O14  1  0.75709069  0.75709069  0.02339803  1.0
  O  O15  1  0.00000000  0.24290931  0.02339803  1.0
  O  O16  1  0.24290931  0.00000000  0.02339803  1.0
  O  O17  1  0.16660378  0.16660378  0.38305695  1.0
  O  O18  1  -0.00000000  0.83339622  0.38305695  1.0
  O  O19  1  0.83339622  0.00000000  0.38305695  1.0
  O  O20  1  0.33333333  0.66666667  0.01998205  1.0
  O  O21  1  0.66666667  0.33333333  0.01998205  1.0
