# generated using pymatgen
data_Ca2FeWO6
_symmetry_space_group_name_H-M   'P 1'
_cell_length_a   5.54190037
_cell_length_b   7.88705236
_cell_length_c   5.69707641
_cell_angle_alpha   90.00000000
_cell_angle_beta   90.00000000
_cell_angle_gamma   90.00000000
_symmetry_Int_Tables_number   1
_chemical_formula_structural   Ca2FeWO6
_chemical_formula_sum   'Ca4 Fe2 W2 O12'
_cell_volume   249.01498505
_cell_formula_units_Z   2
loop_
 _symmetry_equiv_pos_site_id
 _symmetry_equiv_pos_as_xyz
  1  'x, y, z'
loop_
 _atom_site_type_symbol
 _atom_site_label
 _atom_site_symmetry_multiplicity
 _atom_site_fract_x
 _atom_site_fract_y
 _atom_site_fract_z
 _atom_site_occupancy
  Ca  Ca0  1  0.50000000  0.75070316  -0.04827211  1.0
  Ca  Ca1  1  0.50000000  0.24929684  -0.04827211  1.0
  Ca  Ca2  1  0.00000000  0.74927429  0.45164004  1.0
  Ca  Ca3  1  0.00000000  0.25072571  0.45164004  1.0
  Fe  Fe4  1  0.50000000  0.00000000  0.50631671  1.0
  Fe  Fe5  1  0.00000000  0.50000000  0.00623008  1.0
  W  W6  1  0.50000000  0.50000000  0.51273994  1.0
  W  W7  1  0.00000000  0.00000000  0.01277201  1.0
  O  O8  1  0.50000000  0.74491746  0.52768033  1.0
  O  O9  1  0.50000000  0.25508254  0.52768033  1.0
  O  O10  1  0.00000000  0.75506945  0.02770109  1.0
  O  O11  1  0.00000000  0.24493055  0.02770109  1.0
  O  O12  1  0.75366131  0.50000000  0.28517918  1.0
  O  O13  1  0.24633869  0.50000000  0.28517918  1.0
  O  O14  1  0.73647361  0.50000000  0.76981666  1.0
  O  O15  1  0.26352639  0.50000000  0.76981666  1.0
  O  O16  1  0.76358499  0.00000000  0.26991424  1.0
  O  O17  1  0.23641501  0.00000000  0.26991424  1.0
  O  O18  1  0.74626014  0.00000000  0.78531120  1.0
  O  O19  1  0.25373986  0.00000000  0.78531120  1.0
