# generated using pymatgen
data_NaTi4O8
_symmetry_space_group_name_H-M   'P 1'
_cell_length_a   6.44627642
_cell_length_b   6.44627642
_cell_length_c   6.53601235
_cell_angle_alpha   73.63710082
_cell_angle_beta   106.36289918
_cell_angle_gamma   145.08358169
_symmetry_Int_Tables_number   1
_chemical_formula_structural   NaTi4O8
_chemical_formula_sum   'Na1 Ti4 O8'
_cell_volume   148.52507028
_cell_formula_units_Z   1
loop_
 _symmetry_equiv_pos_site_id
 _symmetry_equiv_pos_as_xyz
  1  'x, y, z'
loop_
 _atom_site_type_symbol
 _atom_site_label
 _atom_site_symmetry_multiplicity
 _atom_site_fract_x
 _atom_site_fract_y
 _atom_site_fract_z
 _atom_site_occupancy
  Ti  Ti0  1  0.79774161  0.20225839  0.71031716  1.0
  Ti  Ti1  1  0.20225839  -0.20225839  0.28968284  1.0
  Ti  Ti2  1  0.89731230  0.10268770  0.30099288  1.0
  Ti  Ti3  1  0.10268770  -0.10268770  0.69900712  1.0
  O  O4  1  0.94176238  0.05823762  0.63726585  1.0
  O  O5  1  0.05823762  -0.05823762  0.36273415  1.0
  O  O6  1  0.86970552  0.13029448  0.99502405  1.0
  O  O7  1  0.13029448  -0.13029448  0.00497595  1.0
  O  O8  1  0.73412916  0.26587084  0.34229036  1.0
  O  O9  1  0.26587084  -0.26587084  0.65770964  1.0
  O  O10  1  0.63310969  0.36689031  0.70507236  1.0
  O  O11  1  0.36689031  -0.36689031  0.29492764  1.0
  Na  Na12  1  0.50000000  0.50000000  -0.00000000  1.0
