# generated using pymatgen
data_BaCaFe4O7
_symmetry_space_group_name_H-M   'P 1'
_cell_length_a   6.40242274
_cell_length_b   6.40242274
_cell_length_c   10.45667858
_cell_angle_alpha   90.00000000
_cell_angle_beta   90.00000000
_cell_angle_gamma   120.00000000
_symmetry_Int_Tables_number   1
_chemical_formula_structural   BaCaFe4O7
_chemical_formula_sum   'Ba2 Ca2 Fe8 O14'
_cell_volume   371.20437232
_cell_formula_units_Z   2
loop_
 _symmetry_equiv_pos_site_id
 _symmetry_equiv_pos_as_xyz
  1  'x, y, z'
loop_
 _atom_site_type_symbol
 _atom_site_label
 _atom_site_symmetry_multiplicity
 _atom_site_fract_x
 _atom_site_fract_y
 _atom_site_fract_z
 _atom_site_occupancy
  Ba  Ba0  1  0.33333333  0.66666667  0.07806218  1.0
  Ba  Ba1  1  0.66666667  0.33333333  0.57806218  1.0
  Ca  Ca2  1  0.33333333  0.66666667  0.43964902  1.0
  Ca  Ca3  1  0.66666667  0.33333333  0.93964902  1.0
  Fe  Fe4  1  0.80116441  0.64313097  0.24246547  1.0
  Fe  Fe5  1  0.64313097  0.80116441  0.74246547  1.0
  Fe  Fe6  1  0.84196656  0.19883559  0.24246547  1.0
  Fe  Fe7  1  0.35686903  0.15803344  0.24246547  1.0
  Fe  Fe8  1  0.19883559  0.84196656  0.74246547  1.0
  Fe  Fe9  1  0.15803344  0.35686903  0.74246547  1.0
  Fe  Fe10  1  0.00000000  0.00000000  -0.00155354  1.0
  Fe  Fe11  1  0.00000000  0.00000000  0.49844646  1.0
  O  O12  1  0.51796574  0.99172648  0.29993314  1.0
  O  O13  1  0.99172648  0.51796574  0.79993314  1.0
  O  O14  1  0.47376074  0.48203426  0.29993314  1.0
  O  O15  1  0.00827352  0.52623926  0.29993314  1.0
  O  O16  1  0.48203426  0.47376074  0.79993314  1.0
  O  O17  1  0.52623926  0.00827352  0.79993314  1.0
  O  O18  1  0.77002701  0.68302758  0.06152296  1.0
  O  O19  1  0.68302758  0.77002701  0.56152296  1.0
  O  O20  1  0.91300058  0.22997299  0.06152296  1.0
  O  O21  1  0.31697242  0.08699942  0.06152296  1.0
  O  O22  1  0.22997299  0.91300058  0.56152296  1.0
  O  O23  1  0.08699942  0.31697242  0.56152296  1.0
  O  O24  1  0.00000000  0.00000000  0.31007763  1.0
  O  O25  1  0.00000000  0.00000000  0.81007763  1.0
