# generated using pymatgen
data_HfCuGe
_symmetry_space_group_name_H-M   'P 1'
_cell_length_a   6.50651176
_cell_length_b   3.97717306
_cell_length_c   7.44169690
_cell_angle_alpha   90.00000000
_cell_angle_beta   90.00000000
_cell_angle_gamma   90.00000000
_symmetry_Int_Tables_number   1
_chemical_formula_structural   HfCuGe
_chemical_formula_sum   'Hf4 Cu4 Ge4'
_cell_volume   192.57268520
_cell_formula_units_Z   4
loop_
 _symmetry_equiv_pos_site_id
 _symmetry_equiv_pos_as_xyz
  1  'x, y, z'
loop_
 _atom_site_type_symbol
 _atom_site_label
 _atom_site_symmetry_multiplicity
 _atom_site_fract_x
 _atom_site_fract_y
 _atom_site_fract_z
 _atom_site_occupancy
  Hf  Hf0  1  0.98785321  0.75000000  0.69269943  1.0
  Hf  Hf1  1  0.48785321  0.75000000  0.80730057  1.0
  Hf  Hf2  1  0.01214679  0.25000000  0.30730057  1.0
  Hf  Hf3  1  0.51214679  0.25000000  0.19269943  1.0
  Cu  Cu4  1  0.83032077  0.75000000  0.07722462  1.0
  Cu  Cu5  1  0.33032077  0.75000000  0.42277538  1.0
  Cu  Cu6  1  0.16967923  0.25000000  0.92277538  1.0
  Cu  Cu7  1  0.66967923  0.25000000  0.57722462  1.0
  Ge  Ge8  1  0.72337981  0.75000000  0.39709726  1.0
  Ge  Ge9  1  0.22337981  0.75000000  0.10290274  1.0
  Ge  Ge10  1  0.27662019  0.25000000  0.60290274  1.0
  Ge  Ge11  1  0.77662019  0.25000000  0.89709726  1.0
