# generated using pymatgen
data_NbCoP
_symmetry_space_group_name_H-M   'P 1'
_cell_length_a   6.13089832
_cell_length_b   3.59938178
_cell_length_c   6.95356491
_cell_angle_alpha   90.00000000
_cell_angle_beta   90.00000000
_cell_angle_gamma   90.00000000
_symmetry_Int_Tables_number   1
_chemical_formula_structural   NbCoP
_chemical_formula_sum   'Nb4 Co4 P4'
_cell_volume   153.44740184
_cell_formula_units_Z   4
loop_
 _symmetry_equiv_pos_site_id
 _symmetry_equiv_pos_as_xyz
  1  'x, y, z'
loop_
 _atom_site_type_symbol
 _atom_site_label
 _atom_site_symmetry_multiplicity
 _atom_site_fract_x
 _atom_site_fract_y
 _atom_site_fract_z
 _atom_site_occupancy
  Nb  Nb0  1  0.97409519  0.75000000  0.67243818  1.0
  Nb  Nb1  1  0.47409519  0.75000000  0.82756182  1.0
  Nb  Nb2  1  0.02590481  0.25000000  0.32756182  1.0
  Nb  Nb3  1  0.52590481  0.25000000  0.17243818  1.0
  Co  Co4  1  0.85399832  0.75000000  0.06127493  1.0
  Co  Co5  1  0.35399832  0.75000000  0.43872507  1.0
  Co  Co6  1  0.14600168  0.25000000  0.93872507  1.0
  Co  Co7  1  0.64600168  0.25000000  0.56127493  1.0
  P  P8  1  0.72195732  0.75000000  0.37941915  1.0
  P  P9  1  0.22195732  0.75000000  0.12058085  1.0
  P  P10  1  0.27804268  0.25000000  0.62058085  1.0
  P  P11  1  0.77804268  0.25000000  0.87941915  1.0
