# generated using pymatgen
data_Sr2GeO4
_symmetry_space_group_name_H-M   'P 1'
_cell_length_a   5.91916188
_cell_length_b   7.28838702
_cell_length_c   11.21408398
_cell_angle_alpha   90.00000000
_cell_angle_beta   116.97691184
_cell_angle_gamma   90.00000000
_symmetry_Int_Tables_number   1
_chemical_formula_structural   Sr2GeO4
_chemical_formula_sum   'Sr8 Ge4 O16'
_cell_volume   431.14708744
_cell_formula_units_Z   4
loop_
 _symmetry_equiv_pos_site_id
 _symmetry_equiv_pos_as_xyz
  1  'x, y, z'
loop_
 _atom_site_type_symbol
 _atom_site_label
 _atom_site_symmetry_multiplicity
 _atom_site_fract_x
 _atom_site_fract_y
 _atom_site_fract_z
 _atom_site_occupancy
  Sr  Sr0  1  0.29794462  0.15581740  0.06987147  1.0
  Sr  Sr1  1  0.29794462  0.34418260  0.56987147  1.0
  Sr  Sr2  1  0.70205538  0.84418260  0.93012853  1.0
  Sr  Sr3  1  0.70205538  0.65581740  0.43012853  1.0
  Sr  Sr4  1  0.01967513  0.50413101  0.79935757  1.0
  Sr  Sr5  1  0.01967513  0.99586899  0.29935757  1.0
  Sr  Sr6  1  0.98032487  0.49586899  0.20064243  1.0
  Sr  Sr7  1  0.98032487  0.00413101  0.70064243  1.0
  Ge  Ge8  1  0.34839186  0.71714144  0.08254746  1.0
  Ge  Ge9  1  0.34839186  0.78285856  0.58254746  1.0
  Ge  Ge10  1  0.65160814  0.28285856  0.91745254  1.0
  Ge  Ge11  1  0.65160814  0.21714144  0.41745254  1.0
  O  O12  1  0.27265622  0.48286742  0.05792272  1.0
  O  O13  1  0.27265622  0.01713258  0.55792272  1.0
  O  O14  1  0.72734378  0.51713258  0.94207728  1.0
  O  O15  1  0.72734378  0.98286742  0.44207728  1.0
  O  O16  1  0.27217843  0.83094961  0.92634569  1.0
  O  O17  1  0.27217843  0.66905039  0.42634569  1.0
  O  O18  1  0.72782157  0.16905039  0.07365431  1.0
  O  O19  1  0.72782157  0.33094961  0.57365431  1.0
  O  O20  1  0.14230859  0.83109438  0.13682548  1.0
  O  O21  1  0.14230859  0.66890562  0.63682548  1.0
  O  O22  1  0.85769141  0.16890562  0.86317452  1.0
  O  O23  1  0.85769141  0.33109438  0.36317452  1.0
  O  O24  1  0.67481756  0.74893649  0.19559601  1.0
  O  O25  1  0.67481756  0.75106351  0.69559601  1.0
  O  O26  1  0.32518244  0.25106351  0.80440399  1.0
  O  O27  1  0.32518244  0.24893649  0.30440399  1.0
