# generated using pymatgen
data_LaIn2Pd
_symmetry_space_group_name_H-M   'P 1'
_cell_length_a   5.89916472
_cell_length_b   5.89916472
_cell_length_c   7.62897432
_cell_angle_alpha   90.00000000
_cell_angle_beta   90.00000000
_cell_angle_gamma   132.91421010
_symmetry_Int_Tables_number   1
_chemical_formula_structural   LaIn2Pd
_chemical_formula_sum   'La2 In4 Pd2'
_cell_volume   194.43755247
_cell_formula_units_Z   2
loop_
 _symmetry_equiv_pos_site_id
 _symmetry_equiv_pos_as_xyz
  1  'x, y, z'
loop_
 _atom_site_type_symbol
 _atom_site_label
 _atom_site_symmetry_multiplicity
 _atom_site_fract_x
 _atom_site_fract_y
 _atom_site_fract_z
 _atom_site_occupancy
  La  La0  1  -0.42375033  0.42375033  0.25000000  1.0
  La  La1  1  0.42375033  0.57624967  0.75000000  1.0
  In  In2  1  -0.13913724  0.13913724  0.44943615  1.0
  In  In3  1  0.13913724  0.86086276  0.55056385  1.0
  In  In4  1  -0.13913724  0.13913724  0.05056385  1.0
  In  In5  1  0.13913724  0.86086276  0.94943615  1.0
  Pd  Pd6  1  0.29404829  0.70595171  0.25000000  1.0
  Pd  Pd7  1  -0.29404829  0.29404829  0.75000000  1.0
