# generated using pymatgen
data_Hf9CoRe4
_symmetry_space_group_name_H-M   'P 1'
_cell_length_a   8.57419938
_cell_length_b   8.57419938
_cell_length_c   8.46169000
_cell_angle_alpha   90.00000000
_cell_angle_beta   90.00000000
_cell_angle_gamma   120.00000000
_symmetry_Int_Tables_number   1
_chemical_formula_structural   Hf9CoRe4
_chemical_formula_sum   'Hf18 Co2 Re8'
_cell_volume   538.73463657
_cell_formula_units_Z   2
loop_
 _symmetry_equiv_pos_site_id
 _symmetry_equiv_pos_as_xyz
  1  'x, y, z'
loop_
 _atom_site_type_symbol
 _atom_site_label
 _atom_site_symmetry_multiplicity
 _atom_site_fract_x
 _atom_site_fract_y
 _atom_site_fract_z
 _atom_site_occupancy
  Hf  Hf0  1  0.19950906  0.80049094  0.44168484  1.0
  Hf  Hf1  1  0.19950906  0.39901813  0.44168484  1.0
  Hf  Hf2  1  0.60098187  0.80049094  0.44168484  1.0
  Hf  Hf3  1  0.80049094  0.19950906  0.55831516  1.0
  Hf  Hf4  1  0.80049094  0.60098187  0.55831516  1.0
  Hf  Hf5  1  0.39901813  0.19950906  0.55831516  1.0
  Hf  Hf6  1  0.80049094  0.19950906  0.94168484  1.0
  Hf  Hf7  1  0.80049094  0.60098187  0.94168484  1.0
  Hf  Hf8  1  0.39901813  0.19950906  0.94168484  1.0
  Hf  Hf9  1  0.19950906  0.80049094  0.05831516  1.0
  Hf  Hf10  1  0.19950906  0.39901813  0.05831516  1.0
  Hf  Hf11  1  0.60098187  0.80049094  0.05831516  1.0
  Hf  Hf12  1  0.54113675  0.45886325  0.25000000  1.0
  Hf  Hf13  1  0.54113675  0.08227350  0.25000000  1.0
  Hf  Hf14  1  0.91772650  0.45886325  0.25000000  1.0
  Hf  Hf15  1  0.45886325  0.54113675  0.75000000  1.0
  Hf  Hf16  1  0.45886325  0.91772650  0.75000000  1.0
  Hf  Hf17  1  0.08227350  0.54113675  0.75000000  1.0
  Co  Co18  1  0.33333333  0.66666667  0.25000000  1.0
  Co  Co19  1  0.66666667  0.33333333  0.75000000  1.0
  Re  Re20  1  0.88972725  0.11027275  0.25000000  1.0
  Re  Re21  1  0.88972725  0.77945451  0.25000000  1.0
  Re  Re22  1  0.22054549  0.11027275  0.25000000  1.0
  Re  Re23  1  0.11027275  0.88972725  0.75000000  1.0
  Re  Re24  1  0.11027275  0.22054549  0.75000000  1.0
  Re  Re25  1  0.77945451  0.88972725  0.75000000  1.0
  Re  Re26  1  0.00000000  0.00000000  0.50000000  1.0
  Re  Re27  1  0.00000000  0.00000000  0.00000000  1.0
