# generated using pymatgen
data_Y2Ni7
_symmetry_space_group_name_H-M   'P 1'
_cell_length_a   12.42570199
_cell_length_b   12.42570199
_cell_length_c   12.42570199
_cell_angle_alpha   22.93441219
_cell_angle_beta   22.93441219
_cell_angle_gamma   22.93441219
_symmetry_Int_Tables_number   1
_chemical_formula_structural   Y2Ni7
_chemical_formula_sum   'Y4 Ni14'
_cell_volume   255.65889218
_cell_formula_units_Z   2
loop_
 _symmetry_equiv_pos_site_id
 _symmetry_equiv_pos_as_xyz
  1  'x, y, z'
loop_
 _atom_site_type_symbol
 _atom_site_label
 _atom_site_symmetry_multiplicity
 _atom_site_fract_x
 _atom_site_fract_y
 _atom_site_fract_z
 _atom_site_occupancy
  Y  Y0  1  0.94953129  0.94953129  0.94953129  1.0
  Y  Y1  1  1.05046871  1.05046871  0.05046871  1.0
  Y  Y2  1  0.85303725  0.85303725  0.85303725  1.0
  Y  Y3  1  1.14696275  1.14696275  0.14696275  1.0
  Ni  Ni4  1  0.72177060  0.72177060  0.72177061  1.0
  Ni  Ni5  1  1.27822939  1.27822939  0.27822940  1.0
  Ni  Ni6  1  1.39013380  0.39013380  0.89113816  1.0
  Ni  Ni7  1  1.39013380  0.89113816  0.39013380  1.0
  Ni  Ni8  1  1.10886184  0.60986620  0.60986620  1.0
  Ni  Ni9  1  1.60986620  0.10886184  0.60986620  1.0
  Ni  Ni10  1  1.60986620  0.60986620  0.10886184  1.0
  Ni  Ni11  1  0.89113816  1.39013380  0.39013380  1.0
  Ni  Ni12  1  1.50000000  0.50000000  0.50000000  1.0
  Ni  Ni13  1  1.61180899  0.61180899  0.61180899  1.0
  Ni  Ni14  1  1.38819101  0.38819101  0.38819101  1.0
  Ni  Ni15  1  0.50000000  0.00000000  -0.50000000  1.0
  Ni  Ni16  1  0.50000000  -0.50000000  0.00000000  1.0
  Ni  Ni17  1  0.00000000  0.50000000  -0.50000000  1.0
