# generated using pymatgen
data_SiB4
_symmetry_space_group_name_H-M   'P 1'
_cell_length_a   5.47920069
_cell_length_b   5.47920069
_cell_length_c   5.47920069
_cell_angle_alpha   69.03923365
_cell_angle_beta   69.03923365
_cell_angle_gamma   69.03923364
_symmetry_Int_Tables_number   1
_chemical_formula_structural   SiB4
_chemical_formula_sum   'Si3 B12'
_cell_volume   138.37580316
_cell_formula_units_Z   3
loop_
 _symmetry_equiv_pos_site_id
 _symmetry_equiv_pos_as_xyz
  1  'x, y, z'
loop_
 _atom_site_type_symbol
 _atom_site_label
 _atom_site_symmetry_multiplicity
 _atom_site_fract_x
 _atom_site_fract_y
 _atom_site_fract_z
 _atom_site_occupancy
  Si  Si0  1  0.50000000  0.50000000  -0.50000000  1.0
  Si  Si1  1  0.67512586  0.67512586  -0.32487414  1.0
  Si  Si2  1  0.32487414  0.32487414  -0.67512586  1.0
  B  B3  1  0.72529530  0.17744304  -0.82255696  1.0
  B  B4  1  0.17744304  0.17744304  -0.27470470  1.0
  B  B5  1  0.17744304  0.72529530  -0.82255696  1.0
  B  B6  1  0.27470470  0.82255696  -0.17744304  1.0
  B  B7  1  0.82255696  0.82255696  -0.72529530  1.0
  B  B8  1  0.82255696  0.27470470  -0.17744304  1.0
  B  B9  1  1.32306283  1.01422016  0.01422016  1.0
  B  B10  1  1.01422016  1.01422016  0.32306283  1.0
  B  B11  1  1.01422016  1.32306283  0.01422016  1.0
  B  B12  1  0.67693717  0.98577984  -0.01422016  1.0
  B  B13  1  0.98577984  0.98577984  -0.32306283  1.0
  B  B14  1  0.98577984  0.67693717  -0.01422016  1.0
