# generated using pymatgen
data_H4INO4
_symmetry_space_group_name_H-M   'P 1'
_cell_length_a   7.60900065
_cell_length_b   7.60900065
_cell_length_c   7.60900065
_cell_angle_alpha   130.82806721
_cell_angle_beta   130.82806721
_cell_angle_gamma   72.08638686
_symmetry_Int_Tables_number   1
_chemical_formula_structural   H4INO4
_chemical_formula_sum   'H8 I2 N2 O8'
_cell_volume   246.64388762
_cell_formula_units_Z   2
loop_
 _symmetry_equiv_pos_site_id
 _symmetry_equiv_pos_as_xyz
  1  'x, y, z'
loop_
 _atom_site_type_symbol
 _atom_site_label
 _atom_site_symmetry_multiplicity
 _atom_site_fract_x
 _atom_site_fract_y
 _atom_site_fract_z
 _atom_site_occupancy
  H  H0  1  0.52368852  1.41908390  0.84395651  1.0
  H  H1  1  1.57512739  0.67973201  1.15604349  1.0
  H  H2  1  0.42973201  0.77368852  0.60460462  1.0
  H  H3  1  1.16908390  0.82512739  1.39539538  1.0
  H  H4  1  1.22631148  0.83091610  1.65604349  1.0
  H  H5  1  0.17487261  0.57026799  0.34395651  1.0
  H  H6  1  1.32026799  1.47631148  1.89539538  1.0
  H  H7  1  0.58091610  0.42487261  0.10460462  1.0
  I  I8  1  0.75000000  0.25000000  0.50000000  1.0
  I  I9  1  1.00000000  1.00000000  1.00000000  1.0
  N  N10  1  0.50000000  0.50000000  -0.00000000  1.0
  N  N11  1  0.25000000  0.75000000  0.50000000  1.0
  O  O12  1  1.03967817  0.45935561  0.83049987  1.0
  O  O13  1  0.62885573  1.20917830  1.16950013  1.0
  O  O14  1  0.95917830  1.28967817  1.08032257  1.0
  O  O15  1  1.20935561  0.87885573  0.91967743  1.0
  O  O16  1  0.71032183  0.79064439  0.66950013  1.0
  O  O17  1  1.12114427  1.04082170  1.33049987  1.0
  O  O18  1  0.79082170  0.96032183  1.41967743  1.0
  O  O19  1  0.54064439  0.37114427  0.58032257  1.0
