# generated using pymatgen
data_Y3Co
_symmetry_space_group_name_H-M   'P 1'
_cell_length_a   6.96816512
_cell_length_b   9.45984073
_cell_length_c   6.27879263
_cell_angle_alpha   90.00000000
_cell_angle_beta   90.00000000
_cell_angle_gamma   90.00000000
_symmetry_Int_Tables_number   1
_chemical_formula_structural   Y3Co
_chemical_formula_sum   'Y12 Co4'
_cell_volume   413.88377079
_cell_formula_units_Z   4
loop_
 _symmetry_equiv_pos_site_id
 _symmetry_equiv_pos_as_xyz
  1  'x, y, z'
loop_
 _atom_site_type_symbol
 _atom_site_label
 _atom_site_symmetry_multiplicity
 _atom_site_fract_x
 _atom_site_fract_y
 _atom_site_fract_z
 _atom_site_occupancy
  Y  Y0  1  0.32627991  0.93147873  0.67759086  1.0
  Y  Y1  1  0.32627991  0.56852127  0.67759086  1.0
  Y  Y2  1  0.82627991  0.93147873  0.82240914  1.0
  Y  Y3  1  0.82627991  0.56852127  0.82240914  1.0
  Y  Y4  1  0.67372009  0.43147873  0.32240914  1.0
  Y  Y5  1  0.67372009  0.06852127  0.32240914  1.0
  Y  Y6  1  0.17372009  0.43147873  0.17759086  1.0
  Y  Y7  1  0.17372009  0.06852127  0.17759086  1.0
  Y  Y8  1  0.45567978  0.75000000  0.14200952  1.0
  Y  Y9  1  0.95567978  0.75000000  0.35799048  1.0
  Y  Y10  1  0.54432022  0.25000000  0.85799048  1.0
  Y  Y11  1  0.04432022  0.25000000  0.64200952  1.0
  Co  Co12  1  0.11278068  0.75000000  0.95517797  1.0
  Co  Co13  1  0.61278068  0.75000000  0.54482203  1.0
  Co  Co14  1  0.88721932  0.25000000  0.04482203  1.0
  Co  Co15  1  0.38721932  0.25000000  0.45517797  1.0
