# generated using pymatgen
data_Na2MgFe2(PO4)3
_symmetry_space_group_name_H-M   'P 1'
_cell_length_a   8.65832593
_cell_length_b   8.65832593
_cell_length_c   6.59531828
_cell_angle_alpha   73.95332068
_cell_angle_beta   106.04667932
_cell_angle_gamma   86.05324684
_symmetry_Int_Tables_number   1
_chemical_formula_structural   Na2MgFe2(PO4)3
_chemical_formula_sum   'Na4 Mg2 Fe4 P6 O24'
_cell_volume   450.96873026
_cell_formula_units_Z   2
loop_
 _symmetry_equiv_pos_site_id
 _symmetry_equiv_pos_as_xyz
  1  'x, y, z'
loop_
 _atom_site_type_symbol
 _atom_site_label
 _atom_site_symmetry_multiplicity
 _atom_site_fract_x
 _atom_site_fract_y
 _atom_site_fract_z
 _atom_site_occupancy
  P  P0  1  1.65777359  0.12360871  0.88572538  1.0
  P  P1  1  0.87639129  -0.65777359  0.38572538  1.0
  P  P2  1  1.12360871  0.65777359  0.61427462  1.0
  P  P3  1  0.34222641  -0.12360871  0.11427462  1.0
  P  P4  1  0.70777571  -0.29222429  0.75000000  1.0
  P  P5  1  1.29222429  0.29222429  0.25000000  1.0
  O  O6  1  0.73700648  -0.18315329  0.53515860  1.0
  O  O7  1  1.18315329  0.26299352  0.03515860  1.0
  O  O8  1  0.81684671  -0.26299352  0.96484140  1.0
  O  O9  1  1.26299352  0.18315329  0.46484140  1.0
  O  O10  1  1.82928365  0.17303459  0.89556593  1.0
  O  O11  1  0.82696541  -0.82928365  0.39556593  1.0
  O  O12  1  1.17303459  0.82928365  0.60443407  1.0
  O  O13  1  0.17071635  -0.17303459  0.10443407  1.0
  O  O14  1  0.32038727  0.00830407  0.88465269  1.0
  O  O15  1  0.99169593  0.67961273  0.38465269  1.0
  O  O16  1  1.00830407  -0.67961273  0.61534731  1.0
  O  O17  1  1.67961273  -0.00830407  0.11534731  1.0
  O  O18  1  1.52322425  0.26786726  0.83498430  1.0
  O  O19  1  0.73213274  -0.52322425  0.33498430  1.0
  O  O20  1  1.26786726  0.52322425  0.66501570  1.0
  O  O21  1  0.47677575  -0.26786726  0.16501570  1.0
  O  O22  1  0.52674951  -0.26334616  0.74051496  1.0
  O  O23  1  1.26334616  0.47325049  0.24051496  1.0
  O  O24  1  0.73665384  -0.47325049  0.75948504  1.0
  O  O25  1  1.47325049  0.26334616  0.25948504  1.0
  O  O26  1  1.60661910  0.04144529  0.69679888  1.0
  O  O27  1  0.95855471  -0.60661910  0.19679888  1.0
  O  O28  1  1.04144529  0.60661910  0.80320112  1.0
  O  O29  1  0.39338090  -0.04144529  0.30320112  1.0
  Fe  Fe30  1  0.38076044  -0.05533391  0.62138123  1.0
  Fe  Fe31  1  1.05533391  0.61923956  0.12138123  1.0
  Fe  Fe32  1  0.94466609  -0.61923956  0.87861877  1.0
  Fe  Fe33  1  1.61923956  0.05533391  0.37861877  1.0
  Mg  Mg34  1  1.26812401  0.26812401  0.75000000  1.0
  Mg  Mg35  1  0.73187599  -0.26812401  0.25000000  1.0
  Na  Na36  1  0.99076300  -0.00923700  0.75000000  1.0
  Na  Na37  1  1.00923700  0.00923700  0.25000000  1.0
  Na  Na38  1  0.50000000  -0.50000000  -0.00000000  1.0
  Na  Na39  1  0.50000000  -0.50000000  0.50000000  1.0
