# generated using pymatgen
data_Nb2Ni
_symmetry_space_group_name_H-M   'P 1'
_cell_length_a   8.13816424
_cell_length_b   8.13816424
_cell_length_c   8.13816424
_cell_angle_alpha   60.00000000
_cell_angle_beta   60.00000000
_cell_angle_gamma   60.00000000
_symmetry_Int_Tables_number   1
_chemical_formula_structural   Nb2Ni
_chemical_formula_sum   'Nb16 Ni8'
_cell_volume   381.12229343
_cell_formula_units_Z   8
loop_
 _symmetry_equiv_pos_site_id
 _symmetry_equiv_pos_as_xyz
  1  'x, y, z'
loop_
 _atom_site_type_symbol
 _atom_site_label
 _atom_site_symmetry_multiplicity
 _atom_site_fract_x
 _atom_site_fract_y
 _atom_site_fract_z
 _atom_site_occupancy
  Nb  Nb0  1  0.56347533  -0.43652467  0.93652467  1.0
  Nb  Nb1  1  0.93652467  -0.43652467  0.93652467  1.0
  Nb  Nb2  1  0.56347533  -0.06347533  0.93652467  1.0
  Nb  Nb3  1  0.93652467  -0.06347533  0.56347533  1.0
  Nb  Nb4  1  0.56347533  -0.06347533  0.56347533  1.0
  Nb  Nb5  1  0.93652467  -0.43652467  0.56347533  1.0
  Nb  Nb6  1  -0.31347533  0.68652467  0.31347533  1.0
  Nb  Nb7  1  0.31347533  0.68652467  0.31347533  1.0
  Nb  Nb8  1  -0.31347533  1.31347533  0.31347533  1.0
  Nb  Nb9  1  0.31347533  0.31347533  -0.31347533  1.0
  Nb  Nb10  1  0.68652467  0.31347533  0.68652467  1.0
  Nb  Nb11  1  0.31347533  0.68652467  -0.31347533  1.0
  Nb  Nb12  1  0.12500000  0.12500000  1.62500000  1.0
  Nb  Nb13  1  0.12500000  0.62500000  0.12500000  1.0
  Nb  Nb14  1  0.62500000  0.12500000  1.12500000  1.0
  Nb  Nb15  1  0.12500000  0.12500000  0.12500000  1.0
  Ni  Ni16  1  -0.08107807  0.91892193  0.24323421  1.0
  Ni  Ni17  1  0.91892193  -0.75676579  0.91892193  1.0
  Ni  Ni18  1  -0.75676579  0.91892193  0.91892193  1.0
  Ni  Ni19  1  0.91892193  -0.08107807  0.91892193  1.0
  Ni  Ni20  1  0.33107807  0.33107807  0.00676579  1.0
  Ni  Ni21  1  0.33107807  0.00676579  0.33107807  1.0
  Ni  Ni22  1  0.00676579  0.33107807  0.33107807  1.0
  Ni  Ni23  1  0.33107807  0.33107807  0.33107807  1.0
