# generated using pymatgen
data_B6Pb3O11F2
_symmetry_space_group_name_H-M   'P 1'
_cell_length_a   6.68040787
_cell_length_b   8.41148678
_cell_length_c   10.35813265
_cell_angle_alpha   90.00000000
_cell_angle_beta   103.53563311
_cell_angle_gamma   90.00000000
_symmetry_Int_Tables_number   1
_chemical_formula_structural   B6Pb3O11F2
_chemical_formula_sum   'B12 Pb6 O22 F4'
_cell_volume   565.87928605
_cell_formula_units_Z   2
loop_
 _symmetry_equiv_pos_site_id
 _symmetry_equiv_pos_as_xyz
  1  'x, y, z'
loop_
 _atom_site_type_symbol
 _atom_site_label
 _atom_site_symmetry_multiplicity
 _atom_site_fract_x
 _atom_site_fract_y
 _atom_site_fract_z
 _atom_site_occupancy
  B  B0  1  0.99857741  0.02248679  0.04628661  1.0
  B  B1  1  0.00142259  0.52248679  0.95371339  1.0
  B  B2  1  0.07440025  0.96328701  0.37032245  1.0
  B  B3  1  0.92559975  0.46328701  0.62967755  1.0
  B  B4  1  0.91576631  0.70787631  0.32702328  1.0
  B  B5  1  0.08423369  0.20787631  0.67297672  1.0
  B  B6  1  0.70692247  0.95748030  0.28681233  1.0
  B  B7  1  0.29307753  0.45748030  0.71318767  1.0
  B  B8  1  0.31507463  0.98383136  0.22353624  1.0
  B  B9  1  0.68492537  0.48383136  0.77646376  1.0
  B  B10  1  0.90989078  0.24268283  0.87274795  1.0
  B  B11  1  0.09010922  0.74268283  0.12725205  1.0
  Pb  Pb12  1  -0.07747942  0.85755350  0.73184041  1.0
  Pb  Pb13  1  1.07747942  0.35755350  0.26815959  1.0
  Pb  Pb14  1  0.54334414  0.18252561  0.54648169  1.0
  Pb  Pb15  1  0.45665586  0.68252561  0.45351831  1.0
  Pb  Pb16  1  0.46195193  0.18492827  0.96146895  1.0
  Pb  Pb17  1  0.53804807  0.68492827  0.03853105  1.0
  O  O18  1  0.07138252  0.80856184  0.41367452  1.0
  O  O19  1  0.92861748  0.30856184  0.58632548  1.0
  O  O20  1  0.88892894  0.04431737  0.32448086  1.0
  O  O21  1  0.11107106  0.54431737  0.67551914  1.0
  O  O22  1  0.65454705  0.92066068  0.58235677  1.0
  O  O23  1  0.34545295  0.42066068  0.41764323  1.0
  O  O24  1  0.18799231  0.08009469  0.11453254  1.0
  O  O25  1  0.81200769  0.58009469  0.88546746  1.0
  O  O26  1  1.01473286  0.14910451  0.78600195  1.0
  O  O27  1  -0.01473286  0.64910451  0.21399805  1.0
  O  O28  1  0.85818007  0.12314988  0.96662366  1.0
  O  O29  1  0.14181993  0.62314988  0.03337634  1.0
  O  O30  1  0.25224570  0.03187866  0.35144596  1.0
  O  O31  1  0.74775430  0.53187866  0.64855404  1.0
  O  O32  1  0.94445394  0.86658353  0.05789295  1.0
  O  O33  1  0.05554606  0.36658353  0.94210705  1.0
  O  O34  1  0.52860488  0.03800396  0.24097856  1.0
  O  O35  1  0.47139512  0.53800396  0.75902144  1.0
  O  O36  1  0.28336896  0.29340774  0.71347978  1.0
  O  O37  1  0.71663104  0.79340774  0.28652022  1.0
  O  O38  1  0.28691883  0.81370104  0.19801354  1.0
  O  O39  1  0.71308117  0.31370104  0.80198646  1.0
  F  F40  1  0.12540468  0.06990205  0.59928695  1.0
  F  F41  1  0.87459532  0.56990205  0.40071305  1.0
  F  F42  1  0.41557015  0.90964207  0.90530531  1.0
  F  F43  1  0.58442985  0.40964207  0.09469469  1.0
