# generated using pymatgen
data_AsSe(IF2)3
_symmetry_space_group_name_H-M   'P 1'
_cell_length_a   9.14386852
_cell_length_b   10.50850661
_cell_length_c   12.98645577
_cell_angle_alpha   90.00000000
_cell_angle_beta   97.24593972
_cell_angle_gamma   90.00000000
_symmetry_Int_Tables_number   1
_chemical_formula_structural   AsSe(IF2)3
_chemical_formula_sum   'As4 Se4 I12 F24'
_cell_volume   1237.88234357
_cell_formula_units_Z   4
loop_
 _symmetry_equiv_pos_site_id
 _symmetry_equiv_pos_as_xyz
  1  'x, y, z'
loop_
 _atom_site_type_symbol
 _atom_site_label
 _atom_site_symmetry_multiplicity
 _atom_site_fract_x
 _atom_site_fract_y
 _atom_site_fract_z
 _atom_site_occupancy
  As  As0  1  0.79669608  0.72521315  0.93970171  1.0
  As  As1  1  0.79669608  0.77478685  0.43970171  1.0
  As  As2  1  0.20330392  0.22521315  0.56029829  1.0
  As  As3  1  0.20330392  0.27478685  0.06029829  1.0
  Se  Se4  1  0.78463935  0.32517161  0.80448949  1.0
  Se  Se5  1  0.78463935  0.17482839  0.30448949  1.0
  Se  Se6  1  0.21536065  0.82517161  0.69551051  1.0
  Se  Se7  1  0.21536065  0.67482839  0.19551051  1.0
  I  I8  1  0.46226249  0.83164438  0.62258819  1.0
  I  I9  1  0.46226249  0.66835562  0.12258819  1.0
  I  I10  1  0.53773751  0.33164438  0.87741181  1.0
  I  I11  1  0.53773751  0.16835562  0.37741181  1.0
  I  I12  1  0.25403246  0.96012562  0.85937729  1.0
  I  I13  1  0.25403246  0.53987438  0.35937729  1.0
  I  I14  1  0.74596754  0.46012562  0.64062271  1.0
  I  I15  1  0.74596754  0.03987438  0.14062271  1.0
  I  I16  1  0.20555674  0.59379410  0.75303769  1.0
  I  I17  1  0.20555674  0.90620590  0.25303769  1.0
  I  I18  1  0.79444326  0.09379410  0.74696231  1.0
  I  I19  1  0.79444326  0.40620590  0.24696231  1.0
  F  F20  1  0.03069823  0.26595690  0.48666192  1.0
  F  F21  1  0.03069823  0.23404310  -0.01333808  1.0
  F  F22  1  0.96930177  0.76595690  1.01333808  1.0
  F  F23  1  0.96930177  0.73404310  0.51333808  1.0
  F  F24  1  0.86754579  0.57202995  0.91042608  1.0
  F  F25  1  0.86754579  0.92797005  0.41042608  1.0
  F  F26  1  0.13245421  0.07202995  0.58957392  1.0
  F  F27  1  0.13245421  0.42797005  0.08957392  1.0
  F  F28  1  0.85505498  0.79239165  0.82489934  1.0
  F  F29  1  0.85505498  0.70760835  0.32489934  1.0
  F  F30  1  0.14494502  0.29239165  0.67510066  1.0
  F  F31  1  0.14494502  0.20760835  0.17510066  1.0
  F  F32  1  0.73674075  0.84028547  0.55770032  1.0
  F  F33  1  0.73674075  0.65971453  0.05770032  1.0
  F  F34  1  0.26325925  0.34028547  0.94229968  1.0
  F  F35  1  0.26325925  0.15971453  0.44229968  1.0
  F  F36  1  0.72244313  0.87878861  0.97190453  1.0
  F  F37  1  0.72244313  0.62121139  0.47190453  1.0
  F  F38  1  0.27755687  0.37878861  0.52809547  1.0
  F  F39  1  0.27755687  0.12121139  0.02809547  1.0
  F  F40  1  0.62073870  0.68566480  0.87101812  1.0
  F  F41  1  0.62073870  0.81433520  0.37101812  1.0
  F  F42  1  0.37926130  0.18566480  0.62898188  1.0
  F  F43  1  0.37926130  0.31433520  0.12898188  1.0
