# generated using pymatgen
data_HfCr2
_symmetry_space_group_name_H-M   'P 1'
_cell_length_a   5.04527934
_cell_length_b   5.04527934
_cell_length_c   8.09525915
_cell_angle_alpha   90.00000000
_cell_angle_beta   90.00000000
_cell_angle_gamma   120.00000000
_symmetry_Int_Tables_number   1
_chemical_formula_structural   HfCr2
_chemical_formula_sum   'Hf4 Cr8'
_cell_volume   178.45627392
_cell_formula_units_Z   4
loop_
 _symmetry_equiv_pos_site_id
 _symmetry_equiv_pos_as_xyz
  1  'x, y, z'
loop_
 _atom_site_type_symbol
 _atom_site_label
 _atom_site_symmetry_multiplicity
 _atom_site_fract_x
 _atom_site_fract_y
 _atom_site_fract_z
 _atom_site_occupancy
  Hf  Hf0  1  0.33333333  0.66666667  0.93951356  1.0
  Hf  Hf1  1  0.33333333  0.66666667  0.56048644  1.0
  Hf  Hf2  1  0.66666667  0.33333333  0.43951356  1.0
  Hf  Hf3  1  0.66666667  0.33333333  0.06048644  1.0
  Cr  Cr4  1  0.16837536  0.83162464  0.25000000  1.0
  Cr  Cr5  1  0.16837536  0.33675073  0.25000000  1.0
  Cr  Cr6  1  0.83162464  0.16837536  0.75000000  1.0
  Cr  Cr7  1  0.83162464  0.66324927  0.75000000  1.0
  Cr  Cr8  1  0.66324927  0.83162464  0.25000000  1.0
  Cr  Cr9  1  0.33675073  0.16837536  0.75000000  1.0
  Cr  Cr10  1  -0.00000000  -0.00000000  0.50000000  1.0
  Cr  Cr11  1  0.00000000  0.00000000  0.00000000  1.0
