# generated using pymatgen
data_Na6S2O9
_symmetry_space_group_name_H-M   'P 1'
_cell_length_a   6.94000669
_cell_length_b   6.94000669
_cell_length_c   6.94000669
_cell_angle_alpha   60.00000000
_cell_angle_beta   60.00000000
_cell_angle_gamma   60.00000000
_symmetry_Int_Tables_number   1
_chemical_formula_structural   Na6S2O9
_chemical_formula_sum   'Na6 S2 O9'
_cell_volume   236.35493266
_cell_formula_units_Z   1
loop_
 _symmetry_equiv_pos_site_id
 _symmetry_equiv_pos_as_xyz
  1  'x, y, z'
loop_
 _atom_site_type_symbol
 _atom_site_label
 _atom_site_symmetry_multiplicity
 _atom_site_fract_x
 _atom_site_fract_y
 _atom_site_fract_z
 _atom_site_occupancy
  Na  Na0  1  -0.76468000  0.76468000  0.76468000  1.0
  Na  Na1  1  -0.23532000  0.23532000  0.76468000  1.0
  Na  Na2  1  0.76468000  0.76468000  -0.76468000  1.0
  Na  Na3  1  0.23532000  1.23532000  -0.23532000  1.0
  Na  Na4  1  0.23532000  -0.23532000  1.23532000  1.0
  Na  Na5  1  -0.23532000  0.23532000  0.23532000  1.0
  S  S6  1  0.75000000  0.75000000  -0.25000000  1.0
  S  S7  1  1.25000000  0.25000000  0.25000000  1.0
  O  O8  1  0.66174953  0.66174953  -0.33825047  1.0
  O  O9  1  0.33825047  1.33825047  -0.01475142  1.0
  O  O10  1  1.33825047  -0.01475142  0.33825047  1.0
  O  O11  1  1.01475142  0.66174953  0.66174953  1.0
  O  O12  1  -0.01475142  1.33825047  0.33825047  1.0
  O  O13  1  0.66174953  1.01475142  -0.33825047  1.0
  O  O14  1  0.66174953  0.66174953  1.01475142  1.0
  O  O15  1  1.33825047  0.33825047  0.33825047  1.0
  O  O16  1  0.00000000  0.00000000  0.00000000  1.0
