# generated using pymatgen
data_ZnPd(CN)4
_symmetry_space_group_name_H-M   'P 1'
_cell_length_a   5.46790980
_cell_length_b   5.46790980
_cell_length_c   13.33508362
_cell_angle_alpha   90.00000000
_cell_angle_beta   90.00000000
_cell_angle_gamma   90.00000000
_symmetry_Int_Tables_number   1
_chemical_formula_structural   ZnPd(CN)4
_chemical_formula_sum   'Zn2 Pd2 C8 N8'
_cell_volume   398.69283112
_cell_formula_units_Z   2
loop_
 _symmetry_equiv_pos_site_id
 _symmetry_equiv_pos_as_xyz
  1  'x, y, z'
loop_
 _atom_site_type_symbol
 _atom_site_label
 _atom_site_symmetry_multiplicity
 _atom_site_fract_x
 _atom_site_fract_y
 _atom_site_fract_z
 _atom_site_occupancy
  Zn  Zn0  1  0.50000000  0.50000000  0.75000000  1.0
  Zn  Zn1  1  0.50000000  0.50000000  0.25000000  1.0
  Pd  Pd2  1  0.00000000  0.00000000  0.00000000  1.0
  Pd  Pd3  1  0.00000000  0.00000000  0.50000000  1.0
  C  C4  1  0.81603012  0.81603012  0.89632457  1.0
  C  C5  1  0.81603012  0.81603012  0.10367543  1.0
  C  C6  1  0.81603012  0.18396988  0.39632457  1.0
  C  C7  1  0.81603012  0.18396988  0.60367543  1.0
  C  C8  1  0.18396988  0.81603012  0.39632457  1.0
  C  C9  1  0.18396988  0.81603012  0.60367543  1.0
  C  C10  1  0.18396988  0.18396988  0.89632457  1.0
  C  C11  1  0.18396988  0.18396988  0.10367543  1.0
  N  N12  1  0.70432610  0.70432610  0.83774643  1.0
  N  N13  1  0.70432610  0.70432610  0.16225357  1.0
  N  N14  1  0.70432610  0.29567390  0.33774643  1.0
  N  N15  1  0.70432610  0.29567390  0.66225357  1.0
  N  N16  1  0.29567390  0.70432610  0.33774643  1.0
  N  N17  1  0.29567390  0.70432610  0.66225357  1.0
  N  N18  1  0.29567390  0.29567390  0.83774643  1.0
  N  N19  1  0.29567390  0.29567390  0.16225357  1.0
