# generated using pymatgen
data_Nb7P4
_symmetry_space_group_name_H-M   'P 1'
_cell_length_a   7.71052502
_cell_length_b   7.71052502
_cell_length_c   13.90490900
_cell_angle_alpha   75.57459377
_cell_angle_beta   104.42540623
_cell_angle_gamma   154.15152954
_symmetry_Int_Tables_number   1
_chemical_formula_structural   Nb7P4
_chemical_formula_sum   'Nb14 P8'
_cell_volume   348.45335924
_cell_formula_units_Z   2
loop_
 _symmetry_equiv_pos_site_id
 _symmetry_equiv_pos_as_xyz
  1  'x, y, z'
loop_
 _atom_site_type_symbol
 _atom_site_label
 _atom_site_symmetry_multiplicity
 _atom_site_fract_x
 _atom_site_fract_y
 _atom_site_fract_z
 _atom_site_occupancy
  Nb  Nb0  1  0.19499633  -0.19499633  0.81228713  1.0
  Nb  Nb1  1  0.80500367  0.19499633  0.18771287  1.0
  Nb  Nb2  1  0.99635677  0.00364323  0.83457674  1.0
  Nb  Nb3  1  0.00364323  -0.00364323  0.16542326  1.0
  Nb  Nb4  1  0.82515066  0.17484934  0.95929640  1.0
  Nb  Nb5  1  0.17484934  -0.17484934  0.04070360  1.0
  Nb  Nb6  1  0.79005200  0.20994800  0.69984607  1.0
  Nb  Nb7  1  0.20994800  -0.20994800  0.30015393  1.0
  Nb  Nb8  1  0.66222765  0.33777235  0.47249724  1.0
  Nb  Nb9  1  0.33777235  -0.33777235  0.52750276  1.0
  Nb  Nb10  1  0.56814447  0.43185553  0.67265602  1.0
  Nb  Nb11  1  0.43185553  -0.43185553  0.32734398  1.0
  Nb  Nb12  1  -0.00000000  0.00000000  0.50000000  1.0
  Nb  Nb13  1  0.50000000  0.50000000  0.00000000  1.0
  P  P14  1  0.93568041  0.06431959  0.65045558  1.0
  P  P15  1  0.06431959  -0.06431959  0.34954442  1.0
  P  P16  1  0.82648647  0.17351353  0.38750088  1.0
  P  P17  1  0.17351353  -0.17351353  0.61249912  1.0
  P  P18  1  0.62596967  0.37403033  0.89819952  1.0
  P  P19  1  0.37403033  -0.37403033  0.10180048  1.0
  P  P20  1  0.36942450  -0.36942450  0.83560506  1.0
  P  P21  1  0.63057550  0.36942450  0.16439494  1.0
