# generated using pymatgen
data_CsK2Sc(PO4)2
_symmetry_space_group_name_H-M   'P 1'
_cell_length_a   5.56166540
_cell_length_b   5.56166540
_cell_length_c   7.99978115
_cell_angle_alpha   90.00000000
_cell_angle_beta   90.00000000
_cell_angle_gamma   120.00000000
_symmetry_Int_Tables_number   1
_chemical_formula_structural   CsK2Sc(PO4)2
_chemical_formula_sum   'Cs1 K2 Sc1 P2 O8'
_cell_volume   214.29816537
_cell_formula_units_Z   1
loop_
 _symmetry_equiv_pos_site_id
 _symmetry_equiv_pos_as_xyz
  1  'x, y, z'
loop_
 _atom_site_type_symbol
 _atom_site_label
 _atom_site_symmetry_multiplicity
 _atom_site_fract_x
 _atom_site_fract_y
 _atom_site_fract_z
 _atom_site_occupancy
  Cs  Cs0  1  0.00000000  0.00000000  0.00000000  1.0
  K  K1  1  0.33333333  0.66666667  0.74600537  1.0
  K  K2  1  0.66666667  0.33333333  0.25399463  1.0
  Sc  Sc3  1  0.00000000  0.00000000  0.50000000  1.0
  P  P4  1  0.33333333  0.66666667  0.28138482  1.0
  P  P5  1  0.66666667  0.33333333  0.71861518  1.0
  O  O6  1  0.63958658  0.81979329  0.34869936  1.0
  O  O7  1  0.81979329  0.63958658  0.65130064  1.0
  O  O8  1  0.81979329  0.18020671  0.65130064  1.0
  O  O9  1  0.18020671  0.81979329  0.34869936  1.0
  O  O10  1  0.18020671  0.36041342  0.34869936  1.0
  O  O11  1  0.36041342  0.18020671  0.65130064  1.0
  O  O12  1  0.33333333  0.66666667  0.08994399  1.0
  O  O13  1  0.66666667  0.33333333  0.91005601  1.0
