# generated using pymatgen
data_CN2
_symmetry_space_group_name_H-M   'P 1'
_cell_length_a   7.75450590
_cell_length_b   7.37828840
_cell_length_c   9.13438669
_cell_angle_alpha   90.00000000
_cell_angle_beta   90.00000000
_cell_angle_gamma   90.00000000
_symmetry_Int_Tables_number   1
_chemical_formula_structural   CN2
_chemical_formula_sum   'C8 N16'
_cell_volume   522.62376069
_cell_formula_units_Z   8
loop_
 _symmetry_equiv_pos_site_id
 _symmetry_equiv_pos_as_xyz
  1  'x, y, z'
loop_
 _atom_site_type_symbol
 _atom_site_label
 _atom_site_symmetry_multiplicity
 _atom_site_fract_x
 _atom_site_fract_y
 _atom_site_fract_z
 _atom_site_occupancy
  C  C0  1  0.39331713  0.30305120  0.13001620  1.0
  C  C1  1  0.39331713  0.19694880  0.63001620  1.0
  C  C2  1  0.89331713  0.30305120  0.36998380  1.0
  C  C3  1  0.89331713  0.19694880  0.86998380  1.0
  C  C4  1  0.60668287  0.80305120  0.36998380  1.0
  C  C5  1  0.60668287  0.69694880  0.86998380  1.0
  C  C6  1  0.10668287  0.80305120  0.13001620  1.0
  C  C7  1  0.10668287  0.69694880  0.63001620  1.0
  N  N8  1  0.48502341  0.21730413  0.21584017  1.0
  N  N9  1  0.48502341  0.28269587  0.71584017  1.0
  N  N10  1  0.98502341  0.21730413  0.28415983  1.0
  N  N11  1  0.98502341  0.28269587  0.78415983  1.0
  N  N12  1  0.51497659  0.71730413  0.28415983  1.0
  N  N13  1  0.51497659  0.78269587  0.78415983  1.0
  N  N14  1  0.01497659  0.71730413  0.21584017  1.0
  N  N15  1  0.01497659  0.78269587  0.71584017  1.0
  N  N16  1  0.30181185  0.38942179  0.04427497  1.0
  N  N17  1  0.30181185  0.11057821  0.54427497  1.0
  N  N18  1  0.80181185  0.38942179  0.45572503  1.0
  N  N19  1  0.80181185  0.11057821  0.95572503  1.0
  N  N20  1  0.69818815  0.88942179  0.45572503  1.0
  N  N21  1  0.69818815  0.61057821  0.95572503  1.0
  N  N22  1  0.19818815  0.88942179  0.04427497  1.0
  N  N23  1  0.19818815  0.61057821  0.54427497  1.0
