# generated using pymatgen
data_TbWO5
_symmetry_space_group_name_H-M   'P 1'
_cell_length_a   5.29877234
_cell_length_b   12.52672063
_cell_length_c   6.75154607
_cell_angle_alpha   90.00000000
_cell_angle_beta   116.84232760
_cell_angle_gamma   90.00000000
_symmetry_Int_Tables_number   1
_chemical_formula_structural   TbWO5
_chemical_formula_sum   'Tb4 W4 O20'
_cell_volume   399.85603515
_cell_formula_units_Z   4
loop_
 _symmetry_equiv_pos_site_id
 _symmetry_equiv_pos_as_xyz
  1  'x, y, z'
loop_
 _atom_site_type_symbol
 _atom_site_label
 _atom_site_symmetry_multiplicity
 _atom_site_fract_x
 _atom_site_fract_y
 _atom_site_fract_z
 _atom_site_occupancy
  Tb  Tb0  1  0.63666833  0.04846963  0.30604178  1.0
  Tb  Tb1  1  0.63666833  0.45153037  0.80604178  1.0
  Tb  Tb2  1  0.36333167  0.54846963  0.19395822  1.0
  Tb  Tb3  1  0.36333167  0.95153037  0.69395822  1.0
  O  O4  1  0.66683125  0.42532369  0.47457890  1.0
  O  O5  1  0.66683125  0.07467631  0.97457890  1.0
  O  O6  1  0.33316875  0.92532369  0.02542110  1.0
  O  O7  1  0.33316875  0.57467631  0.52542110  1.0
  O  O8  1  0.78741587  0.63003605  0.40679964  1.0
  O  O9  1  0.78741587  0.86996395  0.90679964  1.0
  O  O10  1  0.21258413  0.13003605  0.09320036  1.0
  O  O11  1  0.21258413  0.36996395  0.59320036  1.0
  O  O12  1  0.81112364  0.22119691  0.31445907  1.0
  O  O13  1  0.81112364  0.27880309  0.81445907  1.0
  O  O14  1  0.18887636  0.72119691  0.18554093  1.0
  O  O15  1  0.18887636  0.77880309  0.68554093  1.0
  O  O16  1  0.98134320  0.93030178  0.33376330  1.0
  O  O17  1  0.98134320  0.56969822  0.83376330  1.0
  O  O18  1  0.01865680  0.43030178  0.16623670  1.0
  O  O19  1  0.01865680  0.06969822  0.66623670  1.0
  O  O20  1  0.51611732  0.40454003  0.07089599  1.0
  O  O21  1  0.51611732  0.09545997  0.57089599  1.0
  O  O22  1  0.48388268  0.90454003  0.42910401  1.0
  O  O23  1  0.48388268  0.59545997  0.92910401  1.0
  W  W24  1  0.87455532  0.36092208  0.34817414  1.0
  W  W25  1  0.87455532  0.13907792  0.84817414  1.0
  W  W26  1  0.12544468  0.86092208  0.15182586  1.0
  W  W27  1  0.12544468  0.63907792  0.65182586  1.0
