# generated using pymatgen
data_Al13Rh4
_symmetry_space_group_name_H-M   'P 1'
_cell_length_a   8.88982610
_cell_length_b   8.88982610
_cell_length_c   12.79200803
_cell_angle_alpha   74.28334213
_cell_angle_beta   105.71665787
_cell_angle_gamma   123.35266143
_symmetry_Int_Tables_number   1
_chemical_formula_structural   Al13Rh4
_chemical_formula_sum   'Al39 Rh12'
_cell_volume   803.46550347
_cell_formula_units_Z   3
loop_
 _symmetry_equiv_pos_site_id
 _symmetry_equiv_pos_as_xyz
  1  'x, y, z'
loop_
 _atom_site_type_symbol
 _atom_site_label
 _atom_site_symmetry_multiplicity
 _atom_site_fract_x
 _atom_site_fract_y
 _atom_site_fract_z
 _atom_site_occupancy
  Al  Al0  1  0.63854836  -0.08885889  0.48161367  1.0
  Al  Al1  1  1.08885889  0.36145164  0.48161367  1.0
  Al  Al2  1  0.91114111  0.63854836  0.51838633  1.0
  Al  Al3  1  0.36145164  0.08885889  0.51838633  1.0
  Al  Al4  1  0.54411193  -0.09970209  0.67031596  1.0
  Al  Al5  1  1.09970209  0.45588807  0.67031596  1.0
  Al  Al6  1  0.90029791  0.54411193  0.32968404  1.0
  Al  Al7  1  0.45588807  0.09970209  0.32968404  1.0
  Al  Al8  1  0.53840796  -0.09335699  0.88597263  1.0
  Al  Al9  1  1.09335699  0.46159204  0.88597263  1.0
  Al  Al10  1  0.90664301  0.53840796  0.11402737  1.0
  Al  Al11  1  0.46159204  0.09335699  0.11402737  1.0
  Al  Al12  1  0.34560531  0.08709826  0.88979774  1.0
  Al  Al13  1  0.91290174  0.65439469  0.88979774  1.0
  Al  Al14  1  1.08709826  0.34560531  0.11020226  1.0
  Al  Al15  1  0.65439469  -0.08709826  0.11020226  1.0
  Al  Al16  1  0.23809429  0.22247904  0.67483836  1.0
  Al  Al17  1  0.77752096  0.76190571  0.67483836  1.0
  Al  Al18  1  1.22247904  0.23809429  0.32516164  1.0
  Al  Al19  1  0.76190571  -0.22247904  0.32516164  1.0
  Al  Al20  1  0.97900910  0.02099090  0.83006197  1.0
  Al  Al21  1  0.02099090  -0.02099090  0.16993803  1.0
  Al  Al22  1  0.83686126  0.16313874  0.30133513  1.0
  Al  Al23  1  0.16313874  -0.16313874  0.69866487  1.0
  Al  Al24  1  0.79626578  0.20373422  0.76736652  1.0
  Al  Al25  1  0.20373422  -0.20373422  0.23263348  1.0
  Al  Al26  1  0.74557668  0.25442332  0.98422947  1.0
  Al  Al27  1  0.25442332  -0.25442332  0.01577053  1.0
  Al  Al28  1  0.73985318  0.26014682  0.50996260  1.0
  Al  Al29  1  0.26014682  -0.26014682  0.49003740  1.0
  Al  Al30  1  0.59157518  0.40842482  0.78827407  1.0
  Al  Al31  1  0.40842482  -0.40842482  0.21172593  1.0
  Al  Al32  1  0.57798122  0.42201878  0.58258280  1.0
  Al  Al33  1  0.42201878  -0.42201878  0.41741720  1.0
  Al  Al34  1  0.43177320  -0.43177320  0.82471151  1.0
  Al  Al35  1  0.56822680  0.43177320  0.17528849  1.0
  Al  Al36  1  0.75055430  0.75055430  0.00000000  1.0
  Al  Al37  1  0.24944570  0.24944570  0.00000000  1.0
  Al  Al38  1  -0.00000000  0.00000000  0.50000000  1.0
  Rh  Rh39  1  0.45668600  0.10286562  0.72070519  1.0
  Rh  Rh40  1  0.89713438  0.54331400  0.72070519  1.0
  Rh  Rh41  1  1.10286562  0.45668600  0.27929481  1.0
  Rh  Rh42  1  0.54331400  -0.10286562  0.27929481  1.0
  Rh  Rh43  1  0.89787883  0.10212117  0.97922652  1.0
  Rh  Rh44  1  0.10212117  -0.10212117  0.02077348  1.0
  Rh  Rh45  1  0.89682003  0.10317997  0.62533102  1.0
  Rh  Rh46  1  0.10317997  -0.10317997  0.37466898  1.0
  Rh  Rh47  1  0.59160726  0.40839274  0.98382695  1.0
  Rh  Rh48  1  0.40839274  -0.40839274  0.01617305  1.0
  Rh  Rh49  1  0.41752103  -0.41752103  0.61633042  1.0
  Rh  Rh50  1  0.58247897  0.41752103  0.38366958  1.0
