# generated using pymatgen
data_Na(Mo2O3)2
_symmetry_space_group_name_H-M   'P 1'
_cell_length_a   9.60192946
_cell_length_b   9.60192946
_cell_length_c   2.87400605
_cell_angle_alpha   90.00000000
_cell_angle_beta   90.00000000
_cell_angle_gamma   90.00000000
_symmetry_Int_Tables_number   1
_chemical_formula_structural   Na(Mo2O3)2
_chemical_formula_sum   'Na2 Mo8 O12'
_cell_volume   264.97487743
_cell_formula_units_Z   2
loop_
 _symmetry_equiv_pos_site_id
 _symmetry_equiv_pos_as_xyz
  1  'x, y, z'
loop_
 _atom_site_type_symbol
 _atom_site_label
 _atom_site_symmetry_multiplicity
 _atom_site_fract_x
 _atom_site_fract_y
 _atom_site_fract_z
 _atom_site_occupancy
  Na  Na0  1  0.50000000  0.50000000  0.00000000  1.0
  Na  Na1  1  0.00000000  0.00000000  0.00000000  1.0
  Mo  Mo2  1  0.39878362  0.10121638  0.50000000  1.0
  Mo  Mo3  1  0.89878362  0.39878362  0.50000000  1.0
  Mo  Mo4  1  0.60121638  0.89878362  0.50000000  1.0
  Mo  Mo5  1  0.10121638  0.60121638  0.50000000  1.0
  Mo  Mo6  1  0.85740716  0.64259284  0.00000000  1.0
  Mo  Mo7  1  0.35740716  0.85740716  0.00000000  1.0
  Mo  Mo8  1  0.14259284  0.35740716  0.00000000  1.0
  Mo  Mo9  1  0.64259284  0.14259284  0.00000000  1.0
  O  O10  1  0.45456772  0.73825449  0.50000000  1.0
  O  O11  1  0.95456772  0.76174551  0.50000000  1.0
  O  O12  1  0.26174551  0.45456772  0.50000000  1.0
  O  O13  1  0.76174551  0.04543228  0.50000000  1.0
  O  O14  1  0.54543228  0.26174551  0.50000000  1.0
  O  O15  1  0.04543228  0.23825449  0.50000000  1.0
  O  O16  1  0.73825449  0.54543228  0.50000000  1.0
  O  O17  1  0.23825449  0.95456772  0.50000000  1.0
  O  O18  1  0.29368802  0.20631198  0.00000000  1.0
  O  O19  1  0.79368802  0.29368802  0.00000000  1.0
  O  O20  1  0.70631198  0.79368802  0.00000000  1.0
  O  O21  1  0.20631198  0.70631198  0.00000000  1.0
