# generated using pymatgen
data_Na5Hf2F13
_symmetry_space_group_name_H-M   'P 1'
_cell_length_a   6.51449802
_cell_length_b   6.51449802
_cell_length_c   8.54440171
_cell_angle_alpha   83.28951013
_cell_angle_beta   96.71048987
_cell_angle_gamma   129.23141667
_symmetry_Int_Tables_number   1
_chemical_formula_structural   Na5Hf2F13
_chemical_formula_sum   'Na5 Hf2 F13'
_cell_volume   278.52006750
_cell_formula_units_Z   1
loop_
 _symmetry_equiv_pos_site_id
 _symmetry_equiv_pos_as_xyz
  1  'x, y, z'
loop_
 _atom_site_type_symbol
 _atom_site_label
 _atom_site_symmetry_multiplicity
 _atom_site_fract_x
 _atom_site_fract_y
 _atom_site_fract_z
 _atom_site_occupancy
  Na  Na0  1  0.77744031  0.22255969  0.34659934  1.0
  Na  Na1  1  0.22255969  -0.22255969  0.65340066  1.0
  Na  Na2  1  0.66345971  0.33654029  0.92829403  1.0
  Na  Na3  1  0.33654029  -0.33654029  0.07170597  1.0
  Na  Na4  1  0.50000000  0.50000000  0.50000000  1.0
  Hf  Hf5  1  0.92724580  0.07275420  0.75775360  1.0
  Hf  Hf6  1  0.07275420  -0.07275420  0.24224640  1.0
  F  F7  1  0.64468614  -0.08997044  0.57314495  1.0
  F  F8  1  1.08997044  0.35531386  0.57314495  1.0
  F  F9  1  0.91002956  0.64468614  0.42685505  1.0
  F  F10  1  0.35531386  0.08997044  0.42685505  1.0
  F  F11  1  0.58549121  -0.05484838  0.85664236  1.0
  F  F12  1  1.05484838  0.41450879  0.85664236  1.0
  F  F13  1  0.94515162  0.58549121  0.14335764  1.0
  F  F14  1  0.41450879  0.05484838  0.14335764  1.0
  F  F15  1  0.29561395  0.17523740  0.75188712  1.0
  F  F16  1  0.82476260  0.70438605  0.75188712  1.0
  F  F17  1  1.17523740  0.29561395  0.24811288  1.0
  F  F18  1  0.70438605  -0.17523740  0.24811288  1.0
  F  F19  1  0.00000000  0.00000000  -0.00000000  1.0
