# generated using pymatgen
data_RbMnO4
_symmetry_space_group_name_H-M   'P 1'
_cell_length_a   9.77216773
_cell_length_b   5.86210326
_cell_length_c   7.77177620
_cell_angle_alpha   90.00000000
_cell_angle_beta   90.00000000
_cell_angle_gamma   90.00000000
_symmetry_Int_Tables_number   1
_chemical_formula_structural   RbMnO4
_chemical_formula_sum   'Rb4 Mn4 O16'
_cell_volume   445.20974622
_cell_formula_units_Z   4
loop_
 _symmetry_equiv_pos_site_id
 _symmetry_equiv_pos_as_xyz
  1  'x, y, z'
loop_
 _atom_site_type_symbol
 _atom_site_label
 _atom_site_symmetry_multiplicity
 _atom_site_fract_x
 _atom_site_fract_y
 _atom_site_fract_z
 _atom_site_occupancy
  Rb  Rb0  1  0.31223985  0.75000000  0.15355882  1.0
  Rb  Rb1  1  0.81223985  0.75000000  0.34644118  1.0
  Rb  Rb2  1  0.68776015  0.25000000  0.84644118  1.0
  Rb  Rb3  1  0.18776015  0.25000000  0.65355882  1.0
  Mn  Mn4  1  0.44973717  0.75000000  0.70025245  1.0
  Mn  Mn5  1  0.94973717  0.75000000  0.79974755  1.0
  Mn  Mn6  1  0.55026283  0.25000000  0.29974755  1.0
  Mn  Mn7  1  0.05026283  0.25000000  0.20025245  1.0
  O  O8  1  0.42167622  0.97486673  0.81530076  1.0
  O  O9  1  0.42167622  0.52513327  0.81530076  1.0
  O  O10  1  0.92167622  0.97486673  0.68469924  1.0
  O  O11  1  0.92167622  0.52513327  0.68469924  1.0
  O  O12  1  0.57832378  0.47486673  0.18469924  1.0
  O  O13  1  0.57832378  0.02513327  0.18469924  1.0
  O  O14  1  0.07832378  0.47486673  0.31530076  1.0
  O  O15  1  0.07832378  0.02513327  0.31530076  1.0
  O  O16  1  0.34791103  0.75000000  0.53762045  1.0
  O  O17  1  0.84791103  0.75000000  0.96237955  1.0
  O  O18  1  0.65208897  0.25000000  0.46237955  1.0
  O  O19  1  0.15208897  0.25000000  0.03762045  1.0
  O  O20  1  0.10652505  0.75000000  0.86246265  1.0
  O  O21  1  0.60652505  0.75000000  0.63753735  1.0
  O  O22  1  0.89347495  0.25000000  0.13753735  1.0
  O  O23  1  0.39347495  0.25000000  0.36246265  1.0
