# generated using pymatgen
data_BC5
_symmetry_space_group_name_H-M   'P 1'
_cell_length_a   5.96629276
_cell_length_b   5.96629276
_cell_length_c   5.96629276
_cell_angle_alpha   155.65790152
_cell_angle_beta   155.65790152
_cell_angle_gamma   34.69423315
_symmetry_Int_Tables_number   1
_chemical_formula_structural   BC5
_chemical_formula_sum   'B1 C5'
_cell_volume   36.04336731
_cell_formula_units_Z   1
loop_
 _symmetry_equiv_pos_site_id
 _symmetry_equiv_pos_as_xyz
  1  'x, y, z'
loop_
 _atom_site_type_symbol
 _atom_site_label
 _atom_site_symmetry_multiplicity
 _atom_site_fract_x
 _atom_site_fract_y
 _atom_site_fract_z
 _atom_site_occupancy
  B  B0  1  0.75000000  0.25000000  0.50000000  1.0
  C  C1  1  0.84366646  0.84366646  1.00000000  1.0
  C  C2  1  0.15633354  0.15633354  0.00000000  1.0
  C  C3  1  0.50000000  0.50000000  1.00000000  1.0
  C  C4  1  0.41982467  0.91982467  0.50000000  1.0
  C  C5  1  0.08017533  0.58017533  0.50000000  1.0
