# generated using pymatgen
data_VH10SO10
_symmetry_space_group_name_H-M   'P 1'
_cell_length_a   7.23725555
_cell_length_b   9.38354072
_cell_length_c   6.31479831
_cell_angle_alpha   90.00000000
_cell_angle_beta   90.00000000
_cell_angle_gamma   90.00000000
_symmetry_Int_Tables_number   1
_chemical_formula_structural   VH10SO10
_chemical_formula_sum   'V2 H20 S2 O20'
_cell_volume   428.84478698
_cell_formula_units_Z   2
loop_
 _symmetry_equiv_pos_site_id
 _symmetry_equiv_pos_as_xyz
  1  'x, y, z'
loop_
 _atom_site_type_symbol
 _atom_site_label
 _atom_site_symmetry_multiplicity
 _atom_site_fract_x
 _atom_site_fract_y
 _atom_site_fract_z
 _atom_site_occupancy
  H  H0  1  0.39084802  0.67647673  0.14565160  1.0
  H  H1  1  0.89084802  0.32352327  0.64565160  1.0
  H  H2  1  0.60915198  0.67647673  0.14565160  1.0
  H  H3  1  0.10915198  0.32352327  0.64565160  1.0
  H  H4  1  0.34127438  1.00391617  0.91682084  1.0
  H  H5  1  0.84127438  -0.00391617  0.41682084  1.0
  H  H6  1  0.65872562  1.00391617  0.91682084  1.0
  H  H7  1  0.15872562  -0.00391617  0.41682084  1.0
  H  H8  1  0.32014446  0.53011869  0.72814707  1.0
  H  H9  1  0.82014446  0.46988131  0.22814707  1.0
  H  H10  1  0.67985554  0.53011869  0.72814707  1.0
  H  H11  1  0.17985554  0.46988131  0.22814707  1.0
  H  H12  1  0.24082645  0.63649213  0.54905555  1.0
  H  H13  1  0.74082645  0.36350787  0.04905555  1.0
  H  H14  1  0.75917355  0.63649213  0.54905555  1.0
  H  H15  1  0.25917355  0.36350787  0.04905555  1.0
  H  H16  1  0.19001171  0.87306149  0.93622231  1.0
  H  H17  1  0.69001171  0.12693851  0.43622231  1.0
  H  H18  1  0.80998829  0.87306149  0.93622231  1.0
  H  H19  1  0.30998829  0.12693851  0.43622231  1.0
  S  S20  1  0.50000000  0.26068830  0.76680177  1.0
  S  S21  1  0.00000000  0.73931170  0.26680177  1.0
  O  O22  1  0.33051462  0.35340176  0.79236740  1.0
  O  O23  1  0.83051462  0.64659824  0.29236740  1.0
  O  O24  1  0.66948538  0.35340176  0.79236740  1.0
  O  O25  1  0.16948538  0.64659824  0.29236740  1.0
  O  O26  1  0.30453711  0.90841094  0.86500727  1.0
  O  O27  1  0.80453711  0.09158906  0.36500727  1.0
  O  O28  1  0.69546289  0.90841094  0.86500727  1.0
  O  O29  1  0.19546289  0.09158906  0.36500727  1.0
  O  O30  1  0.29548101  0.63211056  0.69422351  1.0
  O  O31  1  0.79548101  0.36788944  0.19422351  1.0
  O  O32  1  0.70451899  0.63211056  0.69422351  1.0
  O  O33  1  0.20451899  0.36788944  0.19422351  1.0
  O  O34  1  0.50000000  0.66554815  0.05389777  1.0
  O  O35  1  0.00000000  0.33445185  0.55389777  1.0
  O  O36  1  0.50000000  0.19687917  0.55045541  1.0
  O  O37  1  0.00000000  0.80312083  0.05045541  1.0
  O  O38  1  0.50000000  0.14994283  0.93495797  1.0
  O  O39  1  -0.00000000  0.85005717  0.43495797  1.0
  O  O40  1  0.50000000  0.83682758  0.49828517  1.0
  O  O41  1  0.00000000  0.16317242  -0.00171483  1.0
  V  V42  1  0.50000000  0.78021848  0.73611082  1.0
  V  V43  1  -0.00000000  0.21978152  0.23611082  1.0
