# generated using pymatgen
data_LuSi3Ni
_symmetry_space_group_name_H-M   'P 1'
_cell_length_a   10.62910371
_cell_length_b   10.62910371
_cell_length_c   3.89801845
_cell_angle_alpha   90.00000000
_cell_angle_beta   90.00000000
_cell_angle_gamma   158.83966480
_symmetry_Int_Tables_number   1
_chemical_formula_structural   LuSi3Ni
_chemical_formula_sum   'Lu2 Si6 Ni2'
_cell_volume   158.97146663
_cell_formula_units_Z   2
loop_
 _symmetry_equiv_pos_site_id
 _symmetry_equiv_pos_as_xyz
  1  'x, y, z'
loop_
 _atom_site_type_symbol
 _atom_site_label
 _atom_site_symmetry_multiplicity
 _atom_site_fract_x
 _atom_site_fract_y
 _atom_site_fract_z
 _atom_site_occupancy
  Lu  Lu0  1  -0.66941048  0.66941048  0.50000000  1.0
  Lu  Lu1  1  -0.33058952  1.33058952  0.50000000  1.0
  Si  Si2  1  -0.94365849  0.94365849  0.50000000  1.0
  Si  Si3  1  -0.05634151  1.05634151  0.50000000  1.0
  Si  Si4  1  -0.78183845  0.78183845  0.00000000  1.0
  Si  Si5  1  -0.21816155  1.21816155  0.00000000  1.0
  Si  Si6  1  -0.55645153  0.55645153  0.00000000  1.0
  Si  Si7  1  -0.44354847  1.44354847  0.00000000  1.0
  Ni  Ni8  1  -0.88864949  0.88864949  0.00000000  1.0
  Ni  Ni9  1  -0.11135051  1.11135051  0.00000000  1.0
