# generated using pymatgen
data_Rb2Pd(IBr2)2
_symmetry_space_group_name_H-M   'P 1'
_cell_length_a   7.50034385
_cell_length_b   7.50034385
_cell_length_c   7.50034385
_cell_angle_alpha   111.04868181
_cell_angle_beta   111.04868181
_cell_angle_gamma   106.36037329
_symmetry_Int_Tables_number   1
_chemical_formula_structural   Rb2Pd(IBr2)2
_chemical_formula_sum   'Rb2 Pd1 I2 Br4'
_cell_volume   324.09104765
_cell_formula_units_Z   1
loop_
 _symmetry_equiv_pos_site_id
 _symmetry_equiv_pos_as_xyz
  1  'x, y, z'
loop_
 _atom_site_type_symbol
 _atom_site_label
 _atom_site_symmetry_multiplicity
 _atom_site_fract_x
 _atom_site_fract_y
 _atom_site_fract_z
 _atom_site_occupancy
  Rb  Rb0  1  1.25000000  0.75000000  0.50000000  1.0
  Rb  Rb1  1  0.75000000  1.25000000  0.50000000  1.0
  Pd  Pd2  1  0.00000000  0.00000000  0.00000000  1.0
  I  I3  1  0.66162607  0.66162607  0.00000000  1.0
  I  I4  1  0.33837393  0.33837393  0.00000000  1.0
  Br  Br5  1  0.79356746  0.79356746  0.58713491  1.0
  Br  Br6  1  1.20643254  0.79356746  1.00000000  1.0
  Br  Br7  1  0.79356746  1.20643254  1.00000000  1.0
  Br  Br8  1  0.20643254  0.20643254  0.41286509  1.0
