# generated using pymatgen
data_Sr2Sc2B4O11
_symmetry_space_group_name_H-M   'P 1'
_cell_length_a   5.12204399
_cell_length_b   7.35560897
_cell_length_c   6.35228250
_cell_angle_alpha   101.38413036
_cell_angle_beta   104.33805853
_cell_angle_gamma   89.13769482
_symmetry_Int_Tables_number   1
_chemical_formula_structural   Sr2Sc2B4O11
_chemical_formula_sum   'Sr2 Sc2 B4 O11'
_cell_volume   227.16620089
_cell_formula_units_Z   1
loop_
 _symmetry_equiv_pos_site_id
 _symmetry_equiv_pos_as_xyz
  1  'x, y, z'
loop_
 _atom_site_type_symbol
 _atom_site_label
 _atom_site_symmetry_multiplicity
 _atom_site_fract_x
 _atom_site_fract_y
 _atom_site_fract_z
 _atom_site_occupancy
  Sr  Sr0  1  0.77817886  0.83888034  -0.30421335  1.0
  Sr  Sr1  1  0.22182114  0.16111966  -0.69578665  1.0
  Sc  Sc2  1  0.18690161  0.64466792  -0.78233805  1.0
  Sc  Sc3  1  0.81309839  0.35533208  -0.21766195  1.0
  B  B4  1  0.72287210  0.39229400  -0.71893855  1.0
  B  B5  1  0.27712790  0.60770600  -0.28106145  1.0
  B  B6  1  0.64628678  0.89699003  -0.84441475  1.0
  B  B7  1  0.35371322  0.10300997  -0.15558525  1.0
  O  O8  1  0.90907064  0.86584660  -0.84270369  1.0
  O  O9  1  0.09092936  0.13415340  -0.15729631  1.0
  O  O10  1  0.88832981  0.42104617  -0.85633072  1.0
  O  O11  1  0.11167019  0.57895383  -0.14366928  1.0
  O  O12  1  0.83035419  0.29852244  -0.54909285  1.0
  O  O13  1  0.16964581  0.70147756  -0.45090715  1.0
  O  O14  1  0.50814223  0.84591836  -0.70540974  1.0
  O  O15  1  0.49185777  0.15408164  -0.29459026  1.0
  O  O16  1  0.46023978  0.44047859  -0.75581513  1.0
  O  O17  1  0.53976022  0.55952141  -0.24418487  1.0
  O  O18  1  0.50000000  0.00000000  0.00000000  1.0
