# generated using pymatgen
data_LiVCuO4
_symmetry_space_group_name_H-M   'P 1'
_cell_length_a   6.07895186
_cell_length_b   6.07895186
_cell_length_c   6.07895186
_cell_angle_alpha   124.33185134
_cell_angle_beta   123.21514440
_cell_angle_gamma   83.58266604
_symmetry_Int_Tables_number   1
_chemical_formula_structural   LiVCuO4
_chemical_formula_sum   'Li2 V2 Cu2 O8'
_cell_volume   148.74141227
_cell_formula_units_Z   2
loop_
 _symmetry_equiv_pos_site_id
 _symmetry_equiv_pos_as_xyz
  1  'x, y, z'
loop_
 _atom_site_type_symbol
 _atom_site_label
 _atom_site_symmetry_multiplicity
 _atom_site_fract_x
 _atom_site_fract_y
 _atom_site_fract_z
 _atom_site_occupancy
  Li  Li0  1  0.50000000  1.00000000  1.00000000  1.0
  Li  Li1  1  0.50000000  0.50000000  0.50000000  1.0
  V  V2  1  0.86609357  0.61609357  0.25000000  1.0
  V  V3  1  0.13390643  0.38390643  0.75000000  1.0
  Cu  Cu4  1  0.00000000  0.00000000  0.00000000  1.0
  Cu  Cu5  1  0.50000000  0.00000000  0.50000000  1.0
  O  O6  1  1.20959826  0.72300985  1.48658841  1.0
  O  O7  1  0.79040174  0.27699015  0.51341159  1.0
  O  O8  1  1.26357856  0.27699015  0.98658841  1.0
  O  O9  1  0.73642144  0.72300985  1.01341159  1.0
  O  O10  1  1.24753298  0.76074796  1.01321498  1.0
  O  O11  1  0.75246702  0.76568200  1.51321498  1.0
  O  O12  1  0.75246702  0.23925204  0.98678502  1.0
  O  O13  1  1.24753298  1.23431800  1.48678502  1.0
