# generated using pymatgen
data_MgSiO3
_symmetry_space_group_name_H-M   'P 1'
_cell_length_a   4.97901788
_cell_length_b   6.97903890
_cell_length_c   4.82742696
_cell_angle_alpha   90.00000000
_cell_angle_beta   90.00000000
_cell_angle_gamma   90.00000000
_symmetry_Int_Tables_number   1
_chemical_formula_structural   MgSiO3
_chemical_formula_sum   'Mg4 Si4 O12'
_cell_volume   167.74709840
_cell_formula_units_Z   4
loop_
 _symmetry_equiv_pos_site_id
 _symmetry_equiv_pos_as_xyz
  1  'x, y, z'
loop_
 _atom_site_type_symbol
 _atom_site_label
 _atom_site_symmetry_multiplicity
 _atom_site_fract_x
 _atom_site_fract_y
 _atom_site_fract_z
 _atom_site_occupancy
  Mg  Mg0  1  0.05619836  0.75000000  0.51466919  1.0
  Mg  Mg1  1  0.55619836  0.75000000  0.98533081  1.0
  Mg  Mg2  1  0.94380164  0.25000000  0.48533081  1.0
  Mg  Mg3  1  0.44380164  0.25000000  0.01466919  1.0
  Si  Si4  1  0.50000000  0.00000000  0.50000000  1.0
  Si  Si5  1  0.50000000  0.50000000  0.50000000  1.0
  Si  Si6  1  0.00000000  0.00000000  0.00000000  1.0
  Si  Si7  1  0.00000000  0.50000000  0.00000000  1.0
  O  O8  1  0.96478606  0.75000000  0.10390221  1.0
  O  O9  1  0.46478606  0.75000000  0.39609779  1.0
  O  O10  1  0.03521394  0.25000000  0.89609779  1.0
  O  O11  1  0.53521394  0.25000000  0.60390221  1.0
  O  O12  1  0.29847216  0.94624016  0.80369206  1.0
  O  O13  1  0.29847216  0.55375984  0.80369206  1.0
  O  O14  1  0.79847216  0.94624016  0.69630794  1.0
  O  O15  1  0.79847216  0.55375984  0.69630794  1.0
  O  O16  1  0.70152784  0.44624016  0.19630794  1.0
  O  O17  1  0.70152784  0.05375984  0.19630794  1.0
  O  O18  1  0.20152784  0.44624016  0.30369206  1.0
  O  O19  1  0.20152784  0.05375984  0.30369206  1.0
