# generated using pymatgen
data_NiCNCl3
_symmetry_space_group_name_H-M   'P 1'
_cell_length_a   7.72992112
_cell_length_b   7.72992112
_cell_length_c   5.74730392
_cell_angle_alpha   90.00000000
_cell_angle_beta   90.00000000
_cell_angle_gamma   123.22410019
_symmetry_Int_Tables_number   1
_chemical_formula_structural   NiCNCl3
_chemical_formula_sum   'Ni2 C2 N2 Cl6'
_cell_volume   287.27500651
_cell_formula_units_Z   2
loop_
 _symmetry_equiv_pos_site_id
 _symmetry_equiv_pos_as_xyz
  1  'x, y, z'
loop_
 _atom_site_type_symbol
 _atom_site_label
 _atom_site_symmetry_multiplicity
 _atom_site_fract_x
 _atom_site_fract_y
 _atom_site_fract_z
 _atom_site_occupancy
  Ni  Ni0  1  0.00000000  0.00000000  0.50000000  1.0
  Ni  Ni1  1  0.00000000  0.00000000  0.00000000  1.0
  C  C2  1  -0.24061145  0.24061145  0.25000000  1.0
  C  C3  1  0.24061145  0.75938855  0.75000000  1.0
  N  N4  1  -0.32701153  0.32701153  0.25000000  1.0
  N  N5  1  0.32701153  0.67298847  0.75000000  1.0
  Cl  Cl6  1  0.71846521  0.85806454  0.25000000  1.0
  Cl  Cl7  1  -0.14193546  0.71846521  0.75000000  1.0
  Cl  Cl8  1  0.28153479  1.14193546  0.75000000  1.0
  Cl  Cl9  1  0.14193546  0.28153479  0.25000000  1.0
  Cl  Cl10  1  0.12651045  0.87348955  0.25000000  1.0
  Cl  Cl11  1  -0.12651045  0.12651045  0.75000000  1.0
