# generated using pymatgen
data_Ba(AlCl4)2
_symmetry_space_group_name_H-M   'P 1'
_cell_length_a   8.39491156
_cell_length_b   7.24273557
_cell_length_c   12.92444302
_cell_angle_alpha   90.00000000
_cell_angle_beta   98.11491166
_cell_angle_gamma   90.00000000
_symmetry_Int_Tables_number   1
_chemical_formula_structural   Ba(AlCl4)2
_chemical_formula_sum   'Ba2 Al4 Cl16'
_cell_volume   777.96500542
_cell_formula_units_Z   2
loop_
 _symmetry_equiv_pos_site_id
 _symmetry_equiv_pos_as_xyz
  1  'x, y, z'
loop_
 _atom_site_type_symbol
 _atom_site_label
 _atom_site_symmetry_multiplicity
 _atom_site_fract_x
 _atom_site_fract_y
 _atom_site_fract_z
 _atom_site_occupancy
  Ba  Ba0  1  0.50000000  0.15475535  0.75000000  1.0
  Ba  Ba1  1  0.50000000  0.84524465  0.25000000  1.0
  Al  Al2  1  0.31244813  0.26803144  0.06762184  1.0
  Al  Al3  1  0.68755187  0.26803144  0.43237816  1.0
  Al  Al4  1  0.68755187  0.73196856  0.93237816  1.0
  Al  Al5  1  0.31244813  0.73196856  0.56762184  1.0
  Cl  Cl6  1  0.24574429  0.28355333  0.89991021  1.0
  Cl  Cl7  1  0.75425571  0.28355333  0.60008979  1.0
  Cl  Cl8  1  0.75425571  0.71644667  0.10008979  1.0
  Cl  Cl9  1  0.24574429  0.71644667  0.39991021  1.0
  Cl  Cl10  1  0.18274628  0.05005537  0.13399194  1.0
  Cl  Cl11  1  0.81725372  0.05005537  0.36600806  1.0
  Cl  Cl12  1  0.81725372  0.94994463  0.86600806  1.0
  Cl  Cl13  1  0.18274628  0.94994463  0.63399194  1.0
  Cl  Cl14  1  0.26328771  0.53327667  0.13311221  1.0
  Cl  Cl15  1  0.73671229  0.53327667  0.36688779  1.0
  Cl  Cl16  1  0.73671229  0.46672333  0.86688779  1.0
  Cl  Cl17  1  0.26328771  0.46672333  0.63311221  1.0
  Cl  Cl18  1  0.56503581  0.19739014  0.10560097  1.0
  Cl  Cl19  1  0.43496419  0.19739014  0.39439903  1.0
  Cl  Cl20  1  0.43496419  0.80260986  0.89439903  1.0
  Cl  Cl21  1  0.56503581  0.80260986  0.60560097  1.0
