# generated using pymatgen
data_Fe2Ge3
_symmetry_space_group_name_H-M   'P 1'
_cell_length_a   5.53902736
_cell_length_b   5.53902736
_cell_length_c   8.97010039
_cell_angle_alpha   90.00000000
_cell_angle_beta   90.00000000
_cell_angle_gamma   90.00000000
_symmetry_Int_Tables_number   1
_chemical_formula_structural   Fe2Ge3
_chemical_formula_sum   'Fe8 Ge12'
_cell_volume   275.21007244
_cell_formula_units_Z   4
loop_
 _symmetry_equiv_pos_site_id
 _symmetry_equiv_pos_as_xyz
  1  'x, y, z'
loop_
 _atom_site_type_symbol
 _atom_site_label
 _atom_site_symmetry_multiplicity
 _atom_site_fract_x
 _atom_site_fract_y
 _atom_site_fract_z
 _atom_site_occupancy
  Fe  Fe0  1  0.50000000  0.00000000  0.12361422  1.0
  Fe  Fe1  1  0.50000000  0.00000000  0.62361422  1.0
  Fe  Fe2  1  0.00000000  0.50000000  0.37638578  1.0
  Fe  Fe3  1  0.00000000  0.50000000  0.87638578  1.0
  Fe  Fe4  1  0.00000000  0.00000000  0.00000000  1.0
  Fe  Fe5  1  0.00000000  0.00000000  0.50000000  1.0
  Fe  Fe6  1  0.50000000  0.50000000  0.25000000  1.0
  Fe  Fe7  1  0.50000000  0.50000000  0.75000000  1.0
  Ge  Ge8  1  0.22126485  0.34405532  0.08420372  1.0
  Ge  Ge9  1  0.77873515  0.34405532  0.58420372  1.0
  Ge  Ge10  1  0.65594468  0.77873515  0.41579628  1.0
  Ge  Ge11  1  0.34405532  0.77873515  0.91579628  1.0
  Ge  Ge12  1  0.22126485  0.65594468  0.58420372  1.0
  Ge  Ge13  1  0.77873515  0.65594468  0.08420372  1.0
  Ge  Ge14  1  0.65594468  0.22126485  0.91579628  1.0
  Ge  Ge15  1  0.34405532  0.22126485  0.41579628  1.0
  Ge  Ge16  1  0.17850384  0.82149616  0.25000000  1.0
  Ge  Ge17  1  0.82149616  0.82149616  0.75000000  1.0
  Ge  Ge18  1  0.17850384  0.17850384  0.75000000  1.0
  Ge  Ge19  1  0.82149616  0.17850384  0.25000000  1.0
