# generated using pymatgen
data_Cs2SbCl6
_symmetry_space_group_name_H-M   'P 1'
_cell_length_a   13.16517650
_cell_length_b   13.16517650
_cell_length_c   13.16517650
_cell_angle_alpha   131.76846036
_cell_angle_beta   131.76846036
_cell_angle_gamma   70.59496531
_symmetry_Int_Tables_number   1
_chemical_formula_structural   Cs2SbCl6
_chemical_formula_sum   'Cs8 Sb4 Cl24'
_cell_volume   1243.58289065
_cell_formula_units_Z   4
loop_
 _symmetry_equiv_pos_site_id
 _symmetry_equiv_pos_as_xyz
  1  'x, y, z'
loop_
 _atom_site_type_symbol
 _atom_site_label
 _atom_site_symmetry_multiplicity
 _atom_site_fract_x
 _atom_site_fract_y
 _atom_site_fract_z
 _atom_site_occupancy
  Cs  Cs0  1  1.62580443  1.62500000  1.50080443  1.0
  Cs  Cs1  1  1.12419557  1.62500000  0.99919557  1.0
  Cs  Cs2  1  1.37500000  0.87580443  1.00080443  1.0
  Cs  Cs3  1  0.87500000  0.87580443  0.50080443  1.0
  Cs  Cs4  1  1.62580443  1.12500000  1.00080443  1.0
  Cs  Cs5  1  1.12419557  1.12500000  0.49919557  1.0
  Cs  Cs6  1  1.37500000  1.37419557  1.49919557  1.0
  Cs  Cs7  1  0.87500000  1.37419557  0.99919557  1.0
  Sb  Sb8  1  0.50000000  0.50000000  1.00000000  1.0
  Sb  Sb9  1  1.25000000  0.75000000  0.50000000  1.0
  Sb  Sb10  1  0.00000000  0.00000000  0.00000000  1.0
  Sb  Sb11  1  0.75000000  1.25000000  0.50000000  1.0
  Cl  Cl12  1  1.00015713  1.23761997  0.23746284  1.0
  Cl  Cl13  1  0.98761997  1.25015713  0.73746284  1.0
  Cl  Cl14  1  1.51269428  1.25015713  1.26253716  1.0
  Cl  Cl15  1  1.00015713  1.76269428  0.76253716  1.0
  Cl  Cl16  1  0.74984287  1.01238003  0.26253716  1.0
  Cl  Cl17  1  0.76238003  -0.00015713  0.76253716  1.0
  Cl  Cl18  1  0.23730572  -0.00015713  0.23746284  1.0
  Cl  Cl19  1  0.74984287  1.48730572  0.73746284  1.0
  Cl  Cl20  1  0.50000554  0.73685464  1.23684910  1.0
  Cl  Cl21  1  1.48685464  0.75000554  0.73684910  1.0
  Cl  Cl22  1  1.01315644  0.75000554  0.26315090  1.0
  Cl  Cl23  1  0.50000554  0.26315644  0.76315090  1.0
  Cl  Cl24  1  1.24999446  1.51314536  1.26315090  1.0
  Cl  Cl25  1  1.26314536  1.49999446  0.76315090  1.0
  Cl  Cl26  1  1.73684356  1.49999446  1.23684910  1.0
  Cl  Cl27  1  1.24999446  0.98684356  0.73684910  1.0
  Cl  Cl28  1  0.11887264  0.11887264  0.00000000  1.0
  Cl  Cl29  1  0.86887264  1.36887264  0.50000000  1.0
  Cl  Cl30  1  0.63112736  1.13112736  0.50000000  1.0
  Cl  Cl31  1  0.88112736  0.88112736  -0.00000000  1.0
  Cl  Cl32  1  1.38144462  1.38144462  1.00000000  1.0
  Cl  Cl33  1  1.13144462  0.63144462  0.50000000  1.0
  Cl  Cl34  1  1.36855538  0.86855538  0.50000000  1.0
  Cl  Cl35  1  0.61855538  0.61855538  1.00000000  1.0
