# generated using pymatgen
data_ZrNiAs
_symmetry_space_group_name_H-M   'P 1'
_cell_length_a   6.51890852
_cell_length_b   3.90347917
_cell_length_c   7.35710659
_cell_angle_alpha   90.00000000
_cell_angle_beta   90.00000000
_cell_angle_gamma   90.00000000
_symmetry_Int_Tables_number   1
_chemical_formula_structural   ZrNiAs
_chemical_formula_sum   'Zr4 Ni4 As4'
_cell_volume   187.21205075
_cell_formula_units_Z   4
loop_
 _symmetry_equiv_pos_site_id
 _symmetry_equiv_pos_as_xyz
  1  'x, y, z'
loop_
 _atom_site_type_symbol
 _atom_site_label
 _atom_site_symmetry_multiplicity
 _atom_site_fract_x
 _atom_site_fract_y
 _atom_site_fract_z
 _atom_site_occupancy
  Zr  Zr0  1  1.01422451  0.75000000  0.68709178  1.0
  Zr  Zr1  1  0.51422451  0.75000000  0.81290822  1.0
  Zr  Zr2  1  -0.01422451  0.25000000  0.31290822  1.0
  Zr  Zr3  1  0.48577549  0.25000000  0.18709178  1.0
  Ni  Ni4  1  0.66275595  0.75000000  0.42702363  1.0
  Ni  Ni5  1  0.16275595  0.75000000  0.07297637  1.0
  Ni  Ni6  1  0.33724405  0.25000000  0.57297637  1.0
  Ni  Ni7  1  0.83724405  0.25000000  0.92702363  1.0
  As  As8  1  0.78091799  0.75000000  0.10715950  1.0
  As  As9  1  0.28091799  0.75000000  0.39284050  1.0
  As  As10  1  0.21908201  0.25000000  0.89284050  1.0
  As  As11  1  0.71908201  0.25000000  0.60715950  1.0
