# generated using pymatgen
data_SnBr2
_symmetry_space_group_name_H-M   'P 1'
_cell_length_a   8.38889112
_cell_length_b   4.25354760
_cell_length_c   12.32152257
_cell_angle_alpha   90.00000000
_cell_angle_beta   90.00000000
_cell_angle_gamma   90.00000000
_symmetry_Int_Tables_number   1
_chemical_formula_structural   SnBr2
_chemical_formula_sum   'Sn4 Br8'
_cell_volume   439.66331640
_cell_formula_units_Z   4
loop_
 _symmetry_equiv_pos_site_id
 _symmetry_equiv_pos_as_xyz
  1  'x, y, z'
loop_
 _atom_site_type_symbol
 _atom_site_label
 _atom_site_symmetry_multiplicity
 _atom_site_fract_x
 _atom_site_fract_y
 _atom_site_fract_z
 _atom_site_occupancy
  Sn  Sn0  1  0.90152051  0.75000000  0.14721481  1.0
  Sn  Sn1  1  0.40152051  0.75000000  0.35278519  1.0
  Sn  Sn2  1  0.09847949  0.25000000  0.85278519  1.0
  Sn  Sn3  1  0.59847949  0.25000000  0.64721481  1.0
  Br  Br4  1  0.95417203  0.75000000  0.72451289  1.0
  Br  Br5  1  0.45417203  0.75000000  0.77548711  1.0
  Br  Br6  1  0.04582797  0.25000000  0.27548711  1.0
  Br  Br7  1  0.54582797  0.25000000  0.22451289  1.0
  Br  Br8  1  0.68586981  0.75000000  0.47000547  1.0
  Br  Br9  1  0.18586981  0.75000000  0.02999453  1.0
  Br  Br10  1  0.31413019  0.25000000  0.52999453  1.0
  Br  Br11  1  0.81413019  0.25000000  0.97000547  1.0
