# generated using pymatgen
data_Sc4NCl6
_symmetry_space_group_name_H-M   'P 1'
_cell_length_a   11.92187488
_cell_length_b   11.95318807
_cell_length_c   3.50755249
_cell_angle_alpha   90.00000000
_cell_angle_beta   90.00000000
_cell_angle_gamma   90.00000000
_symmetry_Int_Tables_number   1
_chemical_formula_structural   Sc4NCl6
_chemical_formula_sum   'Sc8 N2 Cl12'
_cell_volume   499.84170760
_cell_formula_units_Z   2
loop_
 _symmetry_equiv_pos_site_id
 _symmetry_equiv_pos_as_xyz
  1  'x, y, z'
loop_
 _atom_site_type_symbol
 _atom_site_label
 _atom_site_symmetry_multiplicity
 _atom_site_fract_x
 _atom_site_fract_y
 _atom_site_fract_z
 _atom_site_occupancy
  Sc  Sc0  1  0.36924008  0.63169130  0.00000000  1.0
  Sc  Sc1  1  0.86924008  0.86830870  0.00000000  1.0
  Sc  Sc2  1  0.63075992  0.36830870  0.00000000  1.0
  Sc  Sc3  1  0.13075992  0.13169130  0.00000000  1.0
  Sc  Sc4  1  0.08955743  0.91153373  0.50000000  1.0
  Sc  Sc5  1  0.58955743  0.58846627  0.50000000  1.0
  Sc  Sc6  1  0.91044257  0.08846627  0.50000000  1.0
  Sc  Sc7  1  0.41044257  0.41153373  0.50000000  1.0
  N  N8  1  0.50000000  0.50000000  0.00000000  1.0
  N  N9  1  0.00000000  0.00000000  0.00000000  1.0
  Cl  Cl10  1  0.45802652  0.75832434  0.50000000  1.0
  Cl  Cl11  1  0.95802652  0.74167566  0.50000000  1.0
  Cl  Cl12  1  0.54197348  0.24167566  0.50000000  1.0
  Cl  Cl13  1  0.04197348  0.25832434  0.50000000  1.0
  Cl  Cl14  1  0.24142071  0.54433506  0.50000000  1.0
  Cl  Cl15  1  0.74142071  0.95566494  0.50000000  1.0
  Cl  Cl16  1  0.75857929  0.45566494  0.50000000  1.0
  Cl  Cl17  1  0.25857929  0.04433506  0.50000000  1.0
  Cl  Cl18  1  0.20596275  0.79660822  0.00000000  1.0
  Cl  Cl19  1  0.70596275  0.70339178  0.00000000  1.0
  Cl  Cl20  1  0.79403725  0.20339178  0.00000000  1.0
  Cl  Cl21  1  0.29403725  0.29660822  0.00000000  1.0
