# generated using pymatgen
data_AlAgS2
_symmetry_space_group_name_H-M   'P 1'
_cell_length_a   6.63602885
_cell_length_b   6.63602885
_cell_length_c   6.63602885
_cell_angle_alpha   128.68132185
_cell_angle_beta   128.68132185
_cell_angle_gamma   75.52388357
_symmetry_Int_Tables_number   1
_chemical_formula_structural   AlAgS2
_chemical_formula_sum   'Al2 Ag2 S4'
_cell_volume   173.27488861
_cell_formula_units_Z   2
loop_
 _symmetry_equiv_pos_site_id
 _symmetry_equiv_pos_as_xyz
  1  'x, y, z'
loop_
 _atom_site_type_symbol
 _atom_site_label
 _atom_site_symmetry_multiplicity
 _atom_site_fract_x
 _atom_site_fract_y
 _atom_site_fract_z
 _atom_site_occupancy
  Al  Al0  1  0.75000000  0.25000000  0.50000000  1.0
  Al  Al1  1  1.00000000  1.00000000  1.00000000  1.0
  Ag  Ag2  1  0.25000000  0.75000000  0.50000000  1.0
  Ag  Ag3  1  0.50000000  0.50000000  0.00000000  1.0
  S  S4  1  1.08124269  1.12500000  1.45624269  1.0
  S  S5  1  1.37500000  0.91875731  1.04375731  1.0
  S  S6  1  0.87500000  1.33124269  0.95624269  1.0
  S  S7  1  0.66875731  0.62500000  0.54375731  1.0
