# generated using pymatgen
data_CaCd2
_symmetry_space_group_name_H-M   'P 1'
_cell_length_a   6.20826278
_cell_length_b   6.20826278
_cell_length_c   6.20826278
_cell_angle_alpha   132.54059431
_cell_angle_beta   106.16693332
_cell_angle_gamma   92.60503331
_symmetry_Int_Tables_number   1
_chemical_formula_structural   CaCd2
_chemical_formula_sum   'Ca2 Cd4'
_cell_volume   159.83017454
_cell_formula_units_Z   2
loop_
 _symmetry_equiv_pos_site_id
 _symmetry_equiv_pos_as_xyz
  1  'x, y, z'
loop_
 _atom_site_type_symbol
 _atom_site_label
 _atom_site_symmetry_multiplicity
 _atom_site_fract_x
 _atom_site_fract_y
 _atom_site_fract_z
 _atom_site_occupancy
  Ca  Ca0  1  1.71714415  1.46714415  1.25000000  1.0
  Ca  Ca1  1  0.28285585  0.53285585  0.75000000  1.0
  Cd  Cd2  1  1.29662612  0.83476002  1.46186610  1.0
  Cd  Cd3  1  1.12710608  0.16523998  0.96186610  1.0
  Cd  Cd4  1  0.70337388  1.16523998  0.53813390  1.0
  Cd  Cd5  1  0.87289392  0.83476002  0.03813390  1.0
