# generated using pymatgen
data_La3Cu4(As2O)2
_symmetry_space_group_name_H-M   'P 1'
_cell_length_a   14.37025716
_cell_length_b   14.37025716
_cell_length_c   14.37025716
_cell_angle_alpha   163.48099770
_cell_angle_beta   163.48099770
_cell_angle_gamma   23.44376844
_symmetry_Int_Tables_number   1
_chemical_formula_structural   La3Cu4(As2O)2
_chemical_formula_sum   'La3 Cu4 As4 O2'
_cell_volume   239.85716865
_cell_formula_units_Z   1
loop_
 _symmetry_equiv_pos_site_id
 _symmetry_equiv_pos_as_xyz
  1  'x, y, z'
loop_
 _atom_site_type_symbol
 _atom_site_label
 _atom_site_symmetry_multiplicity
 _atom_site_fract_x
 _atom_site_fract_y
 _atom_site_fract_z
 _atom_site_occupancy
  La  La0  1  0.70696417  0.70696417  1.00000000  1.0
  La  La1  1  0.29303583  0.29303583  0.00000000  1.0
  La  La2  1  0.00000000  0.00000000  0.00000000  1.0
  Cu  Cu3  1  0.40237833  0.90237833  0.50000000  1.0
  Cu  Cu4  1  0.59762167  0.09762167  0.50000000  1.0
  Cu  Cu5  1  0.90237833  0.40237833  0.50000000  1.0
  Cu  Cu6  1  0.09762167  0.59762167  0.50000000  1.0
  As  As7  1  0.85554437  0.85554437  1.00000000  1.0
  As  As8  1  0.14445563  0.14445563  0.00000000  1.0
  As  As9  1  0.54654384  0.54654384  1.00000000  1.0
  As  As10  1  0.45345616  0.45345616  0.00000000  1.0
  O  O11  1  0.25000000  0.75000000  0.50000000  1.0
  O  O12  1  0.75000000  0.25000000  0.50000000  1.0
