# generated using pymatgen
data_BaZnBi2
_symmetry_space_group_name_H-M   'P 1'
_cell_length_a   12.43204262
_cell_length_b   12.43204262
_cell_length_c   12.43204262
_cell_angle_alpha   158.31401846
_cell_angle_beta   158.31401846
_cell_angle_gamma   30.85745291
_symmetry_Int_Tables_number   1
_chemical_formula_structural   BaZnBi2
_chemical_formula_sum   'Ba2 Zn2 Bi4'
_cell_volume   262.18602479
_cell_formula_units_Z   2
loop_
 _symmetry_equiv_pos_site_id
 _symmetry_equiv_pos_as_xyz
  1  'x, y, z'
loop_
 _atom_site_type_symbol
 _atom_site_label
 _atom_site_symmetry_multiplicity
 _atom_site_fract_x
 _atom_site_fract_y
 _atom_site_fract_z
 _atom_site_occupancy
  Ba  Ba0  1  0.87967454  0.87967454  1.00000000  1.0
  Ba  Ba1  1  0.12032546  0.12032546  0.00000000  1.0
  Zn  Zn2  1  0.25000000  0.75000000  0.50000000  1.0
  Zn  Zn3  1  0.75000000  0.25000000  0.50000000  1.0
  Bi  Bi4  1  0.67936219  0.67936219  1.00000000  1.0
  Bi  Bi5  1  0.32063781  0.32063781  0.00000000  1.0
  Bi  Bi6  1  0.50000000  -0.00000000  0.50000000  1.0
  Bi  Bi7  1  -0.00000000  0.50000000  0.50000000  1.0
