# generated using pymatgen
data_BaNaAlSe3
_symmetry_space_group_name_H-M   'P 1'
_cell_length_a   20.75079859
_cell_length_b   9.25484771
_cell_length_c   7.30475942
_cell_angle_alpha   90.00000000
_cell_angle_beta   90.00000000
_cell_angle_gamma   90.00000000
_symmetry_Int_Tables_number   1
_chemical_formula_structural   BaNaAlSe3
_chemical_formula_sum   'Ba8 Na8 Al8 Se24'
_cell_volume   1402.84603654
_cell_formula_units_Z   8
loop_
 _symmetry_equiv_pos_site_id
 _symmetry_equiv_pos_as_xyz
  1  'x, y, z'
loop_
 _atom_site_type_symbol
 _atom_site_label
 _atom_site_symmetry_multiplicity
 _atom_site_fract_x
 _atom_site_fract_y
 _atom_site_fract_z
 _atom_site_occupancy
  Ba  Ba0  1  0.82928306  0.51045314  0.77989008  1.0
  Ba  Ba1  1  0.67071694  0.48954686  0.27989008  1.0
  Ba  Ba2  1  0.17071694  0.01045314  0.22010992  1.0
  Ba  Ba3  1  0.32928306  0.98954686  0.72010992  1.0
  Ba  Ba4  1  0.17071694  0.48954686  0.22010992  1.0
  Ba  Ba5  1  0.32928306  0.51045314  0.72010992  1.0
  Ba  Ba6  1  0.82928306  0.98954686  0.77989008  1.0
  Ba  Ba7  1  0.67071694  0.01045314  0.27989008  1.0
  Na  Na8  1  0.90553877  0.25000000  0.15676918  1.0
  Na  Na9  1  0.59446123  0.75000000  0.65676918  1.0
  Na  Na10  1  0.09446123  0.75000000  0.84323082  1.0
  Na  Na11  1  0.40553877  0.25000000  0.34323082  1.0
  Na  Na12  1  0.00000000  0.50000000  0.50000000  1.0
  Na  Na13  1  0.50000000  0.50000000  0.00000000  1.0
  Na  Na14  1  0.00000000  0.00000000  0.50000000  1.0
  Na  Na15  1  0.50000000  0.00000000  0.00000000  1.0
  Al  Al16  1  0.95561673  0.75000000  0.10804452  1.0
  Al  Al17  1  0.54438327  0.25000000  0.60804452  1.0
  Al  Al18  1  0.04438327  0.25000000  0.89195548  1.0
  Al  Al19  1  0.45561673  0.75000000  0.39195548  1.0
  Al  Al20  1  0.68769253  0.25000000  0.75798446  1.0
  Al  Al21  1  0.81230747  0.75000000  0.25798446  1.0
  Al  Al22  1  0.31230747  0.75000000  0.24201554  1.0
  Al  Al23  1  0.18769253  0.25000000  0.74201554  1.0
  Se  Se24  1  0.95094701  0.75000000  0.78016267  1.0
  Se  Se25  1  0.54905299  0.25000000  0.28016267  1.0
  Se  Se26  1  0.04905299  0.25000000  0.21983733  1.0
  Se  Se27  1  0.45094701  0.75000000  0.71983733  1.0
  Se  Se28  1  0.88887806  0.55244145  0.23360098  1.0
  Se  Se29  1  0.61112194  0.44755855  0.73360098  1.0
  Se  Se30  1  0.11112194  0.05244145  0.76639902  1.0
  Se  Se31  1  0.38887806  0.94755855  0.26639902  1.0
  Se  Se32  1  0.11112194  0.44755855  0.76639902  1.0
  Se  Se33  1  0.38887806  0.55244145  0.26639902  1.0
  Se  Se34  1  0.88887806  0.94755855  0.23360098  1.0
  Se  Se35  1  0.61112194  0.05244145  0.73360098  1.0
  Se  Se36  1  0.94144480  0.25000000  0.74822067  1.0
  Se  Se37  1  0.55855520  0.75000000  0.24822067  1.0
  Se  Se38  1  0.05855520  0.75000000  0.25177933  1.0
  Se  Se39  1  0.44144480  0.25000000  0.75177933  1.0
  Se  Se40  1  0.74903318  0.75000000  0.52707006  1.0
  Se  Se41  1  0.75096682  0.25000000  0.02707006  1.0
  Se  Se42  1  0.25096682  0.25000000  0.47292994  1.0
  Se  Se43  1  0.24903318  0.75000000  0.97292994  1.0
  Se  Se44  1  0.73851056  0.75000000  0.01082715  1.0
  Se  Se45  1  0.76148944  0.25000000  0.51082715  1.0
  Se  Se46  1  0.26148944  0.25000000  0.98917285  1.0
  Se  Se47  1  0.23851056  0.75000000  0.48917285  1.0
