# generated using pymatgen
data_KSbO3
_symmetry_space_group_name_H-M   'P 1'
_cell_length_a   6.94608277
_cell_length_b   6.94608277
_cell_length_c   6.94608277
_cell_angle_alpha   46.53057181
_cell_angle_beta   46.53057181
_cell_angle_gamma   46.53057181
_symmetry_Int_Tables_number   1
_chemical_formula_structural   KSbO3
_chemical_formula_sum   'K2 Sb2 O6'
_cell_volume   161.18961245
_cell_formula_units_Z   2
loop_
 _symmetry_equiv_pos_site_id
 _symmetry_equiv_pos_as_xyz
  1  'x, y, z'
loop_
 _atom_site_type_symbol
 _atom_site_label
 _atom_site_symmetry_multiplicity
 _atom_site_fract_x
 _atom_site_fract_y
 _atom_site_fract_z
 _atom_site_occupancy
  K  K0  1  0.36062535  0.36062535  -0.63937465  1.0
  K  K1  1  0.63937465  0.63937465  -0.36062535  1.0
  Sb  Sb2  1  0.16396063  0.16396063  0.16396063  1.0
  Sb  Sb3  1  0.83603937  -0.16396063  -0.16396063  1.0
  O  O4  1  0.44239324  0.03540657  -0.16586988  1.0
  O  O5  1  0.16586988  0.55760676  -0.03540657  1.0
  O  O6  1  0.96459343  0.16586988  -0.44239324  1.0
  O  O7  1  0.55760676  0.96459343  -0.83413012  1.0
  O  O8  1  0.83413012  -0.55760676  0.03540657  1.0
  O  O9  1  1.03540657  -0.16586988  -0.55760676  1.0
