# generated using pymatgen
data_SrFeP(O2F)2
_symmetry_space_group_name_H-M   'P 1'
_cell_length_a   5.28258433
_cell_length_b   12.45799515
_cell_length_c   7.83472712
_cell_angle_alpha   90.00000000
_cell_angle_beta   117.25900611
_cell_angle_gamma   90.00000000
_symmetry_Int_Tables_number   1
_chemical_formula_structural   SrFeP(O2F)2
_chemical_formula_sum   'Sr4 Fe4 P4 O16 F8'
_cell_volume   458.34599449
_cell_formula_units_Z   4
loop_
 _symmetry_equiv_pos_site_id
 _symmetry_equiv_pos_as_xyz
  1  'x, y, z'
loop_
 _atom_site_type_symbol
 _atom_site_label
 _atom_site_symmetry_multiplicity
 _atom_site_fract_x
 _atom_site_fract_y
 _atom_site_fract_z
 _atom_site_occupancy
  Fe  Fe0  1  0.00000000  0.50000000  0.00000000  1.0
  Fe  Fe1  1  -0.00000000  0.00000000  0.50000000  1.0
  Fe  Fe2  1  0.50000000  0.50000000  0.50000000  1.0
  Fe  Fe3  1  0.50000000  0.00000000  0.00000000  1.0
  Sr  Sr4  1  0.35857537  0.20666729  0.31367700  1.0
  Sr  Sr5  1  0.35857537  0.29333271  0.81367700  1.0
  Sr  Sr6  1  0.64142463  0.70666729  0.18632300  1.0
  Sr  Sr7  1  0.64142463  0.79333271  0.68632300  1.0
  O  O8  1  0.75941990  0.28243992  0.18733310  1.0
  O  O9  1  0.75941990  0.21756008  0.68733310  1.0
  O  O10  1  0.24058010  0.78243992  0.31266690  1.0
  O  O11  1  0.24058010  0.71756008  0.81266690  1.0
  O  O12  1  0.72271406  0.39994606  0.43625191  1.0
  O  O13  1  0.72271406  0.10005394  0.93625191  1.0
  O  O14  1  0.27728594  0.89994606  0.06374809  1.0
  O  O15  1  0.27728594  0.60005394  0.56374809  1.0
  O  O16  1  0.82124654  0.48580824  0.17329815  1.0
  O  O17  1  0.82124654  0.01419176  0.67329815  1.0
  O  O18  1  0.17875346  0.98580824  0.32670185  1.0
  O  O19  1  0.17875346  0.51419176  0.82670185  1.0
  O  O20  1  0.79755653  0.87625629  0.05754337  1.0
  O  O21  1  0.79755653  0.62374371  0.55754337  1.0
  O  O22  1  0.20244347  0.37625629  0.44245663  1.0
  O  O23  1  0.20244347  0.12374371  0.94245663  1.0
  F  F24  1  0.83050221  0.85472865  0.44900095  1.0
  F  F25  1  0.83050221  0.64527135  0.94900095  1.0
  F  F26  1  0.16949779  0.35472865  0.05099905  1.0
  F  F27  1  0.16949779  0.14527135  0.55099905  1.0
  F  F28  1  0.65716261  0.06039942  0.27297880  1.0
  F  F29  1  0.65716261  0.43960058  0.77297880  1.0
  F  F30  1  0.34283739  0.56039942  0.22702120  1.0
  F  F31  1  0.34283739  0.93960058  0.72702120  1.0
  P  P32  1  0.87092775  0.38545590  0.30513070  1.0
  P  P33  1  0.87092775  0.11454410  0.80513070  1.0
  P  P34  1  0.12907225  0.88545590  0.19486930  1.0
  P  P35  1  0.12907225  0.61454410  0.69486930  1.0
