# generated using pymatgen
data_MnN2F5
_symmetry_space_group_name_H-M   'P 1'
_cell_length_a   6.50598007
_cell_length_b   7.20591714
_cell_length_c   12.46902438
_cell_angle_alpha   90.00000000
_cell_angle_beta   90.00000000
_cell_angle_gamma   90.00000000
_symmetry_Int_Tables_number   1
_chemical_formula_structural   MnN2F5
_chemical_formula_sum   'Mn4 N8 F20'
_cell_volume   584.56723083
_cell_formula_units_Z   4
loop_
 _symmetry_equiv_pos_site_id
 _symmetry_equiv_pos_as_xyz
  1  'x, y, z'
loop_
 _atom_site_type_symbol
 _atom_site_label
 _atom_site_symmetry_multiplicity
 _atom_site_fract_x
 _atom_site_fract_y
 _atom_site_fract_z
 _atom_site_occupancy
  Mn  Mn0  1  0.50000000  0.00000000  0.50000000  1.0
  Mn  Mn1  1  0.50000000  0.50000000  0.50000000  1.0
  Mn  Mn2  1  0.00000000  0.00000000  0.00000000  1.0
  Mn  Mn3  1  0.00000000  0.50000000  0.00000000  1.0
  N  N4  1  0.56515206  0.75000000  0.10030926  1.0
  N  N5  1  1.06515206  0.75000000  0.39969074  1.0
  N  N6  1  0.43484794  0.25000000  0.89969074  1.0
  N  N7  1  -0.06515206  0.25000000  0.60030926  1.0
  N  N8  1  0.44999187  0.75000000  0.76408679  1.0
  N  N9  1  0.94999187  0.75000000  0.73591321  1.0
  N  N10  1  0.55000813  0.25000000  0.23591321  1.0
  N  N11  1  0.05000813  0.25000000  0.26408679  1.0
  F  F12  1  0.27004414  0.94339296  0.56632412  1.0
  F  F13  1  0.27004414  0.55660704  0.56632412  1.0
  F  F14  1  0.77004414  0.94339296  0.93367588  1.0
  F  F15  1  0.77004414  0.55660704  0.93367588  1.0
  F  F16  1  0.72995586  0.44339296  0.43367588  1.0
  F  F17  1  0.72995586  0.05660704  0.43367588  1.0
  F  F18  1  0.22995586  0.44339296  0.06632412  1.0
  F  F19  1  0.22995586  0.05660704  0.06632412  1.0
  F  F20  1  0.12020577  0.45647850  0.87589484  1.0
  F  F21  1  0.12020577  0.04352150  0.87589484  1.0
  F  F22  1  0.62020577  0.45647850  0.62410516  1.0
  F  F23  1  0.62020577  0.04352150  0.62410516  1.0
  F  F24  1  0.87979423  0.95647850  0.12410516  1.0
  F  F25  1  0.87979423  0.54352150  0.12410516  1.0
  F  F26  1  0.37979423  0.95647850  0.37589484  1.0
  F  F27  1  0.37979423  0.54352150  0.37589484  1.0
  F  F28  1  0.09510431  0.75000000  0.99188893  1.0
  F  F29  1  0.59510431  0.75000000  0.50811107  1.0
  F  F30  1  0.90489569  0.25000000  0.00811107  1.0
  F  F31  1  0.40489569  0.25000000  0.49188893  1.0
