# generated using pymatgen
data_YNi3Sn2
_symmetry_space_group_name_H-M   'P 1'
_cell_length_a   9.51584753
_cell_length_b   9.51584753
_cell_length_c   4.08629738
_cell_angle_alpha   90.00000000
_cell_angle_beta   90.00000000
_cell_angle_gamma   120.00000000
_symmetry_Int_Tables_number   1
_chemical_formula_structural   YNi3Sn2
_chemical_formula_sum   'Y3 Ni9 Sn6'
_cell_volume   320.44651350
_cell_formula_units_Z   3
loop_
 _symmetry_equiv_pos_site_id
 _symmetry_equiv_pos_as_xyz
  1  'x, y, z'
loop_
 _atom_site_type_symbol
 _atom_site_label
 _atom_site_symmetry_multiplicity
 _atom_site_fract_x
 _atom_site_fract_y
 _atom_site_fract_z
 _atom_site_occupancy
  Y  Y0  1  0.33333333  0.66666667  0.50000000  1.0
  Y  Y1  1  0.66666667  0.33333333  0.50000000  1.0
  Y  Y2  1  -0.00000000  -0.00000000  0.00000000  1.0
  Ni  Ni3  1  0.18368745  0.81631255  0.00000000  1.0
  Ni  Ni4  1  0.18368745  0.36737490  0.00000000  1.0
  Ni  Ni5  1  0.81631255  0.18368745  -0.00000000  1.0
  Ni  Ni6  1  0.81631255  0.63262510  -0.00000000  1.0
  Ni  Ni7  1  0.63262510  0.81631255  -0.00000000  1.0
  Ni  Ni8  1  0.36737490  0.18368745  0.00000000  1.0
  Ni  Ni9  1  0.50000000  0.50000000  0.00000000  1.0
  Ni  Ni10  1  0.50000000  -0.00000000  0.00000000  1.0
  Ni  Ni11  1  0.00000000  0.50000000  0.00000000  1.0
  Sn  Sn12  1  0.67631429  0.67631429  0.50000000  1.0
  Sn  Sn13  1  0.67631429  0.00000000  0.50000000  1.0
  Sn  Sn14  1  0.00000000  0.67631429  0.50000000  1.0
  Sn  Sn15  1  0.00000000  0.32368571  0.50000000  1.0
  Sn  Sn16  1  0.32368571  0.32368571  0.50000000  1.0
  Sn  Sn17  1  0.32368571  0.00000000  0.50000000  1.0
