# generated using pymatgen
data_ZnS
_symmetry_space_group_name_H-M   'P 1'
_cell_length_a   3.84995270
_cell_length_b   3.84995270
_cell_length_c   56.63521390
_cell_angle_alpha   90.00000000
_cell_angle_beta   90.00000000
_cell_angle_gamma   120.00000000
_symmetry_Int_Tables_number   1
_chemical_formula_structural   ZnS
_chemical_formula_sum   'Zn18 S18'
_cell_volume   726.98921029
_cell_formula_units_Z   18
loop_
 _symmetry_equiv_pos_site_id
 _symmetry_equiv_pos_as_xyz
  1  'x, y, z'
loop_
 _atom_site_type_symbol
 _atom_site_label
 _atom_site_symmetry_multiplicity
 _atom_site_fract_x
 _atom_site_fract_y
 _atom_site_fract_z
 _atom_site_occupancy
  Zn  Zn0  1  0.00000000  0.00000000  0.16668173  1.0
  Zn  Zn1  1  0.00000000  0.00000000  0.33331676  1.0
  Zn  Zn2  1  0.00000000  0.00000000  0.55556378  1.0
  Zn  Zn3  1  -0.00000000  -0.00000000  0.72220844  1.0
  Zn  Zn4  1  0.00000000  0.00000000  0.94443666  1.0
  Zn  Zn5  1  0.66666667  0.33333333  0.05553656  1.0
  Zn  Zn6  1  0.66666667  0.33333333  0.27779198  1.0
  Zn  Zn7  1  0.66666667  0.33333333  0.44443473  1.0
  Zn  Zn8  1  0.66666667  0.33333333  0.61111229  1.0
  Zn  Zn9  1  0.66666667  0.33333333  0.77772633  1.0
  Zn  Zn10  1  0.66666667  0.33333333  0.88892454  1.0
  Zn  Zn11  1  0.33333333  0.66666667  -0.00005900  1.0
  Zn  Zn12  1  0.33333333  0.66666667  0.11110543  1.0
  Zn  Zn13  1  0.33333333  0.66666667  0.22227068  1.0
  Zn  Zn14  1  0.33333333  0.66666667  0.38883034  1.0
  Zn  Zn15  1  0.33333333  0.66666667  0.50003678  1.0
  Zn  Zn16  1  0.33333333  0.66666667  0.66666522  1.0
  Zn  Zn17  1  0.33333333  0.66666667  0.83332689  1.0
  S  S18  1  0.00000000  0.00000000  0.12497785  1.0
  S  S19  1  0.00000000  0.00000000  0.29167304  1.0
  S  S20  1  -0.00000000  -0.00000000  0.51391602  1.0
  S  S21  1  -0.00000000  -0.00000000  0.68055868  1.0
  S  S22  1  0.00000000  0.00000000  0.90279777  1.0
  S  S23  1  0.66666667  0.33333333  0.01382771  1.0
  S  S24  1  0.66666667  0.33333333  0.23614573  1.0
  S  S25  1  0.66666667  0.33333333  0.40272165  1.0
  S  S26  1  0.66666667  0.33333333  0.56945695  1.0
  S  S27  1  0.66666667  0.33333333  0.73609097  1.0
  S  S28  1  0.66666667  0.33333333  0.84728220  1.0
  S  S29  1  0.33333333  0.66666667  0.06948289  1.0
  S  S30  1  0.33333333  0.66666667  0.18063381  1.0
  S  S31  1  0.33333333  0.66666667  0.34719510  1.0
  S  S32  1  0.33333333  0.66666667  0.45839276  1.0
  S  S33  1  0.33333333  0.66666667  0.62500896  1.0
  S  S34  1  0.33333333  0.66666667  0.79161668  1.0
  S  S35  1  0.33333333  0.66666667  0.95831110  1.0
