# generated using pymatgen
data_CuH4SeO5
_symmetry_space_group_name_H-M   'P 1'
_cell_length_a   6.66861186
_cell_length_b   7.44755939
_cell_length_c   9.35838716
_cell_angle_alpha   90.00000000
_cell_angle_beta   90.00000000
_cell_angle_gamma   90.00000000
_symmetry_Int_Tables_number   1
_chemical_formula_structural   CuH4SeO5
_chemical_formula_sum   'Cu4 H16 Se4 O20'
_cell_volume   464.78320197
_cell_formula_units_Z   4
loop_
 _symmetry_equiv_pos_site_id
 _symmetry_equiv_pos_as_xyz
  1  'x, y, z'
loop_
 _atom_site_type_symbol
 _atom_site_label
 _atom_site_symmetry_multiplicity
 _atom_site_fract_x
 _atom_site_fract_y
 _atom_site_fract_z
 _atom_site_occupancy
  H  H0  1  0.31112833  0.62240647  0.95892589  1.0
  H  H1  1  0.81112833  0.87759353  0.04107411  1.0
  H  H2  1  0.68887167  0.12240647  0.54107411  1.0
  H  H3  1  0.18887167  0.37759353  0.45892589  1.0
  H  H4  1  0.12193075  0.68309289  0.05459948  1.0
  H  H5  1  0.62193075  0.81690711  0.94540052  1.0
  H  H6  1  0.87806925  0.18309289  0.44540052  1.0
  H  H7  1  0.37806925  0.31690711  0.55459948  1.0
  H  H8  1  1.01542138  0.54875072  0.84316684  1.0
  H  H9  1  0.51542138  0.95124928  0.15683316  1.0
  H  H10  1  -0.01542138  0.04875072  0.65683316  1.0
  H  H11  1  0.48457862  0.45124928  0.34316684  1.0
  H  H12  1  0.92828139  0.85041794  0.68269957  1.0
  H  H13  1  0.42828139  0.64958206  0.31730043  1.0
  H  H14  1  0.07171861  0.35041794  0.81730043  1.0
  H  H15  1  0.57171861  0.14958206  0.18269957  1.0
  O  O16  1  0.48409140  0.89268179  0.81025825  1.0
  O  O17  1  0.98409140  0.60731821  0.18974175  1.0
  O  O18  1  0.51590860  0.39268179  0.68974175  1.0
  O  O19  1  0.01590860  0.10731821  0.31025825  1.0
  O  O20  1  0.18734439  0.70077229  0.95860440  1.0
  O  O21  1  0.68734439  0.79922771  0.04139560  1.0
  O  O22  1  0.81265561  0.20077229  0.54139560  1.0
  O  O23  1  0.31265561  0.29922771  0.45860440  1.0
  O  O24  1  0.04214031  0.93577141  0.69236929  1.0
  O  O25  1  0.54214031  0.56422859  0.30763071  1.0
  O  O26  1  0.95785969  0.43577141  0.80763071  1.0
  O  O27  1  0.45785969  0.06422859  0.19236929  1.0
  O  O28  1  0.72369115  0.71877972  0.63553133  1.0
  O  O29  1  0.22369115  0.78122028  0.36446867  1.0
  O  O30  1  0.27630885  0.21877972  0.86446867  1.0
  O  O31  1  0.77630885  0.28122028  0.13553133  1.0
  O  O32  1  0.49771050  0.98262638  0.53285925  1.0
  O  O33  1  0.99771050  0.51737362  0.46714075  1.0
  O  O34  1  0.50228950  0.48262638  0.96714075  1.0
  O  O35  1  0.00228950  0.01737362  0.03285925  1.0
  Cu  Cu36  1  0.22744045  0.96109410  0.90212760  1.0
  Cu  Cu37  1  0.72744045  0.53890590  0.09787240  1.0
  Cu  Cu38  1  0.77255955  0.46109410  0.59787240  1.0
  Cu  Cu39  1  0.27255955  0.03890590  0.40212760  1.0
  Se  Se40  1  0.47764965  0.79363209  0.64085399  1.0
  Se  Se41  1  0.97764965  0.70636791  0.35914601  1.0
  Se  Se42  1  0.52235035  0.29363209  0.85914601  1.0
  Se  Se43  1  0.02235035  0.20636791  0.14085399  1.0
