# generated using pymatgen
data_KGaF4
_symmetry_space_group_name_H-M   'P 1'
_cell_length_a   12.39342195
_cell_length_b   7.62845639
_cell_length_c   7.81728121
_cell_angle_alpha   90.00000000
_cell_angle_beta   90.00000000
_cell_angle_gamma   90.00000000
_symmetry_Int_Tables_number   1
_chemical_formula_structural   KGaF4
_chemical_formula_sum   'K8 Ga8 F32'
_cell_volume   739.06670637
_cell_formula_units_Z   8
loop_
 _symmetry_equiv_pos_site_id
 _symmetry_equiv_pos_as_xyz
  1  'x, y, z'
loop_
 _atom_site_type_symbol
 _atom_site_label
 _atom_site_symmetry_multiplicity
 _atom_site_fract_x
 _atom_site_fract_y
 _atom_site_fract_z
 _atom_site_occupancy
  K  K0  1  0.47183732  0.75000000  0.87442131  1.0
  K  K1  1  0.97183732  0.75000000  0.62557869  1.0
  K  K2  1  0.52816268  0.25000000  0.12557869  1.0
  K  K3  1  0.02816268  0.25000000  0.37442131  1.0
  K  K4  1  0.98489614  0.75000000  0.12443965  1.0
  K  K5  1  0.48489614  0.75000000  0.37556035  1.0
  K  K6  1  0.01510386  0.25000000  0.87556035  1.0
  K  K7  1  0.51510386  0.25000000  0.62443965  1.0
  Ga  Ga8  1  0.24837190  0.99924728  0.62503141  1.0
  Ga  Ga9  1  0.24837190  0.50075272  0.62503141  1.0
  Ga  Ga10  1  0.74837190  0.99924728  0.87496859  1.0
  Ga  Ga11  1  0.74837190  0.50075272  0.87496859  1.0
  Ga  Ga12  1  0.75162810  0.49924728  0.37496859  1.0
  Ga  Ga13  1  0.75162810  0.00075272  0.37496859  1.0
  Ga  Ga14  1  0.25162810  0.49924728  0.12503141  1.0
  Ga  Ga15  1  0.25162810  0.00075272  0.12503141  1.0
  F  F16  1  0.39876105  0.95545015  0.13471730  1.0
  F  F17  1  0.39876105  0.54454985  0.13471730  1.0
  F  F18  1  0.89876105  0.95545015  0.36528270  1.0
  F  F19  1  0.89876105  0.54454985  0.36528270  1.0
  F  F20  1  0.60123895  0.45545015  0.86528270  1.0
  F  F21  1  0.60123895  0.04454985  0.86528270  1.0
  F  F22  1  0.10123895  0.45545015  0.63471730  1.0
  F  F23  1  0.10123895  0.04454985  0.63471730  1.0
  F  F24  1  0.39529947  0.95317784  0.61496522  1.0
  F  F25  1  0.39529947  0.54682216  0.61496522  1.0
  F  F26  1  0.89529947  0.95317784  0.88503478  1.0
  F  F27  1  0.89529947  0.54682216  0.88503478  1.0
  F  F28  1  0.60470053  0.45317784  0.38503478  1.0
  F  F29  1  0.60470053  0.04682216  0.38503478  1.0
  F  F30  1  0.10470053  0.45317784  0.11496522  1.0
  F  F31  1  0.10470053  0.04682216  0.11496522  1.0
  F  F32  1  0.25501539  0.96235276  0.87503255  1.0
  F  F33  1  0.25501539  0.53764724  0.87503255  1.0
  F  F34  1  0.75501539  0.96235276  0.62496745  1.0
  F  F35  1  0.75501539  0.53764724  0.62496745  1.0
  F  F36  1  0.74498461  0.46235276  0.12496745  1.0
  F  F37  1  0.74498461  0.03764724  0.12496745  1.0
  F  F38  1  0.24498461  0.46235276  0.37503255  1.0
  F  F39  1  0.24498461  0.03764724  0.37503255  1.0
  F  F40  1  0.21667467  0.75000000  0.15795968  1.0
  F  F41  1  0.71667467  0.75000000  0.34204032  1.0
  F  F42  1  0.78332533  0.25000000  0.84204032  1.0
  F  F43  1  0.28332533  0.25000000  0.65795968  1.0
  F  F44  1  0.21209014  0.75000000  0.59186463  1.0
  F  F45  1  0.71209014  0.75000000  0.90813537  1.0
  F  F46  1  0.78790986  0.25000000  0.40813537  1.0
  F  F47  1  0.28790986  0.25000000  0.09186463  1.0
