# generated using pymatgen
data_VPPbO6
_symmetry_space_group_name_H-M   'P 1'
_cell_length_a   5.70850883
_cell_length_b   9.95718802
_cell_length_c   8.56043113
_cell_angle_alpha   90.00000000
_cell_angle_beta   90.90682098
_cell_angle_gamma   90.00000000
_symmetry_Int_Tables_number   1
_chemical_formula_structural   VPPbO6
_chemical_formula_sum   'V4 P4 Pb4 O24'
_cell_volume   486.51991963
_cell_formula_units_Z   4
loop_
 _symmetry_equiv_pos_site_id
 _symmetry_equiv_pos_as_xyz
  1  'x, y, z'
loop_
 _atom_site_type_symbol
 _atom_site_label
 _atom_site_symmetry_multiplicity
 _atom_site_fract_x
 _atom_site_fract_y
 _atom_site_fract_z
 _atom_site_occupancy
  V  V0  1  0.34296037  0.08846684  0.91203429  1.0
  V  V1  1  0.34296037  0.41153316  0.41203429  1.0
  V  V2  1  0.65703963  0.58846684  0.58796571  1.0
  V  V3  1  0.65703963  0.91153316  0.08796571  1.0
  P  P4  1  0.34180865  0.39206667  0.78654852  1.0
  P  P5  1  0.34180865  0.10793333  0.28654852  1.0
  P  P6  1  0.65819135  0.89206667  0.71345148  1.0
  P  P7  1  0.65819135  0.60793333  0.21345148  1.0
  Pb  Pb8  1  0.12491147  0.68461814  0.92629990  1.0
  Pb  Pb9  1  0.12491147  0.81538186  0.42629990  1.0
  Pb  Pb10  1  0.87508853  0.18461814  0.57370010  1.0
  Pb  Pb11  1  0.87508853  0.31538186  0.07370010  1.0
  O  O12  1  0.50080682  0.28237888  0.86262130  1.0
  O  O13  1  0.50080682  0.21762112  0.36262130  1.0
  O  O14  1  0.49919318  0.78237888  0.63737870  1.0
  O  O15  1  0.49919318  0.71762112  0.13737870  1.0
  O  O16  1  0.09337525  0.13252827  0.82877903  1.0
  O  O17  1  0.09337525  0.36747173  0.32877903  1.0
  O  O18  1  0.90662475  0.63252827  0.67122097  1.0
  O  O19  1  0.90662475  0.86747173  0.17122097  1.0
  O  O20  1  0.12768998  0.42653630  0.88776415  1.0
  O  O21  1  0.12768998  0.07346370  0.38776415  1.0
  O  O22  1  0.87231002  0.92653630  0.61223585  1.0
  O  O23  1  0.87231002  0.57346370  0.11223585  1.0
  O  O24  1  0.26013160  0.34036461  0.61961644  1.0
  O  O25  1  0.26013160  0.15963539  0.11961644  1.0
  O  O26  1  0.73986840  0.84036461  0.88038356  1.0
  O  O27  1  0.73986840  0.65963539  0.38038356  1.0
  O  O28  1  0.31643487  0.57254902  0.47036733  1.0
  O  O29  1  0.31643487  0.92745098  0.97036733  1.0
  O  O30  1  0.68356513  0.07254902  0.02963267  1.0
  O  O31  1  0.68356513  0.42745098  0.52963267  1.0
  O  O32  1  0.52225247  0.02922639  0.72941837  1.0
  O  O33  1  0.52225247  0.47077361  0.22941837  1.0
  O  O34  1  0.47774753  0.52922639  0.77058163  1.0
  O  O35  1  0.47774753  0.97077361  0.27058163  1.0
