# generated using pymatgen
data_Sr2InBr5
_symmetry_space_group_name_H-M   'P 1'
_cell_length_a   9.41587210
_cell_length_b   8.47548428
_cell_length_c   13.52947919
_cell_angle_alpha   90.00000000
_cell_angle_beta   89.96424669
_cell_angle_gamma   90.00000000
_symmetry_Int_Tables_number   1
_chemical_formula_structural   Sr2InBr5
_chemical_formula_sum   'Sr8 In4 Br20'
_cell_volume   1079.70737366
_cell_formula_units_Z   4
loop_
 _symmetry_equiv_pos_site_id
 _symmetry_equiv_pos_as_xyz
  1  'x, y, z'
loop_
 _atom_site_type_symbol
 _atom_site_label
 _atom_site_symmetry_multiplicity
 _atom_site_fract_x
 _atom_site_fract_y
 _atom_site_fract_z
 _atom_site_occupancy
  Sr  Sr0  1  1.00070856  0.47566204  0.17881402  1.0
  Sr  Sr1  1  1.00070856  0.02433796  0.67881402  1.0
  Sr  Sr2  1  -0.00070856  0.97566204  0.32118598  1.0
  Sr  Sr3  1  -0.00070856  0.52433796  0.82118598  1.0
  Sr  Sr4  1  0.75287992  0.42752029  0.49481366  1.0
  Sr  Sr5  1  0.75287992  0.07247971  0.99481366  1.0
  Sr  Sr6  1  0.24712008  0.92752029  0.00518634  1.0
  Sr  Sr7  1  0.24712008  0.57247971  0.50518634  1.0
  In  In8  1  0.50913293  0.49656990  0.17604423  1.0
  In  In9  1  0.50913293  0.00343010  0.67604423  1.0
  In  In10  1  0.49086707  0.99656990  0.32395577  1.0
  In  In11  1  0.49086707  0.50343010  0.82395577  1.0
  Br  Br12  1  0.46637042  0.34540264  0.40333746  1.0
  Br  Br13  1  0.46637042  0.15459736  0.90333746  1.0
  Br  Br14  1  0.53362958  0.84540264  0.09666254  1.0
  Br  Br15  1  0.53362958  0.65459736  0.59666254  1.0
  Br  Br16  1  0.77336248  0.19318933  0.21591996  1.0
  Br  Br17  1  0.77336248  0.30681067  0.71591996  1.0
  Br  Br18  1  0.22663752  0.69318933  0.28408004  1.0
  Br  Br19  1  0.22663752  0.80681067  0.78408004  1.0
  Br  Br20  1  0.78218326  0.66253749  0.31599511  1.0
  Br  Br21  1  0.78218326  0.83746251  0.81599511  1.0
  Br  Br22  1  0.21781674  0.16253749  0.18400489  1.0
  Br  Br23  1  0.21781674  0.33746251  0.68400489  1.0
  Br  Br24  1  0.78246990  0.04645875  0.49749943  1.0
  Br  Br25  1  0.78246990  0.45354125  0.99749943  1.0
  Br  Br26  1  0.21753010  0.54645875  0.00250057  1.0
  Br  Br27  1  0.21753010  0.95354125  0.50250057  1.0
  Br  Br28  1  0.95853655  0.83827883  0.09980911  1.0
  Br  Br29  1  0.95853655  0.66172117  0.59980911  1.0
  Br  Br30  1  0.04146345  0.33827883  0.40019089  1.0
  Br  Br31  1  0.04146345  0.16172117  0.90019089  1.0
