# generated using pymatgen
data_RbAl(SeO4)2
_symmetry_space_group_name_H-M   'P 1'
_cell_length_a   5.31480305
_cell_length_b   5.31480305
_cell_length_c   8.38368979
_cell_angle_alpha   90.00000000
_cell_angle_beta   90.00000000
_cell_angle_gamma   120.00000000
_symmetry_Int_Tables_number   1
_chemical_formula_structural   RbAl(SeO4)2
_chemical_formula_sum   'Rb1 Al1 Se2 O8'
_cell_volume   205.08796802
_cell_formula_units_Z   1
loop_
 _symmetry_equiv_pos_site_id
 _symmetry_equiv_pos_as_xyz
  1  'x, y, z'
loop_
 _atom_site_type_symbol
 _atom_site_label
 _atom_site_symmetry_multiplicity
 _atom_site_fract_x
 _atom_site_fract_y
 _atom_site_fract_z
 _atom_site_occupancy
  Rb  Rb0  1  0.00000000  -0.00000000  0.50000000  1.0
  Al  Al1  1  0.00000000  -0.00000000  -0.00000000  1.0
  Se  Se2  1  0.33333333  0.66666667  0.20245090  1.0
  Se  Se3  1  0.66666667  0.33333333  0.79754910  1.0
  O  O4  1  0.16202249  0.83828989  0.14091074  1.0
  O  O5  1  0.83828989  0.16202249  0.85908926  1.0
  O  O6  1  0.67626740  0.83797751  0.14091074  1.0
  O  O7  1  0.16171011  0.32373260  0.14091074  1.0
  O  O8  1  0.83797751  0.67626740  0.85908926  1.0
  O  O9  1  0.32373260  0.16171011  0.85908926  1.0
  O  O10  1  0.33333333  0.66666667  0.39734088  1.0
  O  O11  1  0.66666667  0.33333333  0.60265912  1.0
