# generated using pymatgen
data_La3CuGeSe7
_symmetry_space_group_name_H-M   'P 1'
_cell_length_a   10.80530508
_cell_length_b   10.80530508
_cell_length_c   6.21311460
_cell_angle_alpha   90.00000000
_cell_angle_beta   90.00000000
_cell_angle_gamma   120.00000000
_symmetry_Int_Tables_number   1
_chemical_formula_structural   La3CuGeSe7
_chemical_formula_sum   'La6 Cu2 Ge2 Se14'
_cell_volume   628.22333234
_cell_formula_units_Z   2
loop_
 _symmetry_equiv_pos_site_id
 _symmetry_equiv_pos_as_xyz
  1  'x, y, z'
loop_
 _atom_site_type_symbol
 _atom_site_label
 _atom_site_symmetry_multiplicity
 _atom_site_fract_x
 _atom_site_fract_y
 _atom_site_fract_z
 _atom_site_occupancy
  La  La0  1  0.22652313  0.87148725  0.02952591  1.0
  La  La1  1  0.87148725  0.64496411  0.52952591  1.0
  La  La2  1  0.64496411  0.77347687  0.02952591  1.0
  La  La3  1  0.12851275  0.35503589  0.02952591  1.0
  La  La4  1  0.77347687  0.12851275  0.52952591  1.0
  La  La5  1  0.35503589  0.22652313  0.52952591  1.0
  Cu  Cu6  1  0.00000000  0.00000000  0.00225919  1.0
  Cu  Cu7  1  0.00000000  0.00000000  0.50225919  1.0
  Ge  Ge8  1  0.33333333  0.66666667  0.61418241  1.0
  Ge  Ge9  1  0.66666667  0.33333333  0.11418241  1.0
  Se  Se10  1  0.90850263  0.74744418  0.01335122  1.0
  Se  Se11  1  0.74744418  0.83894155  0.51335122  1.0
  Se  Se12  1  0.83894155  0.09149737  0.01335122  1.0
  Se  Se13  1  0.25255582  0.16105845  0.01335122  1.0
  Se  Se14  1  0.09149737  0.25255582  0.51335122  1.0
  Se  Se15  1  0.16105845  0.90850263  0.51335122  1.0
  Se  Se16  1  0.58161848  0.48076845  0.26962852  1.0
  Se  Se17  1  0.48076845  0.89914997  0.76962852  1.0
  Se  Se18  1  0.89914997  0.41838152  0.26962852  1.0
  Se  Se19  1  0.51923155  0.10085003  0.26962852  1.0
  Se  Se20  1  0.41838152  0.51923155  0.76962852  1.0
  Se  Se21  1  0.10085003  0.58161848  0.76962852  1.0
  Se  Se22  1  0.33333333  0.66666667  0.23454145  1.0
  Se  Se23  1  0.66666667  0.33333333  0.73454145  1.0
