# generated using pymatgen
data_Lu5Ni2Sb
_symmetry_space_group_name_H-M   'P 1'
_cell_length_a   8.45038951
_cell_length_b   8.45038951
_cell_length_c   8.45038951
_cell_angle_alpha   127.90710665
_cell_angle_beta   127.90710665
_cell_angle_gamma   76.77555997
_symmetry_Int_Tables_number   1
_chemical_formula_structural   Lu5Ni2Sb
_chemical_formula_sum   'Lu10 Ni4 Sb2'
_cell_volume   364.78409326
_cell_formula_units_Z   2
loop_
 _symmetry_equiv_pos_site_id
 _symmetry_equiv_pos_as_xyz
  1  'x, y, z'
loop_
 _atom_site_type_symbol
 _atom_site_label
 _atom_site_symmetry_multiplicity
 _atom_site_fract_x
 _atom_site_fract_y
 _atom_site_fract_z
 _atom_site_occupancy
  Lu  Lu0  1  1.20543477  0.70543477  1.18610615  1.0
  Lu  Lu1  1  0.48067137  0.98067137  1.18610615  1.0
  Lu  Lu2  1  1.01932863  1.20543477  1.50000000  1.0
  Lu  Lu3  1  0.29456523  0.48067137  0.50000000  1.0
  Lu  Lu4  1  0.70543477  0.51932863  0.50000000  1.0
  Lu  Lu5  1  0.98067137  0.79456523  1.50000000  1.0
  Lu  Lu6  1  0.51932863  1.01932863  0.81389385  1.0
  Lu  Lu7  1  0.79456523  0.29456523  0.81389385  1.0
  Lu  Lu8  1  0.00000000  0.00000000  0.00000000  1.0
  Lu  Lu9  1  0.50000000  0.50000000  1.00000000  1.0
  Ni  Ni10  1  0.86840973  0.36840973  1.23681945  1.0
  Ni  Ni11  1  0.63159027  0.86840973  1.50000000  1.0
  Ni  Ni12  1  0.36840973  0.13159027  0.50000000  1.0
  Ni  Ni13  1  0.13159027  0.63159027  0.76318055  1.0
  Sb  Sb14  1  0.75000000  0.75000000  1.00000000  1.0
  Sb  Sb15  1  0.25000000  0.25000000  0.00000000  1.0
