# generated using pymatgen
data_AlF3
_symmetry_space_group_name_H-M   'P 1'
_cell_length_a   10.34742166
_cell_length_b   10.34742166
_cell_length_c   7.29155390
_cell_angle_alpha   90.00000000
_cell_angle_beta   90.00000000
_cell_angle_gamma   90.00000000
_symmetry_Int_Tables_number   1
_chemical_formula_structural   AlF3
_chemical_formula_sum   'Al16 F48'
_cell_volume   780.70036844
_cell_formula_units_Z   16
loop_
 _symmetry_equiv_pos_site_id
 _symmetry_equiv_pos_as_xyz
  1  'x, y, z'
loop_
 _atom_site_type_symbol
 _atom_site_label
 _atom_site_symmetry_multiplicity
 _atom_site_fract_x
 _atom_site_fract_y
 _atom_site_fract_z
 _atom_site_occupancy
  Al  Al0  1  0.75000000  0.25000000  0.00000000  1.0
  Al  Al1  1  0.25000000  0.25000000  -0.00000000  1.0
  Al  Al2  1  0.75000000  0.75000000  -0.00000000  1.0
  Al  Al3  1  0.25000000  0.75000000  0.00000000  1.0
  Al  Al4  1  0.66349284  0.50000000  0.67164001  1.0
  Al  Al5  1  0.33650716  0.50000000  0.67164001  1.0
  Al  Al6  1  0.00000000  0.16349284  0.67164001  1.0
  Al  Al7  1  0.00000000  0.83650716  0.67164001  1.0
  Al  Al8  1  0.83650716  0.00000000  0.32835999  1.0
  Al  Al9  1  0.16349284  0.00000000  0.32835999  1.0
  Al  Al10  1  0.50000000  0.33650716  0.32835999  1.0
  Al  Al11  1  0.50000000  0.66349284  0.32835999  1.0
  Al  Al12  1  0.00000000  0.50000000  0.58757823  1.0
  Al  Al13  1  0.50000000  0.00000000  0.41242177  1.0
  Al  Al14  1  0.00000000  0.50000000  0.09027915  1.0
  Al  Al15  1  0.50000000  0.00000000  0.90972085  1.0
  F  F16  1  0.80201894  0.87212183  0.16310056  1.0
  F  F17  1  0.19798106  0.87212183  0.16310056  1.0
  F  F18  1  0.80201894  0.12787817  0.16310056  1.0
  F  F19  1  0.19798106  0.12787817  0.16310056  1.0
  F  F20  1  0.37212183  0.30201894  0.16310056  1.0
  F  F21  1  0.62787817  0.30201894  0.16310056  1.0
  F  F22  1  0.37212183  0.69798106  0.16310056  1.0
  F  F23  1  0.62787817  0.69798106  0.16310056  1.0
  F  F24  1  0.69798106  0.62787817  0.83689944  1.0
  F  F25  1  0.30201894  0.62787817  0.83689944  1.0
  F  F26  1  0.69798106  0.37212183  0.83689944  1.0
  F  F27  1  0.30201894  0.37212183  0.83689944  1.0
  F  F28  1  0.12787817  0.19798106  0.83689944  1.0
  F  F29  1  0.87212183  0.19798106  0.83689944  1.0
  F  F30  1  0.12787817  0.80201894  0.83689944  1.0
  F  F31  1  0.87212183  0.80201894  0.83689944  1.0
  F  F32  1  0.82639593  0.50000000  0.58929106  1.0
  F  F33  1  0.17360407  0.50000000  0.58929106  1.0
  F  F34  1  0.00000000  0.32639593  0.58929106  1.0
  F  F35  1  0.00000000  0.67360407  0.58929106  1.0
  F  F36  1  0.67360407  0.00000000  0.41070894  1.0
  F  F37  1  0.32639593  0.00000000  0.41070894  1.0
  F  F38  1  0.50000000  0.17360407  0.41070894  1.0
  F  F39  1  0.50000000  0.82639593  0.41070894  1.0
  F  F40  1  0.87129901  0.37129901  0.09003886  1.0
  F  F41  1  0.12870099  0.37129901  0.09003886  1.0
  F  F42  1  0.87129901  0.62870099  0.09003886  1.0
  F  F43  1  0.12870099  0.62870099  0.09003886  1.0
  F  F44  1  0.62870099  0.12870099  0.90996114  1.0
  F  F45  1  0.37129901  0.12870099  0.90996114  1.0
  F  F46  1  0.62870099  0.87129901  0.90996114  1.0
  F  F47  1  0.37129901  0.87129901  0.90996114  1.0
  F  F48  1  0.62319510  0.37680490  0.50000000  1.0
  F  F49  1  0.37680490  0.37680490  0.50000000  1.0
  F  F50  1  0.62319510  0.62319510  0.50000000  1.0
  F  F51  1  0.37680490  0.62319510  0.50000000  1.0
  F  F52  1  0.87680490  0.12319510  0.50000000  1.0
  F  F53  1  0.12319510  0.12319510  0.50000000  1.0
  F  F54  1  0.87680490  0.87680490  0.50000000  1.0
  F  F55  1  0.12319510  0.87680490  0.50000000  1.0
  F  F56  1  0.00000000  0.00000000  0.75510254  1.0
  F  F57  1  0.50000000  0.50000000  0.75510254  1.0
  F  F58  1  0.50000000  0.50000000  0.24489746  1.0
  F  F59  1  0.00000000  0.00000000  0.24489746  1.0
  F  F60  1  0.00000000  0.50000000  0.33760835  1.0
  F  F61  1  0.50000000  0.00000000  0.66239165  1.0
  F  F62  1  0.00000000  0.50000000  0.84109002  1.0
  F  F63  1  0.50000000  0.00000000  0.15890998  1.0
