# generated using pymatgen
data_KPbIO6
_symmetry_space_group_name_H-M   'P 1'
_cell_length_a   6.24648036
_cell_length_b   6.24648036
_cell_length_c   9.27468117
_cell_angle_alpha   90.00000000
_cell_angle_beta   90.00000000
_cell_angle_gamma   120.00000000
_symmetry_Int_Tables_number   1
_chemical_formula_structural   KPbIO6
_chemical_formula_sum   'K2 Pb2 I2 O12'
_cell_volume   313.40099987
_cell_formula_units_Z   2
loop_
 _symmetry_equiv_pos_site_id
 _symmetry_equiv_pos_as_xyz
  1  'x, y, z'
loop_
 _atom_site_type_symbol
 _atom_site_label
 _atom_site_symmetry_multiplicity
 _atom_site_fract_x
 _atom_site_fract_y
 _atom_site_fract_z
 _atom_site_occupancy
  K  K0  1  0.33333333  0.66666667  0.75000000  1.0
  K  K1  1  0.66666667  0.33333333  0.25000000  1.0
  Pb  Pb2  1  0.00000000  -0.00000000  -0.00000000  1.0
  Pb  Pb3  1  -0.00000000  -0.00000000  0.50000000  1.0
  I  I4  1  0.33333333  0.66666667  0.25000000  1.0
  I  I5  1  0.66666667  0.33333333  0.75000000  1.0
  O  O6  1  0.30363508  0.91078297  0.13293431  1.0
  O  O7  1  0.30363508  0.39285210  0.36706569  1.0
  O  O8  1  0.91078297  0.30363508  0.86706569  1.0
  O  O9  1  0.91078297  0.60714790  0.63293431  1.0
  O  O10  1  0.60714790  0.91078297  0.36706569  1.0
  O  O11  1  0.60714790  0.69636492  0.13293431  1.0
  O  O12  1  0.08921703  0.69636492  0.36706569  1.0
  O  O13  1  0.08921703  0.39285210  0.13293431  1.0
  O  O14  1  0.69636492  0.60714790  0.86706569  1.0
  O  O15  1  0.69636492  0.08921703  0.63293431  1.0
  O  O16  1  0.39285210  0.30363508  0.63293431  1.0
  O  O17  1  0.39285210  0.08921703  0.86706569  1.0
