# generated using pymatgen
data_CaSi3Pt
_symmetry_space_group_name_H-M   'P 1'
_cell_length_a   5.78172759
_cell_length_b   5.78172759
_cell_length_c   5.78172759
_cell_angle_alpha   136.81783764
_cell_angle_beta   136.81783764
_cell_angle_gamma   62.71844781
_symmetry_Int_Tables_number   1
_chemical_formula_structural   CaSi3Pt
_chemical_formula_sum   'Ca1 Si3 Pt1'
_cell_volume   89.39201974
_cell_formula_units_Z   1
loop_
 _symmetry_equiv_pos_site_id
 _symmetry_equiv_pos_as_xyz
  1  'x, y, z'
loop_
 _atom_site_type_symbol
 _atom_site_label
 _atom_site_symmetry_multiplicity
 _atom_site_fract_x
 _atom_site_fract_y
 _atom_site_fract_z
 _atom_site_occupancy
  Ca  Ca0  1  0.60318363  0.60318363  1.00000000  1.0
  Si  Si1  1  0.86273536  0.36273536  0.50000000  1.0
  Si  Si2  1  0.36273536  0.86273536  0.50000000  1.0
  Si  Si3  1  0.00272038  0.00272038  0.00000000  1.0
  Pt  Pt4  1  0.24492527  0.24492527  0.00000000  1.0
