# generated using pymatgen
data_Na4Zr(MoO4)4
_symmetry_space_group_name_H-M   'P 1'
_cell_length_a   9.89351400
_cell_length_b   9.89351400
_cell_length_c   9.89351400
_cell_angle_alpha   111.03167412
_cell_angle_beta   111.03167412
_cell_angle_gamma   106.39346336
_symmetry_Int_Tables_number   1
_chemical_formula_structural   Na4Zr(MoO4)4
_chemical_formula_sum   'Na8 Zr2 Mo8 O32'
_cell_volume   743.86714645
_cell_formula_units_Z   2
loop_
 _symmetry_equiv_pos_site_id
 _symmetry_equiv_pos_as_xyz
  1  'x, y, z'
loop_
 _atom_site_type_symbol
 _atom_site_label
 _atom_site_symmetry_multiplicity
 _atom_site_fract_x
 _atom_site_fract_y
 _atom_site_fract_z
 _atom_site_occupancy
  Na  Na0  1  1.00360967  0.89066990  1.33843669  1.0
  Na  Na1  1  1.55223321  1.66517298  1.66156331  1.0
  Na  Na2  1  0.64066990  0.80223321  0.38706023  1.0
  Na  Na3  1  1.41517298  1.25360967  1.61293977  1.0
  Na  Na4  1  0.74639033  1.35933010  1.16156331  1.0
  Na  Na5  1  1.19776679  1.58482702  0.83843669  1.0
  Na  Na6  1  1.10933010  0.44776679  1.11293977  1.0
  Na  Na7  1  0.33482702  0.99639033  0.88706023  1.0
  Zr  Zr8  1  1.00000000  1.00000000  1.00000000  1.0
  Zr  Zr9  1  0.75000000  0.25000000  0.50000000  1.0
  Mo  Mo10  1  0.42832850  0.33468486  0.26508490  1.0
  Mo  Mo11  1  1.06959996  1.16324360  1.73491510  1.0
  Mo  Mo12  1  1.08468486  1.31959996  1.40635636  1.0
  Mo  Mo13  1  1.91324360  1.67832850  1.59364364  1.0
  Mo  Mo14  1  1.32167150  0.91531514  1.23491510  1.0
  Mo  Mo15  1  0.68040004  1.08675640  0.76508490  1.0
  Mo  Mo16  1  0.66531514  0.93040004  1.09364364  1.0
  Mo  Mo17  1  0.83675640  1.57167150  0.90635636  1.0
  O  O18  1  0.51298475  0.54905603  0.37628340  1.0
  O  O19  1  1.17277263  1.13670135  1.62371660  1.0
  O  O20  1  1.29905603  1.42277263  1.53607128  1.0
  O  O21  1  0.88670135  0.76298475  1.46392872  1.0
  O  O22  1  1.23701525  0.70094397  1.12371660  1.0
  O  O23  1  0.57722737  1.11329865  0.87628340  1.0
  O  O24  1  0.45094397  0.82722737  0.96392872  1.0
  O  O25  1  0.86329865  1.48701525  1.03607128  1.0
  O  O26  1  1.51689828  1.26763419  1.41040467  1.0
  O  O27  1  0.85722952  1.10649361  1.58959533  1.0
  O  O28  1  1.01763419  1.10722952  1.25073590  1.0
  O  O29  1  1.85649361  1.76689828  1.74926410  1.0
  O  O30  1  0.23310172  0.98236581  1.08959533  1.0
  O  O31  1  0.89277048  1.14350639  0.91040467  1.0
  O  O32  1  0.73236581  1.14277048  1.24926410  1.0
  O  O33  1  0.89350639  1.48310172  0.75073590  1.0
  O  O34  1  1.20744541  1.25637405  1.16729490  1.0
  O  O35  1  1.08907915  1.04015050  1.83270510  1.0
  O  O36  1  1.00637405  1.33907915  0.54892864  1.0
  O  O37  1  0.79015050  0.45744541  0.45107136  1.0
  O  O38  1  0.54255459  0.99362595  1.33270510  1.0
  O  O39  1  0.66092085  1.20984950  0.66729490  1.0
  O  O40  1  1.74362595  0.91092085  0.95107136  1.0
  O  O41  1  0.95984950  0.79255459  1.04892864  1.0
  O  O42  1  0.47503627  1.28017429  1.10594312  1.0
  O  O43  1  1.17423117  0.36909315  0.89405688  1.0
  O  O44  1  1.03017429  0.42423117  1.30513802  1.0
  O  O45  1  0.11909315  0.72503627  0.69486198  1.0
  O  O46  1  1.27496373  0.96982571  1.39405688  1.0
  O  O47  1  0.57576883  0.88090685  0.60594312  1.0
  O  O48  1  0.71982571  0.82576883  0.19486198  1.0
  O  O49  1  1.63090685  1.52496373  1.80513802  1.0
