# generated using pymatgen
data_I3O8
_symmetry_space_group_name_H-M   'P 1'
_cell_length_a   7.80417187
_cell_length_b   7.39539845
_cell_length_c   14.67670013
_cell_angle_alpha   90.00000000
_cell_angle_beta   123.81318667
_cell_angle_gamma   90.00000000
_symmetry_Int_Tables_number   1
_chemical_formula_structural   I3O8
_chemical_formula_sum   'I12 O32'
_cell_volume   703.78952990
_cell_formula_units_Z   4
loop_
 _symmetry_equiv_pos_site_id
 _symmetry_equiv_pos_as_xyz
  1  'x, y, z'
loop_
 _atom_site_type_symbol
 _atom_site_label
 _atom_site_symmetry_multiplicity
 _atom_site_fract_x
 _atom_site_fract_y
 _atom_site_fract_z
 _atom_site_occupancy
  O  O0  1  0.93654259  0.80274097  0.43639887  1.0
  O  O1  1  0.93654259  0.69725903  0.93639887  1.0
  O  O2  1  0.06345741  0.30274097  0.06360113  1.0
  O  O3  1  0.06345741  0.19725903  0.56360113  1.0
  O  O4  1  0.79055182  0.84092510  0.07096883  1.0
  O  O5  1  0.79055182  0.65907490  0.57096883  1.0
  O  O6  1  0.20944818  0.34092510  0.42903117  1.0
  O  O7  1  0.20944818  0.15907490  0.92903117  1.0
  O  O8  1  0.79275734  0.45627512  0.38045296  1.0
  O  O9  1  0.79275734  0.04372488  0.88045296  1.0
  O  O10  1  0.20724266  0.95627512  0.11954704  1.0
  O  O11  1  0.20724266  0.54372488  0.61954704  1.0
  O  O12  1  0.64081580  0.28402209  0.48964163  1.0
  O  O13  1  0.64081580  0.21597791  0.98964163  1.0
  O  O14  1  0.35918420  0.78402209  0.01035837  1.0
  O  O15  1  0.35918420  0.71597791  0.51035837  1.0
  O  O16  1  0.42639666  0.24599913  0.26369284  1.0
  O  O17  1  0.42639666  0.25400087  0.76369284  1.0
  O  O18  1  0.57360334  0.74599913  0.23630716  1.0
  O  O19  1  0.57360334  0.75400087  0.73630716  1.0
  O  O20  1  0.95071607  0.42664090  0.21249739  1.0
  O  O21  1  0.95071607  0.07335910  0.71249739  1.0
  O  O22  1  0.04928393  0.92664090  0.28750261  1.0
  O  O23  1  0.04928393  0.57335910  0.78750261  1.0
  O  O24  1  0.40916921  0.45135951  0.08523915  1.0
  O  O25  1  0.40916921  0.04864049  0.58523915  1.0
  O  O26  1  0.59083079  0.95135951  0.41476085  1.0
  O  O27  1  0.59083079  0.54864049  0.91476085  1.0
  O  O28  1  0.66920895  0.10440235  0.18320247  1.0
  O  O29  1  0.66920895  0.39559765  0.68320247  1.0
  O  O30  1  0.33079105  0.60440235  0.31679753  1.0
  O  O31  1  0.33079105  0.89559765  0.81679753  1.0
  I  I32  1  0.88688933  0.06461162  0.16150789  1.0
  I  I33  1  0.88688933  0.43538838  0.66150789  1.0
  I  I34  1  0.11311067  0.56461162  0.33849211  1.0
  I  I35  1  0.11311067  0.93538838  0.83849211  1.0
  I  I36  1  0.71195376  0.20799767  0.39318120  1.0
  I  I37  1  0.71195376  0.29200233  0.89318120  1.0
  I  I38  1  0.28804624  0.70799767  0.10681880  1.0
  I  I39  1  0.28804624  0.79200233  0.60681880  1.0
  I  I40  1  0.31982828  0.21367280  0.09724163  1.0
  I  I41  1  0.31982828  0.28632720  0.59724163  1.0
  I  I42  1  0.68017172  0.71367280  0.40275837  1.0
  I  I43  1  0.68017172  0.78632720  0.90275837  1.0
