# generated using pymatgen
data_Ca4Mg3H14
_symmetry_space_group_name_H-M   'P 1'
_cell_length_a   6.23137918
_cell_length_b   6.23137918
_cell_length_c   6.87679460
_cell_angle_alpha   90.00000000
_cell_angle_beta   90.00000000
_cell_angle_gamma   120.00000000
_symmetry_Int_Tables_number   1
_chemical_formula_structural   Ca4Mg3H14
_chemical_formula_sum   'Ca4 Mg3 H14'
_cell_volume   231.25175770
_cell_formula_units_Z   1
loop_
 _symmetry_equiv_pos_site_id
 _symmetry_equiv_pos_as_xyz
  1  'x, y, z'
loop_
 _atom_site_type_symbol
 _atom_site_label
 _atom_site_symmetry_multiplicity
 _atom_site_fract_x
 _atom_site_fract_y
 _atom_site_fract_z
 _atom_site_occupancy
  Ca  Ca0  1  0.00000000  0.00000000  0.73345081  1.0
  Ca  Ca1  1  0.00000000  0.00000000  0.26654919  1.0
  Ca  Ca2  1  0.33333333  0.66666667  0.50000000  1.0
  Ca  Ca3  1  0.66666667  0.33333333  0.50000000  1.0
  Mg  Mg4  1  0.44060845  0.44060845  0.00000000  1.0
  Mg  Mg5  1  0.00000000  0.55939155  0.00000000  1.0
  Mg  Mg6  1  0.55939155  0.00000000  0.00000000  1.0
  H  H7  1  0.38704674  0.38704674  0.72385558  1.0
  H  H8  1  0.38704674  0.38704674  0.27614442  1.0
  H  H9  1  0.00000000  0.61295326  0.72385558  1.0
  H  H10  1  0.00000000  0.61295326  0.27614442  1.0
  H  H11  1  0.61295326  0.00000000  0.72385558  1.0
  H  H12  1  0.61295326  0.00000000  0.27614442  1.0
  H  H13  1  0.73672906  0.73672906  0.50000000  1.0
  H  H14  1  0.00000000  0.26327094  0.50000000  1.0
  H  H15  1  0.26327094  0.00000000  0.50000000  1.0
  H  H16  1  0.77043303  0.77043303  0.00000000  1.0
  H  H17  1  -0.00000000  0.22956697  0.00000000  1.0
  H  H18  1  0.22956697  0.00000000  0.00000000  1.0
  H  H19  1  0.33333333  0.66666667  0.00000000  1.0
  H  H20  1  0.66666667  0.33333333  0.00000000  1.0
