# generated using pymatgen
data_K7P6H2NO22
_symmetry_space_group_name_H-M   'P 1'
_cell_length_a   9.93593164
_cell_length_b   9.88220785
_cell_length_c   6.62582408
_cell_angle_alpha   73.97825526
_cell_angle_beta   72.84110099
_cell_angle_gamma   76.34487727
_symmetry_Int_Tables_number   1
_chemical_formula_structural   K7P6H2NO22
_chemical_formula_sum   'K7 P6 H2 N1 O22'
_cell_volume   588.94731670
_cell_formula_units_Z   1
loop_
 _symmetry_equiv_pos_site_id
 _symmetry_equiv_pos_as_xyz
  1  'x, y, z'
loop_
 _atom_site_type_symbol
 _atom_site_label
 _atom_site_symmetry_multiplicity
 _atom_site_fract_x
 _atom_site_fract_y
 _atom_site_fract_z
 _atom_site_occupancy
  K  K0  1  -0.00647044  -0.00051451  0.00741296  1.0
  K  K1  1  -0.43594821  -0.82679468  -0.04274956  1.0
  K  K2  1  -0.81813726  -0.42555271  -0.08528750  1.0
  K  K3  1  -0.70664269  -0.12125835  -0.58236176  1.0
  K  K4  1  -0.10720119  -0.72496197  -0.61484474  1.0
  K  K5  1  -0.55005624  -0.57275850  -0.64099115  1.0
  K  K6  1  -0.27018948  -0.28232275  -0.82730396  1.0
  P  P7  1  -0.56299468  -0.13769925  -0.15243487  1.0
  P  P8  1  -0.17984096  -0.57759089  -0.15183656  1.0
  P  P9  1  -0.45073805  -0.41958677  -0.25337740  1.0
  P  P10  1  -0.08230201  -0.13807903  -0.39844254  1.0
  P  P11  1  -0.35212217  -0.97998204  -0.51152784  1.0
  P  P12  1  -0.96974247  -0.41820279  -0.51297412  1.0
  H  H13  1  -0.72700684  -0.80146755  -0.55172231  1.0
  H  H14  1  -0.74810635  -0.77527449  -0.78725727  1.0
  N  N15  1  -0.79529590  -0.76887145  -0.15326015  1.0
  O  O16  1  -0.52738178  -0.52938156  -0.07958695  1.0
  O  O17  1  -0.70832252  -0.16139242  -0.14792491  1.0
  O  O18  1  -0.45107596  -0.28927280  -0.14446398  1.0
  O  O19  1  -0.15816438  -0.72893897  -0.17612832  1.0
  O  O20  1  -0.04640113  -0.20073121  -0.18205734  1.0
  O  O21  1  -0.69876495  -0.69394918  -0.21717530  1.0
  O  O22  1  -0.03174221  -0.51075184  -0.26870950  1.0
  O  O23  1  -0.82380689  -0.82608582  -0.28041583  1.0
  O  O24  1  -0.27947777  -0.47839234  -0.31586275  1.0
  O  O25  1  -0.25302509  -0.07671413  -0.34503480  1.0
  O  O26  1  -0.49964225  -0.04691901  -0.39753884  1.0
  O  O27  1  -0.49288486  -0.36297785  -0.46613145  1.0
  O  O28  1  -0.37594547  -0.82778644  -0.48987162  1.0
  O  O29  1  -0.07839907  -0.26393746  -0.51866963  1.0
  O  O30  1  -0.82286442  -0.39769344  -0.51959828  1.0
  O  O31  1  -0.00131629  -0.02607836  -0.56060554  1.0
  O  O32  1  -0.99402513  -0.47889555  -0.68163797  1.0
  O  O33  1  -0.67501343  -0.79398987  -0.70565261  1.0
  O  O34  1  -0.29419577  -0.01451240  -0.73206800  1.0
  O  O35  1  -0.23428147  -0.54486513  -0.93017615  1.0
  O  O36  1  -0.86614299  -0.78884574  -0.95600343  1.0
  O  O37  1  -0.54223123  -0.07337076  -0.98522804  1.0
