# generated using pymatgen
data_Na2Ca3Al2F14
_symmetry_space_group_name_H-M   'P 1'
_cell_length_a   8.99229542
_cell_length_b   8.99229542
_cell_length_c   8.99229542
_cell_angle_alpha   109.47122063
_cell_angle_beta   109.47122063
_cell_angle_gamma   109.47122063
_symmetry_Int_Tables_number   1
_chemical_formula_structural   Na2Ca3Al2F14
_chemical_formula_sum   'Na4 Ca6 Al4 F28'
_cell_volume   559.74446516
_cell_formula_units_Z   2
loop_
 _symmetry_equiv_pos_site_id
 _symmetry_equiv_pos_as_xyz
  1  'x, y, z'
loop_
 _atom_site_type_symbol
 _atom_site_label
 _atom_site_symmetry_multiplicity
 _atom_site_fract_x
 _atom_site_fract_y
 _atom_site_fract_z
 _atom_site_occupancy
  Na  Na0  1  1.16953877  1.16953877  1.16953877  1.0
  Na  Na1  1  1.50000000  1.00000000  1.33046123  1.0
  Na  Na2  1  1.00000000  1.33046123  1.50000000  1.0
  Na  Na3  1  1.33046123  0.50000000  1.00000000  1.0
  Ca  Ca4  1  1.71717064  1.46717064  1.25000000  1.0
  Ca  Ca5  1  0.25000000  0.71717064  0.46717064  1.0
  Ca  Ca6  1  0.75000000  0.78282936  0.03282936  1.0
  Ca  Ca7  1  1.46717064  1.25000000  1.71717064  1.0
  Ca  Ca8  1  0.03282936  0.75000000  0.78282936  1.0
  Ca  Ca9  1  0.78282936  1.03282936  0.75000000  1.0
  Al  Al10  1  1.49710084  1.49710084  1.49710084  1.0
  Al  Al11  1  1.50000000  1.00000000  1.00289916  1.0
  Al  Al12  1  1.00000000  1.00289916  1.50000000  1.0
  Al  Al13  1  1.00289916  0.50000000  1.00000000  1.0
  F  F14  1  1.05411383  0.31307642  0.98095124  1.0
  F  F15  1  0.83212518  1.07316259  0.51904876  1.0
  F  F16  1  0.98095124  1.05411383  0.31307642  1.0
  F  F17  1  1.24103741  0.66787482  1.18692358  1.0
  F  F18  1  1.31307642  0.98095124  1.05411383  1.0
  F  F19  1  1.42683741  1.25896259  1.44588617  1.0
  F  F20  1  1.66787482  1.18692358  1.24103741  1.0
  F  F21  1  1.44588617  1.42683741  1.25896259  1.0
  F  F22  1  1.25896259  1.44588617  1.42683741  1.0
  F  F23  1  1.51904876  0.83212518  1.07316259  1.0
  F  F24  1  1.07316259  1.51904876  0.83212518  1.0
  F  F25  1  1.18692358  1.24103741  1.66787482  1.0
  F  F26  1  1.00079154  0.94929797  1.67756884  1.0
  F  F27  1  0.77172913  1.32322269  0.82243116  1.0
  F  F28  1  0.67756884  1.00079154  0.94929797  1.0
  F  F29  1  0.55149357  0.72827087  0.55070203  1.0
  F  F30  1  0.94929797  1.67756884  1.00079154  1.0
  F  F31  1  1.17677731  0.94850643  1.49920846  1.0
  F  F32  1  0.72827087  0.55070203  0.55149357  1.0
  F  F33  1  0.49920846  1.17677731  0.94850643  1.0
  F  F34  1  0.94850643  0.49920846  1.17677731  1.0
  F  F35  1  0.82243116  0.77172913  0.32322269  1.0
  F  F36  1  0.32322269  0.82243116  0.77172913  1.0
  F  F37  1  0.55070203  0.55149357  0.72827087  1.0
  F  F38  1  0.92127640  0.92127640  0.92127640  1.0
  F  F39  1  0.50000000  1.00000000  0.57872360  1.0
  F  F40  1  1.00000000  0.57872360  1.50000000  1.0
  F  F41  1  0.57872360  1.50000000  1.00000000  1.0
