# generated using pymatgen
data_SnH24C6N2(OF3)2
_symmetry_space_group_name_H-M   'P 1'
_cell_length_a   8.37300206
_cell_length_b   8.37300206
_cell_length_c   8.39770791
_cell_angle_alpha   63.89961846
_cell_angle_beta   116.10038154
_cell_angle_gamma   127.83795554
_symmetry_Int_Tables_number   1
_chemical_formula_structural   SnH24C6N2(OF3)2
_chemical_formula_sum   'Sn1 H24 C6 N2 O2 F6'
_cell_volume   405.35931706
_cell_formula_units_Z   1
loop_
 _symmetry_equiv_pos_site_id
 _symmetry_equiv_pos_as_xyz
  1  'x, y, z'
loop_
 _atom_site_type_symbol
 _atom_site_label
 _atom_site_symmetry_multiplicity
 _atom_site_fract_x
 _atom_site_fract_y
 _atom_site_fract_z
 _atom_site_occupancy
  Sn  Sn0  1  0.00000000  0.00000000  0.00000000  1.0
  H  H1  1  0.69635563  -0.69635563  0.29082395  1.0
  H  H2  1  1.30364437  -0.30364437  0.70917605  1.0
  H  H3  1  0.65161826  -0.43698290  0.23529021  1.0
  H  H4  1  1.43698290  0.34838174  0.23529021  1.0
  H  H5  1  1.34838174  -0.56301710  0.76470979  1.0
  H  H6  1  1.56301710  -0.34838174  0.76470979  1.0
  H  H7  1  1.05830443  -0.48651246  0.30345984  1.0
  H  H8  1  1.48651246  -0.05830443  0.30345984  1.0
  H  H9  1  0.94169557  -0.51348754  0.69654016  1.0
  H  H10  1  1.51348754  0.05830443  0.69654016  1.0
  H  H11  1  1.06104986  -0.71090451  0.33193018  1.0
  H  H12  1  1.71090451  -0.06104986  0.33193018  1.0
  H  H13  1  0.93895014  -0.28909549  0.66806982  1.0
  H  H14  1  1.28909549  0.06104986  0.66806982  1.0
  H  H15  1  1.01045398  -0.69195069  0.50786781  1.0
  H  H16  1  1.69195069  -0.01045398  0.50786781  1.0
  H  H17  1  0.98954602  -0.30804931  0.49213219  1.0
  H  H18  1  1.30804931  0.01045398  0.49213219  1.0
  H  H19  1  0.79603948  -0.55326853  0.01418472  1.0
  H  H20  1  1.55326853  0.20396052  0.01418472  1.0
  H  H21  1  1.20396052  -0.44673147  0.98581528  1.0
  H  H22  1  1.44673147  -0.20396052  0.98581528  1.0
  H  H23  1  0.78579909  -0.78579909  0.04417507  1.0
  H  H24  1  1.21420091  -0.21420091  0.95582493  1.0
  C  C25  1  0.98973218  -0.65485646  0.36045979  1.0
  C  C26  1  1.65485646  0.01026782  0.36045979  1.0
  C  C27  1  1.01026782  -0.34514354  0.63954021  1.0
  C  C28  1  1.34514354  -0.01026782  0.63954021  1.0
  C  C29  1  0.72183608  -0.72183608  0.07196477  1.0
  C  C30  1  1.27816392  -0.27816392  0.92803523  1.0
  N  N31  1  0.76210016  -0.76210016  0.27340075  1.0
  N  N32  1  1.23789984  -0.23789984  0.72659925  1.0
  O  O33  1  0.58725480  -0.58725480  0.29464525  1.0
  O  O34  1  1.41274520  -0.41274520  0.70535475  1.0
  F  F35  1  1.16889532  -0.78096835  0.14367791  1.0
  F  F36  1  1.78096835  -0.16889532  0.14367791  1.0
  F  F37  1  0.83110468  -0.21903165  0.85632209  1.0
  F  F38  1  1.21903165  0.16889532  0.85632209  1.0
  F  F39  1  0.85208708  -0.85208708  0.81530909  1.0
  F  F40  1  1.14791292  -0.14791292  0.18469091  1.0
