# generated using pymatgen
data_CsHSeO4
_symmetry_space_group_name_H-M   'P 1'
_cell_length_a   8.12752732
_cell_length_b   8.62635045
_cell_length_c   8.03955820
_cell_angle_alpha   90.00000000
_cell_angle_beta   109.73054037
_cell_angle_gamma   90.00000000
_symmetry_Int_Tables_number   1
_chemical_formula_structural   CsHSeO4
_chemical_formula_sum   'Cs4 H4 Se4 O16'
_cell_volume   530.56854707
_cell_formula_units_Z   4
loop_
 _symmetry_equiv_pos_site_id
 _symmetry_equiv_pos_as_xyz
  1  'x, y, z'
loop_
 _atom_site_type_symbol
 _atom_site_label
 _atom_site_symmetry_multiplicity
 _atom_site_fract_x
 _atom_site_fract_y
 _atom_site_fract_z
 _atom_site_occupancy
  Cs  Cs0  1  0.79332961  0.37416722  0.79683789  1.0
  Cs  Cs1  1  0.20667039  0.87416722  0.70316211  1.0
  Cs  Cs2  1  0.20667039  0.62583278  0.20316211  1.0
  Cs  Cs3  1  0.79332961  0.12583278  0.29683789  1.0
  H  H4  1  0.38559966  0.20459538  0.94840468  1.0
  H  H5  1  0.61440034  0.70459538  0.55159532  1.0
  H  H6  1  0.61440034  0.79540462  0.05159532  1.0
  H  H7  1  0.38559966  0.29540462  0.44840468  1.0
  Se  Se8  1  0.25169780  0.37010716  0.71280476  1.0
  Se  Se9  1  0.74830220  0.87010716  0.78719524  1.0
  Se  Se10  1  0.74830220  0.62989284  0.28719524  1.0
  Se  Se11  1  0.25169780  0.12989284  0.21280476  1.0
  O  O12  1  0.43053521  0.27784637  0.87246026  1.0
  O  O13  1  0.56946479  0.77784637  0.62753974  1.0
  O  O14  1  0.56946479  0.72215363  0.12753974  1.0
  O  O15  1  0.43053521  0.22215363  0.37246026  1.0
  O  O16  1  0.09791472  0.23838557  0.63688903  1.0
  O  O17  1  0.90208528  0.73838557  0.86311097  1.0
  O  O18  1  0.90208528  0.76161443  0.36311097  1.0
  O  O19  1  0.09791472  0.26161443  0.13688903  1.0
  O  O20  1  0.19014362  0.51810280  0.80612259  1.0
  O  O21  1  0.80985638  0.01810280  0.69387741  1.0
  O  O22  1  0.80985638  0.48189720  0.19387741  1.0
  O  O23  1  0.19014362  0.98189720  0.30612259  1.0
  O  O24  1  0.34406792  0.42610247  0.56670112  1.0
  O  O25  1  0.65593208  0.92610247  0.93329888  1.0
  O  O26  1  0.65593208  0.57389753  0.43329888  1.0
  O  O27  1  0.34406792  0.07389753  0.06670112  1.0
