# generated using pymatgen
data_FeB
_symmetry_space_group_name_H-M   'P 1'
_cell_length_a   7.76790665
_cell_length_b   7.76790665
_cell_length_c   7.76790665
_cell_angle_alpha   158.28142977
_cell_angle_beta   158.28142977
_cell_angle_gamma   30.90441105
_symmetry_Int_Tables_number   1
_chemical_formula_structural   FeB
_chemical_formula_sum   'Fe4 B4'
_cell_volume   64.14068144
_cell_formula_units_Z   4
loop_
 _symmetry_equiv_pos_site_id
 _symmetry_equiv_pos_as_xyz
  1  'x, y, z'
loop_
 _atom_site_type_symbol
 _atom_site_label
 _atom_site_symmetry_multiplicity
 _atom_site_fract_x
 _atom_site_fract_y
 _atom_site_fract_z
 _atom_site_occupancy
  Fe  Fe0  1  1.30405601  1.30405601  1.00000000  1.0
  Fe  Fe1  1  0.05405601  0.55405601  0.50000000  1.0
  Fe  Fe2  1  1.44594399  0.94594399  0.50000000  1.0
  Fe  Fe3  1  0.69594399  0.69594399  -0.00000000  1.0
  B  B4  1  0.84023729  0.84023729  -0.00000000  1.0
  B  B5  1  0.59023729  0.09023729  0.50000000  1.0
  B  B6  1  0.90976271  1.40976271  0.50000000  1.0
  B  B7  1  1.15976271  1.15976271  1.00000000  1.0
