# generated using pymatgen
data_NaTaO3
_symmetry_space_group_name_H-M   'P 1'
_cell_length_a   5.55196395
_cell_length_b   5.55196395
_cell_length_c   7.89606733
_cell_angle_alpha   90.00000000
_cell_angle_beta   90.00000000
_cell_angle_gamma   90.54261380
_symmetry_Int_Tables_number   1
_chemical_formula_structural   NaTaO3
_chemical_formula_sum   'Na4 Ta4 O12'
_cell_volume   243.37986270
_cell_formula_units_Z   4
loop_
 _symmetry_equiv_pos_site_id
 _symmetry_equiv_pos_as_xyz
  1  'x, y, z'
loop_
 _atom_site_type_symbol
 _atom_site_label
 _atom_site_symmetry_multiplicity
 _atom_site_fract_x
 _atom_site_fract_y
 _atom_site_fract_z
 _atom_site_occupancy
  Na  Na0  1  0.00407807  0.99592193  0.25000000  1.0
  Na  Na1  1  -0.00407807  1.00407807  0.75000000  1.0
  Na  Na2  1  -0.49073041  1.49073041  0.25000000  1.0
  Na  Na3  1  0.49073041  0.50926959  0.75000000  1.0
  Ta  Ta4  1  -0.00000000  1.50000000  0.50000000  1.0
  Ta  Ta5  1  -0.00000000  1.50000000  0.00000000  1.0
  Ta  Ta6  1  0.50000000  1.00000000  0.00000000  1.0
  Ta  Ta7  1  0.50000000  1.00000000  0.50000000  1.0
  O  O8  1  -0.04210510  1.46883740  0.25000000  1.0
  O  O9  1  0.46883740  0.95789490  0.75000000  1.0
  O  O10  1  -0.46883740  1.04210510  0.25000000  1.0
  O  O11  1  0.04210510  0.53116260  0.75000000  1.0
  O  O12  1  0.28717864  0.71282136  0.46401879  1.0
  O  O13  1  0.28717864  0.71282136  0.03598121  1.0
  O  O14  1  -0.28717864  1.28717864  0.96401879  1.0
  O  O15  1  -0.28717864  1.28717864  0.53598121  1.0
  O  O16  1  0.78874327  0.78874327  0.50000000  1.0
  O  O17  1  0.78874327  0.78874327  0.00000000  1.0
  O  O18  1  0.21125673  0.21125673  0.50000000  1.0
  O  O19  1  0.21125673  0.21125673  0.00000000  1.0
