# generated using pymatgen
data_Ba2MnTe3
_symmetry_space_group_name_H-M   'P 1'
_cell_length_a   9.81362637
_cell_length_b   4.78747013
_cell_length_c   19.09402216
_cell_angle_alpha   90.00000000
_cell_angle_beta   90.00000000
_cell_angle_gamma   90.00000000
_symmetry_Int_Tables_number   1
_chemical_formula_structural   Ba2MnTe3
_chemical_formula_sum   'Ba8 Mn4 Te12'
_cell_volume   897.08380970
_cell_formula_units_Z   4
loop_
 _symmetry_equiv_pos_site_id
 _symmetry_equiv_pos_as_xyz
  1  'x, y, z'
loop_
 _atom_site_type_symbol
 _atom_site_label
 _atom_site_symmetry_multiplicity
 _atom_site_fract_x
 _atom_site_fract_y
 _atom_site_fract_z
 _atom_site_occupancy
  Ba  Ba0  1  0.91763995  0.75000000  0.78689243  1.0
  Ba  Ba1  1  0.41763995  0.75000000  0.71310757  1.0
  Ba  Ba2  1  0.08236005  0.25000000  0.21310757  1.0
  Ba  Ba3  1  0.58236005  0.25000000  0.28689243  1.0
  Ba  Ba4  1  0.74857778  0.75000000  0.04048995  1.0
  Ba  Ba5  1  0.24857778  0.75000000  0.45951005  1.0
  Ba  Ba6  1  0.25142222  0.25000000  0.95951005  1.0
  Ba  Ba7  1  0.75142222  0.25000000  0.54048995  1.0
  Mn  Mn8  1  0.86713436  0.75000000  0.36395138  1.0
  Mn  Mn9  1  0.36713436  0.75000000  0.13604862  1.0
  Mn  Mn10  1  0.13286564  0.25000000  0.63604862  1.0
  Mn  Mn11  1  0.63286564  0.25000000  0.86395138  1.0
  Te  Te12  1  1.00139422  0.75000000  0.60138738  1.0
  Te  Te13  1  0.50139422  0.75000000  0.89861262  1.0
  Te  Te14  1  -0.00139422  0.25000000  0.39861262  1.0
  Te  Te15  1  0.49860578  0.25000000  0.10138738  1.0
  Te  Te16  1  0.81640602  0.75000000  0.22413274  1.0
  Te  Te17  1  0.31640602  0.75000000  0.27586726  1.0
  Te  Te18  1  0.18359398  0.25000000  0.77586726  1.0
  Te  Te19  1  0.68359398  0.25000000  0.72413274  1.0
  Te  Te20  1  0.62076662  0.75000000  0.42811096  1.0
  Te  Te21  1  0.12076662  0.75000000  0.07188904  1.0
  Te  Te22  1  0.37923338  0.25000000  0.57188904  1.0
  Te  Te23  1  0.87923338  0.25000000  0.92811096  1.0
