# generated using pymatgen
data_BaGa2B2O7
_symmetry_space_group_name_H-M   'P 1'
_cell_length_a   7.37676256
_cell_length_b   7.37676256
_cell_length_c   5.90928719
_cell_angle_alpha   90.00000000
_cell_angle_beta   90.00000000
_cell_angle_gamma   72.92928267
_symmetry_Int_Tables_number   1
_chemical_formula_structural   BaGa2B2O7
_chemical_formula_sum   'Ba2 Ga4 B4 O14'
_cell_volume   307.39640235
_cell_formula_units_Z   2
loop_
 _symmetry_equiv_pos_site_id
 _symmetry_equiv_pos_as_xyz
  1  'x, y, z'
loop_
 _atom_site_type_symbol
 _atom_site_label
 _atom_site_symmetry_multiplicity
 _atom_site_fract_x
 _atom_site_fract_y
 _atom_site_fract_z
 _atom_site_occupancy
  Ba  Ba0  1  -0.19468241  1.19468241  0.25000000  1.0
  Ba  Ba1  1  0.19468241  0.80531759  0.75000000  1.0
  Ga  Ga2  1  -0.12835249  1.71158078  0.25000000  1.0
  Ga  Ga3  1  0.71158078  0.87164751  0.75000000  1.0
  Ga  Ga4  1  -0.71158078  1.12835249  0.25000000  1.0
  Ga  Ga5  1  0.12835249  0.28841922  0.75000000  1.0
  B  B6  1  0.28314376  0.49527942  0.25000000  1.0
  B  B7  1  -0.50472058  1.28314376  0.75000000  1.0
  B  B8  1  0.50472058  0.71685624  0.25000000  1.0
  B  B9  1  -0.28314376  1.50472058  0.75000000  1.0
  O  O10  1  0.09493093  0.50991913  0.25000000  1.0
  O  O11  1  -0.49008087  1.09493093  0.75000000  1.0
  O  O12  1  0.49008087  0.90506907  0.25000000  1.0
  O  O13  1  -0.09493093  1.49008087  0.75000000  1.0
  O  O14  1  -0.31865000  1.58571199  0.25000000  1.0
  O  O15  1  0.58571199  0.68135000  0.75000000  1.0
  O  O16  1  -0.58571199  1.31865000  0.25000000  1.0
  O  O17  1  0.31865000  0.41428801  0.75000000  1.0
  O  O18  1  0.86720179  0.86720179  0.50000000  1.0
  O  O19  1  0.86720179  0.86720179  0.00000000  1.0
  O  O20  1  0.13279821  0.13279821  0.50000000  1.0
  O  O21  1  0.13279821  0.13279821  0.00000000  1.0
  O  O22  1  0.33538974  0.66461026  0.25000000  1.0
  O  O23  1  -0.33538974  1.33538974  0.75000000  1.0
