# generated using pymatgen
data_NiSeO4
_symmetry_space_group_name_H-M   'P 1'
_cell_length_a   4.81980489
_cell_length_b   12.10369290
_cell_length_c   7.12851558
_cell_angle_alpha   90.00000000
_cell_angle_beta   130.15644501
_cell_angle_gamma   90.00000000
_symmetry_Int_Tables_number   1
_chemical_formula_structural   NiSeO4
_chemical_formula_sum   'Ni4 Se4 O16'
_cell_volume   317.83566499
_cell_formula_units_Z   4
loop_
 _symmetry_equiv_pos_site_id
 _symmetry_equiv_pos_as_xyz
  1  'x, y, z'
loop_
 _atom_site_type_symbol
 _atom_site_label
 _atom_site_symmetry_multiplicity
 _atom_site_fract_x
 _atom_site_fract_y
 _atom_site_fract_z
 _atom_site_occupancy
  Ni  Ni0  1  0.62150731  0.23833597  0.31618942  1.0
  Ni  Ni1  1  0.62150731  0.26166403  0.81618942  1.0
  Ni  Ni2  1  0.37849269  0.73833597  0.18381058  1.0
  Ni  Ni3  1  0.37849269  0.76166403  0.68381058  1.0
  Se  Se4  1  0.97105974  0.90419343  0.22796860  1.0
  Se  Se5  1  0.97105974  0.59580657  0.72796860  1.0
  Se  Se6  1  0.02894026  0.40419343  0.27203140  1.0
  Se  Se7  1  0.02894026  0.09580657  0.77203140  1.0
  O  O8  1  0.83063251  0.11319355  0.36236981  1.0
  O  O9  1  0.83063251  0.38680645  0.86236981  1.0
  O  O10  1  0.16936749  0.61319355  0.13763019  1.0
  O  O11  1  0.16936749  0.88680645  0.63763019  1.0
  O  O12  1  0.88686331  0.66646936  0.47322413  1.0
  O  O13  1  0.88686331  0.83353064  0.97322413  1.0
  O  O14  1  0.11313669  0.16646936  0.02677587  1.0
  O  O15  1  0.11313669  0.33353064  0.52677587  1.0
  O  O16  1  0.65592047  0.30594221  0.08412366  1.0
  O  O17  1  0.65592047  0.19405779  0.58412366  1.0
  O  O18  1  0.34407953  0.80594221  0.41587634  1.0
  O  O19  1  0.34407953  0.69405779  0.91587634  1.0
  O  O20  1  0.40391837  0.37413424  0.30431545  1.0
  O  O21  1  0.40391837  0.12586576  0.80431545  1.0
  O  O22  1  0.59608163  0.87413424  0.19568455  1.0
  O  O23  1  0.59608163  0.62586576  0.69568455  1.0
