# generated using pymatgen
data_Nb2C
_symmetry_space_group_name_H-M   'P 1'
_cell_length_a   10.95853192
_cell_length_b   3.10013907
_cell_length_c   4.98401032
_cell_angle_alpha   90.00000000
_cell_angle_beta   90.00000000
_cell_angle_gamma   90.00000000
_symmetry_Int_Tables_number   1
_chemical_formula_structural   Nb2C
_chemical_formula_sum   'Nb8 C4'
_cell_volume   169.32164771
_cell_formula_units_Z   4
loop_
 _symmetry_equiv_pos_site_id
 _symmetry_equiv_pos_as_xyz
  1  'x, y, z'
loop_
 _atom_site_type_symbol
 _atom_site_label
 _atom_site_symmetry_multiplicity
 _atom_site_fract_x
 _atom_site_fract_y
 _atom_site_fract_z
 _atom_site_occupancy
  Nb  Nb0  1  0.20385642  0.75000000  0.73680903  1.0
  Nb  Nb1  1  0.70385642  0.75000000  0.76319097  1.0
  Nb  Nb2  1  0.79614358  0.25000000  0.26319097  1.0
  Nb  Nb3  1  0.29614358  0.25000000  0.23680903  1.0
  Nb  Nb4  1  0.04511722  0.75000000  0.24582837  1.0
  Nb  Nb5  1  0.54511722  0.75000000  0.25417163  1.0
  Nb  Nb6  1  0.95488278  0.25000000  0.75417163  1.0
  Nb  Nb7  1  0.45488278  0.25000000  0.74582837  1.0
  C  C8  1  0.37520671  0.75000000  0.49172730  1.0
  C  C9  1  0.87520671  0.75000000  1.00827270  1.0
  C  C10  1  0.62479329  0.25000000  0.50827270  1.0
  C  C11  1  0.12479329  0.25000000  -0.00827270  1.0
