# generated using pymatgen
data_CuAgS
_symmetry_space_group_name_H-M   'P 1'
_cell_length_a   3.98903302
_cell_length_b   3.98903302
_cell_length_c   18.39197727
_cell_angle_alpha   90.00000000
_cell_angle_beta   90.00000000
_cell_angle_gamma   90.00000000
_symmetry_Int_Tables_number   1
_chemical_formula_structural   CuAgS
_chemical_formula_sum   'Cu6 Ag6 S6'
_cell_volume   292.66021348
_cell_formula_units_Z   6
loop_
 _symmetry_equiv_pos_site_id
 _symmetry_equiv_pos_as_xyz
  1  'x, y, z'
loop_
 _atom_site_type_symbol
 _atom_site_label
 _atom_site_symmetry_multiplicity
 _atom_site_fract_x
 _atom_site_fract_y
 _atom_site_fract_z
 _atom_site_occupancy
  Cu  Cu0  1  0.00000000  0.00000000  0.33334375  1.0
  Cu  Cu1  1  0.50000000  0.50000000  0.66665625  1.0
  Cu  Cu2  1  0.50000000  0.50000000  0.33334375  1.0
  Cu  Cu3  1  0.00000000  0.00000000  0.66665625  1.0
  Cu  Cu4  1  0.00000000  0.00000000  0.00000000  1.0
  Cu  Cu5  1  0.50000000  0.50000000  0.00000000  1.0
  Ag  Ag6  1  0.50000000  0.00000000  0.21948759  1.0
  Ag  Ag7  1  0.00000000  0.50000000  0.78051241  1.0
  Ag  Ag8  1  0.50000000  0.00000000  0.55275307  1.0
  Ag  Ag9  1  0.00000000  0.50000000  0.44724693  1.0
  Ag  Ag10  1  0.50000000  0.00000000  0.88607996  1.0
  Ag  Ag11  1  0.00000000  0.50000000  0.11392004  1.0
  S  S12  1  0.50000000  0.00000000  0.07777462  1.0
  S  S13  1  0.00000000  0.50000000  0.92222538  1.0
  S  S14  1  0.50000000  0.00000000  0.41110138  1.0
  S  S15  1  0.00000000  0.50000000  0.58889862  1.0
  S  S16  1  0.50000000  0.00000000  0.74439528  1.0
  S  S17  1  0.00000000  0.50000000  0.25560472  1.0
