# generated using pymatgen
data_Tl2PSe3
_symmetry_space_group_name_H-M   'P 1'
_cell_length_a   12.57572089
_cell_length_b   9.19757968
_cell_length_c   12.99084642
_cell_angle_alpha   90.00000000
_cell_angle_beta   101.99815530
_cell_angle_gamma   90.00000000
_symmetry_Int_Tables_number   1
_chemical_formula_structural   Tl2PSe3
_chemical_formula_sum   'Tl16 P8 Se24'
_cell_volume   1469.77637906
_cell_formula_units_Z   8
loop_
 _symmetry_equiv_pos_site_id
 _symmetry_equiv_pos_as_xyz
  1  'x, y, z'
loop_
 _atom_site_type_symbol
 _atom_site_label
 _atom_site_symmetry_multiplicity
 _atom_site_fract_x
 _atom_site_fract_y
 _atom_site_fract_z
 _atom_site_occupancy
  Tl  Tl0  1  0.98305912  0.15962725  0.18874414  1.0
  Tl  Tl1  1  0.98305912  0.34037275  0.68874414  1.0
  Tl  Tl2  1  0.01694088  0.65962725  0.31125586  1.0
  Tl  Tl3  1  0.01694088  0.84037275  0.81125586  1.0
  Tl  Tl4  1  0.79316933  0.96172497  0.95974814  1.0
  Tl  Tl5  1  0.79316933  0.53827503  0.45974814  1.0
  Tl  Tl6  1  0.20683067  0.46172497  0.54025186  1.0
  Tl  Tl7  1  0.20683067  0.03827503  0.04025186  1.0
  Tl  Tl8  1  0.70047382  0.18221306  0.25953190  1.0
  Tl  Tl9  1  0.70047382  0.31778694  0.75953190  1.0
  Tl  Tl10  1  0.29952618  0.68221306  0.24046810  1.0
  Tl  Tl11  1  0.29952618  0.81778694  0.74046810  1.0
  Tl  Tl12  1  0.59626336  0.89041413  0.43148770  1.0
  Tl  Tl13  1  0.59626336  0.60958587  0.93148770  1.0
  Tl  Tl14  1  0.40373664  0.39041413  0.06851230  1.0
  Tl  Tl15  1  0.40373664  0.10958587  0.56851230  1.0
  P  P16  1  0.50410592  0.42525949  0.42978082  1.0
  P  P17  1  0.50410592  0.07474051  0.92978082  1.0
  P  P18  1  0.49589408  0.92525949  0.07021918  1.0
  P  P19  1  0.49589408  0.57474051  0.57021918  1.0
  P  P20  1  0.06634178  0.07783260  0.48365470  1.0
  P  P21  1  0.06634178  0.42216740  0.98365470  1.0
  P  P22  1  0.93365822  0.57783260  0.01634530  1.0
  P  P23  1  0.93365822  0.92216740  0.51634530  1.0
  Se  Se24  1  0.97892842  0.27664835  0.41521256  1.0
  Se  Se25  1  0.97892842  0.22335165  0.91521256  1.0
  Se  Se26  1  0.02107158  0.77664835  0.08478744  1.0
  Se  Se27  1  0.02107158  0.72335165  0.58478744  1.0
  Se  Se28  1  0.84330624  0.47325662  0.12351660  1.0
  Se  Se29  1  0.84330624  0.02674338  0.62351660  1.0
  Se  Se30  1  0.15669376  0.97325662  0.37648340  1.0
  Se  Se31  1  0.15669376  0.52674338  0.87648340  1.0
  Se  Se32  1  0.83058148  0.87684939  0.35757199  1.0
  Se  Se33  1  0.83058148  0.62315061  0.85757199  1.0
  Se  Se34  1  0.16941852  0.37684939  0.14242801  1.0
  Se  Se35  1  0.16941852  0.12315061  0.64242801  1.0
  Se  Se36  1  0.63162110  0.26250629  0.49288932  1.0
  Se  Se37  1  0.63162110  0.23749371  0.99288932  1.0
  Se  Se38  1  0.36837890  0.76250629  0.00711068  1.0
  Se  Se39  1  0.36837890  0.73749371  0.50711068  1.0
  Se  Se40  1  0.44903010  0.06452131  0.19325324  1.0
  Se  Se41  1  0.44903010  0.43547869  0.69325324  1.0
  Se  Se42  1  0.55096990  0.56452131  0.30674676  1.0
  Se  Se43  1  0.55096990  0.93547869  0.80674676  1.0
  Se  Se44  1  0.34069125  0.32938821  0.37712346  1.0
  Se  Se45  1  0.34069125  0.17061179  0.87712346  1.0
  Se  Se46  1  0.65930875  0.82938821  0.12287654  1.0
  Se  Se47  1  0.65930875  0.67061179  0.62287654  1.0
