# generated using pymatgen
data_RbNa3W2O17
_symmetry_space_group_name_H-M   'P 1'
_cell_length_a   8.62589740
_cell_length_b   8.62589740
_cell_length_c   11.24923272
_cell_angle_alpha   90.00000000
_cell_angle_beta   90.00000000
_cell_angle_gamma   120.00000000
_symmetry_Int_Tables_number   1
_chemical_formula_structural   RbNa3W2O17
_chemical_formula_sum   'Rb2 Na6 W4 O34'
_cell_volume   724.87331003
_cell_formula_units_Z   2
loop_
 _symmetry_equiv_pos_site_id
 _symmetry_equiv_pos_as_xyz
  1  'x, y, z'
loop_
 _atom_site_type_symbol
 _atom_site_label
 _atom_site_symmetry_multiplicity
 _atom_site_fract_x
 _atom_site_fract_y
 _atom_site_fract_z
 _atom_site_occupancy
  Na  Na0  1  0.05671971  0.50546373  0.25000000  1.0
  Na  Na1  1  0.50546373  0.44874403  0.75000000  1.0
  Na  Na2  1  0.44874403  0.94328029  0.25000000  1.0
  Na  Na3  1  0.49453627  0.55125597  0.25000000  1.0
  Na  Na4  1  0.94328029  0.49453627  0.75000000  1.0
  Na  Na5  1  0.55125597  0.05671971  0.75000000  1.0
  O  O6  1  0.33333333  0.66666667  0.37660947  1.0
  O  O7  1  0.33333333  0.66666667  0.12339053  1.0
  O  O8  1  0.66666667  0.33333333  0.87660947  1.0
  O  O9  1  0.66666667  0.33333333  0.62339053  1.0
  O  O10  1  0.07628783  0.83468887  0.45764797  1.0
  O  O11  1  0.07628783  0.83468887  0.04235203  1.0
  O  O12  1  0.83468887  0.75840105  0.95764797  1.0
  O  O13  1  0.83468887  0.75840105  0.54235203  1.0
  O  O14  1  0.75840105  0.92371217  0.45764797  1.0
  O  O15  1  0.75840105  0.92371217  0.04235203  1.0
  O  O16  1  0.16531113  0.24159895  0.45764797  1.0
  O  O17  1  0.16531113  0.24159895  0.04235203  1.0
  O  O18  1  0.92371217  0.16531113  0.95764797  1.0
  O  O19  1  0.92371217  0.16531113  0.54235203  1.0
  O  O20  1  0.24159895  0.07628783  0.95764797  1.0
  O  O21  1  0.24159895  0.07628783  0.54235203  1.0
  O  O22  1  0.38191791  1.22218014  0.25000000  1.0
  O  O23  1  1.22218014  0.84026222  0.75000000  1.0
  O  O24  1  0.84026222  0.61808208  0.25000000  1.0
  O  O25  1  -0.22218014  0.15973778  0.25000000  1.0
  O  O26  1  0.61808209  -0.22218014  0.75000000  1.0
  O  O27  1  0.15973778  0.38191791  0.75000000  1.0
  O  O28  1  0.65116509  0.52342473  0.41203653  1.0
  O  O29  1  0.65116509  0.52342473  0.08796347  1.0
  O  O30  1  0.52342473  0.87225964  0.91203653  1.0
  O  O31  1  0.52342473  0.87225964  0.58796347  1.0
  O  O32  1  0.87225964  0.34883491  0.41203653  1.0
  O  O33  1  0.87225964  0.34883491  0.08796347  1.0
  O  O34  1  0.47657527  0.12774036  0.41203653  1.0
  O  O35  1  0.47657527  0.12774036  0.08796347  1.0
  O  O36  1  0.34883491  0.47657527  0.91203653  1.0
  O  O37  1  0.34883491  0.47657527  0.58796347  1.0
  O  O38  1  0.12774036  0.65116509  0.91203653  1.0
  O  O39  1  0.12774036  0.65116509  0.58796347  1.0
  W  W40  1  0.33333333  0.66666667  0.96432141  1.0
  W  W41  1  0.33333333  0.66666667  0.53567859  1.0
  W  W42  1  0.66666667  0.33333333  0.46432141  1.0
  W  W43  1  0.66666667  0.33333333  0.03567859  1.0
  Rb  Rb44  1  0.00000000  0.00000000  0.25000000  1.0
  Rb  Rb45  1  0.00000000  0.00000000  0.75000000  1.0
