# generated using pymatgen
data_KZn(PO3)3
_symmetry_space_group_name_H-M   'P 1'
_cell_length_a   6.74198905
_cell_length_b   6.74198905
_cell_length_c   9.90909433
_cell_angle_alpha   90.00000000
_cell_angle_beta   90.00000000
_cell_angle_gamma   120.00000000
_symmetry_Int_Tables_number   1
_chemical_formula_structural   KZn(PO3)3
_chemical_formula_sum   'K2 Zn2 P6 O18'
_cell_volume   390.06832040
_cell_formula_units_Z   2
loop_
 _symmetry_equiv_pos_site_id
 _symmetry_equiv_pos_as_xyz
  1  'x, y, z'
loop_
 _atom_site_type_symbol
 _atom_site_label
 _atom_site_symmetry_multiplicity
 _atom_site_fract_x
 _atom_site_fract_y
 _atom_site_fract_z
 _atom_site_occupancy
  K  K0  1  -0.00000000  -0.00000000  0.50000000  1.0
  K  K1  1  -0.00000000  -0.00000000  -0.00000000  1.0
  Zn  Zn2  1  0.33333333  0.66666667  0.50000000  1.0
  Zn  Zn3  1  0.33333333  0.66666667  0.00000000  1.0
  P  P4  1  0.60846996  0.55715844  0.25000000  1.0
  P  P5  1  0.60846996  0.05131152  0.75000000  1.0
  P  P6  1  0.94868848  0.55715844  0.75000000  1.0
  P  P7  1  0.94868848  0.39153004  0.25000000  1.0
  P  P8  1  0.44284156  0.39153004  0.75000000  1.0
  P  P9  1  0.44284156  0.05131152  0.25000000  1.0
  O  O10  1  0.06981553  0.40773347  0.38072124  1.0
  O  O11  1  0.06981553  0.40773347  0.11927876  1.0
  O  O12  1  0.06981553  0.66208206  0.88072124  1.0
  O  O13  1  0.06981553  0.66208206  0.61927876  1.0
  O  O14  1  0.33791794  0.40773347  0.88072124  1.0
  O  O15  1  0.33791794  0.40773347  0.61927876  1.0
  O  O16  1  0.33791794  0.93018447  0.38072124  1.0
  O  O17  1  0.33791794  0.93018447  0.11927876  1.0
  O  O18  1  0.59226653  0.93018447  0.88072124  1.0
  O  O19  1  0.59226653  0.93018447  0.61927876  1.0
  O  O20  1  0.59226653  0.66208206  0.38072124  1.0
  O  O21  1  0.59226653  0.66208206  0.11927876  1.0
  O  O22  1  0.85651834  0.57173628  0.25000000  1.0
  O  O23  1  0.85651834  0.28478206  0.75000000  1.0
  O  O24  1  0.71521794  0.57173628  0.75000000  1.0
  O  O25  1  0.71521794  0.14348166  0.25000000  1.0
  O  O26  1  0.42826372  0.14348166  0.75000000  1.0
  O  O27  1  0.42826372  0.28478206  0.25000000  1.0
