# generated using pymatgen
data_Hf6Ga16Pd7
_symmetry_space_group_name_H-M   'P 1'
_cell_length_a   8.82239272
_cell_length_b   8.82239272
_cell_length_c   8.82239272
_cell_angle_alpha   60.00000000
_cell_angle_beta   60.00000000
_cell_angle_gamma   60.00000000
_symmetry_Int_Tables_number   1
_chemical_formula_structural   Hf6Ga16Pd7
_chemical_formula_sum   'Hf6 Ga16 Pd7'
_cell_volume   485.56140672
_cell_formula_units_Z   1
loop_
 _symmetry_equiv_pos_site_id
 _symmetry_equiv_pos_as_xyz
  1  'x, y, z'
loop_
 _atom_site_type_symbol
 _atom_site_label
 _atom_site_symmetry_multiplicity
 _atom_site_fract_x
 _atom_site_fract_y
 _atom_site_fract_z
 _atom_site_occupancy
  Hf  Hf0  1  -0.68355718  0.68355718  0.68355718  1.0
  Hf  Hf1  1  -0.31644282  0.31644282  0.68355718  1.0
  Hf  Hf2  1  0.68355718  0.68355718  -0.68355718  1.0
  Hf  Hf3  1  0.31644282  1.31644282  -0.31644282  1.0
  Hf  Hf4  1  0.31644282  -0.31644282  1.31644282  1.0
  Hf  Hf5  1  -0.31644282  0.31644282  0.31644282  1.0
  Ga  Ga6  1  0.87849408  0.87849408  -0.12150592  1.0
  Ga  Ga7  1  1.12150592  0.12150592  0.63548223  1.0
  Ga  Ga8  1  1.12150592  0.63548223  0.12150592  1.0
  Ga  Ga9  1  0.36451777  0.87849408  -0.12150592  1.0
  Ga  Ga10  1  1.63548223  0.12150592  0.12150592  1.0
  Ga  Ga11  1  0.87849408  0.36451777  -0.12150592  1.0
  Ga  Ga12  1  0.87849408  0.87849408  -0.63548223  1.0
  Ga  Ga13  1  1.12150592  0.12150592  0.12150592  1.0
  Ga  Ga14  1  0.66032181  0.66032181  -0.33967819  1.0
  Ga  Ga15  1  1.33967819  0.33967819  -0.01903457  1.0
  Ga  Ga16  1  1.33967819  -0.01903457  0.33967819  1.0
  Ga  Ga17  1  1.01903457  0.66032181  -0.33967819  1.0
  Ga  Ga18  1  0.98096543  0.33967819  0.33967819  1.0
  Ga  Ga19  1  0.66032181  1.01903457  -0.33967819  1.0
  Ga  Ga20  1  0.66032181  0.66032181  0.01903457  1.0
  Ga  Ga21  1  1.33967819  0.33967819  0.33967819  1.0
  Pd  Pd22  1  0.00000000  0.00000000  0.00000000  1.0
  Pd  Pd23  1  1.50000000  0.00000000  -0.00000000  1.0
  Pd  Pd24  1  1.00000000  0.50000000  -0.50000000  1.0
  Pd  Pd25  1  0.00000000  1.50000000  -0.00000000  1.0
  Pd  Pd26  1  0.50000000  1.00000000  -0.50000000  1.0
  Pd  Pd27  1  -0.00000000  0.00000000  0.50000000  1.0
  Pd  Pd28  1  0.50000000  -0.50000000  1.00000000  1.0
