# generated using pymatgen
data_Cs3ZnBr5
_symmetry_space_group_name_H-M   'P 1'
_cell_length_a   10.40751621
_cell_length_b   10.40751621
_cell_length_c   10.40751621
_cell_angle_alpha   123.47673902
_cell_angle_beta   123.47673902
_cell_angle_gamma   84.07671378
_symmetry_Int_Tables_number   1
_chemical_formula_structural   Cs3ZnBr5
_chemical_formula_sum   'Cs6 Zn2 Br10'
_cell_volume   750.84438532
_cell_formula_units_Z   2
loop_
 _symmetry_equiv_pos_site_id
 _symmetry_equiv_pos_as_xyz
  1  'x, y, z'
loop_
 _atom_site_type_symbol
 _atom_site_label
 _atom_site_symmetry_multiplicity
 _atom_site_fract_x
 _atom_site_fract_y
 _atom_site_fract_z
 _atom_site_occupancy
  Cs  Cs0  1  0.83597328  0.33597328  1.17194657  1.0
  Cs  Cs1  1  0.66402672  0.83597328  1.50000000  1.0
  Cs  Cs2  1  0.33597328  0.16402672  0.50000000  1.0
  Cs  Cs3  1  0.16402672  0.66402672  0.82805343  1.0
  Cs  Cs4  1  0.75000000  0.75000000  1.00000000  1.0
  Cs  Cs5  1  0.25000000  0.25000000  0.00000000  1.0
  Zn  Zn6  1  0.25000000  0.75000000  0.50000000  1.0
  Zn  Zn7  1  0.75000000  0.25000000  0.50000000  1.0
  Br  Br8  1  1.20424108  0.70424108  1.22006935  1.0
  Br  Br9  1  0.51582827  1.01582827  1.22006935  1.0
  Br  Br10  1  0.98417173  1.20424108  1.50000000  1.0
  Br  Br11  1  0.29575892  0.51582827  0.50000000  1.0
  Br  Br12  1  0.70424108  0.48417173  0.50000000  1.0
  Br  Br13  1  1.01582827  0.79575892  1.50000000  1.0
  Br  Br14  1  0.48417173  0.98417173  0.77993065  1.0
  Br  Br15  1  0.79575892  0.29575892  0.77993065  1.0
  Br  Br16  1  0.00000000  0.00000000  0.00000000  1.0
  Br  Br17  1  0.50000000  0.50000000  1.00000000  1.0
