# generated using pymatgen
data_Na3Fe(SO4)3
_symmetry_space_group_name_H-M   'P 1'
_cell_length_a   8.48745792
_cell_length_b   8.48745792
_cell_length_c   8.48745792
_cell_angle_alpha   107.48647128
_cell_angle_beta   107.48647128
_cell_angle_gamma   107.48647128
_symmetry_Int_Tables_number   1
_chemical_formula_structural   Na3Fe(SO4)3
_chemical_formula_sum   'Na6 Fe2 S6 O24'
_cell_volume   502.27821797
_cell_formula_units_Z   2
loop_
 _symmetry_equiv_pos_site_id
 _symmetry_equiv_pos_as_xyz
  1  'x, y, z'
loop_
 _atom_site_type_symbol
 _atom_site_label
 _atom_site_symmetry_multiplicity
 _atom_site_fract_x
 _atom_site_fract_y
 _atom_site_fract_z
 _atom_site_occupancy
  O  O0  1  0.62994186  0.67616182  0.02277150  1.0
  O  O1  1  1.32383818  -0.02277150  0.37005814  1.0
  O  O2  1  0.97722850  0.37005814  0.32383818  1.0
  O  O3  1  1.37005814  0.32383818  -0.02277150  1.0
  O  O4  1  0.67616182  1.02277150  -0.37005814  1.0
  O  O5  1  1.02277150  0.62994186  -0.32383818  1.0
  O  O6  1  0.47258899  1.01770915  -0.21229846  1.0
  O  O7  1  0.98229085  0.21229846  0.52741101  1.0
  O  O8  1  1.21229846  0.52741101  -0.01770915  1.0
  O  O9  1  1.52741101  -0.01770915  0.21229846  1.0
  O  O10  1  1.01770915  0.78770154  -0.52741101  1.0
  O  O11  1  0.78770154  0.47258899  0.01770915  1.0
  O  O12  1  1.74526271  0.98479407  -0.08414549  1.0
  O  O13  1  1.01520593  0.08414549  -0.74526271  1.0
  O  O14  1  1.08414549  -0.74526271  0.01520593  1.0
  O  O15  1  0.25473729  0.01520593  0.08414549  1.0
  O  O16  1  0.98479407  0.91585451  0.74526271  1.0
  O  O17  1  0.91585451  1.74526271  -0.01520593  1.0
  O  O18  1  1.48839624  -0.26204194  0.63292743  1.0
  O  O19  1  1.26204194  0.36707257  -0.48839624  1.0
  O  O20  1  0.36707257  0.51160376  0.26204194  1.0
  O  O21  1  0.51160376  1.26204194  -0.63292743  1.0
  O  O22  1  0.73795806  0.63292743  0.48839624  1.0
  O  O23  1  1.63292743  0.48839624  -0.26204194  1.0
  Na  Na24  1  0.73658109  0.88467040  0.35358678  1.0
  Na  Na25  1  1.11532960  -0.35358678  0.26341891  1.0
  Na  Na26  1  0.64641322  0.26341891  0.11532960  1.0
  Na  Na27  1  1.26341891  0.11532960  -0.35358678  1.0
  Na  Na28  1  0.88467040  1.35358678  -0.26341891  1.0
  Na  Na29  1  1.35358678  0.73658109  -0.11532960  1.0
  Fe  Fe30  1  0.50000000  0.50000000  0.50000000  1.0
  Fe  Fe31  1  0.00000000  0.00000000  0.00000000  1.0
  S  S32  1  1.73654805  0.59772641  -0.05468476  1.0
  S  S33  1  0.40227359  1.05468476  -0.73654805  1.0
  S  S34  1  1.05468476  0.26345195  -0.59772641  1.0
  S  S35  1  0.26345195  0.40227359  0.05468476  1.0
  S  S36  1  1.59772641  -0.05468476  0.73654805  1.0
  S  S37  1  0.94531524  0.73654805  0.59772641  1.0
