# generated using pymatgen
data_Na2Mn2S3
_symmetry_space_group_name_H-M   'P 1'
_cell_length_a   10.04172975
_cell_length_b   10.04172975
_cell_length_c   6.98540474
_cell_angle_alpha   70.05816331
_cell_angle_beta   109.94183669
_cell_angle_gamma   96.59811224
_symmetry_Int_Tables_number   1
_chemical_formula_structural   Na2Mn2S3
_chemical_formula_sum   'Na8 Mn8 S12'
_cell_volume   622.44377026
_cell_formula_units_Z   4
loop_
 _symmetry_equiv_pos_site_id
 _symmetry_equiv_pos_as_xyz
  1  'x, y, z'
loop_
 _atom_site_type_symbol
 _atom_site_label
 _atom_site_symmetry_multiplicity
 _atom_site_fract_x
 _atom_site_fract_y
 _atom_site_fract_z
 _atom_site_occupancy
  Na  Na0  1  0.71766856  0.71766856  0.25000000  1.0
  Na  Na1  1  0.28233144  0.28233144  0.75000000  1.0
  Na  Na2  1  0.81355770  0.01458101  0.36537774  1.0
  Na  Na3  1  0.98541899  0.18644230  0.86537774  1.0
  Na  Na4  1  1.01458101  -0.18644230  0.13462226  1.0
  Na  Na5  1  1.18644230  -0.01458101  0.63462226  1.0
  Na  Na6  1  0.42874717  0.42874717  0.25000000  1.0
  Na  Na7  1  0.57125283  0.57125283  0.75000000  1.0
  Mn  Mn8  1  1.36447861  -0.21490662  0.20067575  1.0
  Mn  Mn9  1  1.21490662  -0.36447861  0.70067575  1.0
  Mn  Mn10  1  0.78509338  0.36447861  0.29932425  1.0
  Mn  Mn11  1  0.63552139  0.21490662  0.79932425  1.0
  Mn  Mn12  1  0.44490849  0.08391909  0.25648383  1.0
  Mn  Mn13  1  0.91608091  0.55509151  0.75648383  1.0
  Mn  Mn14  1  1.08391909  -0.55509151  0.24351617  1.0
  Mn  Mn15  1  1.55509151  -0.08391909  0.74351617  1.0
  S  S16  1  1.76992206  -0.00036817  0.95038451  1.0
  S  S17  1  1.00036817  -0.76992206  0.45038451  1.0
  S  S18  1  0.99963183  0.76992206  0.54961549  1.0
  S  S19  1  0.23007794  0.00036817  0.04961549  1.0
  S  S20  1  1.57915416  -0.14357108  0.44468052  1.0
  S  S21  1  1.14357108  -0.57915416  0.94468052  1.0
  S  S22  1  0.85642892  0.57915416  0.05531948  1.0
  S  S23  1  0.42084584  0.14357108  0.55531948  1.0
  S  S24  1  0.57193147  0.27808421  0.06804741  1.0
  S  S25  1  0.72191579  0.42806853  0.56804741  1.0
  S  S26  1  1.27808421  -0.42806853  0.43195259  1.0
  S  S27  1  1.42806853  -0.27808421  0.93195259  1.0
