# generated using pymatgen
data_K2AgBi
_symmetry_space_group_name_H-M   'P 1'
_cell_length_a   6.85595977
_cell_length_b   6.85595977
_cell_length_c   6.45647038
_cell_angle_alpha   90.00000000
_cell_angle_beta   90.00000000
_cell_angle_gamma   103.62803388
_symmetry_Int_Tables_number   1
_chemical_formula_structural   K2AgBi
_chemical_formula_sum   'K4 Ag2 Bi2'
_cell_volume   294.93686596
_cell_formula_units_Z   2
loop_
 _symmetry_equiv_pos_site_id
 _symmetry_equiv_pos_as_xyz
  1  'x, y, z'
loop_
 _atom_site_type_symbol
 _atom_site_label
 _atom_site_symmetry_multiplicity
 _atom_site_fract_x
 _atom_site_fract_y
 _atom_site_fract_z
 _atom_site_occupancy
  K  K0  1  -0.17256249  1.48033464  0.50020125  1.0
  K  K1  1  0.48033464  0.82743751  0.49979875  1.0
  K  K2  1  -0.48033464  1.17256249  -0.00020125  1.0
  K  K3  1  0.17256249  0.51966536  1.00020125  1.0
  Ag  Ag4  1  0.00017553  0.99982447  0.25000000  1.0
  Ag  Ag5  1  -0.00017553  1.00017553  0.75000000  1.0
  Bi  Bi6  1  0.72820412  0.72820412  0.00000000  1.0
  Bi  Bi7  1  0.27179588  0.27179588  0.50000000  1.0
