# generated using pymatgen
data_NaPOF6
_symmetry_space_group_name_H-M   'P 1'
_cell_length_a   7.80134411
_cell_length_b   7.80134411
_cell_length_c   7.80134411
_cell_angle_alpha   93.12368104
_cell_angle_beta   103.52957422
_cell_angle_gamma   135.36208498
_symmetry_Int_Tables_number   1
_chemical_formula_structural   NaPOF6
_chemical_formula_sum   'Na2 P2 O2 F12'
_cell_volume   306.91079489
_cell_formula_units_Z   2
loop_
 _symmetry_equiv_pos_site_id
 _symmetry_equiv_pos_as_xyz
  1  'x, y, z'
loop_
 _atom_site_type_symbol
 _atom_site_label
 _atom_site_symmetry_multiplicity
 _atom_site_fract_x
 _atom_site_fract_y
 _atom_site_fract_z
 _atom_site_occupancy
  Na  Na0  1  1.00000000  1.00000000  1.00000000  1.0
  Na  Na1  1  0.50000000  0.00000000  0.50000000  1.0
  P  P2  1  1.00000000  1.00000000  0.50000000  1.0
  P  P3  1  1.00000000  0.50000000  1.00000000  1.0
  O  O4  1  1.44040919  1.19040919  1.25000000  1.0
  O  O5  1  1.55959081  0.80959081  0.75000000  1.0
  F  F6  1  0.94397721  0.96242292  0.27610660  1.0
  F  F7  1  0.81368368  0.33212940  0.77610660  1.0
  F  F8  1  0.81368368  1.03757708  0.48155428  1.0
  F  F9  1  0.94397721  0.66787060  0.98155428  1.0
  F  F10  1  1.18631632  0.96242292  0.51844572  1.0
  F  F11  1  1.05602279  0.33212940  1.01844572  1.0
  F  F12  1  1.05602279  1.03757708  0.72389340  1.0
  F  F13  1  1.18631632  0.66787060  1.22389340  1.0
  F  F14  1  1.25850233  0.70844055  0.94993822  1.0
  F  F15  1  1.74149767  1.69143590  1.44993822  1.0
  F  F16  1  1.74149767  1.29155945  1.05006178  1.0
  F  F17  1  1.25850233  1.30856410  1.55006178  1.0
