# generated using pymatgen
data_Mg(AlSe2)2
_symmetry_space_group_name_H-M   'P 1'
_cell_length_a   13.97614488
_cell_length_b   13.97614488
_cell_length_c   13.97614488
_cell_angle_alpha   16.11600389
_cell_angle_beta   16.11600389
_cell_angle_gamma   16.11600389
_symmetry_Int_Tables_number   1
_chemical_formula_structural   Mg(AlSe2)2
_chemical_formula_sum   'Mg1 Al2 Se4'
_cell_volume   183.37164466
_cell_formula_units_Z   1
loop_
 _symmetry_equiv_pos_site_id
 _symmetry_equiv_pos_as_xyz
  1  'x, y, z'
loop_
 _atom_site_type_symbol
 _atom_site_label
 _atom_site_symmetry_multiplicity
 _atom_site_fract_x
 _atom_site_fract_y
 _atom_site_fract_z
 _atom_site_occupancy
  Mg  Mg0  1  0.00000000  0.00000000  0.00000000  1.0
  Al  Al1  1  0.75720367  0.75720367  0.75720367  1.0
  Al  Al2  1  1.24279633  1.24279633  0.24279633  1.0
  Se  Se3  1  0.88350378  0.88350378  0.88350378  1.0
  Se  Se4  1  1.11649622  1.11649622  0.11649622  1.0
  Se  Se5  1  0.70132813  0.70132813  0.70132813  1.0
  Se  Se6  1  1.29867187  1.29867187  0.29867187  1.0
