# generated using pymatgen
data_K3SnHF8
_symmetry_space_group_name_H-M   'P 1'
_cell_length_a   8.58776636
_cell_length_b   8.58776636
_cell_length_c   6.98994251
_cell_angle_alpha   92.46641873
_cell_angle_beta   87.53358127
_cell_angle_gamma   62.61178652
_symmetry_Int_Tables_number   1
_chemical_formula_structural   K3SnHF8
_chemical_formula_sum   'K6 Sn2 H2 F16'
_cell_volume   456.15079217
_cell_formula_units_Z   2
loop_
 _symmetry_equiv_pos_site_id
 _symmetry_equiv_pos_as_xyz
  1  'x, y, z'
loop_
 _atom_site_type_symbol
 _atom_site_label
 _atom_site_symmetry_multiplicity
 _atom_site_fract_x
 _atom_site_fract_y
 _atom_site_fract_z
 _atom_site_occupancy
  K  K0  1  0.31935561  -0.13554081  0.28121967  1.0
  K  K1  1  1.13554081  0.68064439  0.78121967  1.0
  K  K2  1  0.86445919  -0.68064439  0.21878033  1.0
  K  K3  1  1.68064439  0.13554081  0.71878033  1.0
  K  K4  1  1.33319913  0.33319913  0.25000000  1.0
  K  K5  1  0.66680087  -0.33319913  0.75000000  1.0
  Sn  Sn6  1  0.82727748  -0.17272252  0.25000000  1.0
  Sn  Sn7  1  1.17272252  0.17272252  0.75000000  1.0
  H  H8  1  0.50000000  -0.50000000  0.50000000  1.0
  H  H9  1  0.50000000  -0.50000000  0.00000000  1.0
  F  F10  1  0.77971105  -0.12941054  0.97173752  1.0
  F  F11  1  1.12941054  0.22028895  0.47173752  1.0
  F  F12  1  0.87058946  -0.22028895  0.52826248  1.0
  F  F13  1  1.22028895  0.12941054  0.02826248  1.0
  F  F14  1  1.35646310  0.58661955  0.46755207  1.0
  F  F15  1  0.41338045  -0.35646310  0.96755207  1.0
  F  F16  1  1.58661955  0.35646310  0.03244793  1.0
  F  F17  1  0.64353690  -0.58661955  0.53244793  1.0
  F  F18  1  1.60865330  0.04631016  0.33982737  1.0
  F  F19  1  0.95368984  -0.60865330  0.83982737  1.0
  F  F20  1  1.04631016  0.60865330  0.16017263  1.0
  F  F21  1  0.39134670  -0.04631016  0.66017263  1.0
  F  F22  1  0.96381066  -0.03618934  0.25000000  1.0
  F  F23  1  1.03618934  0.03618934  0.75000000  1.0
  F  F24  1  0.69046382  -0.30953618  0.25000000  1.0
  F  F25  1  1.30953618  0.30953618  0.75000000  1.0
