# generated using pymatgen
data_PPd6
_symmetry_space_group_name_H-M   'P 1'
_cell_length_a   5.73091152
_cell_length_b   9.57708512
_cell_length_c   8.32561435
_cell_angle_alpha   90.00000000
_cell_angle_beta   110.24365069
_cell_angle_gamma   90.00000000
_symmetry_Int_Tables_number   1
_chemical_formula_structural   PPd6
_chemical_formula_sum   'P4 Pd24'
_cell_volume   428.72865410
_cell_formula_units_Z   4
loop_
 _symmetry_equiv_pos_site_id
 _symmetry_equiv_pos_as_xyz
  1  'x, y, z'
loop_
 _atom_site_type_symbol
 _atom_site_label
 _atom_site_symmetry_multiplicity
 _atom_site_fract_x
 _atom_site_fract_y
 _atom_site_fract_z
 _atom_site_occupancy
  P  P0  1  0.62323913  0.26155779  0.24912569  1.0
  P  P1  1  0.62323913  0.23844221  0.74912569  1.0
  P  P2  1  0.37676087  0.76155779  0.25087431  1.0
  P  P3  1  0.37676087  0.73844221  0.75087431  1.0
  Pd  Pd4  1  0.97118530  0.36727396  0.43069731  1.0
  Pd  Pd5  1  0.97118530  0.13272604  0.93069731  1.0
  Pd  Pd6  1  0.02881470  0.86727396  0.06930269  1.0
  Pd  Pd7  1  0.02881470  0.63272604  0.56930269  1.0
  Pd  Pd8  1  0.88042532  0.08124270  0.24844377  1.0
  Pd  Pd9  1  0.88042532  0.41875730  0.74844377  1.0
  Pd  Pd10  1  0.11957468  0.58124270  0.25155623  1.0
  Pd  Pd11  1  0.11957468  0.91875730  0.75155623  1.0
  Pd  Pd12  1  0.78709255  0.36643259  0.06400049  1.0
  Pd  Pd13  1  0.78709255  0.13356741  0.56400049  1.0
  Pd  Pd14  1  0.21290745  0.86643259  0.43599951  1.0
  Pd  Pd15  1  0.21290745  0.63356741  0.93599951  1.0
  Pd  Pd16  1  0.72681529  0.86516310  0.43080141  1.0
  Pd  Pd17  1  0.72681529  0.63483690  0.93080141  1.0
  Pd  Pd18  1  0.27318471  0.36516310  0.06919859  1.0
  Pd  Pd19  1  0.27318471  0.13483690  0.56919859  1.0
  Pd  Pd20  1  0.45974633  0.36463890  0.43529690  1.0
  Pd  Pd21  1  0.45974633  0.13536110  0.93529690  1.0
  Pd  Pd22  1  0.54025367  0.86463890  0.06470310  1.0
  Pd  Pd23  1  0.54025367  0.63536110  0.56470310  1.0
  Pd  Pd24  1  0.36663628  0.08037163  0.25134136  1.0
  Pd  Pd25  1  0.36663628  0.41962837  0.75134136  1.0
  Pd  Pd26  1  0.63336372  0.58037163  0.24865864  1.0
  Pd  Pd27  1  0.63336372  0.91962837  0.74865864  1.0
