# generated using pymatgen
data_CaScBO4
_symmetry_space_group_name_H-M   'P 1'
_cell_length_a   10.32112481
_cell_length_b   3.38307663
_cell_length_c   9.50456788
_cell_angle_alpha   90.00000000
_cell_angle_beta   90.00000000
_cell_angle_gamma   90.00000000
_symmetry_Int_Tables_number   1
_chemical_formula_structural   CaScBO4
_chemical_formula_sum   'Ca4 Sc4 B4 O16'
_cell_volume   331.87248119
_cell_formula_units_Z   4
loop_
 _symmetry_equiv_pos_site_id
 _symmetry_equiv_pos_as_xyz
  1  'x, y, z'
loop_
 _atom_site_type_symbol
 _atom_site_label
 _atom_site_symmetry_multiplicity
 _atom_site_fract_x
 _atom_site_fract_y
 _atom_site_fract_z
 _atom_site_occupancy
  Ca  Ca0  1  0.58880689  0.75000000  0.84143351  1.0
  Ca  Ca1  1  0.91119311  0.25000000  0.34143351  1.0
  Ca  Ca2  1  0.41119311  0.25000000  0.15856649  1.0
  Ca  Ca3  1  0.08880689  0.75000000  0.65856649  1.0
  Sc  Sc4  1  0.39072735  0.25000000  0.57159878  1.0
  Sc  Sc5  1  0.10927265  0.75000000  0.07159878  1.0
  Sc  Sc6  1  0.60927265  0.75000000  0.42840122  1.0
  Sc  Sc7  1  0.89072735  0.25000000  0.92840122  1.0
  B  B8  1  0.30527316  0.25000000  0.86434722  1.0
  B  B9  1  0.19472684  0.75000000  0.36434722  1.0
  B  B10  1  0.69472684  0.75000000  0.13565278  1.0
  B  B11  1  0.80527316  0.25000000  0.63565278  1.0
  O  O12  1  0.50148093  0.75000000  0.61508001  1.0
  O  O13  1  0.99851907  0.25000000  0.11508001  1.0
  O  O14  1  0.49851907  0.25000000  0.38491999  1.0
  O  O15  1  0.00148093  0.75000000  0.88491999  1.0
  O  O16  1  0.24370492  0.25000000  0.73431123  1.0
  O  O17  1  0.25629508  0.75000000  0.23431123  1.0
  O  O18  1  0.75629508  0.75000000  0.26568877  1.0
  O  O19  1  0.74370492  0.25000000  0.76568877  1.0
  O  O20  1  0.26613402  0.75000000  0.48877655  1.0
  O  O21  1  0.23386598  0.25000000  0.98877655  1.0
  O  O22  1  0.73386598  0.25000000  0.51122345  1.0
  O  O23  1  0.76613402  0.75000000  0.01122345  1.0
  O  O24  1  0.43841866  0.25000000  0.87422665  1.0
  O  O25  1  0.06158134  0.75000000  0.37422665  1.0
  O  O26  1  0.56158134  0.75000000  0.12577335  1.0
  O  O27  1  0.93841866  0.25000000  0.62577335  1.0
