# generated using pymatgen
data_K2CdH4C4Se4(N2O)2
_symmetry_space_group_name_H-M   'P 1'
_cell_length_a   11.25754496
_cell_length_b   11.25754496
_cell_length_c   18.62585470
_cell_angle_alpha   68.67274427
_cell_angle_beta   111.32725573
_cell_angle_gamma   156.93117383
_symmetry_Int_Tables_number   1
_chemical_formula_structural   K2CdH4C4Se4(N2O)2
_chemical_formula_sum   'K4 Cd2 H8 C8 Se8 N8 O4'
_cell_volume   858.84936547
_cell_formula_units_Z   2
loop_
 _symmetry_equiv_pos_site_id
 _symmetry_equiv_pos_as_xyz
  1  'x, y, z'
loop_
 _atom_site_type_symbol
 _atom_site_label
 _atom_site_symmetry_multiplicity
 _atom_site_fract_x
 _atom_site_fract_y
 _atom_site_fract_z
 _atom_site_occupancy
  K  K0  1  1.24346187  -0.40053392  0.44318902  1.0
  K  K1  1  0.40053392  -0.24346187  0.94318902  1.0
  K  K2  1  1.59946608  0.24346187  0.05681098  1.0
  K  K3  1  0.75653813  0.40053392  0.55681098  1.0
  Cd  Cd4  1  0.96309443  0.96309443  0.25000000  1.0
  Cd  Cd5  1  0.03690557  0.03690557  0.75000000  1.0
  H  H6  1  1.14946028  -0.23914790  0.27450181  1.0
  H  H7  1  0.23914790  -0.14946028  0.77450181  1.0
  H  H8  1  1.76085210  0.14946028  0.22549819  1.0
  H  H9  1  0.85053972  0.23914790  0.72549819  1.0
  H  H10  1  0.97901359  -0.50847303  0.25863004  1.0
  H  H11  1  0.50847303  0.02098641  0.75863004  1.0
  H  H12  1  1.49152697  -0.02098641  0.24136996  1.0
  H  H13  1  1.02098641  0.50847303  0.74136996  1.0
  C  C14  1  0.89509422  -0.24263392  0.11148755  1.0
  C  C15  1  0.24263392  0.10490578  0.61148755  1.0
  C  C16  1  1.75736608  -0.10490578  0.38851245  1.0
  C  C17  1  1.10490578  0.24263392  0.88851245  1.0
  C  C18  1  0.98676594  -0.70820682  0.10755232  1.0
  C  C19  1  1.70820682  0.01323406  0.60755232  1.0
  C  C20  1  0.29179318  -0.01323406  0.39244768  1.0
  C  C21  1  1.01323406  0.70820682  0.89244768  1.0
  Se  Se22  1  0.64344858  0.64544606  0.37208910  1.0
  Se  Se23  1  0.35455394  0.35655142  0.87208910  1.0
  Se  Se24  1  1.64544606  -0.35655142  0.12791090  1.0
  Se  Se25  1  1.35655142  -0.64544606  0.62791090  1.0
  Se  Se26  1  1.19904628  -0.58271588  0.20223208  1.0
  Se  Se27  1  1.58271588  -0.19904628  0.70223208  1.0
  Se  Se28  1  0.41728412  0.19904628  0.29776792  1.0
  Se  Se29  1  0.80095372  0.58271588  0.79776792  1.0
  N  N30  1  1.04421069  -0.18201252  0.09964527  1.0
  N  N31  1  0.18201252  -0.04421069  0.59964527  1.0
  N  N32  1  1.81798748  0.04421069  0.40035473  1.0
  N  N33  1  0.95578931  0.18201252  0.90035473  1.0
  N  N34  1  0.85561611  -0.77899140  0.04636628  1.0
  N  N35  1  1.77899140  0.14438389  0.54636628  1.0
  N  N36  1  0.22100860  -0.14438389  0.45363372  1.0
  N  N37  1  1.14438389  0.77899140  0.95363372  1.0
  O  O38  1  1.16341145  -0.31829434  0.28610404  1.0
  O  O39  1  0.31829434  -0.16341145  0.78610404  1.0
  O  O40  1  1.68170566  0.16341145  0.21389596  1.0
  O  O41  1  0.83658855  0.31829434  0.71389596  1.0
