# generated using pymatgen
data_LuGaNi
_symmetry_space_group_name_H-M   'P 1'
_cell_length_a   6.68651483
_cell_length_b   4.23019169
_cell_length_c   7.31968689
_cell_angle_alpha   90.00000000
_cell_angle_beta   90.00000000
_cell_angle_gamma   90.00000000
_symmetry_Int_Tables_number   1
_chemical_formula_structural   LuGaNi
_chemical_formula_sum   'Lu4 Ga4 Ni4'
_cell_volume   207.03909661
_cell_formula_units_Z   4
loop_
 _symmetry_equiv_pos_site_id
 _symmetry_equiv_pos_as_xyz
  1  'x, y, z'
loop_
 _atom_site_type_symbol
 _atom_site_label
 _atom_site_symmetry_multiplicity
 _atom_site_fract_x
 _atom_site_fract_y
 _atom_site_fract_z
 _atom_site_occupancy
  Lu  Lu0  1  0.98350871  0.75000000  0.69429050  1.0
  Lu  Lu1  1  0.48350871  0.75000000  0.80570950  1.0
  Lu  Lu2  1  0.01649129  0.25000000  0.30570950  1.0
  Lu  Lu3  1  0.51649129  0.25000000  0.19429050  1.0
  Ga  Ga4  1  0.82596818  0.75000000  0.07476266  1.0
  Ga  Ga5  1  0.32596818  0.75000000  0.42523734  1.0
  Ga  Ga6  1  0.17403182  0.25000000  0.92523734  1.0
  Ga  Ga7  1  0.67403182  0.25000000  0.57476266  1.0
  Ni  Ni8  1  0.71648760  0.75000000  0.40045673  1.0
  Ni  Ni9  1  0.21648760  0.75000000  0.09954327  1.0
  Ni  Ni10  1  0.28351240  0.25000000  0.59954327  1.0
  Ni  Ni11  1  0.78351240  0.25000000  0.90045673  1.0
