# generated using pymatgen
data_Ni3(AsO4)2
_symmetry_space_group_name_H-M   'P 1'
_cell_length_a   6.46016726
_cell_length_b   6.46016726
_cell_length_c   8.29018656
_cell_angle_alpha   90.00000000
_cell_angle_beta   90.00000000
_cell_angle_gamma   124.81735850
_symmetry_Int_Tables_number   1
_chemical_formula_structural   Ni3(AsO4)2
_chemical_formula_sum   'Ni6 As4 O16'
_cell_volume   284.04191404
_cell_formula_units_Z   2
loop_
 _symmetry_equiv_pos_site_id
 _symmetry_equiv_pos_as_xyz
  1  'x, y, z'
loop_
 _atom_site_type_symbol
 _atom_site_label
 _atom_site_symmetry_multiplicity
 _atom_site_fract_x
 _atom_site_fract_y
 _atom_site_fract_z
 _atom_site_occupancy
  Ni  Ni0  1  -0.11690993  0.61690993  0.75000000  1.0
  Ni  Ni1  1  0.38309007  1.11690993  0.75000000  1.0
  Ni  Ni2  1  0.61690993  0.88309007  0.25000000  1.0
  Ni  Ni3  1  0.11690993  0.38309007  0.25000000  1.0
  Ni  Ni4  1  0.00000000  0.00000000  0.00000000  1.0
  Ni  Ni5  1  0.50000000  0.50000000  0.50000000  1.0
  As  As6  1  0.37582344  0.62417656  0.88562723  1.0
  As  As7  1  -0.12417656  0.12417656  0.61437277  1.0
  As  As8  1  -0.37582344  0.37582344  0.11437277  1.0
  As  As9  1  0.12417656  0.87582344  0.38562723  1.0
  O  O10  1  -0.13573793  0.62181255  -0.00373541  1.0
  O  O11  1  0.36426207  1.12181255  0.50373541  1.0
  O  O12  1  0.62181255  0.86426207  1.00373541  1.0
  O  O13  1  0.12181255  0.36426207  0.49626459  1.0
  O  O14  1  0.37818745  1.13573793  -0.00373541  1.0
  O  O15  1  -0.12181255  0.63573793  0.50373541  1.0
  O  O16  1  0.13573793  0.37818745  1.00373541  1.0
  O  O17  1  0.63573793  0.87818745  0.49626459  1.0
  O  O18  1  -0.00009331  0.00009331  0.75146746  1.0
  O  O19  1  0.49990669  0.50009331  0.74853254  1.0
  O  O20  1  0.00009331  0.99990669  0.24853254  1.0
  O  O21  1  -0.49990669  0.49990669  0.25146746  1.0
  O  O22  1  0.25114715  0.74885285  0.76248016  1.0
  O  O23  1  -0.24885285  0.24885285  0.73751984  1.0
  O  O24  1  -0.25114715  0.25114715  0.23751984  1.0
  O  O25  1  0.24885285  0.75114715  0.26248016  1.0
