# generated using pymatgen
data_BaLa2BeO5
_symmetry_space_group_name_H-M   'P 1'
_cell_length_a   7.52429228
_cell_length_b   6.89175635
_cell_length_c   9.99836960
_cell_angle_alpha   90.00000000
_cell_angle_beta   90.75233213
_cell_angle_gamma   90.00000000
_symmetry_Int_Tables_number   1
_chemical_formula_structural   BaLa2BeO5
_chemical_formula_sum   'Ba4 La8 Be4 O20'
_cell_volume   518.42665004
_cell_formula_units_Z   4
loop_
 _symmetry_equiv_pos_site_id
 _symmetry_equiv_pos_as_xyz
  1  'x, y, z'
loop_
 _atom_site_type_symbol
 _atom_site_label
 _atom_site_symmetry_multiplicity
 _atom_site_fract_x
 _atom_site_fract_y
 _atom_site_fract_z
 _atom_site_occupancy
  Ba  Ba0  1  0.98078341  0.41807752  0.17228908  1.0
  Ba  Ba1  1  0.98078341  0.08192248  0.67228908  1.0
  Ba  Ba2  1  0.01921659  0.91807752  0.32771092  1.0
  Ba  Ba3  1  0.01921659  0.58192248  0.82771092  1.0
  La  La4  1  0.52204611  0.41778420  0.17601731  1.0
  La  La5  1  0.52204611  0.08221580  0.67601731  1.0
  La  La6  1  0.47795389  0.91778420  0.32398269  1.0
  La  La7  1  0.47795389  0.58221580  0.82398269  1.0
  La  La8  1  0.25441011  0.41125094  0.47914383  1.0
  La  La9  1  0.25441011  0.08874906  0.97914383  1.0
  La  La10  1  0.74558989  0.91125094  0.02085617  1.0
  La  La11  1  0.74558989  0.58874906  0.52085617  1.0
  Be  Be12  1  0.74059672  0.19323248  0.40297969  1.0
  Be  Be13  1  0.74059672  0.30676752  0.90297969  1.0
  Be  Be14  1  0.25940328  0.69323248  0.09702031  1.0
  Be  Be15  1  0.25940328  0.80676752  0.59702031  1.0
  O  O16  1  0.93100954  0.30645679  0.43710253  1.0
  O  O17  1  0.93100954  0.19354321  0.93710253  1.0
  O  O18  1  0.06899046  0.80645679  0.06289747  1.0
  O  O19  1  0.06899046  0.69354321  0.56289747  1.0
  O  O20  1  0.72353466  0.98632078  0.48948828  1.0
  O  O21  1  0.72353466  0.51367922  0.98948828  1.0
  O  O22  1  0.27646534  0.48632078  0.01051172  1.0
  O  O23  1  0.27646534  0.01367922  0.51051172  1.0
  O  O24  1  0.72470928  0.13187946  0.23409793  1.0
  O  O25  1  0.72470928  0.36812054  0.73409793  1.0
  O  O26  1  0.27529072  0.63187946  0.26590207  1.0
  O  O27  1  0.27529072  0.86812054  0.76590207  1.0
  O  O28  1  0.56028601  0.31969357  0.43434813  1.0
  O  O29  1  0.56028601  0.18030643  0.93434813  1.0
  O  O30  1  0.43971399  0.81969357  0.06565187  1.0
  O  O31  1  0.43971399  0.68030643  0.56565187  1.0
  O  O32  1  0.28227573  0.16470886  0.21445158  1.0
  O  O33  1  0.28227573  0.33529114  0.71445158  1.0
  O  O34  1  0.71772427  0.66470886  0.28554842  1.0
  O  O35  1  0.71772427  0.83529114  0.78554842  1.0
