# generated using pymatgen
data_CrH10S2(NO2)4
_symmetry_space_group_name_H-M   'P 1'
_cell_length_a   7.37203478
_cell_length_b   5.74203003
_cell_length_c   5.59729128
_cell_angle_alpha   96.48328257
_cell_angle_beta   102.64972361
_cell_angle_gamma   90.67138952
_symmetry_Int_Tables_number   1
_chemical_formula_structural   CrH10S2(NO2)4
_chemical_formula_sum   'Cr1 H10 S2 N4 O8'
_cell_volume   229.54388477
_cell_formula_units_Z   1
loop_
 _symmetry_equiv_pos_site_id
 _symmetry_equiv_pos_as_xyz
  1  'x, y, z'
loop_
 _atom_site_type_symbol
 _atom_site_label
 _atom_site_symmetry_multiplicity
 _atom_site_fract_x
 _atom_site_fract_y
 _atom_site_fract_z
 _atom_site_occupancy
  Cr  Cr0  1  0.00000000  0.00000000  0.00000000  1.0
  H  H1  1  -0.26852917  -0.69857412  -0.92119394  1.0
  H  H2  1  -0.73147083  -0.30142588  -0.07880606  1.0
  H  H3  1  -0.63232065  -0.06952227  -0.89695220  1.0
  H  H4  1  -0.36767935  -0.93047773  -0.10304780  1.0
  H  H5  1  -0.82038809  -0.43666717  -0.73240275  1.0
  H  H6  1  -0.17961191  -0.56333283  -0.26759725  1.0
  H  H7  1  -0.58518158  -0.39741516  -0.70538325  1.0
  H  H8  1  -0.41481842  -0.60258484  -0.29461675  1.0
  H  H9  1  -0.70432609  -0.19494174  -0.55789507  1.0
  H  H10  1  -0.29567391  -0.80505826  -0.44210493  1.0
  S  S11  1  -0.22911504  -0.24675383  -0.65649097  1.0
  S  S12  1  -0.77088496  -0.75324617  -0.34350903  1.0
  N  N13  1  -0.74601795  -0.18374812  -0.92920198  1.0
  N  N14  1  -0.25398205  -0.81625188  -0.07079802  1.0
  N  N15  1  -0.71306541  -0.31471714  -0.71809352  1.0
  N  N16  1  -0.28693459  -0.68528286  -0.28190648  1.0
  O  O17  1  -0.11289540  -0.25759660  -0.85144410  1.0
  O  O18  1  -0.88710460  -0.74240340  -0.14855590  1.0
  O  O19  1  -0.34347461  -0.03303222  -0.67364787  1.0
  O  O20  1  -0.65652539  -0.96696778  -0.32635213  1.0
  O  O21  1  -0.35541264  -0.46228260  -0.71760484  1.0
  O  O22  1  -0.64458736  -0.53771740  -0.28239516  1.0
  O  O23  1  -0.10660765  -0.24543229  -0.40761901  1.0
  O  O24  1  -0.89339235  -0.75456771  -0.59238099  1.0
