# generated using pymatgen
data_YMnFeO5
_symmetry_space_group_name_H-M   'P 1'
_cell_length_a   7.33592249
_cell_length_b   8.52908536
_cell_length_c   5.63463731
_cell_angle_alpha   90.00000000
_cell_angle_beta   90.00000000
_cell_angle_gamma   90.00000000
_symmetry_Int_Tables_number   1
_chemical_formula_structural   YMnFeO5
_chemical_formula_sum   'Y4 Mn4 Fe4 O20'
_cell_volume   352.55198291
_cell_formula_units_Z   4
loop_
 _symmetry_equiv_pos_site_id
 _symmetry_equiv_pos_as_xyz
  1  'x, y, z'
loop_
 _atom_site_type_symbol
 _atom_site_label
 _atom_site_symmetry_multiplicity
 _atom_site_fract_x
 _atom_site_fract_y
 _atom_site_fract_z
 _atom_site_occupancy
  Y  Y0  1  0.14153375  0.82755504  0.50000000  1.0
  Y  Y1  1  0.64153375  0.67244496  0.50000000  1.0
  Y  Y2  1  0.85846625  0.17244496  0.50000000  1.0
  Y  Y3  1  0.35846625  0.32755504  0.50000000  1.0
  Mn  Mn4  1  0.41135433  0.64949794  0.00000000  1.0
  Mn  Mn5  1  0.91135433  0.85050206  0.00000000  1.0
  Mn  Mn6  1  0.58864567  0.35050206  0.00000000  1.0
  Mn  Mn7  1  0.08864567  0.14949794  0.00000000  1.0
  Fe  Fe8  1  0.50000000  0.00000000  0.76148068  1.0
  Fe  Fe9  1  0.50000000  0.00000000  0.23851932  1.0
  Fe  Fe10  1  0.00000000  0.50000000  0.76148068  1.0
  Fe  Fe11  1  0.00000000  0.50000000  0.23851932  1.0
  O  O12  1  0.39723537  0.79249901  0.74636237  1.0
  O  O13  1  0.39723537  0.79249901  0.25363763  1.0
  O  O14  1  0.89723537  0.70750099  0.74636237  1.0
  O  O15  1  0.89723537  0.70750099  0.25363763  1.0
  O  O16  1  0.60276463  0.20750099  0.74636237  1.0
  O  O17  1  0.60276463  0.20750099  0.25363763  1.0
  O  O18  1  0.10276463  0.29249901  0.74636237  1.0
  O  O19  1  0.10276463  0.29249901  0.25363763  1.0
  O  O20  1  0.15862916  0.55392721  0.50000000  1.0
  O  O21  1  0.65862916  0.94607279  0.50000000  1.0
  O  O22  1  0.84137084  0.44607279  0.50000000  1.0
  O  O23  1  0.34137084  0.05392721  0.50000000  1.0
  O  O24  1  0.15846097  0.56534252  0.00000000  1.0
  O  O25  1  0.65846097  0.93465748  0.00000000  1.0
  O  O26  1  0.84153903  0.43465748  0.00000000  1.0
  O  O27  1  0.34153903  0.06534252  0.00000000  1.0
  O  O28  1  0.50000000  0.50000000  0.76869752  1.0
  O  O29  1  0.50000000  0.50000000  0.23130248  1.0
  O  O30  1  0.00000000  0.00000000  0.76869752  1.0
  O  O31  1  0.00000000  0.00000000  0.23130248  1.0
