# generated using pymatgen
data_Zr6CoAs2
_symmetry_space_group_name_H-M   'P 1'
_cell_length_a   7.53585195
_cell_length_b   7.53585195
_cell_length_c   3.56046713
_cell_angle_alpha   90.00000000
_cell_angle_beta   90.00000000
_cell_angle_gamma   120.00000000
_symmetry_Int_Tables_number   1
_chemical_formula_structural   Zr6CoAs2
_chemical_formula_sum   'Zr6 Co1 As2'
_cell_volume   175.10652388
_cell_formula_units_Z   1
loop_
 _symmetry_equiv_pos_site_id
 _symmetry_equiv_pos_as_xyz
  1  'x, y, z'
loop_
 _atom_site_type_symbol
 _atom_site_label
 _atom_site_symmetry_multiplicity
 _atom_site_fract_x
 _atom_site_fract_y
 _atom_site_fract_z
 _atom_site_occupancy
  Zr  Zr0  1  0.75283163  0.75283163  0.50000000  1.0
  Zr  Zr1  1  0.00000000  0.24716837  0.50000000  1.0
  Zr  Zr2  1  0.24716837  0.00000000  0.50000000  1.0
  Zr  Zr3  1  0.41323867  0.41323867  0.00000000  1.0
  Zr  Zr4  1  0.00000000  0.58676133  0.00000000  1.0
  Zr  Zr5  1  0.58676133  0.00000000  0.00000000  1.0
  Co  Co6  1  0.00000000  0.00000000  0.00000000  1.0
  As  As7  1  0.33333333  0.66666667  0.50000000  1.0
  As  As8  1  0.66666667  0.33333333  0.50000000  1.0
