# generated using pymatgen
data_CaFeO2
_symmetry_space_group_name_H-M   'P 1'
_cell_length_a   5.44416384
_cell_length_b   5.44416384
_cell_length_c   3.21612984
_cell_angle_alpha   90.00000000
_cell_angle_beta   90.00000000
_cell_angle_gamma   90.00000000
_symmetry_Int_Tables_number   1
_chemical_formula_structural   CaFeO2
_chemical_formula_sum   'Ca2 Fe2 O4'
_cell_volume   95.32261472
_cell_formula_units_Z   2
loop_
 _symmetry_equiv_pos_site_id
 _symmetry_equiv_pos_as_xyz
  1  'x, y, z'
loop_
 _atom_site_type_symbol
 _atom_site_label
 _atom_site_symmetry_multiplicity
 _atom_site_fract_x
 _atom_site_fract_y
 _atom_site_fract_z
 _atom_site_occupancy
  Ca  Ca0  1  0.00000000  0.50000000  0.49991185  1.0
  Ca  Ca1  1  0.50000000  0.00000000  0.50008815  1.0
  Fe  Fe2  1  0.50000000  0.50000000  0.00000000  1.0
  Fe  Fe3  1  0.00000000  0.00000000  0.00000000  1.0
  O  O4  1  0.24992376  0.74992376  0.99994308  1.0
  O  O5  1  0.25007624  0.24992376  0.00005692  1.0
  O  O6  1  0.75007624  0.25007624  0.99994308  1.0
  O  O7  1  0.74992376  0.75007624  0.00005692  1.0
