# generated using pymatgen
data_ZrAs2O9
_symmetry_space_group_name_H-M   'P 1'
_cell_length_a   9.34999141
_cell_length_b   5.57762891
_cell_length_c   15.60473984
_cell_angle_alpha   90.00000000
_cell_angle_beta   110.18353188
_cell_angle_gamma   90.00000000
_symmetry_Int_Tables_number   1
_chemical_formula_structural   ZrAs2O9
_chemical_formula_sum   'Zr4 As8 O36'
_cell_volume   763.82578627
_cell_formula_units_Z   4
loop_
 _symmetry_equiv_pos_site_id
 _symmetry_equiv_pos_as_xyz
  1  'x, y, z'
loop_
 _atom_site_type_symbol
 _atom_site_label
 _atom_site_symmetry_multiplicity
 _atom_site_fract_x
 _atom_site_fract_y
 _atom_site_fract_z
 _atom_site_occupancy
  O  O0  1  0.93189602  0.48745585  0.12663214  1.0
  O  O1  1  0.93189602  0.01254415  0.62663214  1.0
  O  O2  1  0.06810398  0.98745585  0.37336786  1.0
  O  O3  1  0.06810398  0.51254415  0.87336786  1.0
  O  O4  1  0.91862083  0.28915439  0.46343250  1.0
  O  O5  1  0.91862083  0.21084561  0.96343250  1.0
  O  O6  1  0.08137917  0.78915439  0.03656750  1.0
  O  O7  1  0.08137917  0.71084561  0.53656750  1.0
  O  O8  1  0.87348473  0.98388607  0.11515992  1.0
  O  O9  1  0.87348473  0.51611393  0.61515992  1.0
  O  O10  1  0.12651527  0.48388607  0.38484008  1.0
  O  O11  1  0.12651527  0.01611393  0.88484008  1.0
  O  O12  1  0.60436983  0.44635432  0.44107478  1.0
  O  O13  1  0.60436983  0.05364568  0.94107478  1.0
  O  O14  1  0.39563017  0.94635432  0.05892522  1.0
  O  O15  1  0.39563017  0.55364568  0.55892522  1.0
  O  O16  1  0.70087796  0.92718585  0.44817594  1.0
  O  O17  1  0.70087796  0.57281415  0.94817594  1.0
  O  O18  1  0.29912204  0.42718585  0.05182406  1.0
  O  O19  1  0.29912204  0.07281415  0.55182406  1.0
  O  O20  1  0.61105491  0.32885318  0.09939708  1.0
  O  O21  1  0.61105491  0.17114682  0.59939708  1.0
  O  O22  1  0.38894509  0.82885318  0.40060292  1.0
  O  O23  1  0.38894509  0.67114682  0.90060292  1.0
  O  O24  1  0.27609885  0.11838910  0.26790563  1.0
  O  O25  1  0.27609885  0.38161090  0.76790563  1.0
  O  O26  1  0.72390115  0.61838910  0.23209437  1.0
  O  O27  1  0.72390115  0.88161090  0.73209437  1.0
  O  O28  1  0.46597603  0.20503109  0.22434728  1.0
  O  O29  1  0.46597603  0.29496891  0.72434728  1.0
  O  O30  1  0.53402397  0.70503109  0.27565272  1.0
  O  O31  1  0.53402397  0.79496891  0.77565272  1.0
  O  O32  1  0.82851712  0.28940157  0.27778046  1.0
  O  O33  1  0.82851712  0.21059843  0.77778046  1.0
  O  O34  1  0.17148288  0.78940157  0.22221954  1.0
  O  O35  1  0.17148288  0.71059843  0.72221954  1.0
  Zr  Zr36  1  0.76706193  0.27186122  0.03215884  1.0
  Zr  Zr37  1  0.76706193  0.22813878  0.53215884  1.0
  Zr  Zr38  1  0.23293807  0.77186122  0.46784116  1.0
  Zr  Zr39  1  0.23293807  0.72813878  0.96784116  1.0
  As  As40  1  0.99192087  0.26690462  0.37639601  1.0
  As  As41  1  0.99192087  0.23309538  0.87639601  1.0
  As  As42  1  0.00807913  0.76690462  0.12360399  1.0
  As  As43  1  0.00807913  0.73309538  0.62360399  1.0
  As  As44  1  0.44035395  0.22651652  0.10713668  1.0
  As  As45  1  0.44035395  0.27348348  0.60713668  1.0
  As  As46  1  0.55964605  0.72651652  0.39286332  1.0
  As  As47  1  0.55964605  0.77348348  0.89286332  1.0
