# generated using pymatgen
data_RbAg7S4
_symmetry_space_group_name_H-M   'P 1'
_cell_length_a   11.17964011
_cell_length_b   11.17964011
_cell_length_c   8.50194413
_cell_angle_alpha   90.00000000
_cell_angle_beta   90.00000000
_cell_angle_gamma   90.00000000
_symmetry_Int_Tables_number   1
_chemical_formula_structural   RbAg7S4
_chemical_formula_sum   'Rb4 Ag28 S16'
_cell_volume   1062.60998732
_cell_formula_units_Z   4
loop_
 _symmetry_equiv_pos_site_id
 _symmetry_equiv_pos_as_xyz
  1  'x, y, z'
loop_
 _atom_site_type_symbol
 _atom_site_label
 _atom_site_symmetry_multiplicity
 _atom_site_fract_x
 _atom_site_fract_y
 _atom_site_fract_z
 _atom_site_occupancy
  Rb  Rb0  1  0.00000000  0.50000000  0.61897871  1.0
  Rb  Rb1  1  0.50000000  0.00000000  0.38102129  1.0
  Rb  Rb2  1  0.00000000  0.50000000  0.12014133  1.0
  Rb  Rb3  1  0.50000000  0.00000000  0.87985867  1.0
  Ag  Ag4  1  0.25000000  0.25000000  0.00000000  1.0
  Ag  Ag5  1  0.75000000  0.75000000  0.00000000  1.0
  Ag  Ag6  1  0.75000000  0.25000000  0.00000000  1.0
  Ag  Ag7  1  0.25000000  0.75000000  0.00000000  1.0
  Ag  Ag8  1  0.28701323  0.72860188  0.66194276  1.0
  Ag  Ag9  1  0.71298677  0.27139812  0.66194276  1.0
  Ag  Ag10  1  0.22860188  0.21298677  0.66194276  1.0
  Ag  Ag11  1  0.77139812  0.78701323  0.66194276  1.0
  Ag  Ag12  1  0.21298677  0.77139812  0.33805724  1.0
  Ag  Ag13  1  0.78701323  0.22860188  0.33805724  1.0
  Ag  Ag14  1  0.27139812  0.28701323  0.33805724  1.0
  Ag  Ag15  1  0.72860188  0.71298677  0.33805724  1.0
  Ag  Ag16  1  0.86333848  0.98000476  0.87875453  1.0
  Ag  Ag17  1  0.13666152  0.01999524  0.87875453  1.0
  Ag  Ag18  1  0.48000476  0.63666152  0.87875453  1.0
  Ag  Ag19  1  0.51999524  0.36333848  0.87875453  1.0
  Ag  Ag20  1  0.63666152  0.51999524  0.12124547  1.0
  Ag  Ag21  1  0.36333848  0.48000476  0.12124547  1.0
  Ag  Ag22  1  0.01999524  0.86333848  0.12124547  1.0
  Ag  Ag23  1  0.98000476  0.13666152  0.12124547  1.0
  Ag  Ag24  1  0.64294665  0.54092713  0.61334258  1.0
  Ag  Ag25  1  0.35705335  0.45907287  0.61334258  1.0
  Ag  Ag26  1  0.04092713  0.85705335  0.61334258  1.0
  Ag  Ag27  1  0.95907287  0.14294665  0.61334258  1.0
  Ag  Ag28  1  0.85705335  0.95907287  0.38665742  1.0
  Ag  Ag29  1  0.14294665  0.04092713  0.38665742  1.0
  Ag  Ag30  1  0.45907287  0.64294665  0.38665742  1.0
  Ag  Ag31  1  0.54092713  0.35705335  0.38665742  1.0
  S  S32  1  0.05811852  0.24329101  0.86542489  1.0
  S  S33  1  0.94188148  0.75670899  0.86542489  1.0
  S  S34  1  0.74329101  0.44188148  0.86542489  1.0
  S  S35  1  0.25670899  0.55811852  0.86542489  1.0
  S  S36  1  0.44188148  0.25670899  0.13457511  1.0
  S  S37  1  0.55811852  0.74329101  0.13457511  1.0
  S  S38  1  0.75670899  0.05811852  0.13457511  1.0
  S  S39  1  0.24329101  0.94188148  0.13457511  1.0
  S  S40  1  0.44665097  0.25198216  0.62748359  1.0
  S  S41  1  0.55334903  0.74801784  0.62748359  1.0
  S  S42  1  0.75198216  0.05334903  0.62748359  1.0
  S  S43  1  0.24801784  0.94665097  0.62748359  1.0
  S  S44  1  0.05334903  0.24801784  0.37251641  1.0
  S  S45  1  0.94665097  0.75198216  0.37251641  1.0
  S  S46  1  0.74801784  0.44665097  0.37251641  1.0
  S  S47  1  0.25198216  0.55334903  0.37251641  1.0
