# generated using pymatgen
data_IrF4
_symmetry_space_group_name_H-M   'P 1'
_cell_length_a   5.70065797
_cell_length_b   5.61728349
_cell_length_c   6.78360901
_cell_angle_alpha   53.74116420
_cell_angle_beta   52.61373087
_cell_angle_gamma   73.64510493
_symmetry_Int_Tables_number   1
_chemical_formula_structural   IrF4
_chemical_formula_sum   'Ir2 F8'
_cell_volume   138.15341092
_cell_formula_units_Z   2
loop_
 _symmetry_equiv_pos_site_id
 _symmetry_equiv_pos_as_xyz
  1  'x, y, z'
loop_
 _atom_site_type_symbol
 _atom_site_label
 _atom_site_symmetry_multiplicity
 _atom_site_fract_x
 _atom_site_fract_y
 _atom_site_fract_z
 _atom_site_occupancy
  Ir  Ir0  1  0.95239690  -0.04760310  0.04760310  1.0
  Ir  Ir1  1  0.20239690  0.20239690  1.29760310  1.0
  F  F2  1  0.24617176  0.65827392  1.06674978  1.0
  F  F3  1  0.18325022  0.22119545  1.00382824  1.0
  F  F4  1  0.65827392  0.24617176  1.02880455  1.0
  F  F5  1  0.22119545  0.18325022  1.59172608  1.0
  F  F6  1  0.78682391  1.19633351  0.52846125  1.0
  F  F7  1  0.72153875  -0.23838133  0.46317609  1.0
  F  F8  1  1.19633351  -0.21317609  0.48838133  1.0
  F  F9  1  0.76161867  0.72153875  1.05366649  1.0
