# generated using pymatgen
data_Nb4NiSe8
_symmetry_space_group_name_H-M   'P 1'
_cell_length_a   6.96656376
_cell_length_b   6.96656376
_cell_length_c   12.45875353
_cell_angle_alpha   90.00000000
_cell_angle_beta   90.00000000
_cell_angle_gamma   120.00000000
_symmetry_Int_Tables_number   1
_chemical_formula_structural   Nb4NiSe8
_chemical_formula_sum   'Nb8 Ni2 Se16'
_cell_volume   523.65162820
_cell_formula_units_Z   2
loop_
 _symmetry_equiv_pos_site_id
 _symmetry_equiv_pos_as_xyz
  1  'x, y, z'
loop_
 _atom_site_type_symbol
 _atom_site_label
 _atom_site_symmetry_multiplicity
 _atom_site_fract_x
 _atom_site_fract_y
 _atom_site_fract_z
 _atom_site_occupancy
  Nb  Nb0  1  0.50947998  0.49052002  0.25000000  1.0
  Nb  Nb1  1  0.50947998  0.01895997  0.25000000  1.0
  Nb  Nb2  1  0.49052002  0.50947998  0.75000000  1.0
  Nb  Nb3  1  0.49052002  -0.01895997  0.75000000  1.0
  Nb  Nb4  1  -0.01895997  0.49052002  0.25000000  1.0
  Nb  Nb5  1  0.01895997  0.50947998  0.75000000  1.0
  Nb  Nb6  1  0.00000000  0.00000000  0.25000000  1.0
  Nb  Nb7  1  0.00000000  0.00000000  0.75000000  1.0
  Ni  Ni8  1  0.00000000  0.00000000  0.50000000  1.0
  Ni  Ni9  1  0.00000000  0.00000000  0.00000000  1.0
  Se  Se10  1  0.16786653  0.83213347  0.38181203  1.0
  Se  Se11  1  0.16786653  0.83213347  0.11818797  1.0
  Se  Se12  1  0.16786653  0.33573305  0.38181203  1.0
  Se  Se13  1  0.16786653  0.33573305  0.11818797  1.0
  Se  Se14  1  0.83213347  0.16786653  0.88181203  1.0
  Se  Se15  1  0.83213347  0.16786653  0.61818797  1.0
  Se  Se16  1  0.83213347  0.66426695  0.88181203  1.0
  Se  Se17  1  0.83213347  0.66426695  0.61818797  1.0
  Se  Se18  1  0.66426695  0.83213347  0.38181203  1.0
  Se  Se19  1  0.66426695  0.83213347  0.11818797  1.0
  Se  Se20  1  0.33573305  0.16786653  0.88181203  1.0
  Se  Se21  1  0.33573305  0.16786653  0.61818797  1.0
  Se  Se22  1  0.33333333  0.66666667  0.89087265  1.0
  Se  Se23  1  0.33333333  0.66666667  0.60912735  1.0
  Se  Se24  1  0.66666667  0.33333333  0.39087265  1.0
  Se  Se25  1  0.66666667  0.33333333  0.10912735  1.0
