# generated using pymatgen
data_Sr6ScGa(BO3)6
_symmetry_space_group_name_H-M   'P 1'
_cell_length_a   7.67123233
_cell_length_b   7.67123233
_cell_length_c   7.67123233
_cell_angle_alpha   105.33727231
_cell_angle_beta   105.33727231
_cell_angle_gamma   105.33727231
_symmetry_Int_Tables_number   1
_chemical_formula_structural   Sr6ScGa(BO3)6
_chemical_formula_sum   'Sr6 Sc1 Ga1 B6 O18'
_cell_volume   391.76391109
_cell_formula_units_Z   1
loop_
 _symmetry_equiv_pos_site_id
 _symmetry_equiv_pos_as_xyz
  1  'x, y, z'
loop_
 _atom_site_type_symbol
 _atom_site_label
 _atom_site_symmetry_multiplicity
 _atom_site_fract_x
 _atom_site_fract_y
 _atom_site_fract_z
 _atom_site_occupancy
  Sr  Sr0  1  0.76489499  0.66555704  0.15453271  1.0
  Sr  Sr1  1  1.33444296  -0.15453271  0.23510501  1.0
  Sr  Sr2  1  0.84546729  0.23510501  0.33444296  1.0
  Sr  Sr3  1  1.23510501  0.33444296  -0.15453271  1.0
  Sr  Sr4  1  0.66555704  1.15453271  -0.23510501  1.0
  Sr  Sr5  1  1.15453271  0.76489499  -0.33444296  1.0
  Sc  Sc6  1  0.50000000  0.50000000  0.50000000  1.0
  Ga  Ga7  1  0.00000000  0.00000000  0.00000000  1.0
  B  B8  1  1.54842059  0.79043927  -0.12829870  1.0
  B  B9  1  1.20956073  0.12829870  -0.54842059  1.0
  B  B10  1  1.12829870  -0.54842059  0.20956073  1.0
  B  B11  1  0.45157941  0.20956073  0.12829870  1.0
  B  B12  1  0.79043927  0.87170130  0.54842059  1.0
  B  B13  1  0.87170130  1.54842059  -0.20956073  1.0
  O  O14  1  0.72790315  0.93027490  -0.00161823  1.0
  O  O15  1  1.06972510  0.00161823  -0.72790315  1.0
  O  O16  1  1.00161823  -0.72790315  0.06972510  1.0
  O  O17  1  0.27209685  0.06972510  0.00161823  1.0
  O  O18  1  0.93027490  0.99838177  -0.27209685  1.0
  O  O19  1  0.99838177  0.72790315  -0.06972510  1.0
  O  O20  1  1.48872633  0.76334619  -0.32478456  1.0
  O  O21  1  1.23665381  0.32478456  -0.48872633  1.0
  O  O22  1  1.32478456  -0.48872633  0.23665381  1.0
  O  O23  1  0.51127367  0.23665381  0.32478456  1.0
  O  O24  1  0.76334619  0.67521544  0.48872633  1.0
  O  O25  1  0.67521544  1.48872633  -0.23665381  1.0
  O  O26  1  0.57376564  0.30501144  0.05372716  1.0
  O  O27  1  0.69498856  0.94627283  0.42623436  1.0
  O  O28  1  0.94627283  1.42623436  -0.30501144  1.0
  O  O29  1  1.42623436  0.69498856  -0.05372717  1.0
  O  O30  1  1.30501144  0.05372716  -0.42623436  1.0
  O  O31  1  1.05372716  -0.42623436  0.30501144  1.0
