# generated using pymatgen
data_V2Ni(H4O5)2
_symmetry_space_group_name_H-M   'P 1'
_cell_length_a   8.32449869
_cell_length_b   8.32449869
_cell_length_c   6.87217728
_cell_angle_alpha   72.54889212
_cell_angle_beta   107.45110788
_cell_angle_gamma   109.41050296
_symmetry_Int_Tables_number   1
_chemical_formula_structural   V2Ni(H4O5)2
_chemical_formula_sum   'V4 Ni2 H16 O20'
_cell_volume   417.73782053
_cell_formula_units_Z   2
loop_
 _symmetry_equiv_pos_site_id
 _symmetry_equiv_pos_as_xyz
  1  'x, y, z'
loop_
 _atom_site_type_symbol
 _atom_site_label
 _atom_site_symmetry_multiplicity
 _atom_site_fract_x
 _atom_site_fract_y
 _atom_site_fract_z
 _atom_site_occupancy
  V  V0  1  1.86506404  0.07326732  0.80674262  1.0
  V  V1  1  0.92673268  -0.86506404  0.30674262  1.0
  V  V2  1  1.07326732  0.86506404  0.69325738  1.0
  V  V3  1  0.13493596  -0.07326732  0.19325738  1.0
  Ni  Ni4  1  1.50000000  0.00000000  -0.00000000  1.0
  Ni  Ni5  1  1.00000000  -0.50000000  0.50000000  1.0
  H  H6  1  0.37000240  -0.22318866  0.50081787  1.0
  H  H7  1  1.22318866  0.62999760  0.00081787  1.0
  H  H8  1  0.77681134  -0.62999760  0.99918213  1.0
  H  H9  1  1.62999760  0.22318866  0.49918213  1.0
  H  H10  1  0.53959601  -0.18438574  0.67740128  1.0
  H  H11  1  1.18438574  0.46040399  0.17740128  1.0
  H  H12  1  0.81561426  -0.46040399  0.82259872  1.0
  H  H13  1  1.46040399  0.18438574  0.32259872  1.0
  H  H14  1  1.45567079  0.22591621  0.64761497  1.0
  H  H15  1  0.77408379  -0.45567079  0.14761497  1.0
  H  H16  1  1.22591621  0.45567079  0.85238503  1.0
  H  H17  1  0.54432921  -0.22591621  0.35238503  1.0
  H  H18  1  1.54190053  0.32899493  0.82695090  1.0
  H  H19  1  0.67100507  -0.54190053  0.32695090  1.0
  H  H20  1  1.32899493  0.54190053  0.67304910  1.0
  H  H21  1  0.45809947  -0.32899493  0.17304910  1.0
  O  O22  1  1.89289109  0.00963665  0.57493930  1.0
  O  O23  1  0.99036335  -0.89289109  0.07493930  1.0
  O  O24  1  1.00963665  0.89289109  0.92506070  1.0
  O  O25  1  0.10710891  -0.00963665  0.42506070  1.0
  O  O26  1  0.47536707  -0.26214522  0.57869091  1.0
  O  O27  1  1.26214522  0.52463293  0.07869091  1.0
  O  O28  1  0.73785478  -0.52463293  0.92130909  1.0
  O  O29  1  1.52463293  0.26214522  0.42130909  1.0
  O  O30  1  0.65946046  -0.02532460  0.83074836  1.0
  O  O31  1  1.02532460  0.34053954  0.33074836  1.0
  O  O32  1  0.97467540  -0.34053954  0.66925164  1.0
  O  O33  1  1.34053954  0.02532460  0.16925164  1.0
  O  O34  1  0.28015800  -0.13116546  0.82254406  1.0
  O  O35  1  1.13116546  0.71984200  0.32254406  1.0
  O  O36  1  0.86883454  -0.71984200  0.67745594  1.0
  O  O37  1  1.71984200  0.13116546  0.17745594  1.0
  O  O38  1  1.45342673  0.22117026  0.79326814  1.0
  O  O39  1  0.77882974  -0.45342673  0.29326814  1.0
  O  O40  1  1.22117026  0.45342673  0.70673186  1.0
  O  O41  1  0.54657327  -0.22117026  0.20673186  1.0
