# generated using pymatgen
data_Ca2CoO3
_symmetry_space_group_name_H-M   'P 1'
_cell_length_a   3.38316910
_cell_length_b   3.38316910
_cell_length_c   7.19445296
_cell_angle_alpha   75.94763917
_cell_angle_beta   104.05236083
_cell_angle_gamma   91.87566096
_symmetry_Int_Tables_number   1
_chemical_formula_structural   Ca2CoO3
_chemical_formula_sum   'Ca2 Co1 O3'
_cell_volume   77.46159164
_cell_formula_units_Z   1
loop_
 _symmetry_equiv_pos_site_id
 _symmetry_equiv_pos_as_xyz
  1  'x, y, z'
loop_
 _atom_site_type_symbol
 _atom_site_label
 _atom_site_symmetry_multiplicity
 _atom_site_fract_x
 _atom_site_fract_y
 _atom_site_fract_z
 _atom_site_occupancy
  Ca  Ca0  1  1.40869838  -0.40869838  0.82436873  1.0
  Ca  Ca1  1  1.08855641  -0.08855641  0.18393091  1.0
  Co  Co2  1  0.78161563  0.21838437  0.50412067  1.0
  O  O3  1  1.17798695  -0.17798695  0.50415723  1.0
  O  O4  1  0.58118322  0.41881678  0.18939138  1.0
  O  O5  1  0.89595941  0.10404059  0.81903107  1.0
