# generated using pymatgen
data_Ag2AsS4N
_symmetry_space_group_name_H-M   'P 1'
_cell_length_a   6.47821090
_cell_length_b   6.47821090
_cell_length_c   6.47821090
_cell_angle_alpha   129.04530314
_cell_angle_beta   129.04530314
_cell_angle_gamma   74.93769003
_symmetry_Int_Tables_number   1
_chemical_formula_structural   Ag2AsS4N
_chemical_formula_sum   'Ag2 As1 S4 N1'
_cell_volume   159.70605922
_cell_formula_units_Z   1
loop_
 _symmetry_equiv_pos_site_id
 _symmetry_equiv_pos_as_xyz
  1  'x, y, z'
loop_
 _atom_site_type_symbol
 _atom_site_label
 _atom_site_symmetry_multiplicity
 _atom_site_fract_x
 _atom_site_fract_y
 _atom_site_fract_z
 _atom_site_occupancy
  Ag  Ag0  1  0.75000000  1.25000000  0.50000000  1.0
  Ag  Ag1  1  1.25000000  0.75000000  0.50000000  1.0
  As  As2  1  -0.00000000  -0.00000000  -0.00000000  1.0
  S  S3  1  0.80608771  0.80608771  0.42123772  1.0
  S  S4  1  1.19391229  0.61515002  1.00000000  1.0
  S  S5  1  0.61515002  1.19391229  1.00000000  1.0
  S  S6  1  0.38484998  0.38484998  0.57876228  1.0
  N  N7  1  0.50000000  0.50000000  -0.00000000  1.0
