# generated using pymatgen
data_Ag2CSNClO4
_symmetry_space_group_name_H-M   'P 1'
_cell_length_a   8.19576289
_cell_length_b   8.19576289
_cell_length_c   18.26936565
_cell_angle_alpha   69.79353837
_cell_angle_beta   110.20646163
_cell_angle_gamma   144.74667920
_symmetry_Int_Tables_number   1
_chemical_formula_structural   Ag2CSNClO4
_chemical_formula_sum   'Ag8 C4 S4 N4 Cl4 O16'
_cell_volume   660.15488044
_cell_formula_units_Z   4
loop_
 _symmetry_equiv_pos_site_id
 _symmetry_equiv_pos_as_xyz
  1  'x, y, z'
loop_
 _atom_site_type_symbol
 _atom_site_label
 _atom_site_symmetry_multiplicity
 _atom_site_fract_x
 _atom_site_fract_y
 _atom_site_fract_z
 _atom_site_occupancy
  Ag  Ag0  1  0.34917158  0.09848484  0.62749257  1.0
  Ag  Ag1  1  0.90151516  -0.34917158  0.12749257  1.0
  Ag  Ag2  1  1.09848484  0.34917158  0.87250743  1.0
  Ag  Ag3  1  1.65082842  -0.09848484  0.37250743  1.0
  Ag  Ag4  1  0.70159931  0.70159931  0.75000000  1.0
  Ag  Ag5  1  0.29840069  0.29840069  0.25000000  1.0
  Ag  Ag6  1  0.50000000  0.00000000  0.50000000  1.0
  Ag  Ag7  1  1.00000000  -0.50000000  -0.00000000  1.0
  C  C8  1  1.70597606  -0.22213269  0.56367009  1.0
  C  C9  1  1.22213269  -0.70597606  0.06367009  1.0
  C  C10  1  0.77786731  0.70597606  0.93632991  1.0
  C  C11  1  0.29402394  0.22213269  0.43632991  1.0
  S  S12  1  1.67557383  -0.20153968  0.85926742  1.0
  S  S13  1  1.20153968  -0.67557383  0.35926742  1.0
  S  S14  1  0.79846032  0.67557383  0.64073258  1.0
  S  S15  1  0.32442617  0.20153968  0.14073258  1.0
  N  N16  1  1.63972449  -0.15150897  0.50749302  1.0
  N  N17  1  1.15150897  -0.63972449  0.00749302  1.0
  N  N18  1  0.84849103  0.63972449  0.99250698  1.0
  N  N19  1  0.36027551  0.15150897  0.49250698  1.0
  Cl  Cl20  1  0.37874737  0.01271239  0.83980121  1.0
  Cl  Cl21  1  0.98728761  -0.37874737  0.33980121  1.0
  Cl  Cl22  1  1.01271239  0.37874737  0.66019879  1.0
  Cl  Cl23  1  1.62125263  -0.01271239  0.16019879  1.0
  O  O24  1  0.70485237  0.09321368  0.65823362  1.0
  O  O25  1  0.90678632  -0.70485237  0.15823362  1.0
  O  O26  1  1.09321368  0.70485237  0.84176638  1.0
  O  O27  1  1.29514763  -0.09321368  0.34176638  1.0
  O  O28  1  0.55555552  0.06109130  0.91347191  1.0
  O  O29  1  0.93890870  -0.55555552  0.41347191  1.0
  O  O30  1  1.06109130  0.55555552  0.58652809  1.0
  O  O31  1  1.44444448  -0.06109130  0.08652809  1.0
  O  O32  1  0.51144090  0.10279114  0.77368865  1.0
  O  O33  1  0.89720886  -0.51144090  0.27368865  1.0
  O  O34  1  1.10279114  0.51144090  0.72631135  1.0
  O  O35  1  1.48855910  -0.10279114  0.22631135  1.0
  O  O36  1  0.34719186  0.17156124  0.83031233  1.0
  O  O37  1  0.82843876  0.65280814  0.33031233  1.0
  O  O38  1  1.17156124  -0.65280814  0.66968767  1.0
  O  O39  1  1.65280814  -0.17156124  0.16968767  1.0
