# generated using pymatgen
data_Al2Cu
_symmetry_space_group_name_H-M   'P 1'
_cell_length_a   4.93071245
_cell_length_b   4.93071245
_cell_length_c   8.56370289
_cell_angle_alpha   90.00000000
_cell_angle_beta   90.00000000
_cell_angle_gamma   120.88558007
_symmetry_Int_Tables_number   1
_chemical_formula_structural   Al2Cu
_chemical_formula_sum   'Al8 Cu4'
_cell_volume   178.67610662
_cell_formula_units_Z   4
loop_
 _symmetry_equiv_pos_site_id
 _symmetry_equiv_pos_as_xyz
  1  'x, y, z'
loop_
 _atom_site_type_symbol
 _atom_site_label
 _atom_site_symmetry_multiplicity
 _atom_site_fract_x
 _atom_site_fract_y
 _atom_site_fract_z
 _atom_site_occupancy
  Al  Al0  1  -0.34171836  0.34171836  0.50000000  1.0
  Al  Al1  1  0.34171836  0.65828164  0.50000000  1.0
  Al  Al2  1  -0.15826492  0.15826492  0.00000000  1.0
  Al  Al3  1  0.15826492  0.84173508  0.00000000  1.0
  Al  Al4  1  0.50000000  0.50000000  0.15849487  1.0
  Al  Al5  1  0.50000000  0.50000000  0.84150513  1.0
  Al  Al6  1  0.00000000  0.00000000  0.34150508  1.0
  Al  Al7  1  0.00000000  0.00000000  0.65849492  1.0
  Cu  Cu8  1  0.00000000  0.50000000  0.24999723  1.0
  Cu  Cu9  1  0.00000000  0.50000000  0.75000277  1.0
  Cu  Cu10  1  0.50000000  1.00000000  0.24999723  1.0
  Cu  Cu11  1  0.50000000  1.00000000  0.75000277  1.0
