# generated using pymatgen
data_LaO2
_symmetry_space_group_name_H-M   'P 1'
_cell_length_a   4.02565581
_cell_length_b   4.02519520
_cell_length_c   5.96552561
_cell_angle_alpha   90.00000000
_cell_angle_beta   90.00352193
_cell_angle_gamma   90.00000000
_symmetry_Int_Tables_number   1
_chemical_formula_structural   LaO2
_chemical_formula_sum   'La2 O4'
_cell_volume   96.66567782
_cell_formula_units_Z   2
loop_
 _symmetry_equiv_pos_site_id
 _symmetry_equiv_pos_as_xyz
  1  'x, y, z'
loop_
 _atom_site_type_symbol
 _atom_site_label
 _atom_site_symmetry_multiplicity
 _atom_site_fract_x
 _atom_site_fract_y
 _atom_site_fract_z
 _atom_site_occupancy
  La  La0  1  0.24999862  0.25000000  0.74997029  1.0
  La  La1  1  0.75000138  0.75000000  0.25002971  1.0
  O  O2  1  0.74995410  0.25000000  0.50004541  1.0
  O  O3  1  0.25004590  0.75000000  0.49995459  1.0
  O  O4  1  0.75004899  0.25000000  1.00002173  1.0
  O  O5  1  0.24995101  0.75000000  -0.00002173  1.0
