# generated using pymatgen
data_CeMnPO
_symmetry_space_group_name_H-M   'P 1'
_cell_length_a   3.80932923
_cell_length_b   3.80932923
_cell_length_c   8.41792559
_cell_angle_alpha   90.00000000
_cell_angle_beta   90.00000000
_cell_angle_gamma   90.00000000
_symmetry_Int_Tables_number   1
_chemical_formula_structural   CeMnPO
_chemical_formula_sum   'Ce2 Mn2 P2 O2'
_cell_volume   122.15242724
_cell_formula_units_Z   2
loop_
 _symmetry_equiv_pos_site_id
 _symmetry_equiv_pos_as_xyz
  1  'x, y, z'
loop_
 _atom_site_type_symbol
 _atom_site_label
 _atom_site_symmetry_multiplicity
 _atom_site_fract_x
 _atom_site_fract_y
 _atom_site_fract_z
 _atom_site_occupancy
  Ce  Ce0  1  0.50000000  0.00000000  0.65547518  1.0
  Ce  Ce1  1  0.00000000  0.50000000  0.34452482  1.0
  Mn  Mn2  1  0.00000000  0.00000000  0.00000000  1.0
  Mn  Mn3  1  0.50000000  0.50000000  0.00000000  1.0
  P  P4  1  0.50000000  0.00000000  0.15373856  1.0
  P  P5  1  0.00000000  0.50000000  0.84626144  1.0
  O  O6  1  0.00000000  0.00000000  0.50000000  1.0
  O  O7  1  0.50000000  0.50000000  0.50000000  1.0
