# generated using pymatgen
data_CsMoIO6
_symmetry_space_group_name_H-M   'P 1'
_cell_length_a   7.97877061
_cell_length_b   10.71015516
_cell_length_c   7.54227981
_cell_angle_alpha   90.00000000
_cell_angle_beta   90.00000000
_cell_angle_gamma   90.00000000
_symmetry_Int_Tables_number   1
_chemical_formula_structural   CsMoIO6
_chemical_formula_sum   'Cs4 Mo4 I4 O24'
_cell_volume   644.51700735
_cell_formula_units_Z   4
loop_
 _symmetry_equiv_pos_site_id
 _symmetry_equiv_pos_as_xyz
  1  'x, y, z'
loop_
 _atom_site_type_symbol
 _atom_site_label
 _atom_site_symmetry_multiplicity
 _atom_site_fract_x
 _atom_site_fract_y
 _atom_site_fract_z
 _atom_site_occupancy
  Cs  Cs0  1  0.48409032  0.12226825  0.75682020  1.0
  Cs  Cs1  1  0.98409032  0.37773175  0.75682020  1.0
  Cs  Cs2  1  0.51590968  0.87773175  0.25682020  1.0
  Cs  Cs3  1  0.01590968  0.62226825  0.25682020  1.0
  Mo  Mo4  1  0.99012289  0.02766345  0.52568399  1.0
  Mo  Mo5  1  0.49012289  0.47233655  0.52568399  1.0
  Mo  Mo6  1  0.00987711  0.97233655  0.02568399  1.0
  Mo  Mo7  1  0.50987711  0.52766345  0.02568399  1.0
  I  I8  1  0.28096969  0.74151414  0.70619813  1.0
  I  I9  1  0.78096969  0.75848586  0.70619813  1.0
  I  I10  1  0.71903031  0.25848586  0.20619813  1.0
  I  I11  1  0.21903031  0.24151414  0.20619813  1.0
  O  O12  1  0.44446661  0.51173480  0.79129414  1.0
  O  O13  1  0.94446661  0.98826520  0.79129414  1.0
  O  O14  1  0.55553339  0.48826520  0.29129414  1.0
  O  O15  1  0.05553339  0.01173480  0.29129414  1.0
  O  O16  1  0.36564050  0.64016528  0.09022048  1.0
  O  O17  1  0.86564050  0.85983472  0.09022048  1.0
  O  O18  1  0.63435950  0.35983472  0.59022048  1.0
  O  O19  1  0.13435950  0.14016528  0.59022048  1.0
  O  O20  1  0.36748044  0.65216856  0.50372702  1.0
  O  O21  1  0.86748044  0.84783144  0.50372702  1.0
  O  O22  1  0.63251956  0.34783144  0.00372702  1.0
  O  O23  1  0.13251956  0.15216856  0.00372702  1.0
  O  O24  1  0.22846920  0.88893598  0.58318163  1.0
  O  O25  1  0.72846920  0.61106402  0.58318163  1.0
  O  O26  1  0.77153080  0.11106402  0.08318163  1.0
  O  O27  1  0.27153080  0.38893598  0.08318163  1.0
  O  O28  1  0.19367260  0.88724488  -0.00349514  1.0
  O  O29  1  0.69367260  0.61275512  -0.00349514  1.0
  O  O30  1  0.80632740  0.11275512  0.49650486  1.0
  O  O31  1  0.30632740  0.38724488  0.49650486  1.0
  O  O32  1  0.07033850  0.66053377  0.72136955  1.0
  O  O33  1  0.57033850  0.83946623  0.72136955  1.0
  O  O34  1  0.92966150  0.33946623  0.22136955  1.0
  O  O35  1  0.42966150  0.16053377  0.22136955  1.0
