# generated using pymatgen
data_SiHg3(SF3)2
_symmetry_space_group_name_H-M   'P 1'
_cell_length_a   7.37118207
_cell_length_b   7.37118207
_cell_length_c   4.99530436
_cell_angle_alpha   90.00000000
_cell_angle_beta   90.00000000
_cell_angle_gamma   120.00000000
_symmetry_Int_Tables_number   1
_chemical_formula_structural   SiHg3(SF3)2
_chemical_formula_sum   'Si1 Hg3 S2 F6'
_cell_volume   235.05357615
_cell_formula_units_Z   1
loop_
 _symmetry_equiv_pos_site_id
 _symmetry_equiv_pos_as_xyz
  1  'x, y, z'
loop_
 _atom_site_type_symbol
 _atom_site_label
 _atom_site_symmetry_multiplicity
 _atom_site_fract_x
 _atom_site_fract_y
 _atom_site_fract_z
 _atom_site_occupancy
  Si  Si0  1  0.00000000  0.00000000  0.00000000  1.0
  Hg  Hg1  1  0.50000000  0.50000000  0.50000000  1.0
  Hg  Hg2  1  0.50000000  0.00000000  0.50000000  1.0
  Hg  Hg3  1  0.00000000  0.50000000  0.50000000  1.0
  S  S4  1  0.33333333  0.66666667  0.29145695  1.0
  S  S5  1  0.66666667  0.33333333  0.70854305  1.0
  F  F6  1  0.77865142  0.88932571  0.19819922  1.0
  F  F7  1  0.88932571  0.77865142  0.80180078  1.0
  F  F8  1  0.88932571  0.11067429  0.80180078  1.0
  F  F9  1  0.11067429  0.88932571  0.19819922  1.0
  F  F10  1  0.11067429  0.22134858  0.19819922  1.0
  F  F11  1  0.22134858  0.11067429  0.80180078  1.0
