# generated using pymatgen
data_Y3BrO4
_symmetry_space_group_name_H-M   'P 1'
_cell_length_a   6.23592950
_cell_length_b   6.23592950
_cell_length_c   11.66724110
_cell_angle_alpha   90.00000000
_cell_angle_beta   90.00000000
_cell_angle_gamma   141.84532305
_symmetry_Int_Tables_number   1
_chemical_formula_structural   Y3BrO4
_chemical_formula_sum   'Y6 Br2 O8'
_cell_volume   280.29091565
_cell_formula_units_Z   2
loop_
 _symmetry_equiv_pos_site_id
 _symmetry_equiv_pos_as_xyz
  1  'x, y, z'
loop_
 _atom_site_type_symbol
 _atom_site_label
 _atom_site_symmetry_multiplicity
 _atom_site_fract_x
 _atom_site_fract_y
 _atom_site_fract_z
 _atom_site_occupancy
  Y  Y0  1  0.38135160  0.61864840  0.25000000  1.0
  Y  Y1  1  -0.38135160  0.38135160  0.75000000  1.0
  Y  Y2  1  -0.31427308  0.31427308  0.39723886  1.0
  Y  Y3  1  0.31427308  0.68572692  0.60276114  1.0
  Y  Y4  1  -0.31427308  0.31427308  0.10276114  1.0
  Y  Y5  1  0.31427308  0.68572692  0.89723886  1.0
  Br  Br6  1  0.00000000  0.00000000  0.50000000  1.0
  Br  Br7  1  0.00000000  0.00000000  0.00000000  1.0
  O  O8  1  -0.43385943  0.43385943  0.25000000  1.0
  O  O9  1  0.43385943  0.56614057  0.75000000  1.0
  O  O10  1  -0.19150752  0.19150752  0.25000000  1.0
  O  O11  1  0.19150752  0.80849248  0.75000000  1.0
  O  O12  1  -0.26982043  0.26982043  0.91012663  1.0
  O  O13  1  0.26982043  0.73017957  0.08987337  1.0
  O  O14  1  -0.26982043  0.26982043  0.58987337  1.0
  O  O15  1  0.26982043  0.73017957  0.41012663  1.0
