# generated using pymatgen
data_BaSiP4(HO7)2
_symmetry_space_group_name_H-M   'P 1'
_cell_length_a   4.67490188
_cell_length_b   9.25107711
_cell_length_c   6.72712579
_cell_angle_alpha   73.73116494
_cell_angle_beta   75.44064299
_cell_angle_gamma   85.78620148
_symmetry_Int_Tables_number   1
_chemical_formula_structural   BaSiP4(HO7)2
_chemical_formula_sum   'Ba1 Si1 P4 H2 O14'
_cell_volume   270.31437165
_cell_formula_units_Z   1
loop_
 _symmetry_equiv_pos_site_id
 _symmetry_equiv_pos_as_xyz
  1  'x, y, z'
loop_
 _atom_site_type_symbol
 _atom_site_label
 _atom_site_symmetry_multiplicity
 _atom_site_fract_x
 _atom_site_fract_y
 _atom_site_fract_z
 _atom_site_occupancy
  Ba  Ba0  1  0.00000000  -0.50000000  0.00000000  1.0
  Si  Si1  1  0.00000000  0.00000000  0.00000000  1.0
  P  P2  1  -0.90047834  -0.76392545  -0.44866849  1.0
  P  P3  1  -0.09952166  -0.23607455  -0.55133151  1.0
  P  P4  1  -0.58350425  -0.83365085  -0.84129900  1.0
  P  P5  1  -0.41649575  -0.16634915  -0.15870100  1.0
  H  H6  1  -0.45115714  -0.67309101  -0.47070328  1.0
  H  H7  1  -0.54884286  -0.32690899  -0.52929672  1.0
  O  O8  1  -0.93424625  -0.13297375  -0.76536905  1.0
  O  O9  1  -0.06575375  -0.86702625  -0.23463095  1.0
  O  O10  1  -0.88532487  -0.33063447  -0.43144882  1.0
  O  O11  1  -0.11467513  -0.66936553  -0.56855118  1.0
  O  O12  1  -0.84555066  -0.85174287  -0.93540172  1.0
  O  O13  1  -0.15444934  -0.14825713  -0.06459828  1.0
  O  O14  1  -0.71162250  -0.87288475  -0.58316382  1.0
  O  O15  1  -0.28837750  -0.12711525  -0.41683618  1.0
  O  O16  1  -0.67502254  -0.66332234  -0.40977380  1.0
  O  O17  1  -0.32497746  -0.33667766  -0.59022620  1.0
  O  O18  1  -0.48425760  -0.67096836  -0.92502676  1.0
  O  O19  1  -0.51574240  -0.32903164  -0.07497324  1.0
  O  O20  1  -0.35208570  -0.95865441  -0.85618604  1.0
  O  O21  1  -0.64791430  -0.04134559  -0.14381396  1.0
