# generated using pymatgen
data_CaAu2
_symmetry_space_group_name_H-M   'P 1'
_cell_length_a   5.92377305
_cell_length_b   5.92377305
_cell_length_c   5.92377305
_cell_angle_alpha   133.69665977
_cell_angle_beta   106.28104462
_cell_angle_gamma   91.65095309
_symmetry_Int_Tables_number   1
_chemical_formula_structural   CaAu2
_chemical_formula_sum   'Ca2 Au4'
_cell_volume   136.65155839
_cell_formula_units_Z   2
loop_
 _symmetry_equiv_pos_site_id
 _symmetry_equiv_pos_as_xyz
  1  'x, y, z'
loop_
 _atom_site_type_symbol
 _atom_site_label
 _atom_site_symmetry_multiplicity
 _atom_site_fract_x
 _atom_site_fract_y
 _atom_site_fract_z
 _atom_site_occupancy
  Ca  Ca0  1  1.70988450  1.45988450  1.25000000  1.0
  Ca  Ca1  1  0.29011550  0.54011550  0.75000000  1.0
  Au  Au2  1  1.29913757  0.83818663  1.46095095  1.0
  Au  Au3  1  1.12276432  0.16181337  0.96095095  1.0
  Au  Au4  1  0.70086243  1.16181337  0.53904905  1.0
  Au  Au5  1  0.87723568  0.83818663  0.03904905  1.0
