# generated using pymatgen
data_Fe2C
_symmetry_space_group_name_H-M   'P 1'
_cell_length_a   6.02902809
_cell_length_b   2.55588163
_cell_length_c   6.60178562
_cell_angle_alpha   90.00000000
_cell_angle_beta   90.00000000
_cell_angle_gamma   90.00000000
_symmetry_Int_Tables_number   1
_chemical_formula_structural   Fe2C
_chemical_formula_sum   'Fe8 C4'
_cell_volume   101.73009738
_cell_formula_units_Z   4
loop_
 _symmetry_equiv_pos_site_id
 _symmetry_equiv_pos_as_xyz
  1  'x, y, z'
loop_
 _atom_site_type_symbol
 _atom_site_label
 _atom_site_symmetry_multiplicity
 _atom_site_fract_x
 _atom_site_fract_y
 _atom_site_fract_z
 _atom_site_occupancy
  Fe  Fe0  1  0.82345927  0.25000000  0.02382856  1.0
  Fe  Fe1  1  0.32345927  0.25000000  0.47617144  1.0
  Fe  Fe2  1  0.17654073  0.75000000  0.97617144  1.0
  Fe  Fe3  1  0.67654073  0.75000000  0.52382856  1.0
  Fe  Fe4  1  0.51046699  0.75000000  0.17693274  1.0
  Fe  Fe5  1  1.01046699  0.75000000  0.32306726  1.0
  Fe  Fe6  1  0.48953301  0.25000000  0.82306726  1.0
  Fe  Fe7  1  -0.01046699  0.25000000  0.67693274  1.0
  C  C8  1  0.77485067  0.75000000  0.80923741  1.0
  C  C9  1  0.27485067  0.75000000  0.69076259  1.0
  C  C10  1  0.22514933  0.25000000  0.19076259  1.0
  C  C11  1  0.72514933  0.25000000  0.30923741  1.0
