# generated using pymatgen
data_SnPbO14
_symmetry_space_group_name_H-M   'P 1'
_cell_length_a   8.53379576
_cell_length_b   8.53379576
_cell_length_c   8.53379576
_cell_angle_alpha   60.00000000
_cell_angle_beta   60.00000000
_cell_angle_gamma   60.00000000
_symmetry_Int_Tables_number   1
_chemical_formula_structural   SnPbO14
_chemical_formula_sum   'Sn2 Pb2 O28'
_cell_volume   439.45229450
_cell_formula_units_Z   2
loop_
 _symmetry_equiv_pos_site_id
 _symmetry_equiv_pos_as_xyz
  1  'x, y, z'
loop_
 _atom_site_type_symbol
 _atom_site_label
 _atom_site_symmetry_multiplicity
 _atom_site_fract_x
 _atom_site_fract_y
 _atom_site_fract_z
 _atom_site_occupancy
  Sn  Sn0  1  -0.00000000  1.00000000  0.00000000  1.0
  Sn  Sn1  1  0.25000000  0.25000000  0.25000000  1.0
  Pb  Pb2  1  0.50000000  0.50000000  -0.50000000  1.0
  Pb  Pb3  1  0.75000000  -0.25000000  0.75000000  1.0
  O  O4  1  0.94177546  -0.64539897  0.76184805  1.0
  O  O5  1  -0.05822454  0.76184805  0.35460103  1.0
  O  O6  1  -0.10460103  0.30822454  0.30822454  1.0
  O  O7  1  0.48815195  0.30822454  0.30822454  1.0
  O  O8  1  -0.64539897  0.94177546  0.76184805  1.0
  O  O9  1  0.94177546  -0.05822454  0.76184805  1.0
  O  O10  1  0.94177546  -0.23815195  0.94177546  1.0
  O  O11  1  -0.64539897  0.76184805  0.94177546  1.0
  O  O12  1  0.30822454  -0.10460103  0.30822454  1.0
  O  O13  1  0.30822454  0.30822454  -0.10460103  1.0
  O  O14  1  0.48815195  0.30822454  -0.10460103  1.0
  O  O15  1  0.48815195  -0.10460103  0.30822454  1.0
  O  O16  1  0.76184805  -0.05822454  0.94177546  1.0
  O  O17  1  -0.64539897  0.94177546  0.94177546  1.0
  O  O18  1  0.30822454  0.48815195  -0.10460103  1.0
  O  O19  1  0.30822454  -0.10460103  0.48815195  1.0
  O  O20  1  -0.23815195  0.94177546  0.35460103  1.0
  O  O21  1  0.76184805  -0.64539897  0.94177546  1.0
  O  O22  1  0.94177546  -0.64539897  0.94177546  1.0
  O  O23  1  -0.05822454  0.94177546  0.35460103  1.0
  O  O24  1  0.30822454  0.48815195  0.30822454  1.0
  O  O25  1  -0.10460103  0.48815195  0.30822454  1.0
  O  O26  1  -0.10460103  0.30822454  0.48815195  1.0
  O  O27  1  0.30822454  0.30822454  0.48815195  1.0
  O  O28  1  0.62500000  -0.37500000  1.12500000  1.0
  O  O29  1  0.62500000  0.12500000  0.62500000  1.0
  O  O30  1  0.62500000  -0.37500000  0.62500000  1.0
  O  O31  1  1.12500000  -0.37500000  0.62500000  1.0
