# generated using pymatgen
data_SrCdP2O7
_symmetry_space_group_name_H-M   'P 1'
_cell_length_a   5.50374784
_cell_length_b   8.65989393
_cell_length_c   14.23586921
_cell_angle_alpha   90.00000000
_cell_angle_beta   112.56821417
_cell_angle_gamma   90.00000000
_symmetry_Int_Tables_number   1
_chemical_formula_structural   SrCdP2O7
_chemical_formula_sum   'Sr4 Cd4 P8 O28'
_cell_volume   626.55024480
_cell_formula_units_Z   4
loop_
 _symmetry_equiv_pos_site_id
 _symmetry_equiv_pos_as_xyz
  1  'x, y, z'
loop_
 _atom_site_type_symbol
 _atom_site_label
 _atom_site_symmetry_multiplicity
 _atom_site_fract_x
 _atom_site_fract_y
 _atom_site_fract_z
 _atom_site_occupancy
  Sr  Sr0  1  0.98678995  0.17643872  0.27035495  1.0
  Sr  Sr1  1  0.98678995  0.32356128  0.77035495  1.0
  Sr  Sr2  1  0.01321005  0.67643872  0.22964505  1.0
  Sr  Sr3  1  0.01321005  0.82356128  0.72964505  1.0
  Cd  Cd4  1  0.72027869  0.85568857  0.40613740  1.0
  Cd  Cd5  1  0.72027869  0.64431143  0.90613740  1.0
  Cd  Cd6  1  0.27972131  0.35568857  0.09386260  1.0
  Cd  Cd7  1  0.27972131  0.14431143  0.59386260  1.0
  P  P8  1  0.67501025  0.21586493  0.47352624  1.0
  P  P9  1  0.67501025  0.28413507  0.97352624  1.0
  P  P10  1  0.32498975  0.71586493  0.02647376  1.0
  P  P11  1  0.32498975  0.78413507  0.52647376  1.0
  P  P12  1  0.56778027  0.46934925  0.32572439  1.0
  P  P13  1  0.56778027  0.03065075  0.82572439  1.0
  P  P14  1  0.43221973  0.96934925  0.17427561  1.0
  P  P15  1  0.43221973  0.53065075  0.67427561  1.0
  O  O16  1  0.86827329  0.28910515  0.08521308  1.0
  O  O17  1  0.86827329  0.21089485  0.58521308  1.0
  O  O18  1  0.13172671  0.78910515  0.41478692  1.0
  O  O19  1  0.13172671  0.71089485  0.91478692  1.0
  O  O20  1  0.77635181  0.44752876  0.27988382  1.0
  O  O21  1  0.77635181  0.05247124  0.77988382  1.0
  O  O22  1  0.22364819  0.94752876  0.22011618  1.0
  O  O23  1  0.22364819  0.55247124  0.72011618  1.0
  O  O24  1  0.77856935  0.11648131  0.40580937  1.0
  O  O25  1  0.77856935  0.38351869  0.90580937  1.0
  O  O26  1  0.22143065  0.61648131  0.09419063  1.0
  O  O27  1  0.22143065  0.88351869  0.59419063  1.0
  O  O28  1  0.68240139  0.39428786  0.43965367  1.0
  O  O29  1  0.68240139  0.10571214  0.93965367  1.0
  O  O30  1  0.31759861  0.89428786  0.06034633  1.0
  O  O31  1  0.31759861  0.60571214  0.56034633  1.0
  O  O32  1  0.49160305  0.13820585  0.15870377  1.0
  O  O33  1  0.49160305  0.36179415  0.65870377  1.0
  O  O34  1  0.50839695  0.63820585  0.34129623  1.0
  O  O35  1  0.50839695  0.86179415  0.84129623  1.0
  O  O36  1  0.38840582  0.17387763  0.45648485  1.0
  O  O37  1  0.38840582  0.32612237  0.95648485  1.0
  O  O38  1  0.61159418  0.67387763  0.04351515  1.0
  O  O39  1  0.61159418  0.82612237  0.54351515  1.0
  O  O40  1  0.30476895  0.38776776  0.26336641  1.0
  O  O41  1  0.30476895  0.11223224  0.76336641  1.0
  O  O42  1  0.69523105  0.88776776  0.23663359  1.0
  O  O43  1  0.69523105  0.61223224  0.73663359  1.0
