# generated using pymatgen
data_V4Pb3O3F19
_symmetry_space_group_name_H-M   'P 1'
_cell_length_a   10.52601800
_cell_length_b   10.52601800
_cell_length_c   9.25072930
_cell_angle_alpha   90.00000000
_cell_angle_beta   90.00000000
_cell_angle_gamma   120.00000000
_symmetry_Int_Tables_number   1
_chemical_formula_structural   V4Pb3O3F19
_chemical_formula_sum   'V8 Pb6 O6 F38'
_cell_volume   887.63582291
_cell_formula_units_Z   2
loop_
 _symmetry_equiv_pos_site_id
 _symmetry_equiv_pos_as_xyz
  1  'x, y, z'
loop_
 _atom_site_type_symbol
 _atom_site_label
 _atom_site_symmetry_multiplicity
 _atom_site_fract_x
 _atom_site_fract_y
 _atom_site_fract_z
 _atom_site_occupancy
  V  V0  1  0.76926428  0.69311171  0.19482827  1.0
  V  V1  1  0.69311171  0.76926428  0.69482827  1.0
  V  V2  1  0.92384743  0.23073572  0.19482827  1.0
  V  V3  1  0.30688829  0.07615257  0.19482827  1.0
  V  V4  1  0.23073572  0.92384743  0.69482827  1.0
  V  V5  1  0.07615257  0.30688829  0.69482827  1.0
  V  V6  1  0.33333333  0.66666667  0.39411753  1.0
  V  V7  1  0.66666667  0.33333333  0.89411753  1.0
  Pb  Pb8  1  0.07757768  0.60537666  0.01999735  1.0
  Pb  Pb9  1  0.60537666  0.07757768  0.51999735  1.0
  Pb  Pb10  1  0.52779897  0.92242232  0.01999735  1.0
  Pb  Pb11  1  0.39462334  0.47220103  0.01999735  1.0
  Pb  Pb12  1  0.92242232  0.52779897  0.51999735  1.0
  Pb  Pb13  1  0.47220103  0.39462334  0.51999735  1.0
  O  O14  1  0.16179130  0.99170279  0.28373226  1.0
  O  O15  1  0.99170279  0.16179130  0.78373226  1.0
  O  O16  1  0.82991149  0.83820870  0.28373226  1.0
  O  O17  1  0.00829721  0.17008851  0.28373226  1.0
  O  O18  1  0.83820870  0.82991149  0.78373226  1.0
  O  O19  1  0.17008851  0.00829721  0.78373226  1.0
  F  F20  1  0.28556812  0.92549296  0.07220182  1.0
  F  F21  1  0.92549296  0.28556812  0.57220182  1.0
  F  F22  1  0.63992484  0.71443188  0.07220182  1.0
  F  F23  1  0.07450704  0.36007516  0.07220182  1.0
  F  F24  1  0.71443188  0.63992484  0.57220182  1.0
  F  F25  1  0.36007516  0.07450704  0.57220182  1.0
  F  F26  1  0.89943461  0.73155882  0.05155883  1.0
  F  F27  1  0.73155882  0.89943461  0.55155883  1.0
  F  F28  1  0.83212421  0.10056539  0.05155883  1.0
  F  F29  1  0.26844118  0.16787579  0.05155883  1.0
  F  F30  1  0.10056539  0.83212421  0.55155883  1.0
  F  F31  1  0.16787579  0.26844118  0.55155883  1.0
  F  F32  1  0.19879830  0.68630714  0.28208097  1.0
  F  F33  1  0.68630714  0.19879830  0.78208097  1.0
  F  F34  1  0.48750884  0.80120170  0.28208097  1.0
  F  F35  1  0.31369286  0.51249116  0.28208097  1.0
  F  F36  1  0.80120170  0.48750884  0.78208097  1.0
  F  F37  1  0.51249116  0.31369286  0.78208097  1.0
  F  F38  1  0.86178564  0.60355309  0.28735940  1.0
  F  F39  1  0.60355309  0.86178564  0.78735940  1.0
  F  F40  1  0.74176744  0.13821436  0.28735940  1.0
  F  F41  1  0.39644691  0.25823256  0.28735940  1.0
  F  F42  1  0.13821436  0.74176744  0.78735940  1.0
  F  F43  1  0.25823256  0.39644691  0.78735940  1.0
  F  F44  1  0.60299307  0.55411432  0.28856669  1.0
  F  F45  1  0.55411432  0.60299307  0.78856669  1.0
  F  F46  1  0.95112125  0.39700693  0.28856669  1.0
  F  F47  1  0.44588568  0.04887875  0.28856669  1.0
  F  F48  1  0.39700693  0.95112125  0.78856669  1.0
  F  F49  1  0.04887875  0.44588568  0.78856669  1.0
  F  F50  1  0.63136033  0.45551607  0.01471547  1.0
  F  F51  1  0.45551607  0.63136033  0.51471547  1.0
  F  F52  1  0.82415574  0.36863967  0.01471547  1.0
  F  F53  1  0.54448393  0.17584426  0.01471547  1.0
  F  F54  1  0.36863967  0.82415574  0.51471547  1.0
  F  F55  1  0.17584426  0.54448393  0.51471547  1.0
  F  F56  1  0.33333333  0.66666667  -0.00524068  1.0
  F  F57  1  0.66666667  0.33333333  0.49475932  1.0
