# generated using pymatgen
data_YAlGe
_symmetry_space_group_name_H-M   'P 1'
_cell_length_a   5.61207019
_cell_length_b   5.61207019
_cell_length_c   5.78272955
_cell_angle_alpha   90.00000000
_cell_angle_beta   90.00000000
_cell_angle_gamma   137.51061884
_symmetry_Int_Tables_number   1
_chemical_formula_structural   YAlGe
_chemical_formula_sum   'Y2 Al2 Ge2'
_cell_volume   123.01967065
_cell_formula_units_Z   2
loop_
 _symmetry_equiv_pos_site_id
 _symmetry_equiv_pos_as_xyz
  1  'x, y, z'
loop_
 _atom_site_type_symbol
 _atom_site_label
 _atom_site_symmetry_multiplicity
 _atom_site_fract_x
 _atom_site_fract_y
 _atom_site_fract_z
 _atom_site_occupancy
  Y  Y0  1  0.31014036  0.68985964  0.75000000  1.0
  Y  Y1  1  -0.31014036  0.31014036  0.25000000  1.0
  Al  Al2  1  0.00000000  0.00000000  0.00000000  1.0
  Al  Al3  1  0.00000000  0.00000000  0.50000000  1.0
  Ge  Ge4  1  -0.39446279  0.39446279  0.75000000  1.0
  Ge  Ge5  1  0.39446279  0.60553721  0.25000000  1.0
