# generated using pymatgen
data_SrCdPt
_symmetry_space_group_name_H-M   'P 1'
_cell_length_a   7.63176178
_cell_length_b   4.48344951
_cell_length_c   8.71540961
_cell_angle_alpha   90.00000000
_cell_angle_beta   90.00000000
_cell_angle_gamma   90.00000000
_symmetry_Int_Tables_number   1
_chemical_formula_structural   SrCdPt
_chemical_formula_sum   'Sr4 Cd4 Pt4'
_cell_volume   298.21184654
_cell_formula_units_Z   4
loop_
 _symmetry_equiv_pos_site_id
 _symmetry_equiv_pos_as_xyz
  1  'x, y, z'
loop_
 _atom_site_type_symbol
 _atom_site_label
 _atom_site_symmetry_multiplicity
 _atom_site_fract_x
 _atom_site_fract_y
 _atom_site_fract_z
 _atom_site_occupancy
  Sr  Sr0  1  0.97051976  0.75000000  0.68107060  1.0
  Sr  Sr1  1  0.47051976  0.75000000  0.81892940  1.0
  Sr  Sr2  1  0.02948024  0.25000000  0.31892940  1.0
  Sr  Sr3  1  0.52948024  0.25000000  0.18107060  1.0
  Cd  Cd4  1  0.85526561  0.75000000  0.06618982  1.0
  Cd  Cd5  1  0.35526561  0.75000000  0.43381018  1.0
  Cd  Cd6  1  0.14473439  0.25000000  0.93381018  1.0
  Cd  Cd7  1  0.64473439  0.25000000  0.56618982  1.0
  Pt  Pt8  1  0.73060219  0.75000000  0.37691161  1.0
  Pt  Pt9  1  0.23060219  0.75000000  0.12308839  1.0
  Pt  Pt10  1  0.26939781  0.25000000  0.62308839  1.0
  Pt  Pt11  1  0.76939781  0.25000000  0.87691161  1.0
