# generated using pymatgen
data_CeNi9Ge4
_symmetry_space_group_name_H-M   'P 1'
_cell_length_a   8.14322775
_cell_length_b   8.14322775
_cell_length_c   8.14322775
_cell_angle_alpha   121.46675273
_cell_angle_beta   121.46675273
_cell_angle_gamma   87.47774581
_symmetry_Int_Tables_number   1
_chemical_formula_structural   CeNi9Ge4
_chemical_formula_sum   'Ce2 Ni18 Ge8'
_cell_volume   372.97614824
_cell_formula_units_Z   2
loop_
 _symmetry_equiv_pos_site_id
 _symmetry_equiv_pos_as_xyz
  1  'x, y, z'
loop_
 _atom_site_type_symbol
 _atom_site_label
 _atom_site_symmetry_multiplicity
 _atom_site_fract_x
 _atom_site_fract_y
 _atom_site_fract_z
 _atom_site_occupancy
  Ce  Ce0  1  0.75000000  0.75000000  1.00000000  1.0
  Ce  Ce1  1  0.25000000  0.25000000  0.00000000  1.0
  Ni  Ni2  1  0.69204259  1.19204259  1.24862772  1.0
  Ni  Ni3  1  1.05658513  0.55658513  1.24862772  1.0
  Ni  Ni4  1  0.44341487  0.69204259  0.50000000  1.0
  Ni  Ni5  1  0.80795741  1.05658513  1.50000000  1.0
  Ni  Ni6  1  1.19204259  0.94341487  1.50000000  1.0
  Ni  Ni7  1  0.55658513  0.30795741  0.50000000  1.0
  Ni  Ni8  1  0.94341487  0.44341487  0.75137228  1.0
  Ni  Ni9  1  0.30795741  0.80795741  0.75137228  1.0
  Ni  Ni10  1  0.79608225  0.93258196  1.72866421  1.0
  Ni  Ni11  1  0.70391775  0.43258196  1.13649971  1.0
  Ni  Ni12  1  0.43258196  0.29608225  0.72866421  1.0
  Ni  Ni13  1  0.06741804  0.79608225  0.86350029  1.0
  Ni  Ni14  1  0.29608225  0.56741804  0.86350029  1.0
  Ni  Ni15  1  0.20391775  0.06741804  0.27133579  1.0
  Ni  Ni16  1  0.93258196  0.20391775  1.13649971  1.0
  Ni  Ni17  1  0.56741804  0.70391775  1.27133579  1.0
  Ni  Ni18  1  0.50000000  0.00000000  0.50000000  1.0
  Ni  Ni19  1  0.00000000  0.50000000  0.50000000  1.0
  Ge  Ge20  1  1.20485761  0.70485761  1.15314434  1.0
  Ge  Ge21  1  0.44828673  0.94828673  1.15314434  1.0
  Ge  Ge22  1  1.05171327  1.20485761  1.50000000  1.0
  Ge  Ge23  1  0.29514239  0.44828673  0.50000000  1.0
  Ge  Ge24  1  0.70485761  0.55171327  0.50000000  1.0
  Ge  Ge25  1  0.94828673  0.79514239  1.50000000  1.0
  Ge  Ge26  1  0.55171327  1.05171327  0.84685566  1.0
  Ge  Ge27  1  0.79514239  0.29514239  0.84685566  1.0
