# generated using pymatgen
data_RbTl(SO4)2
_symmetry_space_group_name_H-M   'P 1'
_cell_length_a   9.38070712
_cell_length_b   9.38070712
_cell_length_c   9.38070712
_cell_angle_alpha   30.99056705
_cell_angle_beta   30.99056705
_cell_angle_gamma   30.99056705
_symmetry_Int_Tables_number   1
_chemical_formula_structural   RbTl(SO4)2
_chemical_formula_sum   'Rb1 Tl1 S2 O8'
_cell_volume   194.14301376
_cell_formula_units_Z   1
loop_
 _symmetry_equiv_pos_site_id
 _symmetry_equiv_pos_as_xyz
  1  'x, y, z'
loop_
 _atom_site_type_symbol
 _atom_site_label
 _atom_site_symmetry_multiplicity
 _atom_site_fract_x
 _atom_site_fract_y
 _atom_site_fract_z
 _atom_site_occupancy
  Rb  Rb0  1  0.00000000  -0.00000000  0.00000000  1.0
  Tl  Tl1  1  0.50000000  0.50000000  -0.50000000  1.0
  S  S2  1  0.76016549  -0.23983451  -0.23983451  1.0
  S  S3  1  0.23983451  0.23983451  0.23983451  1.0
  O  O4  1  0.70524273  -0.29475727  -0.29475727  1.0
  O  O5  1  0.29475727  0.29475727  0.29475727  1.0
  O  O6  1  0.50075734  -0.23244103  0.06862034  1.0
  O  O7  1  1.06862034  -0.49924266  -0.23244103  1.0
  O  O8  1  0.76755897  0.06862034  -0.49924266  1.0
  O  O9  1  0.93137966  0.23244103  -0.50075734  1.0
  O  O10  1  0.23244103  0.49924266  -0.06862034  1.0
  O  O11  1  0.49924266  0.93137966  -0.76755897  1.0
