# generated using pymatgen
data_Sb2TeSe2
_symmetry_space_group_name_H-M   'P 1'
_cell_length_a   10.61273075
_cell_length_b   10.61273075
_cell_length_c   10.61273075
_cell_angle_alpha   22.61392376
_cell_angle_beta   22.61392376
_cell_angle_gamma   22.61392376
_symmetry_Int_Tables_number   1
_chemical_formula_structural   Sb2TeSe2
_chemical_formula_sum   'Sb2 Te1 Se2'
_cell_volume   155.04157065
_cell_formula_units_Z   1
loop_
 _symmetry_equiv_pos_site_id
 _symmetry_equiv_pos_as_xyz
  1  'x, y, z'
loop_
 _atom_site_type_symbol
 _atom_site_label
 _atom_site_symmetry_multiplicity
 _atom_site_fract_x
 _atom_site_fract_y
 _atom_site_fract_z
 _atom_site_occupancy
  Sb  Sb0  1  0.59966153  0.59966153  -0.40033847  1.0
  Sb  Sb1  1  0.40033847  0.40033847  -0.59966153  1.0
  Te  Te2  1  0.00000000  0.00000000  0.00000000  1.0
  Se  Se3  1  0.21782494  0.21782494  0.21782494  1.0
  Se  Se4  1  0.78217506  -0.21782494  -0.21782494  1.0
