# generated using pymatgen
data_KICl4O
_symmetry_space_group_name_H-M   'P 1'
_cell_length_a   5.15500767
_cell_length_b   13.81350812
_cell_length_c   13.17293940
_cell_angle_alpha   90.00000000
_cell_angle_beta   104.24500954
_cell_angle_gamma   90.00000000
_symmetry_Int_Tables_number   1
_chemical_formula_structural   KICl4O
_chemical_formula_sum   'K4 I4 Cl16 O4'
_cell_volume   909.18624746
_cell_formula_units_Z   4
loop_
 _symmetry_equiv_pos_site_id
 _symmetry_equiv_pos_as_xyz
  1  'x, y, z'
loop_
 _atom_site_type_symbol
 _atom_site_label
 _atom_site_symmetry_multiplicity
 _atom_site_fract_x
 _atom_site_fract_y
 _atom_site_fract_z
 _atom_site_occupancy
  O  O0  1  0.69493603  0.76474302  0.43471343  1.0
  O  O1  1  0.69493603  0.73525698  0.93471343  1.0
  O  O2  1  0.30506397  0.26474302  0.06528657  1.0
  O  O3  1  0.30506397  0.23525698  0.56528657  1.0
  I  I4  1  0.78269839  0.48267202  0.28531741  1.0
  I  I5  1  0.78269839  0.01732798  0.78531741  1.0
  I  I6  1  0.21730161  0.98267202  0.21468259  1.0
  I  I7  1  0.21730161  0.51732798  0.71468259  1.0
  K  K8  1  0.75742729  0.17988582  0.48953304  1.0
  K  K9  1  0.75742729  0.32011418  0.98953304  1.0
  K  K10  1  0.24257271  0.67988582  0.01046696  1.0
  K  K11  1  0.24257271  0.82011418  0.51046696  1.0
  Cl  Cl12  1  0.81179805  0.55289354  0.10535315  1.0
  Cl  Cl13  1  0.81179805  -0.05289354  0.60535315  1.0
  Cl  Cl14  1  0.18820195  1.05289354  0.39464685  1.0
  Cl  Cl15  1  0.18820195  0.44710646  0.89464685  1.0
  Cl  Cl16  1  0.72122600  0.41160865  0.45041195  1.0
  Cl  Cl17  1  0.72122600  0.08839135  0.95041195  1.0
  Cl  Cl18  1  0.27877400  0.91160865  0.04958805  1.0
  Cl  Cl19  1  0.27877400  0.58839135  0.54958805  1.0
  Cl  Cl20  1  0.44723761  0.14070666  0.17486723  1.0
  Cl  Cl21  1  0.44723761  0.35929334  0.67486723  1.0
  Cl  Cl22  1  0.55276239  0.64070666  0.32513277  1.0
  Cl  Cl23  1  0.55276239  0.85929334  0.82513277  1.0
  Cl  Cl24  1  0.99913726  0.82990428  0.25616761  1.0
  Cl  Cl25  1  0.99913726  0.67009572  0.75616761  1.0
  Cl  Cl26  1  0.00086274  0.32990428  0.24383239  1.0
  Cl  Cl27  1  0.00086274  0.17009572  0.74383239  1.0
