# generated using pymatgen
data_La9Sb5CO4
_symmetry_space_group_name_H-M   'P 1'
_cell_length_a   10.54927499
_cell_length_b   10.54927499
_cell_length_c   9.52742189
_cell_angle_alpha   90.00000000
_cell_angle_beta   90.00000000
_cell_angle_gamma   90.00000000
_symmetry_Int_Tables_number   1
_chemical_formula_structural   La9Sb5CO4
_chemical_formula_sum   'La18 Sb10 C2 O8'
_cell_volume   1060.28013254
_cell_formula_units_Z   2
loop_
 _symmetry_equiv_pos_site_id
 _symmetry_equiv_pos_as_xyz
  1  'x, y, z'
loop_
 _atom_site_type_symbol
 _atom_site_label
 _atom_site_symmetry_multiplicity
 _atom_site_fract_x
 _atom_site_fract_y
 _atom_site_fract_z
 _atom_site_occupancy
  La  La0  1  0.00000000  0.50000000  0.31685792  1.0
  La  La1  1  0.50000000  -0.00000000  0.68314208  1.0
  La  La2  1  0.29572792  0.60447172  0.66040881  1.0
  La  La3  1  0.70427208  0.39552828  0.66040881  1.0
  La  La4  1  0.10447172  0.20427208  0.66040881  1.0
  La  La5  1  0.89552828  0.79572792  0.66040881  1.0
  La  La6  1  0.20427208  0.89552828  0.33959119  1.0
  La  La7  1  0.79572792  0.10447172  0.33959119  1.0
  La  La8  1  0.39552828  0.29572792  0.33959119  1.0
  La  La9  1  0.60447172  0.70427208  0.33959119  1.0
  La  La10  1  0.22632149  0.42102768  0.99718231  1.0
  La  La11  1  0.77367851  0.57897232  0.99718231  1.0
  La  La12  1  0.92102768  0.27367851  0.99718231  1.0
  La  La13  1  0.07897232  0.72632149  0.99718231  1.0
  La  La14  1  0.27367851  0.07897232  0.00281769  1.0
  La  La15  1  0.72632149  0.92102768  0.00281769  1.0
  La  La16  1  0.57897232  0.22632149  0.00281769  1.0
  La  La17  1  0.42102768  0.77367851  0.00281769  1.0
  Sb  Sb18  1  0.00000000  0.50000000  0.68177681  1.0
  Sb  Sb19  1  0.50000000  -0.00000000  0.31822319  1.0
  Sb  Sb20  1  0.30590395  0.59768705  0.30296587  1.0
  Sb  Sb21  1  0.69409605  0.40231295  0.30296587  1.0
  Sb  Sb22  1  0.09768705  0.19409605  0.30296587  1.0
  Sb  Sb23  1  0.90231295  0.80590395  0.30296587  1.0
  Sb  Sb24  1  0.19409605  0.90231295  0.69703413  1.0
  Sb  Sb25  1  0.80590395  0.09768705  0.69703413  1.0
  Sb  Sb26  1  0.40231295  0.30590395  0.69703413  1.0
  Sb  Sb27  1  0.59768705  0.69409605  0.69703413  1.0
  C  C28  1  0.00000000  0.50000000  0.06735212  1.0
  C  C29  1  0.50000000  -0.00000000  0.93264788  1.0
  O  O30  1  0.27385745  0.62162473  0.90239480  1.0
  O  O31  1  0.72614255  0.37837527  0.90239480  1.0
  O  O32  1  0.12162473  0.22614255  0.90239480  1.0
  O  O33  1  0.87837527  0.77385745  0.90239480  1.0
  O  O34  1  0.22614255  0.87837527  0.09760520  1.0
  O  O35  1  0.77385745  0.12162473  0.09760520  1.0
  O  O36  1  0.37837527  0.27385745  0.09760520  1.0
  O  O37  1  0.62162473  0.72614255  0.09760520  1.0
