# generated using pymatgen
data_La2Ta2O9
_symmetry_space_group_name_H-M   'P 1'
_cell_length_a   6.74581462
_cell_length_b   3.92345601
_cell_length_c   15.73967767
_cell_angle_alpha   90.00000000
_cell_angle_beta   111.28836210
_cell_angle_gamma   90.00000000
_symmetry_Int_Tables_number   1
_chemical_formula_structural   La2Ta2O9
_chemical_formula_sum   'La4 Ta4 O18'
_cell_volume   388.15520410
_cell_formula_units_Z   2
loop_
 _symmetry_equiv_pos_site_id
 _symmetry_equiv_pos_as_xyz
  1  'x, y, z'
loop_
 _atom_site_type_symbol
 _atom_site_label
 _atom_site_symmetry_multiplicity
 _atom_site_fract_x
 _atom_site_fract_y
 _atom_site_fract_z
 _atom_site_occupancy
  O  O0  1  0.66512127  -0.00001849  0.45206066  1.0
  O  O1  1  0.66512127  0.50001849  0.95206066  1.0
  O  O2  1  0.33487873  0.49998151  0.04793934  1.0
  O  O3  1  0.33487873  1.00001849  0.54793934  1.0
  O  O4  1  0.58467701  0.49995688  0.32569613  1.0
  O  O5  1  0.58467701  0.00004312  0.82569613  1.0
  O  O6  1  0.41532299  0.99995688  0.17430387  1.0
  O  O7  1  0.41532299  0.50004312  0.67430387  1.0
  O  O8  1  0.34677634  0.50001533  0.42204078  1.0
  O  O9  1  0.34677634  -0.00001533  0.92204078  1.0
  O  O10  1  0.65322366  1.00001533  0.07795922  1.0
  O  O11  1  0.65322366  0.49998467  0.57795922  1.0
  O  O12  1  -0.00000000  0.50000000  0.50000000  1.0
  O  O13  1  0.00000000  0.00000000  0.00000000  1.0
  O  O14  1  0.93138034  0.99995056  0.27711063  1.0
  O  O15  1  0.93138034  0.50004944  0.77711063  1.0
  O  O16  1  0.06861966  0.49995056  0.22288937  1.0
  O  O17  1  0.06861966  0.00004944  0.72288937  1.0
  Ta  Ta18  1  0.69569016  0.49998588  0.46027518  1.0
  Ta  Ta19  1  0.69569016  0.00001412  0.96027518  1.0
  Ta  Ta20  1  0.30430984  0.99998588  0.03972482  1.0
  Ta  Ta21  1  0.30430984  0.50001412  0.53972482  1.0
  La  La22  1  0.68731970  0.49995923  0.19338869  1.0
  La  La23  1  0.68731970  0.00004077  0.69338869  1.0
  La  La24  1  0.31268030  0.99995923  0.30661131  1.0
  La  La25  1  0.31268030  0.50004077  0.80661131  1.0
