# generated using pymatgen
data_Na2W4O13
_symmetry_space_group_name_H-M   'P 1'
_cell_length_a   3.88710983
_cell_length_b   8.41687582
_cell_length_c   8.62695679
_cell_angle_alpha   95.71682727
_cell_angle_beta   102.86875575
_cell_angle_gamma   90.34842613
_symmetry_Int_Tables_number   1
_chemical_formula_structural   Na2W4O13
_chemical_formula_sum   'Na2 W4 O13'
_cell_volume   273.67673463
_cell_formula_units_Z   1
loop_
 _symmetry_equiv_pos_site_id
 _symmetry_equiv_pos_as_xyz
  1  'x, y, z'
loop_
 _atom_site_type_symbol
 _atom_site_label
 _atom_site_symmetry_multiplicity
 _atom_site_fract_x
 _atom_site_fract_y
 _atom_site_fract_z
 _atom_site_occupancy
  Na  Na0  1  0.71247946  0.69507018  0.42527900  1.0
  Na  Na1  1  0.28752054  0.30492982  0.57472100  1.0
  W  W2  1  0.96358583  0.63175356  0.82850988  1.0
  W  W3  1  0.03641417  0.36824644  0.17149012  1.0
  W  W4  1  0.85235996  0.02314986  0.80705332  1.0
  W  W5  1  0.14764004  0.97685014  0.19294668  1.0
  O  O6  1  0.99923826  0.84534666  0.99704006  1.0
  O  O7  1  0.00076174  0.15465334  0.00295994  1.0
  O  O8  1  0.82039560  0.15100505  0.65551193  1.0
  O  O9  1  0.17960440  0.84899495  0.34448807  1.0
  O  O10  1  0.84153026  0.48961823  0.65962472  1.0
  O  O11  1  0.15846974  0.51038177  0.34037528  1.0
  O  O12  1  0.84838936  0.80969637  0.69693453  1.0
  O  O13  1  0.15161064  0.19030363  0.30306547  1.0
  O  O14  1  0.60721502  0.98954006  0.18501763  1.0
  O  O15  1  0.39278498  0.01045994  0.81498237  1.0
  O  O16  1  0.43547087  0.64279184  0.84516679  1.0
  O  O17  1  0.56452913  0.35720816  0.15483321  1.0
  O  O18  1  0.00000000  0.50000000  -0.00000000  1.0
