# generated using pymatgen
data_Cr2CuSe4
_symmetry_space_group_name_H-M   'P 1'
_cell_length_a   7.35416360
_cell_length_b   7.35416360
_cell_length_c   7.35416360
_cell_angle_alpha   60.00000000
_cell_angle_beta   60.00000000
_cell_angle_gamma   60.00000000
_symmetry_Int_Tables_number   1
_chemical_formula_structural   Cr2CuSe4
_chemical_formula_sum   'Cr4 Cu2 Se8'
_cell_volume   281.24503377
_cell_formula_units_Z   2
loop_
 _symmetry_equiv_pos_site_id
 _symmetry_equiv_pos_as_xyz
  1  'x, y, z'
loop_
 _atom_site_type_symbol
 _atom_site_label
 _atom_site_symmetry_multiplicity
 _atom_site_fract_x
 _atom_site_fract_y
 _atom_site_fract_z
 _atom_site_occupancy
  Cr  Cr0  1  1.12500000  -0.37500000  0.62500000  1.0
  Cr  Cr1  1  0.62500000  1.12500000  -0.37500000  1.0
  Cr  Cr2  1  0.62500000  0.62500000  0.12500000  1.0
  Cr  Cr3  1  0.62500000  0.62500000  -0.37500000  1.0
  Cu  Cu4  1  0.25000000  0.25000000  0.25000000  1.0
  Cu  Cu5  1  0.00000000  1.00000000  -0.00000000  1.0
  Se  Se6  1  -0.14813393  0.38271131  0.38271131  1.0
  Se  Se7  1  0.38271131  0.85186607  0.38271131  1.0
  Se  Se8  1  0.38271131  1.38271131  -0.14813393  1.0
  Se  Se9  1  0.38271131  0.38271131  0.38271131  1.0
  Se  Se10  1  0.39813393  0.86728869  -0.13271131  1.0
  Se  Se11  1  0.86728869  -0.60186607  0.86728869  1.0
  Se  Se12  1  0.86728869  0.86728869  -0.60186607  1.0
  Se  Se13  1  0.86728869  -0.13271131  0.86728869  1.0
