# generated using pymatgen
data_Gd3Ni19B10
_symmetry_space_group_name_H-M   'P 1'
_cell_length_a   7.92112751
_cell_length_b   7.92112751
_cell_length_c   5.79348529
_cell_angle_alpha   88.83287229
_cell_angle_beta   91.16712771
_cell_angle_gamma   112.75315150
_symmetry_Int_Tables_number   1
_chemical_formula_structural   Gd3Ni19B10
_chemical_formula_sum   'Gd3 Ni19 B10'
_cell_volume   335.11934929
_cell_formula_units_Z   1
loop_
 _symmetry_equiv_pos_site_id
 _symmetry_equiv_pos_as_xyz
  1  'x, y, z'
loop_
 _atom_site_type_symbol
 _atom_site_label
 _atom_site_symmetry_multiplicity
 _atom_site_fract_x
 _atom_site_fract_y
 _atom_site_fract_z
 _atom_site_occupancy
  Gd  Gd0  1  0.62530802  -0.62530802  0.38876323  1.0
  Gd  Gd1  1  0.37469198  -0.37469198  0.61123677  1.0
  Gd  Gd2  1  0.00000000  0.00000000  0.00000000  1.0
  Ni  Ni3  1  0.62145095  -0.12146593  0.92560682  1.0
  Ni  Ni4  1  1.12146593  0.37854905  0.92560682  1.0
  Ni  Ni5  1  0.87853407  -0.37854905  0.07439318  1.0
  Ni  Ni6  1  1.37854905  0.12146593  0.07439318  1.0
  Ni  Ni7  1  1.48136196  0.04511249  0.69871084  1.0
  Ni  Ni8  1  0.95488751  -0.48136196  0.69871084  1.0
  Ni  Ni9  1  1.04511249  0.48136196  0.30128916  1.0
  Ni  Ni10  1  0.51863804  -0.04511249  0.30128916  1.0
  Ni  Ni11  1  1.28751683  0.22885659  0.69887713  1.0
  Ni  Ni12  1  0.77114341  -0.28751683  0.69887713  1.0
  Ni  Ni13  1  1.22885659  0.28751683  0.30112287  1.0
  Ni  Ni14  1  0.71248317  -0.22885659  0.30112287  1.0
  Ni  Ni15  1  0.83695374  -0.83695374  0.29938502  1.0
  Ni  Ni16  1  0.16304626  -0.16304626  0.70061498  1.0
  Ni  Ni17  1  0.81684822  -0.81684822  0.72935298  1.0
  Ni  Ni18  1  0.18315178  -0.18315178  0.27064702  1.0
  Ni  Ni19  1  0.62158031  -0.62158031  0.87744153  1.0
  Ni  Ni20  1  0.37841969  -0.37841969  0.12255847  1.0
  Ni  Ni21  1  0.00000000  -0.00000000  0.50000000  1.0
  B  B22  1  0.70041942  -0.06311486  0.56871738  1.0
  B  B23  1  1.06311486  0.29958058  0.56871738  1.0
  B  B24  1  0.93688514  -0.29958058  0.43128262  1.0
  B  B25  1  1.29958058  0.06311486  0.43128262  1.0
  B  B26  1  0.34783683  -0.14293092  0.97444646  1.0
  B  B27  1  1.14293092  0.65216317  0.97444646  1.0
  B  B28  1  0.85706908  -0.65216317  0.02555354  1.0
  B  B29  1  1.65216317  0.14293092  0.02555354  1.0
  B  B30  1  0.61836929  -0.38163071  -0.00000000  1.0
  B  B31  1  1.38163071  0.38163071  -0.00000000  1.0
