# generated using pymatgen
data_AgRh(SO4)2
_symmetry_space_group_name_H-M   'P 1'
_cell_length_a   4.83433401
_cell_length_b   4.83433401
_cell_length_c   7.47971772
_cell_angle_alpha   89.80059605
_cell_angle_beta   90.19940395
_cell_angle_gamma   114.65205630
_symmetry_Int_Tables_number   1
_chemical_formula_structural   AgRh(SO4)2
_chemical_formula_sum   'Ag1 Rh1 S2 O8'
_cell_volume   158.87318698
_cell_formula_units_Z   1
loop_
 _symmetry_equiv_pos_site_id
 _symmetry_equiv_pos_as_xyz
  1  'x, y, z'
loop_
 _atom_site_type_symbol
 _atom_site_label
 _atom_site_symmetry_multiplicity
 _atom_site_fract_x
 _atom_site_fract_y
 _atom_site_fract_z
 _atom_site_occupancy
  Ag  Ag0  1  0.00000000  -0.00000000  0.50000000  1.0
  Rh  Rh1  1  0.00000000  0.00000000  0.00000000  1.0
  S  S2  1  0.64539932  -0.64539932  0.79084290  1.0
  S  S3  1  0.35460068  -0.35460068  0.20915710  1.0
  O  O4  1  1.29787721  0.23038298  0.79855575  1.0
  O  O5  1  0.76961702  -0.29787721  0.79855575  1.0
  O  O6  1  1.23038298  0.29787721  0.20144425  1.0
  O  O7  1  0.70212279  -0.23038298  0.20144425  1.0
  O  O8  1  0.75217617  -0.75217617  0.95356101  1.0
  O  O9  1  0.24782383  -0.24782383  0.04643899  1.0
  O  O10  1  0.72705032  -0.72705032  0.61761147  1.0
  O  O11  1  0.27294968  -0.27294968  0.38238853  1.0
