# generated using pymatgen
data_RbBi3F10
_symmetry_space_group_name_H-M   'P 1'
_cell_length_a   8.61730904
_cell_length_b   8.61730904
_cell_length_c   8.61730904
_cell_angle_alpha   60.00000000
_cell_angle_beta   60.00000000
_cell_angle_gamma   60.00000000
_symmetry_Int_Tables_number   1
_chemical_formula_structural   RbBi3F10
_chemical_formula_sum   'Rb2 Bi6 F20'
_cell_volume   452.48064566
_cell_formula_units_Z   2
loop_
 _symmetry_equiv_pos_site_id
 _symmetry_equiv_pos_as_xyz
  1  'x, y, z'
loop_
 _atom_site_type_symbol
 _atom_site_label
 _atom_site_symmetry_multiplicity
 _atom_site_fract_x
 _atom_site_fract_y
 _atom_site_fract_z
 _atom_site_occupancy
  Rb  Rb0  1  0.75000000  0.75000000  -0.25000000  1.0
  Rb  Rb1  1  1.25000000  0.25000000  0.25000000  1.0
  Bi  Bi2  1  -0.75879677  0.75879677  0.75879677  1.0
  Bi  Bi3  1  -0.24120323  0.24120323  0.75879677  1.0
  Bi  Bi4  1  0.75879677  0.75879677  -0.75879677  1.0
  Bi  Bi5  1  0.24120323  1.24120323  -0.24120323  1.0
  Bi  Bi6  1  0.24120323  -0.24120323  1.24120323  1.0
  Bi  Bi7  1  -0.24120323  0.24120323  0.24120323  1.0
  F  F8  1  1.17216323  0.50000000  0.50000000  1.0
  F  F9  1  1.50000000  -0.17216323  0.17216323  1.0
  F  F10  1  0.50000000  1.17216323  -0.17216323  1.0
  F  F11  1  0.82783677  0.50000000  -0.50000000  1.0
  F  F12  1  0.50000000  1.17216323  -0.50000000  1.0
  F  F13  1  -0.17216323  1.50000000  0.17216323  1.0
  F  F14  1  0.50000000  -0.50000000  1.17216323  1.0
  F  F15  1  -0.17216323  0.17216323  0.50000000  1.0
  F  F16  1  0.17216323  1.50000000  -0.17216323  1.0
  F  F17  1  0.50000000  0.82783677  -0.50000000  1.0
  F  F18  1  0.17216323  -0.17216323  1.50000000  1.0
  F  F19  1  -0.50000000  0.50000000  0.82783677  1.0
  F  F20  1  0.88688212  0.88688212  -0.11311788  1.0
  F  F21  1  1.11311788  0.11311788  0.66064636  1.0
  F  F22  1  1.11311788  0.66064636  0.11311788  1.0
  F  F23  1  0.33935364  0.88688212  -0.11311788  1.0
  F  F24  1  1.66064636  0.11311788  0.11311788  1.0
  F  F25  1  0.88688212  0.33935364  -0.11311788  1.0
  F  F26  1  0.88688212  0.88688212  -0.66064636  1.0
  F  F27  1  1.11311788  0.11311788  0.11311788  1.0
