# generated using pymatgen
data_Na3LuCl6
_symmetry_space_group_name_H-M   'P 1'
_cell_length_a   6.88919145
_cell_length_b   7.29583079
_cell_length_c   12.28183135
_cell_angle_alpha   90.00000000
_cell_angle_beta   123.42741483
_cell_angle_gamma   90.00000000
_symmetry_Int_Tables_number   1
_chemical_formula_structural   Na3LuCl6
_chemical_formula_sum   'Na6 Lu2 Cl12'
_cell_volume   515.20062990
_cell_formula_units_Z   2
loop_
 _symmetry_equiv_pos_site_id
 _symmetry_equiv_pos_as_xyz
  1  'x, y, z'
loop_
 _atom_site_type_symbol
 _atom_site_label
 _atom_site_symmetry_multiplicity
 _atom_site_fract_x
 _atom_site_fract_y
 _atom_site_fract_z
 _atom_site_occupancy
  Na  Na0  1  0.71017608  0.07415938  0.23587966  1.0
  Na  Na1  1  0.71017608  0.42584062  0.73587966  1.0
  Na  Na2  1  0.28982392  0.57415938  0.26412034  1.0
  Na  Na3  1  0.28982392  0.92584062  0.76412034  1.0
  Na  Na4  1  0.50000000  0.50000000  -0.00000000  1.0
  Na  Na5  1  0.50000000  0.00000000  0.50000000  1.0
  Lu  Lu6  1  -0.00000000  0.50000000  0.50000000  1.0
  Lu  Lu7  1  0.00000000  0.00000000  0.00000000  1.0
  Cl  Cl8  1  0.90377514  0.43291956  0.26592673  1.0
  Cl  Cl9  1  0.90377514  0.06708044  0.76592673  1.0
  Cl  Cl10  1  0.09622486  0.93291956  0.23407327  1.0
  Cl  Cl11  1  0.09622486  0.56708044  0.73407327  1.0
  Cl  Cl12  1  0.74685743  0.79713042  0.41710360  1.0
  Cl  Cl13  1  0.74685743  0.70286958  0.91710360  1.0
  Cl  Cl14  1  0.25314257  0.29713042  0.08289640  1.0
  Cl  Cl15  1  0.25314257  0.20286958  0.58289640  1.0
  Cl  Cl16  1  0.63033523  0.31934944  0.43955348  1.0
  Cl  Cl17  1  0.63033523  0.18065056  0.93955348  1.0
  Cl  Cl18  1  0.36966477  0.81934944  0.06044652  1.0
  Cl  Cl19  1  0.36966477  0.68065056  0.56044652  1.0
