# generated using pymatgen
data_NaV2Ag(OF)4
_symmetry_space_group_name_H-M   'P 1'
_cell_length_a   10.40205780
_cell_length_b   5.98780995
_cell_length_c   5.02352261
_cell_angle_alpha   90.00000000
_cell_angle_beta   89.55421388
_cell_angle_gamma   90.00000000
_symmetry_Int_Tables_number   1
_chemical_formula_structural   NaV2Ag(OF)4
_chemical_formula_sum   'Na2 V4 Ag2 O8 F8'
_cell_volume   312.88337410
_cell_formula_units_Z   2
loop_
 _symmetry_equiv_pos_site_id
 _symmetry_equiv_pos_as_xyz
  1  'x, y, z'
loop_
 _atom_site_type_symbol
 _atom_site_label
 _atom_site_symmetry_multiplicity
 _atom_site_fract_x
 _atom_site_fract_y
 _atom_site_fract_z
 _atom_site_occupancy
  Na  Na0  1  0.50000000  0.68195784  0.25000000  1.0
  Na  Na1  1  0.50000000  0.31804216  0.75000000  1.0
  V  V2  1  0.76604498  0.84122696  0.76212819  1.0
  V  V3  1  0.76604498  0.15877304  0.26212819  1.0
  V  V4  1  0.23395502  0.84122696  0.73787181  1.0
  V  V5  1  0.23395502  0.15877304  0.23787181  1.0
  Ag  Ag6  1  0.00000000  0.66957382  0.25000000  1.0
  Ag  Ag7  1  0.00000000  0.33042618  0.75000000  1.0
  O  O8  1  0.86235388  0.34582320  0.13756117  1.0
  O  O9  1  0.86235388  0.65417680  0.63756117  1.0
  O  O10  1  0.13764612  0.34582320  0.36243883  1.0
  O  O11  1  0.13764612  0.65417680  0.86243883  1.0
  O  O12  1  0.83913314  0.90612541  0.07020144  1.0
  O  O13  1  0.83913314  0.09387459  0.57020144  1.0
  O  O14  1  0.16086686  0.90612541  0.42979856  1.0
  O  O15  1  0.16086686  0.09387459  0.92979856  1.0
  F  F16  1  0.64455516  0.89288020  0.47175610  1.0
  F  F17  1  0.64455516  0.10711980  0.97175610  1.0
  F  F18  1  0.35544484  0.89288020  0.02824390  1.0
  F  F19  1  0.35544484  0.10711980  0.52824390  1.0
  F  F20  1  0.63582658  0.34407314  0.38532269  1.0
  F  F21  1  0.63582658  0.65592686  0.88532269  1.0
  F  F22  1  0.36417342  0.34407314  0.11467731  1.0
  F  F23  1  0.36417342  0.65592686  0.61467731  1.0
