# generated using pymatgen
data_V3Se2NO12
_symmetry_space_group_name_H-M   'P 1'
_cell_length_a   7.15658118
_cell_length_b   7.15658118
_cell_length_c   12.39254439
_cell_angle_alpha   90.00000000
_cell_angle_beta   90.00000000
_cell_angle_gamma   120.00000000
_symmetry_Int_Tables_number   1
_chemical_formula_structural   V3Se2NO12
_chemical_formula_sum   'V6 Se4 N2 O24'
_cell_volume   549.67036040
_cell_formula_units_Z   2
loop_
 _symmetry_equiv_pos_site_id
 _symmetry_equiv_pos_as_xyz
  1  'x, y, z'
loop_
 _atom_site_type_symbol
 _atom_site_label
 _atom_site_symmetry_multiplicity
 _atom_site_fract_x
 _atom_site_fract_y
 _atom_site_fract_z
 _atom_site_occupancy
  V  V0  1  0.78769488  0.66628052  0.27681186  1.0
  V  V1  1  0.66628052  0.87858564  0.77681186  1.0
  V  V2  1  0.87858564  0.21230512  0.27681186  1.0
  V  V3  1  0.33371948  0.12141436  0.27681186  1.0
  V  V4  1  0.21230512  0.33371948  0.77681186  1.0
  V  V5  1  0.12141436  0.78769488  0.77681186  1.0
  Se  Se6  1  0.33333333  0.66666667  0.56891859  1.0
  Se  Se7  1  0.66666667  0.33333333  0.06891859  1.0
  Se  Se8  1  0.00000000  0.00000000  -0.01676108  1.0
  Se  Se9  1  0.00000000  0.00000000  0.48323892  1.0
  N  N10  1  0.33333333  0.66666667  0.08845593  1.0
  N  N11  1  0.66666667  0.33333333  0.58845593  1.0
  O  O12  1  0.80045037  0.58667102  0.12723699  1.0
  O  O13  1  0.58667102  0.78622066  0.62723699  1.0
  O  O14  1  0.78622066  0.19954963  0.12723699  1.0
  O  O15  1  0.41332898  0.21377934  0.12723699  1.0
  O  O16  1  0.19954963  0.41332898  0.62723699  1.0
  O  O17  1  0.21377934  0.80045037  0.62723699  1.0
  O  O18  1  0.12611017  0.87680052  0.24903007  1.0
  O  O19  1  0.87680052  0.75069036  0.74903007  1.0
  O  O20  1  0.75069036  0.87388983  0.24903007  1.0
  O  O21  1  0.12319948  0.24930964  0.24903007  1.0
  O  O22  1  0.87388983  0.12319948  0.74903007  1.0
  O  O23  1  0.24930964  0.12611017  0.74903007  1.0
  O  O24  1  0.54245500  0.45903703  0.30235773  1.0
  O  O25  1  0.45903703  0.91658203  0.80235773  1.0
  O  O26  1  0.91658203  0.45754500  0.30235773  1.0
  O  O27  1  0.54096297  0.08341797  0.30235773  1.0
  O  O28  1  0.45754500  0.54096297  0.80235773  1.0
  O  O29  1  0.08341797  0.54245500  0.80235773  1.0
  O  O30  1  0.88147737  0.74750132  0.42325888  1.0
  O  O31  1  0.74750132  0.86602395  0.92325888  1.0
  O  O32  1  0.86602395  0.11852263  0.42325888  1.0
  O  O33  1  0.25249868  0.13397605  0.42325888  1.0
  O  O34  1  0.11852263  0.25249868  0.92325888  1.0
  O  O35  1  0.13397605  0.88147737  0.92325888  1.0
