# generated using pymatgen
data_Mg2Pd
_symmetry_space_group_name_H-M   'P 1'
_cell_length_a   8.56080913
_cell_length_b   8.56080913
_cell_length_c   8.56080913
_cell_angle_alpha   60.00000000
_cell_angle_beta   60.00000000
_cell_angle_gamma   60.00000000
_symmetry_Int_Tables_number   1
_chemical_formula_structural   Mg2Pd
_chemical_formula_sum   'Mg16 Pd8'
_cell_volume   443.63872104
_cell_formula_units_Z   8
loop_
 _symmetry_equiv_pos_site_id
 _symmetry_equiv_pos_as_xyz
  1  'x, y, z'
loop_
 _atom_site_type_symbol
 _atom_site_label
 _atom_site_symmetry_multiplicity
 _atom_site_fract_x
 _atom_site_fract_y
 _atom_site_fract_z
 _atom_site_occupancy
  Mg  Mg0  1  0.80581268  0.80581268  -0.80581268  1.0
  Mg  Mg1  1  0.19418732  1.19418732  -0.19418732  1.0
  Mg  Mg2  1  0.80581268  -0.80581268  0.80581268  1.0
  Mg  Mg3  1  0.19418732  -0.19418732  0.19418732  1.0
  Mg  Mg4  1  -0.80581268  0.80581268  0.80581268  1.0
  Mg  Mg5  1  -0.19418732  0.19418732  0.19418732  1.0
  Mg  Mg6  1  0.44418732  1.44418732  0.05581268  1.0
  Mg  Mg7  1  0.05581268  0.05581268  0.44418732  1.0
  Mg  Mg8  1  0.44418732  1.05581268  0.44418732  1.0
  Mg  Mg9  1  0.05581268  1.44418732  0.05581268  1.0
  Mg  Mg10  1  0.05581268  1.44418732  0.44418732  1.0
  Mg  Mg11  1  0.44418732  1.05581268  0.05581268  1.0
  Mg  Mg12  1  1.12500000  0.62500000  0.62500000  1.0
  Mg  Mg13  1  0.62500000  1.12500000  -0.37500000  1.0
  Mg  Mg14  1  -0.37500000  0.62500000  1.12500000  1.0
  Mg  Mg15  1  -0.37500000  0.62500000  0.62500000  1.0
  Pd  Pd16  1  -0.22375261  0.40791754  0.40791754  1.0
  Pd  Pd17  1  0.40791754  -0.22375261  0.40791754  1.0
  Pd  Pd18  1  0.40791754  1.40791754  -0.22375261  1.0
  Pd  Pd19  1  0.40791754  1.40791754  0.40791754  1.0
  Pd  Pd20  1  0.47375261  0.84208246  -0.15791754  1.0
  Pd  Pd21  1  0.84208246  0.47375261  0.84208246  1.0
  Pd  Pd22  1  0.84208246  0.84208246  -0.52624739  1.0
  Pd  Pd23  1  0.84208246  0.84208246  0.84208246  1.0
