# generated using pymatgen
data_Nb(SeCl)2
_symmetry_space_group_name_H-M   'P 1'
_cell_length_a   6.42815236
_cell_length_b   8.08531559
_cell_length_c   6.59341990
_cell_angle_alpha   65.85584911
_cell_angle_beta   60.89277667
_cell_angle_gamma   69.66586306
_symmetry_Int_Tables_number   1
_chemical_formula_structural   Nb(SeCl)2
_chemical_formula_sum   'Nb2 Se4 Cl4'
_cell_volume   268.43198370
_cell_formula_units_Z   2
loop_
 _symmetry_equiv_pos_site_id
 _symmetry_equiv_pos_as_xyz
  1  'x, y, z'
loop_
 _atom_site_type_symbol
 _atom_site_label
 _atom_site_symmetry_multiplicity
 _atom_site_fract_x
 _atom_site_fract_y
 _atom_site_fract_z
 _atom_site_occupancy
  Nb  Nb0  1  -0.62924824  -0.50002528  -0.74102039  1.0
  Nb  Nb1  1  -0.37075176  -0.49997472  -0.25897961  1.0
  Se  Se2  1  -0.43040923  -0.80177475  -0.88386994  1.0
  Se  Se3  1  -0.56959077  -0.19822525  -0.11613006  1.0
  Se  Se4  1  -0.77273835  -0.62800987  -0.95059159  1.0
  Se  Se5  1  -0.22726165  -0.37199013  -0.04940841  1.0
  Cl  Cl6  1  -0.93439591  -0.69762459  -0.34549570  1.0
  Cl  Cl7  1  -0.06560409  -0.30237541  -0.65450430  1.0
  Cl  Cl8  1  -0.35561099  -0.69738649  -0.50236106  1.0
  Cl  Cl9  1  -0.64438901  -0.30261351  -0.49763894  1.0
