# generated using pymatgen
data_Co(BMo)3
_symmetry_space_group_name_H-M   'P 1'
_cell_length_a   4.51603024
_cell_length_b   4.51603024
_cell_length_c   10.77156418
_cell_angle_alpha   90.00000000
_cell_angle_beta   90.00000000
_cell_angle_gamma   138.99023884
_symmetry_Int_Tables_number   1
_chemical_formula_structural   Co(BMo)3
_chemical_formula_sum   'Co2 B6 Mo6'
_cell_volume   144.15193342
_cell_formula_units_Z   2
loop_
 _symmetry_equiv_pos_site_id
 _symmetry_equiv_pos_as_xyz
  1  'x, y, z'
loop_
 _atom_site_type_symbol
 _atom_site_label
 _atom_site_symmetry_multiplicity
 _atom_site_fract_x
 _atom_site_fract_y
 _atom_site_fract_z
 _atom_site_occupancy
  Co  Co0  1  0.00000000  0.00000000  0.00000000  1.0
  Co  Co1  1  0.00000000  0.00000000  0.50000000  1.0
  B  B2  1  0.41418293  0.58581707  0.89674518  1.0
  B  B3  1  0.41418293  0.58581707  0.60325482  1.0
  B  B4  1  -0.41418293  0.41418293  0.39674518  1.0
  B  B5  1  -0.41418293  0.41418293  0.10325482  1.0
  B  B6  1  0.29369020  0.70630980  0.75000000  1.0
  B  B7  1  -0.29369020  0.29369020  0.25000000  1.0
  Mo  Mo8  1  0.28763898  0.71236102  0.39276750  1.0
  Mo  Mo9  1  0.28763898  0.71236102  0.10723250  1.0
  Mo  Mo10  1  -0.28763898  0.28763898  0.89276750  1.0
  Mo  Mo11  1  -0.28763898  0.28763898  0.60723250  1.0
  Mo  Mo12  1  -0.00074055  0.00074055  0.75000000  1.0
  Mo  Mo13  1  0.00074055  -0.00074055  0.25000000  1.0
