# generated using pymatgen
data_Nb2PdSe6
_symmetry_space_group_name_H-M   'P 1'
_cell_length_a   7.03983018
_cell_length_b   7.03983018
_cell_length_c   10.93051865
_cell_angle_alpha   60.62475319
_cell_angle_beta   119.37524681
_cell_angle_gamma   152.12339958
_symmetry_Int_Tables_number   1
_chemical_formula_structural   Nb2PdSe6
_chemical_formula_sum   'Nb2 Pd1 Se6'
_cell_volume   218.55519684
_cell_formula_units_Z   1
loop_
 _symmetry_equiv_pos_site_id
 _symmetry_equiv_pos_as_xyz
  1  'x, y, z'
loop_
 _atom_site_type_symbol
 _atom_site_label
 _atom_site_symmetry_multiplicity
 _atom_site_fract_x
 _atom_site_fract_y
 _atom_site_fract_z
 _atom_site_occupancy
  Nb  Nb0  1  0.32368115  -0.32368115  0.71166694  1.0
  Nb  Nb1  1  0.67631885  -0.67631885  0.28833306  1.0
  Pd  Pd2  1  0.00000000  0.00000000  0.00000000  1.0
  Se  Se3  1  0.98786920  -0.98786920  0.76601282  1.0
  Se  Se4  1  0.01213080  -0.01213080  0.23398718  1.0
  Se  Se5  1  0.78981754  0.21018246  0.86903379  1.0
  Se  Se6  1  1.21018246  -0.21018246  0.13096621  1.0
  Se  Se7  1  0.66699617  0.33300383  0.53455735  1.0
  Se  Se8  1  1.33300383  -0.33300383  0.46544265  1.0
