# generated using pymatgen
data_Al21Pt8
_symmetry_space_group_name_H-M   'P 1'
_cell_length_a   10.67971700
_cell_length_b   10.67971700
_cell_length_c   10.67971700
_cell_angle_alpha   104.71767044
_cell_angle_beta   104.71767044
_cell_angle_gamma   119.46471780
_symmetry_Int_Tables_number   1
_chemical_formula_structural   Al21Pt8
_chemical_formula_sum   'Al42 Pt16'
_cell_volume   915.96788860
_cell_formula_units_Z   2
loop_
 _symmetry_equiv_pos_site_id
 _symmetry_equiv_pos_as_xyz
  1  'x, y, z'
loop_
 _atom_site_type_symbol
 _atom_site_label
 _atom_site_symmetry_multiplicity
 _atom_site_fract_x
 _atom_site_fract_y
 _atom_site_fract_z
 _atom_site_occupancy
  Al  Al0  1  0.50000000  0.50000000  -0.00000000  1.0
  Al  Al1  1  1.25000000  0.75000000  0.50000000  1.0
  Al  Al2  1  1.15289276  1.01012762  0.96347832  1.0
  Al  Al3  1  1.04664929  1.18941443  1.03652168  1.0
  Al  Al4  1  0.70335071  1.06058557  1.46347832  1.0
  Al  Al5  1  1.59710724  1.23987238  1.53652168  1.0
  Al  Al6  1  0.81058557  0.84710724  0.85723486  1.0
  Al  Al7  1  0.98987238  0.95335071  1.14276514  1.0
  Al  Al8  1  1.76012762  1.29664929  1.35723486  1.0
  Al  Al9  1  0.93941443  0.40289276  0.64276514  1.0
  Al  Al10  1  0.79995941  0.96324396  0.65963582  1.0
  Al  Al11  1  1.30360814  1.14032358  1.34036418  1.0
  Al  Al12  1  0.44639186  1.10967642  1.15963582  1.0
  Al  Al13  1  0.95004059  1.28675604  0.84036418  1.0
  Al  Al14  1  0.85967642  1.20004059  1.16328456  1.0
  Al  Al15  1  1.03675604  0.69639186  0.83671544  1.0
  Al  Al16  1  1.71324396  1.55360814  1.66328456  1.0
  Al  Al17  1  0.89032358  1.04995941  1.33671544  1.0
  Al  Al18  1  0.69326172  0.68380664  0.42802474  1.0
  Al  Al19  1  1.25578190  1.26523698  1.57197526  1.0
  Al  Al20  1  1.49421810  0.98476302  0.92802474  1.0
  Al  Al21  1  1.05673828  0.56619336  1.07197526  1.0
  Al  Al22  1  0.73476302  1.30673828  0.99054492  1.0
  Al  Al23  1  1.31619336  0.74421810  1.00945508  1.0
  Al  Al24  1  1.43380664  1.50578190  1.49054492  1.0
  Al  Al25  1  1.01523698  0.94326172  1.50945508  1.0
  Al  Al26  1  0.69765149  1.46977215  1.20868049  1.0
  Al  Al27  1  1.26109165  0.48897100  0.79131951  1.0
  Al  Al28  1  1.48890835  1.76102900  1.70868049  1.0
  Al  Al29  1  1.05234851  0.78022785  1.29131951  1.0
  Al  Al30  1  1.51102900  1.30234851  1.77212066  1.0
  Al  Al31  1  0.53022785  0.73890835  0.22787934  1.0
  Al  Al32  1  1.21977215  1.51109165  1.27212066  1.0
  Al  Al33  1  0.23897100  0.94765149  0.72787934  1.0
  Al  Al34  1  1.36474945  1.34229141  1.16217479  1.0
  Al  Al35  1  1.18011662  1.20257466  1.83782521  1.0
  Al  Al36  1  1.56988338  1.04742534  0.66217479  1.0
  Al  Al37  1  1.38525055  0.90770859  1.33782521  1.0
  Al  Al38  1  0.79742534  0.63525055  0.97754196  1.0
  Al  Al39  1  1.65770859  0.81988338  1.02245804  1.0
  Al  Al40  1  1.09229141  1.43011662  1.47754196  1.0
  Al  Al41  1  0.95257466  0.61474945  1.52245804  1.0
  Pt  Pt42  1  1.49738942  1.77394291  1.46223840  1.0
  Pt  Pt43  1  1.31170452  1.03515103  1.53776160  1.0
  Pt  Pt44  1  0.43829548  1.21484897  0.96223840  1.0
  Pt  Pt45  1  1.25261058  1.47605709  1.03776160  1.0
  Pt  Pt46  1  0.96484897  0.50261058  1.27655349  1.0
  Pt  Pt47  1  1.22605709  0.68829548  0.72344651  1.0
  Pt  Pt48  1  1.52394291  1.56170452  1.77655349  1.0
  Pt  Pt49  1  0.78515103  0.74738942  1.22344651  1.0
  Pt  Pt50  1  0.80665439  0.42304344  0.81317695  1.0
  Pt  Pt51  1  1.60986649  0.99347744  1.18682305  1.0
  Pt  Pt52  1  1.14013351  1.25652256  1.31317695  1.0
  Pt  Pt53  1  0.94334561  0.82695656  1.68682305  1.0
  Pt  Pt54  1  1.00652256  1.19334561  1.61638905  1.0
  Pt  Pt55  1  1.57695656  1.39013351  1.38361095  1.0
  Pt  Pt56  1  1.17304344  0.85986649  1.11638905  1.0
  Pt  Pt57  1  1.74347744  1.05665439  0.88361095  1.0
