# generated using pymatgen
data_Ba2V(CuS2)3
_symmetry_space_group_name_H-M   'P 1'
_cell_length_a   8.84327435
_cell_length_b   8.84327435
_cell_length_c   10.70045961
_cell_angle_alpha   54.17894951
_cell_angle_beta   125.82105049
_cell_angle_gamma   118.91574507
_symmetry_Int_Tables_number   1
_chemical_formula_structural   Ba2V(CuS2)3
_chemical_formula_sum   'Ba4 V2 Cu6 S12'
_cell_volume   537.38397949
_cell_formula_units_Z   2
loop_
 _symmetry_equiv_pos_site_id
 _symmetry_equiv_pos_as_xyz
  1  'x, y, z'
loop_
 _atom_site_type_symbol
 _atom_site_label
 _atom_site_symmetry_multiplicity
 _atom_site_fract_x
 _atom_site_fract_y
 _atom_site_fract_z
 _atom_site_occupancy
  Ba  Ba0  1  0.78082359  0.14859274  0.44099748  1.0
  Ba  Ba1  1  0.85140726  -0.78082359  0.94099748  1.0
  Ba  Ba2  1  1.14859274  -0.21917641  0.05900252  1.0
  Ba  Ba3  1  0.21917641  -0.14859274  0.55900252  1.0
  V  V4  1  1.36139609  0.36139609  0.75000000  1.0
  V  V5  1  0.63860391  0.63860391  0.25000000  1.0
  Cu  Cu6  1  0.65606053  -0.32007006  0.99097681  1.0
  Cu  Cu7  1  1.32007006  0.34393947  0.49097681  1.0
  Cu  Cu8  1  0.67992994  0.65606053  0.50902319  1.0
  Cu  Cu9  1  0.34393947  0.32007006  0.00902319  1.0
  Cu  Cu10  1  0.66677095  -0.33322905  0.75000000  1.0
  Cu  Cu11  1  0.33322905  0.33322905  0.25000000  1.0
  S  S12  1  0.69071150  -0.06284332  0.75807354  1.0
  S  S13  1  1.06284332  0.30928850  0.25807354  1.0
  S  S14  1  0.93715668  0.69071150  0.74192646  1.0
  S  S15  1  0.30928850  0.06284332  0.24192646  1.0
  S  S16  1  1.34706247  0.10597970  0.75500101  1.0
  S  S17  1  0.89402030  0.65293753  0.25500101  1.0
  S  S18  1  1.10597970  0.34706247  0.74499899  1.0
  S  S19  1  1.65293753  -0.10597970  0.24499899  1.0
  S  S20  1  1.61386243  0.38579778  0.98080015  1.0
  S  S21  1  0.61420222  0.38613757  0.48080015  1.0
  S  S22  1  1.38579778  0.61386243  0.51919985  1.0
  S  S23  1  1.38613757  -0.38579778  0.01919985  1.0
