# generated using pymatgen
data_S2I2O11
_symmetry_space_group_name_H-M   'P 1'
_cell_length_a   18.81330451
_cell_length_b   4.76260109
_cell_length_c   10.81802351
_cell_angle_alpha   90.00000000
_cell_angle_beta   90.00000000
_cell_angle_gamma   90.00000000
_symmetry_Int_Tables_number   1
_chemical_formula_structural   S2I2O11
_chemical_formula_sum   'S8 I8 O44'
_cell_volume   969.29776768
_cell_formula_units_Z   4
loop_
 _symmetry_equiv_pos_site_id
 _symmetry_equiv_pos_as_xyz
  1  'x, y, z'
loop_
 _atom_site_type_symbol
 _atom_site_label
 _atom_site_symmetry_multiplicity
 _atom_site_fract_x
 _atom_site_fract_y
 _atom_site_fract_z
 _atom_site_occupancy
  S  S0  1  0.15289900  0.03574962  0.18845263  1.0
  S  S1  1  0.84710100  0.96425038  0.68845263  1.0
  S  S2  1  0.34710100  0.53574962  0.68845263  1.0
  S  S3  1  0.65289900  0.46425038  0.18845263  1.0
  S  S4  1  0.09680029  0.04396557  0.43552821  1.0
  S  S5  1  0.90319971  0.95603443  0.93552821  1.0
  S  S6  1  0.40319971  0.54396557  0.93552821  1.0
  S  S7  1  0.59680029  0.45603443  0.43552821  1.0
  I  I8  1  0.29847014  0.20609103  0.37105785  1.0
  I  I9  1  0.70152986  0.79390897  0.87105785  1.0
  I  I10  1  0.20152986  0.70609103  0.87105785  1.0
  I  I11  1  0.79847014  0.29390897  0.37105785  1.0
  I  I12  1  0.45021454  0.30943375  0.24995521  1.0
  I  I13  1  0.54978546  0.69056625  0.74995521  1.0
  I  I14  1  0.04978546  0.80943375  0.74995521  1.0
  I  I15  1  0.95021454  0.19056625  0.24995521  1.0
  O  O16  1  0.29136998  0.82771090  0.39039820  1.0
  O  O17  1  0.70863002  0.17228910  0.89039820  1.0
  O  O18  1  0.20863002  0.32771090  0.89039820  1.0
  O  O19  1  0.79136998  0.67228910  0.39039820  1.0
  O  O20  1  0.45603756  0.69038999  0.24532717  1.0
  O  O21  1  0.54396244  0.30961001  0.74532717  1.0
  O  O22  1  0.04396244  0.19038999  0.74532717  1.0
  O  O23  1  0.95603756  0.80961001  0.24532717  1.0
  O  O24  1  0.34323230  0.26027080  0.20523879  1.0
  O  O25  1  0.65676770  0.73972920  0.70523879  1.0
  O  O26  1  0.15676770  0.76027080  0.70523879  1.0
  O  O27  1  0.84323230  0.23972920  0.20523879  1.0
  O  O28  1  0.40539901  0.24130686  0.41507104  1.0
  O  O29  1  0.59460099  0.75869314  0.91507104  1.0
  O  O30  1  0.09460099  0.74130686  0.91507104  1.0
  O  O31  1  0.90539901  0.25869314  0.41507104  1.0
  O  O32  1  0.20257897  0.25582583  0.23906422  1.0
  O  O33  1  0.79742103  0.74417417  0.73906422  1.0
  O  O34  1  0.29742103  0.75582583  0.73906422  1.0
  O  O35  1  0.70257897  0.24417417  0.23906422  1.0
  O  O36  1  0.18915283  0.81620750  0.11979806  1.0
  O  O37  1  0.81084717  0.18379250  0.61979806  1.0
  O  O38  1  0.31084717  0.31620750  0.61979806  1.0
  O  O39  1  0.68915283  0.68379250  0.11979806  1.0
  O  O40  1  0.09108112  0.16578107  0.13310342  1.0
  O  O41  1  0.90891888  0.83421893  0.63310342  1.0
  O  O42  1  0.40891888  0.66578107  0.63310342  1.0
  O  O43  1  0.59108112  0.33421893  0.13310342  1.0
  O  O44  1  0.12512189  0.86194157  0.31401842  1.0
  O  O45  1  0.87487811  0.13805843  0.81401842  1.0
  O  O46  1  0.37487811  0.36194157  0.81401842  1.0
  O  O47  1  0.62512189  0.63805843  0.31401842  1.0
  O  O48  1  0.15753880  0.18274908  0.49029080  1.0
  O  O49  1  0.84246120  0.81725092  0.99029080  1.0
  O  O50  1  0.34246120  0.68274908  0.99029080  1.0
  O  O51  1  0.65753880  0.31725092  0.49029080  1.0
  O  O52  1  0.06179271  0.82523852  0.50801497  1.0
  O  O53  1  0.93820729  0.17476148  0.00801497  1.0
  O  O54  1  0.43820729  0.32523852  0.00801497  1.0
  O  O55  1  0.56179271  0.67476148  0.50801497  1.0
  O  O56  1  0.04576086  0.25558420  0.38282101  1.0
  O  O57  1  0.95423914  0.74441580  0.88282101  1.0
  O  O58  1  0.45423914  0.75558420  0.88282101  1.0
  O  O59  1  0.54576086  0.24441580  0.38282101  1.0
