# generated using pymatgen
data_Na2Mn(PO3)5
_symmetry_space_group_name_H-M   'P 1'
_cell_length_a   5.31453327
_cell_length_b   13.75274310
_cell_length_c   8.89953997
_cell_angle_alpha   90.00000000
_cell_angle_beta   102.39538773
_cell_angle_gamma   90.00000000
_symmetry_Int_Tables_number   1
_chemical_formula_structural   Na2Mn(PO3)5
_chemical_formula_sum   'Na4 Mn2 P10 O30'
_cell_volume   635.29957440
_cell_formula_units_Z   2
loop_
 _symmetry_equiv_pos_site_id
 _symmetry_equiv_pos_as_xyz
  1  'x, y, z'
loop_
 _atom_site_type_symbol
 _atom_site_label
 _atom_site_symmetry_multiplicity
 _atom_site_fract_x
 _atom_site_fract_y
 _atom_site_fract_z
 _atom_site_occupancy
  Na  Na0  1  0.42886506  0.38908971  0.87266507  1.0
  Na  Na1  1  0.42886506  0.11091029  0.87266507  1.0
  Na  Na2  1  0.57113494  0.88908971  0.12733493  1.0
  Na  Na3  1  0.57113494  0.61091029  0.12733493  1.0
  Mn  Mn4  1  -0.00000000  0.50000000  0.50000000  1.0
  Mn  Mn5  1  -0.00000000  0.00000000  0.50000000  1.0
  P  P6  1  0.83957994  0.92059557  0.80556388  1.0
  P  P7  1  0.83957994  0.57940443  0.80556388  1.0
  P  P8  1  0.16042006  0.42059557  0.19443612  1.0
  P  P9  1  0.16042006  0.07940443  0.19443612  1.0
  P  P10  1  0.52073266  0.36008204  0.48755964  1.0
  P  P11  1  0.52073266  0.13991796  0.48755964  1.0
  P  P12  1  0.47926734  0.86008204  0.51244036  1.0
  P  P13  1  0.47926734  0.63991796  0.51244036  1.0
  P  P14  1  0.96087965  0.25000000  0.99981898  1.0
  P  P15  1  0.03912035  0.75000000  0.00018102  1.0
  O  O16  1  0.97898864  0.98698189  0.71109032  1.0
  O  O17  1  0.97898864  0.51301811  0.71109032  1.0
  O  O18  1  0.02101136  0.48698189  0.28890968  1.0
  O  O19  1  0.02101136  0.01301811  0.28890968  1.0
  O  O20  1  0.95133004  0.34102417  0.11979909  1.0
  O  O21  1  0.95133004  0.15897583  0.11979909  1.0
  O  O22  1  0.04866996  0.84102417  0.88020091  1.0
  O  O23  1  0.04866996  0.65897583  0.88020091  1.0
  O  O24  1  0.80401351  0.38057422  0.49111179  1.0
  O  O25  1  0.80401351  0.11942578  0.49111179  1.0
  O  O26  1  0.19598649  0.88057422  0.50888821  1.0
  O  O27  1  0.19598649  0.61942578  0.50888821  1.0
  O  O28  1  0.70967240  0.96913995  0.91798476  1.0
  O  O29  1  0.70967240  0.53086005  0.91798476  1.0
  O  O30  1  0.29032760  0.46913995  0.08201524  1.0
  O  O31  1  0.29032760  0.03086005  0.08201524  1.0
  O  O32  1  0.63086571  0.85456155  0.68810328  1.0
  O  O33  1  0.63086571  0.64543845  0.68810328  1.0
  O  O34  1  0.36913429  0.35456155  0.31189672  1.0
  O  O35  1  0.36913429  0.14543845  0.31189672  1.0
  O  O36  1  0.37968946  0.42117945  0.58365957  1.0
  O  O37  1  0.37968946  0.07882055  0.58365957  1.0
  O  O38  1  0.62031054  0.92117945  0.41634043  1.0
  O  O39  1  0.62031054  0.57882055  0.41634043  1.0
  O  O40  1  0.70719907  0.25000000  0.88829578  1.0
  O  O41  1  0.29280093  0.75000000  0.11170422  1.0
  O  O42  1  0.50421647  0.25000000  0.54311111  1.0
  O  O43  1  0.49578353  0.75000000  0.45688889  1.0
  O  O44  1  0.21123798  0.25000000  0.94863072  1.0
  O  O45  1  0.78876202  0.75000000  0.05136928  1.0
