# generated using pymatgen
data_SmClF
_symmetry_space_group_name_H-M   'P 1'
_cell_length_a   4.09263877
_cell_length_b   4.09263877
_cell_length_c   7.10024224
_cell_angle_alpha   90.00000000
_cell_angle_beta   90.00000000
_cell_angle_gamma   90.00000000
_symmetry_Int_Tables_number   1
_chemical_formula_structural   SmClF
_chemical_formula_sum   'Sm2 Cl2 F2'
_cell_volume   118.92687123
_cell_formula_units_Z   2
loop_
 _symmetry_equiv_pos_site_id
 _symmetry_equiv_pos_as_xyz
  1  'x, y, z'
loop_
 _atom_site_type_symbol
 _atom_site_label
 _atom_site_symmetry_multiplicity
 _atom_site_fract_x
 _atom_site_fract_y
 _atom_site_fract_z
 _atom_site_occupancy
  Sm  Sm0  1  0.50000000  0.00000000  0.20979752  1.0
  Sm  Sm1  1  0.00000000  0.50000000  0.79020248  1.0
  Cl  Cl2  1  0.50000000  0.00000000  0.64428261  1.0
  Cl  Cl3  1  0.00000000  0.50000000  0.35571739  1.0
  F  F4  1  0.00000000  0.00000000  0.00000000  1.0
  F  F5  1  0.50000000  0.50000000  0.00000000  1.0
