# generated using pymatgen
data_MnAg2SnS4
_symmetry_space_group_name_H-M   'P 1'
_cell_length_a   7.95766861
_cell_length_b   7.17172527
_cell_length_c   6.72682702
_cell_angle_alpha   90.00000000
_cell_angle_beta   90.00000000
_cell_angle_gamma   90.00000000
_symmetry_Int_Tables_number   1
_chemical_formula_structural   MnAg2SnS4
_chemical_formula_sum   'Mn2 Ag4 Sn2 S8'
_cell_volume   383.90145163
_cell_formula_units_Z   2
loop_
 _symmetry_equiv_pos_site_id
 _symmetry_equiv_pos_as_xyz
  1  'x, y, z'
loop_
 _atom_site_type_symbol
 _atom_site_label
 _atom_site_symmetry_multiplicity
 _atom_site_fract_x
 _atom_site_fract_y
 _atom_site_fract_z
 _atom_site_occupancy
  Mn  Mn0  1  0.50000000  0.65875316  0.00085689  1.0
  Mn  Mn1  1  0.00000000  0.34124684  0.50085689  1.0
  Ag  Ag2  1  0.24844712  0.17190283  0.01614842  1.0
  Ag  Ag3  1  0.74844712  0.82809717  0.51614842  1.0
  Ag  Ag4  1  0.75155288  0.17190283  0.01614842  1.0
  Ag  Ag5  1  0.25155288  0.82809717  0.51614842  1.0
  Sn  Sn6  1  0.50000000  0.33869709  0.50373037  1.0
  Sn  Sn7  1  0.00000000  0.66130291  0.00373037  1.0
  S  S8  1  0.24703988  0.16954502  0.39475780  1.0
  S  S9  1  0.74703988  0.83045498  0.89475780  1.0
  S  S10  1  0.75296012  0.16954502  0.39475780  1.0
  S  S11  1  0.25296012  0.83045498  0.89475780  1.0
  S  S12  1  0.50000000  0.34970222  0.86797205  1.0
  S  S13  1  0.00000000  0.65029778  0.36797205  1.0
  S  S14  1  0.50000000  0.65076178  0.35812824  1.0
  S  S15  1  0.00000000  0.34923822  0.85812824  1.0
