# generated using pymatgen
data_CuSbPbS3
_symmetry_space_group_name_H-M   'P 1'
_cell_length_a   7.84350385
_cell_length_b   8.30266251
_cell_length_c   9.07663499
_cell_angle_alpha   90.00000000
_cell_angle_beta   90.00000000
_cell_angle_gamma   90.00000000
_symmetry_Int_Tables_number   1
_chemical_formula_structural   CuSbPbS3
_chemical_formula_sum   'Cu4 Sb4 Pb4 S12'
_cell_volume   591.08831017
_cell_formula_units_Z   4
loop_
 _symmetry_equiv_pos_site_id
 _symmetry_equiv_pos_as_xyz
  1  'x, y, z'
loop_
 _atom_site_type_symbol
 _atom_site_label
 _atom_site_symmetry_multiplicity
 _atom_site_fract_x
 _atom_site_fract_y
 _atom_site_fract_z
 _atom_site_occupancy
  Cu  Cu0  1  0.24055218  0.22255509  0.86218965  1.0
  Cu  Cu1  1  0.74055218  0.77744491  0.36218965  1.0
  Cu  Cu2  1  0.75944782  0.22255509  0.86218965  1.0
  Cu  Cu3  1  0.25944782  0.77744491  0.36218965  1.0
  Sb  Sb4  1  0.50000000  0.00864961  0.62148699  1.0
  Sb  Sb5  1  -0.00000000  0.99135039  0.12148699  1.0
  Sb  Sb6  1  0.50000000  0.42861162  0.22525884  1.0
  Sb  Sb7  1  -0.00000000  0.57138838  0.72525884  1.0
  Pb  Pb8  1  0.50000000  0.95180539  0.10039975  1.0
  Pb  Pb9  1  0.00000000  0.04819461  0.60039975  1.0
  Pb  Pb10  1  0.50000000  0.57187566  0.77658727  1.0
  Pb  Pb11  1  0.00000000  0.42812434  0.27658727  1.0
  S  S12  1  0.26458917  0.94620637  0.79683302  1.0
  S  S13  1  0.76458917  0.05379363  0.29683302  1.0
  S  S14  1  0.73541083  0.94620637  0.79683302  1.0
  S  S15  1  0.23541083  0.05379363  0.29683302  1.0
  S  S16  1  0.23638208  0.38699185  0.65265636  1.0
  S  S17  1  0.73638208  0.61300815  0.15265636  1.0
  S  S18  1  0.76361792  0.38699185  0.65265636  1.0
  S  S19  1  0.26361792  0.61300815  0.15265636  1.0
  S  S20  1  0.50000000  0.73988738  0.50286882  1.0
  S  S21  1  0.00000000  0.26011262  0.00286882  1.0
  S  S22  1  0.50000000  0.27310752  0.98824026  1.0
  S  S23  1  0.00000000  0.72689248  0.48824026  1.0
