# generated using pymatgen
data_KZn2P2HO8
_symmetry_space_group_name_H-M   'P 1'
_cell_length_a   9.59931663
_cell_length_b   8.95013701
_cell_length_c   5.27864290
_cell_angle_alpha   72.88788912
_cell_angle_beta   78.70357991
_cell_angle_gamma   75.59630077
_symmetry_Int_Tables_number   1
_chemical_formula_structural   KZn2P2HO8
_chemical_formula_sum   'K2 Zn4 P4 H2 O16'
_cell_volume   416.11087919
_cell_formula_units_Z   2
loop_
 _symmetry_equiv_pos_site_id
 _symmetry_equiv_pos_as_xyz
  1  'x, y, z'
loop_
 _atom_site_type_symbol
 _atom_site_label
 _atom_site_symmetry_multiplicity
 _atom_site_fract_x
 _atom_site_fract_y
 _atom_site_fract_z
 _atom_site_occupancy
  K  K0  1  -0.82203975  0.30486310  0.29026293  1.0
  K  K1  1  -0.17796025  0.69513690  -0.29026293  1.0
  Zn  Zn2  1  -0.60892295  0.88739226  -0.19912066  1.0
  Zn  Zn3  1  -0.39107705  0.11260774  0.19912066  1.0
  Zn  Zn4  1  -0.73492437  0.61790073  -0.39565454  1.0
  Zn  Zn5  1  -0.26507563  0.38209927  0.39565454  1.0
  P  P6  1  -0.55339985  0.24588006  0.66586100  1.0
  P  P7  1  -0.44660015  0.75411994  -0.66586100  1.0
  P  P8  1  -0.89501084  0.75233789  0.09442258  1.0
  P  P9  1  -0.10498916  0.24766211  -0.09442258  1.0
  H  H10  1  -0.10486184  0.92724786  0.03435859  1.0
  H  H11  1  -0.89513816  0.07275214  -0.03435859  1.0
  O  O12  1  -0.65275126  0.40731295  0.55420676  1.0
  O  O13  1  -0.34724874  0.59268705  -0.55420676  1.0
  O  O14  1  -0.81546102  0.89415960  -0.03413893  1.0
  O  O15  1  -0.18453898  0.10584040  0.03413893  1.0
  O  O16  1  -0.46648258  0.77339601  0.04194448  1.0
  O  O17  1  -0.53351742  0.22660399  -0.04194448  1.0
  O  O18  1  -0.05835880  0.81314345  0.02638448  1.0
  O  O19  1  -0.94164120  0.18685655  -0.02638448  1.0
  O  O20  1  -0.82880210  0.60918036  -0.02680940  1.0
  O  O21  1  -0.17119790  0.39081964  0.02680940  1.0
  O  O22  1  -0.37839565  0.88633057  -0.63212223  1.0
  O  O23  1  -0.62160435  0.11366943  0.63212223  1.0
  O  O24  1  -0.59948742  0.76723501  -0.47953334  1.0
  O  O25  1  -0.40051258  0.23276499  0.47953334  1.0
  O  O26  1  -0.90284269  0.70010132  -0.59823441  1.0
  O  O27  1  -0.09715731  0.29989868  0.59823441  1.0
