# generated using pymatgen
data_YH9C5(NO4)2
_symmetry_space_group_name_H-M   'P 1'
_cell_length_a   6.74970709
_cell_length_b   6.74970709
_cell_length_c   6.59428861
_cell_angle_alpha   73.72612312
_cell_angle_beta   106.27387688
_cell_angle_gamma   114.74464981
_symmetry_Int_Tables_number   1
_chemical_formula_structural   YH9C5(NO4)2
_chemical_formula_sum   'Y1 H9 C5 N2 O8'
_cell_volume   257.29506174
_cell_formula_units_Z   1
loop_
 _symmetry_equiv_pos_site_id
 _symmetry_equiv_pos_as_xyz
  1  'x, y, z'
loop_
 _atom_site_type_symbol
 _atom_site_label
 _atom_site_symmetry_multiplicity
 _atom_site_fract_x
 _atom_site_fract_y
 _atom_site_fract_z
 _atom_site_occupancy
  Y  Y0  1  0.94824983  -0.05175017  0.00000000  1.0
  H  H1  1  1.15586956  0.58644904  0.40610004  1.0
  H  H2  1  1.58644904  0.15586956  0.59389996  1.0
  H  H3  1  0.43959312  -0.32102259  0.53727469  1.0
  H  H4  1  0.67897741  -0.56040688  0.46272531  1.0
  H  H5  1  0.40893943  -0.22259674  0.11350131  1.0
  H  H6  1  0.77740326  -0.59106057  0.88649869  1.0
  H  H7  1  1.38814644  0.40695725  0.82575522  1.0
  H  H8  1  1.40695725  0.38814644  0.17424478  1.0
  H  H9  1  1.02671603  0.02671603  0.50000000  1.0
  C  C10  1  0.41827585  -0.10468185  0.95756775  1.0
  C  C11  1  0.89531815  -0.58172415  0.04243225  1.0
  C  C12  1  1.23801334  0.41110689  0.70557671  1.0
  C  C13  1  1.41110689  0.23801334  0.29442329  1.0
  C  C14  1  0.87565137  -0.12434863  0.50000000  1.0
  N  N15  1  1.27843335  0.57296105  0.53723649  1.0
  N  N16  1  1.57296105  0.27843335  0.46276351  1.0
  O  O17  1  0.79949580  -0.21111324  0.33264423  1.0
  O  O18  1  0.78888676  -0.20050420  0.66735577  1.0
  O  O19  1  0.58901995  -0.05180331  0.87709545  1.0
  O  O20  1  0.94819669  -0.41098005  0.12290455  1.0
  O  O21  1  1.04936262  0.27102110  0.73331629  1.0
  O  O22  1  1.27102110  0.04936262  0.26668371  1.0
  O  O23  1  0.26378050  -0.03342479  0.87279965  1.0
  O  O24  1  0.96657521  -0.73621950  0.12720035  1.0
