# generated using pymatgen
data_CsLu(WO4)2
_symmetry_space_group_name_H-M   'P 1'
_cell_length_a   6.04063207
_cell_length_b   6.04063207
_cell_length_c   8.41635123
_cell_angle_alpha   90.00000000
_cell_angle_beta   90.00000000
_cell_angle_gamma   120.00000000
_symmetry_Int_Tables_number   1
_chemical_formula_structural   CsLu(WO4)2
_chemical_formula_sum   'Cs1 Lu1 W2 O8'
_cell_volume   265.96179198
_cell_formula_units_Z   1
loop_
 _symmetry_equiv_pos_site_id
 _symmetry_equiv_pos_as_xyz
  1  'x, y, z'
loop_
 _atom_site_type_symbol
 _atom_site_label
 _atom_site_symmetry_multiplicity
 _atom_site_fract_x
 _atom_site_fract_y
 _atom_site_fract_z
 _atom_site_occupancy
  Cs  Cs0  1  0.00000000  -0.00000000  -0.00000000  1.0
  Lu  Lu1  1  -0.00000000  -0.00000000  0.50000000  1.0
  W  W2  1  0.33333333  0.66666667  0.27492675  1.0
  W  W3  1  0.66666667  0.33333333  0.72507325  1.0
  O  O4  1  0.66122966  0.83061483  0.34248164  1.0
  O  O5  1  0.83061483  0.66122966  0.65751836  1.0
  O  O6  1  0.83061483  0.16938517  0.65751836  1.0
  O  O7  1  0.16938517  0.83061483  0.34248164  1.0
  O  O8  1  0.16938517  0.33877034  0.34248164  1.0
  O  O9  1  0.33877034  0.16938517  0.65751836  1.0
  O  O10  1  0.33333333  0.66666667  0.06607046  1.0
  O  O11  1  0.66666667  0.33333333  0.93392954  1.0
