# generated using pymatgen
data_SrNb6O16
_symmetry_space_group_name_H-M   'P 1'
_cell_length_a   9.11809435
_cell_length_b   9.11809435
_cell_length_c   3.88453261
_cell_angle_alpha   90.00000000
_cell_angle_beta   90.00000000
_cell_angle_gamma   109.99193512
_symmetry_Int_Tables_number   1
_chemical_formula_structural   SrNb6O16
_chemical_formula_sum   'Sr1 Nb6 O16'
_cell_volume   303.49741565
_cell_formula_units_Z   1
loop_
 _symmetry_equiv_pos_site_id
 _symmetry_equiv_pos_as_xyz
  1  'x, y, z'
loop_
 _atom_site_type_symbol
 _atom_site_label
 _atom_site_symmetry_multiplicity
 _atom_site_fract_x
 _atom_site_fract_y
 _atom_site_fract_z
 _atom_site_occupancy
  Sr  Sr0  1  0.39844730  0.60155270  0.50000000  1.0
  Nb  Nb1  1  0.62812437  0.99761685  0.00000000  1.0
  Nb  Nb2  1  0.00238315  0.37187563  -0.00000000  1.0
  Nb  Nb3  1  -0.61956127  1.25690794  0.00000000  1.0
  Nb  Nb4  1  -0.25690794  1.61956127  -0.00000000  1.0
  Nb  Nb5  1  -0.00710233  0.00710233  0.00000000  1.0
  Nb  Nb6  1  0.20624542  0.79375458  0.00000000  1.0
  O  O7  1  -0.37335287  1.00459566  0.50000000  1.0
  O  O8  1  -0.00459566  1.37335287  0.50000000  1.0
  O  O9  1  -0.63319643  1.28999718  0.50000000  1.0
  O  O10  1  -0.28999718  1.63319643  0.50000000  1.0
  O  O11  1  -0.76512932  1.01357230  0.00000000  1.0
  O  O12  1  -0.01357230  1.76512932  -0.00000000  1.0
  O  O13  1  0.44238901  0.81421756  0.00000000  1.0
  O  O14  1  0.18578244  0.55761099  0.00000000  1.0
  O  O15  1  0.76100277  0.85425864  0.00000000  1.0
  O  O16  1  0.14574136  0.23899723  -0.00000000  1.0
  O  O17  1  -0.46568692  1.16703743  0.00000000  1.0
  O  O18  1  -0.16703743  1.46568692  -0.00000000  1.0
  O  O19  1  0.00257292  -0.00257292  0.50000000  1.0
  O  O20  1  0.22381534  0.77618466  0.50000000  1.0
  O  O21  1  -0.48748945  1.48748945  0.00000000  1.0
  O  O22  1  -0.14287501  1.14287501  0.00000000  1.0
