# generated using pymatgen
data_GdMoO4F
_symmetry_space_group_name_H-M   'P 1'
_cell_length_a   5.30818985
_cell_length_b   12.54163518
_cell_length_c   6.81685635
_cell_angle_alpha   90.00000000
_cell_angle_beta   112.65395565
_cell_angle_gamma   90.00000000
_symmetry_Int_Tables_number   1
_chemical_formula_structural   GdMoO4F
_chemical_formula_sum   'Gd4 Mo4 O16 F4'
_cell_volume   418.80792225
_cell_formula_units_Z   4
loop_
 _symmetry_equiv_pos_site_id
 _symmetry_equiv_pos_as_xyz
  1  'x, y, z'
loop_
 _atom_site_type_symbol
 _atom_site_label
 _atom_site_symmetry_multiplicity
 _atom_site_fract_x
 _atom_site_fract_y
 _atom_site_fract_z
 _atom_site_occupancy
  Gd  Gd0  1  0.63901003  0.05263348  0.29994358  1.0
  Gd  Gd1  1  0.63901003  0.44736652  0.79994358  1.0
  Gd  Gd2  1  0.36098997  0.55263348  0.20005642  1.0
  Gd  Gd3  1  0.36098997  0.94736652  0.70005642  1.0
  Mo  Mo4  1  0.92361072  0.35743260  0.37109574  1.0
  Mo  Mo5  1  0.92361072  0.14256740  0.87109574  1.0
  Mo  Mo6  1  0.07638928  0.85743260  0.12890426  1.0
  Mo  Mo7  1  0.07638928  0.64256740  0.62890426  1.0
  O  O8  1  0.00781205  0.93037210  0.33365788  1.0
  O  O9  1  0.00781205  0.56962790  0.83365788  1.0
  O  O10  1  0.99218795  0.43037210  0.16634212  1.0
  O  O11  1  0.99218795  0.06962790  0.66634212  1.0
  O  O12  1  0.80835852  0.22613265  0.29660620  1.0
  O  O13  1  0.80835852  0.27386735  0.79660620  1.0
  O  O14  1  0.19164148  0.72613265  0.20339380  1.0
  O  O15  1  0.19164148  0.77386735  0.70339380  1.0
  O  O16  1  0.76585832  0.65217164  0.41215790  1.0
  O  O17  1  0.76585832  0.84782836  0.91215790  1.0
  O  O18  1  0.23414168  0.15217164  0.08784210  1.0
  O  O19  1  0.23414168  0.34782836  0.58784210  1.0
  O  O20  1  0.69452108  0.43303676  0.45953861  1.0
  O  O21  1  0.69452108  0.06696324  0.95953861  1.0
  O  O22  1  0.30547892  0.93303676  0.04046139  1.0
  O  O23  1  0.30547892  0.56696324  0.54046139  1.0
  F  F24  1  0.44690997  0.40209863  0.03328539  1.0
  F  F25  1  0.44690997  0.09790137  0.53328539  1.0
  F  F26  1  0.55309003  0.90209863  0.46671461  1.0
  F  F27  1  0.55309003  0.59790137  0.96671461  1.0
