# generated using pymatgen
data_CsNaSe
_symmetry_space_group_name_H-M   'P 1'
_cell_length_a   5.01775395
_cell_length_b   5.01775395
_cell_length_c   8.24035325
_cell_angle_alpha   90.00000000
_cell_angle_beta   90.00000000
_cell_angle_gamma   90.00000000
_symmetry_Int_Tables_number   1
_chemical_formula_structural   CsNaSe
_chemical_formula_sum   'Cs2 Na2 Se2'
_cell_volume   207.47441695
_cell_formula_units_Z   2
loop_
 _symmetry_equiv_pos_site_id
 _symmetry_equiv_pos_as_xyz
  1  'x, y, z'
loop_
 _atom_site_type_symbol
 _atom_site_label
 _atom_site_symmetry_multiplicity
 _atom_site_fract_x
 _atom_site_fract_y
 _atom_site_fract_z
 _atom_site_occupancy
  Cs  Cs0  1  0.50000000  0.00000000  0.65290672  1.0
  Cs  Cs1  1  0.00000000  0.50000000  0.34709328  1.0
  Na  Na2  1  0.00000000  0.00000000  0.00000000  1.0
  Na  Na3  1  0.50000000  0.50000000  0.00000000  1.0
  Se  Se4  1  0.50000000  0.00000000  0.19734030  1.0
  Se  Se5  1  0.00000000  0.50000000  0.80265970  1.0
