# generated using pymatgen
data_KAs(OF2)2
_symmetry_space_group_name_H-M   'P 1'
_cell_length_a   8.14512591
_cell_length_b   8.14512591
_cell_length_c   6.58341964
_cell_angle_alpha   86.47935467
_cell_angle_beta   93.52064533
_cell_angle_gamma   35.80506937
_symmetry_Int_Tables_number   1
_chemical_formula_structural   KAs(OF2)2
_chemical_formula_sum   'K2 As2 O4 F8'
_cell_volume   250.36955791
_cell_formula_units_Z   2
loop_
 _symmetry_equiv_pos_site_id
 _symmetry_equiv_pos_as_xyz
  1  'x, y, z'
loop_
 _atom_site_type_symbol
 _atom_site_label
 _atom_site_symmetry_multiplicity
 _atom_site_fract_x
 _atom_site_fract_y
 _atom_site_fract_z
 _atom_site_occupancy
  K  K0  1  0.59608903  0.59608903  0.25000000  1.0
  K  K1  1  1.40391097  0.40391097  0.75000000  1.0
  As  As2  1  0.85918631  0.85918631  0.25000000  1.0
  As  As3  1  1.14081369  0.14081369  0.75000000  1.0
  O  O4  1  1.53670810  0.00006000  0.16825916  1.0
  O  O5  1  0.99994000  0.46329190  0.66825916  1.0
  O  O6  1  1.00006000  0.53670810  0.33174084  1.0
  O  O7  1  1.46329190  -0.00006000  0.83174084  1.0
  F  F8  1  1.75252904  -0.01950341  0.49445116  1.0
  F  F9  1  1.01950341  0.24747096  0.99445116  1.0
  F  F10  1  0.98049659  0.75252904  0.00554884  1.0
  F  F11  1  1.24747096  0.01950341  0.50554884  1.0
  F  F12  1  1.69277345  0.19129981  0.14893863  1.0
  F  F13  1  0.80870019  0.30722655  0.64893863  1.0
  F  F14  1  1.19129981  0.69277345  0.35106137  1.0
  F  F15  1  1.30722655  -0.19129981  0.85106137  1.0
