# generated using pymatgen
data_La2V2As2H3
_symmetry_space_group_name_H-M   'P 1'
_cell_length_a   9.43108468
_cell_length_b   9.43108468
_cell_length_c   9.43108468
_cell_angle_alpha   155.95955903
_cell_angle_beta   155.95955903
_cell_angle_gamma   34.25747792
_symmetry_Int_Tables_number   1
_chemical_formula_structural   La2V2As2H3
_chemical_formula_sum   'La2 V2 As2 H3'
_cell_volume   139.07222927
_cell_formula_units_Z   1
loop_
 _symmetry_equiv_pos_site_id
 _symmetry_equiv_pos_as_xyz
  1  'x, y, z'
loop_
 _atom_site_type_symbol
 _atom_site_label
 _atom_site_symmetry_multiplicity
 _atom_site_fract_x
 _atom_site_fract_y
 _atom_site_fract_z
 _atom_site_occupancy
  La  La0  1  0.83409275  0.83409275  1.00000000  1.0
  La  La1  1  0.16590725  0.16590725  -0.00000000  1.0
  V  V2  1  0.50000000  0.00000000  0.50000000  1.0
  V  V3  1  0.00000000  0.50000000  0.50000000  1.0
  As  As4  1  0.59492587  0.59492587  1.00000000  1.0
  As  As5  1  0.40507413  0.40507413  0.00000000  1.0
  H  H6  1  0.25000000  0.75000000  0.50000000  1.0
  H  H7  1  0.75000000  0.25000000  0.50000000  1.0
  H  H8  1  0.00000000  0.00000000  0.00000000  1.0
