# generated using pymatgen
data_CuSe3Br
_symmetry_space_group_name_H-M   'P 1'
_cell_length_a   14.53424978
_cell_length_b   4.97815538
_cell_length_c   7.60390605
_cell_angle_alpha   90.00000000
_cell_angle_beta   90.00000000
_cell_angle_gamma   90.00000000
_symmetry_Int_Tables_number   1
_chemical_formula_structural   CuSe3Br
_chemical_formula_sum   'Cu4 Se12 Br4'
_cell_volume   550.17114510
_cell_formula_units_Z   4
loop_
 _symmetry_equiv_pos_site_id
 _symmetry_equiv_pos_as_xyz
  1  'x, y, z'
loop_
 _atom_site_type_symbol
 _atom_site_label
 _atom_site_symmetry_multiplicity
 _atom_site_fract_x
 _atom_site_fract_y
 _atom_site_fract_z
 _atom_site_occupancy
  Cu  Cu0  1  0.25000000  0.71044687  0.75000000  1.0
  Cu  Cu1  1  0.25000000  0.28955313  0.25000000  1.0
  Cu  Cu2  1  0.75000000  0.71044687  0.75000000  1.0
  Cu  Cu3  1  0.75000000  0.28955313  0.25000000  1.0
  Se  Se4  1  0.37398390  0.43337222  0.84375693  1.0
  Se  Se5  1  0.37398390  0.56662778  0.15624307  1.0
  Se  Se6  1  0.87398390  0.43337222  0.65624307  1.0
  Se  Se7  1  0.87398390  0.56662778  0.34375693  1.0
  Se  Se8  1  0.62601610  0.43337222  0.84375693  1.0
  Se  Se9  1  0.62601610  0.56662778  0.15624307  1.0
  Se  Se10  1  0.12601610  0.43337222  0.65624307  1.0
  Se  Se11  1  0.12601610  0.56662778  0.34375693  1.0
  Se  Se12  1  0.50000000  0.69446972  0.73825404  1.0
  Se  Se13  1  0.50000000  0.30553028  0.26174596  1.0
  Se  Se14  1  0.00000000  0.69446972  0.76174596  1.0
  Se  Se15  1  0.00000000  0.30553028  0.23825404  1.0
  Br  Br16  1  0.30833559  0.00000000  0.50000000  1.0
  Br  Br17  1  0.80833559  0.00000000  0.00000000  1.0
  Br  Br18  1  0.69166441  0.00000000  0.50000000  1.0
  Br  Br19  1  0.19166441  0.00000000  0.00000000  1.0
