# generated using pymatgen
data_Mg7As6(HO6)4
_symmetry_space_group_name_H-M   'P 1'
_cell_length_a   8.15014190
_cell_length_b   6.76531837
_cell_length_c   10.14099301
_cell_angle_alpha   68.53515584
_cell_angle_beta   67.74839006
_cell_angle_gamma   78.81313477
_symmetry_Int_Tables_number   1
_chemical_formula_structural   Mg7As6(HO6)4
_chemical_formula_sum   'Mg7 As6 H4 O24'
_cell_volume   480.62415646
_cell_formula_units_Z   1
loop_
 _symmetry_equiv_pos_site_id
 _symmetry_equiv_pos_as_xyz
  1  'x, y, z'
loop_
 _atom_site_type_symbol
 _atom_site_label
 _atom_site_symmetry_multiplicity
 _atom_site_fract_x
 _atom_site_fract_y
 _atom_site_fract_z
 _atom_site_occupancy
  Mg  Mg0  1  -0.78933703  -0.03888534  0.98510188  1.0
  Mg  Mg1  1  -0.21066297  0.03888534  0.01489812  1.0
  Mg  Mg2  1  -0.69441630  0.51073257  0.21290751  1.0
  Mg  Mg3  1  -0.30558370  -0.51073257  0.78709249  1.0
  Mg  Mg4  1  -0.95895223  -0.22815206  0.60990003  1.0
  Mg  Mg5  1  -0.04104777  0.22815206  0.39009997  1.0
  Mg  Mg6  1  -0.50000000  -0.50000000  0.50000000  1.0
  As  As7  1  -0.92014246  0.23765158  0.67181778  1.0
  As  As8  1  -0.07985754  -0.23765158  0.32818222  1.0
  As  As9  1  -0.34471165  0.05187312  0.71909317  1.0
  As  As10  1  -0.65528835  -0.05187312  0.28090683  1.0
  As  As11  1  -0.73127029  -0.46140432  0.87113536  1.0
  As  As12  1  -0.26872971  0.46140432  0.12886464  1.0
  H  H13  1  -0.62448350  0.13103949  0.69611493  1.0
  H  H14  1  -0.37551650  -0.13103949  0.30388507  1.0
  H  H15  1  -0.08312480  -0.29475154  0.93202817  1.0
  H  H16  1  -0.91687520  0.29475154  0.06797183  1.0
  O  O17  1  -0.31433084  0.15502851  0.84042068  1.0
  O  O18  1  -0.68566916  -0.15502851  0.15957932  1.0
  O  O19  1  -0.95784415  0.08393060  0.85798412  1.0
  O  O20  1  -0.04215585  -0.08393060  0.14201588  1.0
  O  O21  1  -0.69662857  0.28969021  0.59250899  1.0
  O  O22  1  -0.30337143  -0.28969021  0.40749101  1.0
  O  O23  1  -0.95264112  0.52336379  0.34107070  1.0
  O  O24  1  -0.04735888  -0.52336379  0.65892930  1.0
  O  O25  1  -0.57707526  0.02076049  0.78259750  1.0
  O  O26  1  -0.42292474  -0.02076049  0.21740250  1.0
  O  O27  1  -0.30775076  0.23987291  0.54090046  1.0
  O  O28  1  -0.69224924  -0.23987291  0.45909954  1.0
  O  O29  1  -0.97307547  0.09564861  0.58376877  1.0
  O  O30  1  -0.02692453  -0.09564861  0.41623123  1.0
  O  O31  1  -0.70949077  -0.36289712  0.99825926  1.0
  O  O32  1  -0.29050923  0.36289712  0.00174074  1.0
  O  O33  1  -0.24584306  -0.19935442  0.72882300  1.0
  O  O34  1  -0.75415694  0.19935442  0.27117700  1.0
  O  O35  1  -0.89993850  -0.32957209  0.80509429  1.0
  O  O36  1  -0.10006150  0.32957209  0.19490571  1.0
  O  O37  1  -0.53201238  -0.47988497  0.73177885  1.0
  O  O38  1  -0.46798762  0.47988497  0.26822115  1.0
  O  O39  1  -0.79994728  -0.72479547  0.98553197  1.0
  O  O40  1  -0.20005272  0.72479547  0.01446803  1.0
