# generated using pymatgen
data_Y5Sb3F
_symmetry_space_group_name_H-M   'P 1'
_cell_length_a   8.97003527
_cell_length_b   8.97003527
_cell_length_c   6.27832218
_cell_angle_alpha   90.00000000
_cell_angle_beta   90.00000000
_cell_angle_gamma   120.00000000
_symmetry_Int_Tables_number   1
_chemical_formula_structural   Y5Sb3F
_chemical_formula_sum   'Y10 Sb6 F2'
_cell_volume   437.48435944
_cell_formula_units_Z   2
loop_
 _symmetry_equiv_pos_site_id
 _symmetry_equiv_pos_as_xyz
  1  'x, y, z'
loop_
 _atom_site_type_symbol
 _atom_site_label
 _atom_site_symmetry_multiplicity
 _atom_site_fract_x
 _atom_site_fract_y
 _atom_site_fract_z
 _atom_site_occupancy
  Y  Y0  1  0.74281389  0.74281389  0.25000000  1.0
  Y  Y1  1  0.74281389  0.00000000  0.75000000  1.0
  Y  Y2  1  0.00000000  0.74281389  0.75000000  1.0
  Y  Y3  1  0.00000000  0.25718611  0.25000000  1.0
  Y  Y4  1  0.25718611  0.25718611  0.75000000  1.0
  Y  Y5  1  0.25718611  0.00000000  0.25000000  1.0
  Y  Y6  1  0.33333333  0.66666667  0.50000000  1.0
  Y  Y7  1  0.33333333  0.66666667  0.00000000  1.0
  Y  Y8  1  0.66666667  0.33333333  0.50000000  1.0
  Y  Y9  1  0.66666667  0.33333333  0.00000000  1.0
  Sb  Sb10  1  0.38719444  0.38719444  0.25000000  1.0
  Sb  Sb11  1  0.38719444  0.00000000  0.75000000  1.0
  Sb  Sb12  1  0.00000000  0.38719444  0.75000000  1.0
  Sb  Sb13  1  0.00000000  0.61280556  0.25000000  1.0
  Sb  Sb14  1  0.61280556  0.61280556  0.75000000  1.0
  Sb  Sb15  1  0.61280556  0.00000000  0.25000000  1.0
  F  F16  1  0.00000000  0.00000000  0.50000000  1.0
  F  F17  1  0.00000000  0.00000000  0.00000000  1.0
