# generated using pymatgen
data_Ca6FeN5
_symmetry_space_group_name_H-M   'P 1'
_cell_length_a   6.23882410
_cell_length_b   6.23882410
_cell_length_c   12.24561178
_cell_angle_alpha   90.00000000
_cell_angle_beta   90.00000000
_cell_angle_gamma   120.00000000
_symmetry_Int_Tables_number   1
_chemical_formula_structural   Ca6FeN5
_chemical_formula_sum   'Ca12 Fe2 N10'
_cell_volume   412.77805537
_cell_formula_units_Z   2
loop_
 _symmetry_equiv_pos_site_id
 _symmetry_equiv_pos_as_xyz
  1  'x, y, z'
loop_
 _atom_site_type_symbol
 _atom_site_label
 _atom_site_symmetry_multiplicity
 _atom_site_fract_x
 _atom_site_fract_y
 _atom_site_fract_z
 _atom_site_occupancy
  Fe  Fe0  1  0.00000000  0.00000000  0.25000000  1.0
  Fe  Fe1  1  0.00000000  0.00000000  0.75000000  1.0
  Ca  Ca2  1  0.39736718  0.39736718  0.37982197  1.0
  Ca  Ca3  1  0.39736718  0.39736718  0.12017803  1.0
  Ca  Ca4  1  0.39736718  0.00000000  0.87982197  1.0
  Ca  Ca5  1  0.39736718  0.00000000  0.62017803  1.0
  Ca  Ca6  1  0.00000000  0.39736718  0.87982197  1.0
  Ca  Ca7  1  0.00000000  0.39736718  0.62017803  1.0
  Ca  Ca8  1  -0.00000000  0.60263282  0.37982197  1.0
  Ca  Ca9  1  -0.00000000  0.60263282  0.12017803  1.0
  Ca  Ca10  1  0.60263282  0.60263282  0.87982197  1.0
  Ca  Ca11  1  0.60263282  0.60263282  0.62017803  1.0
  Ca  Ca12  1  0.60263282  0.00000000  0.37982197  1.0
  Ca  Ca13  1  0.60263282  0.00000000  0.12017803  1.0
  N  N14  1  0.33333333  0.66666667  0.50000000  1.0
  N  N15  1  0.33333333  0.66666667  0.00000000  1.0
  N  N16  1  0.66666667  0.33333333  0.50000000  1.0
  N  N17  1  0.66666667  0.33333333  0.00000000  1.0
  N  N18  1  0.71245284  0.71245284  0.25000000  1.0
  N  N19  1  0.71245284  0.00000000  0.75000000  1.0
  N  N20  1  0.00000000  0.71245284  0.75000000  1.0
  N  N21  1  -0.00000000  0.28754716  0.25000000  1.0
  N  N22  1  0.28754716  0.28754716  0.75000000  1.0
  N  N23  1  0.28754716  0.00000000  0.25000000  1.0
