# generated using pymatgen
data_K2H2C2S2N2O
_symmetry_space_group_name_H-M   'P 1'
_cell_length_a   10.63061989
_cell_length_b   8.10436329
_cell_length_c   9.77875470
_cell_angle_alpha   90.00000000
_cell_angle_beta   90.00000000
_cell_angle_gamma   90.00000000
_symmetry_Int_Tables_number   1
_chemical_formula_structural   K2H2C2S2N2O
_chemical_formula_sum   'K8 H8 C8 S8 N8 O4'
_cell_volume   842.48279860
_cell_formula_units_Z   4
loop_
 _symmetry_equiv_pos_site_id
 _symmetry_equiv_pos_as_xyz
  1  'x, y, z'
loop_
 _atom_site_type_symbol
 _atom_site_label
 _atom_site_symmetry_multiplicity
 _atom_site_fract_x
 _atom_site_fract_y
 _atom_site_fract_z
 _atom_site_occupancy
  K  K0  1  0.17280106  0.99750315  0.23147479  1.0
  K  K1  1  0.17280106  0.50249685  0.23147479  1.0
  K  K2  1  0.67280106  0.99750315  0.26852521  1.0
  K  K3  1  0.67280106  0.50249685  0.26852521  1.0
  K  K4  1  0.82719894  0.49750315  0.76852521  1.0
  K  K5  1  0.82719894  0.00249685  0.76852521  1.0
  K  K6  1  0.32719894  0.49750315  0.73147479  1.0
  K  K7  1  0.32719894  0.00249685  0.73147479  1.0
  H  H8  1  0.04623568  0.75000000  0.81884104  1.0
  H  H9  1  0.54623568  0.75000000  0.68115896  1.0
  H  H10  1  0.95376432  0.25000000  0.18115896  1.0
  H  H11  1  0.45376432  0.25000000  0.31884104  1.0
  H  H12  1  0.00374700  0.75000000  0.97408243  1.0
  H  H13  1  0.50374700  0.75000000  0.52591757  1.0
  H  H14  1  0.99625300  0.25000000  0.02591757  1.0
  H  H15  1  0.49625300  0.25000000  0.47408243  1.0
  C  C16  1  0.43787897  0.75000000  0.11919036  1.0
  C  C17  1  0.93787897  0.75000000  0.38080964  1.0
  C  C18  1  0.56212103  0.25000000  0.88080964  1.0
  C  C19  1  0.06212103  0.25000000  0.61919036  1.0
  C  C20  1  0.09379601  0.75000000  0.54931564  1.0
  C  C21  1  0.59379601  0.75000000  0.95068436  1.0
  C  C22  1  0.90620399  0.25000000  0.45068436  1.0
  C  C23  1  0.40620399  0.25000000  0.04931564  1.0
  S  S24  1  0.41216002  0.75000000  0.29349092  1.0
  S  S25  1  0.91216002  0.75000000  0.20650908  1.0
  S  S26  1  0.58783998  0.25000000  0.70650908  1.0
  S  S27  1  0.08783998  0.25000000  0.79349092  1.0
  S  S28  1  0.31311334  0.75000000  0.00546138  1.0
  S  S29  1  0.81311334  0.75000000  0.49453862  1.0
  S  S30  1  0.68688666  0.25000000  0.99453862  1.0
  S  S31  1  0.18688666  0.25000000  0.50546138  1.0
  N  N32  1  0.13986012  0.75000000  0.65976776  1.0
  N  N33  1  0.63986012  0.75000000  0.84023224  1.0
  N  N34  1  0.86013988  0.25000000  0.34023224  1.0
  N  N35  1  0.36013988  0.25000000  0.15976776  1.0
  N  N36  1  0.05988099  0.75000000  0.42211058  1.0
  N  N37  1  0.55988099  0.75000000  0.07788942  1.0
  N  N38  1  0.94011901  0.25000000  0.57788942  1.0
  N  N39  1  0.44011901  0.25000000  0.92211058  1.0
  O  O40  1  0.47215263  0.75000000  0.61981407  1.0
  O  O41  1  0.97215263  0.75000000  0.88018593  1.0
  O  O42  1  0.52784737  0.25000000  0.38018593  1.0
  O  O43  1  0.02784737  0.25000000  0.11981407  1.0
