# generated using pymatgen
data_CaAl6H12(SO7)4
_symmetry_space_group_name_H-M   'P 1'
_cell_length_a   12.04979097
_cell_length_b   12.04979097
_cell_length_c   12.04979097
_cell_angle_alpha   34.04061277
_cell_angle_beta   34.04061277
_cell_angle_gamma   34.04061277
_symmetry_Int_Tables_number   1
_chemical_formula_structural   CaAl6H12(SO7)4
_chemical_formula_sum   'Ca1 Al6 H12 S4 O28'
_cell_volume   488.72470884
_cell_formula_units_Z   1
loop_
 _symmetry_equiv_pos_site_id
 _symmetry_equiv_pos_as_xyz
  1  'x, y, z'
loop_
 _atom_site_type_symbol
 _atom_site_label
 _atom_site_symmetry_multiplicity
 _atom_site_fract_x
 _atom_site_fract_y
 _atom_site_fract_z
 _atom_site_occupancy
  Ca  Ca0  1  0.50000000  0.50000000  -0.50000000  1.0
  Al  Al1  1  0.75412687  0.25062787  -0.74937213  1.0
  Al  Al2  1  0.25062787  0.25062787  -0.24587313  1.0
  Al  Al3  1  0.25062787  0.75412687  -0.74937213  1.0
  Al  Al4  1  0.24587313  0.74937213  -0.25062787  1.0
  Al  Al5  1  0.74937213  -0.25062787  0.24587313  1.0
  Al  Al6  1  0.74937213  0.24587313  -0.25062787  1.0
  H  H7  1  0.42267660  -0.13188773  -0.13188773  1.0
  H  H8  1  0.86811227  -0.13188773  -0.57732340  1.0
  H  H9  1  0.86811227  -0.57732340  -0.13188773  1.0
  H  H10  1  0.57732340  0.13188773  0.13188773  1.0
  H  H11  1  1.13188773  0.13188773  -0.42267660  1.0
  H  H12  1  1.13188773  -0.42267660  0.13188773  1.0
  H  H13  1  0.95378875  0.35717682  -0.64282318  1.0
  H  H14  1  0.35717682  0.35717682  -0.04621125  1.0
  H  H15  1  0.35717682  0.95378875  -0.64282318  1.0
  H  H16  1  1.04621125  -0.35717682  -0.35717682  1.0
  H  H17  1  0.64282318  -0.35717682  0.04621125  1.0
  H  H18  1  0.64282318  0.04621125  -0.35717682  1.0
  S  S19  1  0.15606329  0.15606329  0.15606329  1.0
  S  S20  1  0.84393671  -0.15606329  -0.15606329  1.0
  S  S21  1  0.64943782  0.64943782  -0.35056218  1.0
  S  S22  1  0.35056218  0.35056218  -0.64943782  1.0
  O  O23  1  0.19928566  0.19928566  0.19928566  1.0
  O  O24  1  0.80071434  -0.19928566  -0.19928566  1.0
  O  O25  1  0.69255249  -0.30744751  -0.30744751  1.0
  O  O26  1  0.30744751  0.30744751  0.30744751  1.0
  O  O27  1  0.40311296  0.75013541  -0.24986459  1.0
  O  O28  1  0.75013541  0.75013541  -0.59688704  1.0
  O  O29  1  0.75013541  0.40311296  -0.24986459  1.0
  O  O30  1  0.59688704  0.24986459  -0.75013541  1.0
  O  O31  1  0.24986459  0.24986459  -0.40311296  1.0
  O  O32  1  0.24986459  0.59688704  -0.75013541  1.0
  O  O33  1  0.91010746  0.25666832  -0.74333168  1.0
  O  O34  1  0.25666832  0.25666832  -0.08989254  1.0
  O  O35  1  0.25666832  0.91010746  -0.74333168  1.0
  O  O36  1  1.08989254  -0.25666832  -0.25666832  1.0
  O  O37  1  0.74333168  -0.25666832  0.08989254  1.0
  O  O38  1  0.74333168  0.08989254  -0.25666832  1.0
  O  O39  1  0.33452814  -0.05622366  -0.05622366  1.0
  O  O40  1  0.94377634  -0.05622366  -0.66547186  1.0
  O  O41  1  0.94377634  -0.66547186  -0.05622366  1.0
  O  O42  1  0.66547186  0.05622366  0.05622366  1.0
  O  O43  1  1.05622366  0.05622366  -0.33452814  1.0
  O  O44  1  1.05622366  -0.33452814  0.05622366  1.0
  O  O45  1  0.80615676  0.44242014  -0.55757986  1.0
  O  O46  1  0.44242014  0.44242014  -0.19384324  1.0
  O  O47  1  0.44242014  0.80615676  -0.55757986  1.0
  O  O48  1  0.19384324  0.55757986  -0.44242014  1.0
  O  O49  1  0.55757986  0.55757986  -0.80615676  1.0
  O  O50  1  0.55757986  0.19384324  -0.44242014  1.0
