# generated using pymatgen
data_VH4C4O6F
_symmetry_space_group_name_H-M   'P 1'
_cell_length_a   3.86578766
_cell_length_b   11.55699573
_cell_length_c   8.70861179
_cell_angle_alpha   90.00000000
_cell_angle_beta   113.73951492
_cell_angle_gamma   90.00000000
_symmetry_Int_Tables_number   1
_chemical_formula_structural   VH4C4O6F
_chemical_formula_sum   'V2 H8 C8 O12 F2'
_cell_volume   356.15229692
_cell_formula_units_Z   2
loop_
 _symmetry_equiv_pos_site_id
 _symmetry_equiv_pos_as_xyz
  1  'x, y, z'
loop_
 _atom_site_type_symbol
 _atom_site_label
 _atom_site_symmetry_multiplicity
 _atom_site_fract_x
 _atom_site_fract_y
 _atom_site_fract_z
 _atom_site_occupancy
  V  V0  1  0.50000000  0.50000000  0.50000000  1.0
  V  V1  1  0.50000000  0.00000000  0.00000000  1.0
  H  H2  1  0.60769773  0.27285104  0.47490804  1.0
  H  H3  1  0.60769773  0.22714896  0.97490804  1.0
  H  H4  1  0.39230227  0.77285104  0.02509196  1.0
  H  H5  1  0.39230227  0.72714896  0.52509196  1.0
  H  H6  1  0.23798601  0.31465493  0.30043152  1.0
  H  H7  1  0.23798601  0.18534507  0.80043152  1.0
  H  H8  1  0.76201399  0.81465493  0.19956848  1.0
  H  H9  1  0.76201399  0.68534507  0.69956848  1.0
  C  C10  1  0.85813272  0.02884013  0.37793063  1.0
  C  C11  1  0.85813272  0.47115987  0.87793063  1.0
  C  C12  1  0.14186728  0.52884013  0.12206937  1.0
  C  C13  1  0.14186728  0.97115987  0.62206937  1.0
  C  C14  1  0.96121474  0.41909499  0.04456576  1.0
  C  C15  1  0.96121474  0.08090501  0.54456576  1.0
  C  C16  1  0.03878526  0.91909499  0.45543424  1.0
  C  C17  1  0.03878526  0.58090501  0.95543424  1.0
  O  O18  1  0.91476823  0.32218671  0.09905910  1.0
  O  O19  1  0.91476823  0.17781329  0.59905910  1.0
  O  O20  1  0.08523177  0.82218671  0.40094090  1.0
  O  O21  1  0.08523177  0.67781329  0.90094090  1.0
  O  O22  1  0.68730354  0.06820184  0.23129841  1.0
  O  O23  1  0.68730354  0.43179816  0.73129841  1.0
  O  O24  1  0.31269646  0.56820184  0.26870159  1.0
  O  O25  1  0.31269646  0.93179816  0.76870159  1.0
  O  O26  1  0.42721745  0.33680357  0.41457750  1.0
  O  O27  1  0.42721745  0.16319643  0.91457750  1.0
  O  O28  1  0.57278255  0.83680357  0.08542250  1.0
  O  O29  1  0.57278255  0.66319643  0.58542250  1.0
  F  F30  1  0.00000000  0.50000000  0.50000000  1.0
  F  F31  1  0.00000000  0.00000000  0.00000000  1.0
