# generated using pymatgen
data_K2Be2Zn2Si3O11
_symmetry_space_group_name_H-M   'P 1'
_cell_length_a   9.64400801
_cell_length_b   9.64400801
_cell_length_c   9.64400801
_cell_angle_alpha   119.34216880
_cell_angle_beta   138.57178449
_cell_angle_gamma   76.12470508
_symmetry_Int_Tables_number   1
_chemical_formula_structural   K2Be2Zn2Si3O11
_chemical_formula_sum   'K4 Be4 Zn4 Si6 O22'
_cell_volume   504.54088304
_cell_formula_units_Z   2
loop_
 _symmetry_equiv_pos_site_id
 _symmetry_equiv_pos_as_xyz
  1  'x, y, z'
loop_
 _atom_site_type_symbol
 _atom_site_label
 _atom_site_symmetry_multiplicity
 _atom_site_fract_x
 _atom_site_fract_y
 _atom_site_fract_z
 _atom_site_occupancy
  K  K0  1  1.55183056  1.30183056  1.25000000  1.0
  K  K1  1  1.44816944  0.69816944  0.75000000  1.0
  K  K2  1  1.13796843  0.88796843  0.25000000  1.0
  K  K3  1  0.86203157  1.11203157  0.75000000  1.0
  Be  Be4  1  1.17503093  1.00000000  0.67503093  1.0
  Be  Be5  1  1.17503093  1.50000000  1.17503093  1.0
  Be  Be6  1  0.82496907  1.00000000  0.32496907  1.0
  Be  Be7  1  0.82496907  1.50000000  0.82496907  1.0
  Zn  Zn8  1  0.00000000  0.65075763  0.65075763  1.0
  Zn  Zn9  1  0.50000000  0.65075763  1.15075763  1.0
  Zn  Zn10  1  0.50000000  1.34924237  0.84924237  1.0
  Zn  Zn11  1  1.00000000  1.34924237  1.34924237  1.0
  Si  Si12  1  1.36713444  1.27630481  1.40917037  1.0
  Si  Si13  1  0.63286556  1.04203593  0.90917037  1.0
  Si  Si14  1  1.63286556  1.72369519  1.59082963  1.0
  Si  Si15  1  0.36713444  0.95796407  1.09082963  1.0
  Si  Si16  1  0.90228549  0.65228549  0.25000000  1.0
  Si  Si17  1  1.09771451  1.34771451  0.75000000  1.0
  O  O18  1  1.62175240  1.35508330  1.63283519  1.0
  O  O19  1  0.77775189  1.01108278  1.13283519  1.0
  O  O20  1  1.77775189  1.64491670  1.76666911  1.0
  O  O21  1  0.62175240  0.98891722  1.26666911  1.0
  O  O22  1  1.22224811  1.35508330  1.23333089  1.0
  O  O23  1  0.37824760  1.01108278  0.73333089  1.0
  O  O24  1  1.37824760  1.64491670  1.36716481  1.0
  O  O25  1  0.22224811  0.98891722  0.86716481  1.0
  O  O26  1  1.03657537  0.58921229  0.44736308  1.0
  O  O27  1  1.35815080  1.41078771  0.94736308  1.0
  O  O28  1  0.64184920  0.58921229  0.05263692  1.0
  O  O29  1  0.96342463  1.41078771  0.55263692  1.0
  O  O30  1  1.72233856  1.71318351  1.49084495  1.0
  O  O31  1  0.27766144  0.76850640  0.99084495  1.0
  O  O32  1  1.27766144  1.28681649  1.50915505  1.0
  O  O33  1  0.72233856  1.23149360  1.00915505  1.0
  O  O34  1  0.96359660  0.85258870  0.38899210  1.0
  O  O35  1  1.03640340  1.42539550  0.88899210  1.0
  O  O36  1  1.03640340  1.14741130  0.61100790  1.0
  O  O37  1  0.96359660  1.57460450  1.11100790  1.0
  O  O38  1  1.32623633  1.07623633  1.25000000  1.0
  O  O39  1  1.67376367  0.92376367  0.75000000  1.0
