# generated using pymatgen
data_Gd5BiPd2
_symmetry_space_group_name_H-M   'P 1'
_cell_length_a   8.84050340
_cell_length_b   8.84050340
_cell_length_c   8.84050340
_cell_angle_alpha   125.94360346
_cell_angle_beta   125.94360346
_cell_angle_gamma   79.98085144
_symmetry_Int_Tables_number   1
_chemical_formula_structural   Gd5BiPd2
_chemical_formula_sum   'Gd10 Bi2 Pd4'
_cell_volume   437.25805917
_cell_formula_units_Z   2
loop_
 _symmetry_equiv_pos_site_id
 _symmetry_equiv_pos_as_xyz
  1  'x, y, z'
loop_
 _atom_site_type_symbol
 _atom_site_label
 _atom_site_symmetry_multiplicity
 _atom_site_fract_x
 _atom_site_fract_y
 _atom_site_fract_z
 _atom_site_occupancy
  Gd  Gd0  1  1.20427190  0.70427190  1.18693792  1.0
  Gd  Gd1  1  0.48266603  0.98266603  1.18693792  1.0
  Gd  Gd2  1  1.01733397  1.20427190  1.50000000  1.0
  Gd  Gd3  1  0.29572810  0.48266603  0.50000000  1.0
  Gd  Gd4  1  0.70427190  0.51733397  0.50000000  1.0
  Gd  Gd5  1  0.98266603  0.79572810  1.50000000  1.0
  Gd  Gd6  1  0.51733397  1.01733397  0.81306208  1.0
  Gd  Gd7  1  0.79572810  0.29572810  0.81306208  1.0
  Gd  Gd8  1  0.00000000  -0.00000000  -0.00000000  1.0
  Gd  Gd9  1  0.50000000  0.50000000  1.00000000  1.0
  Bi  Bi10  1  0.75000000  0.75000000  1.00000000  1.0
  Bi  Bi11  1  0.25000000  0.25000000  -0.00000000  1.0
  Pd  Pd12  1  0.86552957  0.36552957  1.23105914  1.0
  Pd  Pd13  1  0.63447043  0.86552957  1.50000000  1.0
  Pd  Pd14  1  0.36552957  0.13447043  0.50000000  1.0
  Pd  Pd15  1  0.13447043  0.63447043  0.76894086  1.0
