# generated using pymatgen
data_NdAl3Cu
_symmetry_space_group_name_H-M   'P 1'
_cell_length_a   6.14452757
_cell_length_b   6.14452757
_cell_length_c   6.14452757
_cell_angle_alpha   139.77170366
_cell_angle_beta   139.77170366
_cell_angle_gamma   58.20009853
_symmetry_Int_Tables_number   1
_chemical_formula_structural   NdAl3Cu
_chemical_formula_sum   'Nd1 Al3 Cu1'
_cell_volume   95.88851346
_cell_formula_units_Z   1
loop_
 _symmetry_equiv_pos_site_id
 _symmetry_equiv_pos_as_xyz
  1  'x, y, z'
loop_
 _atom_site_type_symbol
 _atom_site_label
 _atom_site_symmetry_multiplicity
 _atom_site_fract_x
 _atom_site_fract_y
 _atom_site_fract_z
 _atom_site_occupancy
  Nd  Nd0  1  0.59318929  0.59318929  1.00000000  1.0
  Al  Al1  1  0.84190870  0.34190870  0.50000000  1.0
  Al  Al2  1  0.34190870  0.84190870  0.50000000  1.0
  Al  Al3  1  -0.00157724  -0.00157724  0.00000000  1.0
  Cu  Cu4  1  0.22247055  0.22247055  -0.00000000  1.0
