# generated using pymatgen
data_Na2CO3
_symmetry_space_group_name_H-M   'P 1'
_cell_length_a   5.23104855
_cell_length_b   5.23104855
_cell_length_c   6.16981414
_cell_angle_alpha   80.17161126
_cell_angle_beta   99.82838874
_cell_angle_gamma   118.74530435
_symmetry_Int_Tables_number   1
_chemical_formula_structural   Na2CO3
_chemical_formula_sum   'Na4 C2 O6'
_cell_volume   145.08274266
_cell_formula_units_Z   2
loop_
 _symmetry_equiv_pos_site_id
 _symmetry_equiv_pos_as_xyz
  1  'x, y, z'
loop_
 _atom_site_type_symbol
 _atom_site_label
 _atom_site_symmetry_multiplicity
 _atom_site_fract_x
 _atom_site_fract_y
 _atom_site_fract_z
 _atom_site_occupancy
  Na  Na0  1  0.00000000  0.00000000  0.00000000  1.0
  Na  Na1  1  -0.00000000  0.00000000  0.50000000  1.0
  Na  Na2  1  0.67100668  -0.67100668  0.74857685  1.0
  Na  Na3  1  0.32899332  -0.32899332  0.25142315  1.0
  C  C4  1  0.66371804  -0.66371804  0.24870791  1.0
  C  C5  1  0.33628196  -0.33628196  0.75129209  1.0
  O  O6  1  1.38988934  0.18867071  0.28569809  1.0
  O  O7  1  0.81132929  -0.38988934  0.28569809  1.0
  O  O8  1  1.18867071  0.38988934  0.71430191  1.0
  O  O9  1  0.61011066  -0.18867071  0.71430191  1.0
  O  O10  1  0.78944001  -0.78944001  0.17556047  1.0
  O  O11  1  0.21055999  -0.21055999  0.82443953  1.0
