# generated using pymatgen
data_CuH2CN2Cl
_symmetry_space_group_name_H-M   'P 1'
_cell_length_a   8.05906615
_cell_length_b   3.84974747
_cell_length_c   14.34678909
_cell_angle_alpha   90.00000000
_cell_angle_beta   90.00000000
_cell_angle_gamma   90.00000000
_symmetry_Int_Tables_number   1
_chemical_formula_structural   CuH2CN2Cl
_chemical_formula_sum   'Cu4 H8 C4 N8 Cl4'
_cell_volume   445.11443223
_cell_formula_units_Z   4
loop_
 _symmetry_equiv_pos_site_id
 _symmetry_equiv_pos_as_xyz
  1  'x, y, z'
loop_
 _atom_site_type_symbol
 _atom_site_label
 _atom_site_symmetry_multiplicity
 _atom_site_fract_x
 _atom_site_fract_y
 _atom_site_fract_z
 _atom_site_occupancy
  Cu  Cu0  1  0.80985460  0.75000000  0.00966317  1.0
  Cu  Cu1  1  0.30985460  0.75000000  0.49033683  1.0
  Cu  Cu2  1  0.19014540  0.25000000  0.99033683  1.0
  Cu  Cu3  1  0.69014540  0.25000000  0.50966317  1.0
  H  H4  1  0.91487832  0.75000000  0.23021922  1.0
  H  H5  1  0.41487832  0.75000000  0.26978078  1.0
  H  H6  1  0.08512168  0.25000000  0.76978078  1.0
  H  H7  1  0.58512168  0.25000000  0.73021922  1.0
  H  H8  1  0.78257496  0.75000000  0.32828082  1.0
  H  H9  1  0.28257496  0.75000000  0.17171918  1.0
  H  H10  1  0.21742504  0.25000000  0.67171918  1.0
  H  H11  1  0.71742504  0.25000000  0.82828082  1.0
  C  C12  1  0.52851071  0.75000000  0.14455370  1.0
  C  C13  1  0.02851071  0.75000000  0.35544630  1.0
  C  C14  1  0.47148929  0.25000000  0.85544630  1.0
  C  C15  1  0.97148929  0.25000000  0.64455370  1.0
  N  N16  1  0.89948991  0.75000000  0.30082468  1.0
  N  N17  1  0.39948991  0.75000000  0.19917532  1.0
  N  N18  1  0.10051009  0.25000000  0.69917532  1.0
  N  N19  1  0.60051009  0.25000000  0.80082468  1.0
  N  N20  1  0.64484385  0.75000000  0.09559163  1.0
  N  N21  1  0.14484385  0.75000000  0.40440837  1.0
  N  N22  1  0.35515615  0.25000000  0.90440837  1.0
  N  N23  1  0.85515615  0.25000000  0.59559163  1.0
  Cl  Cl24  1  0.44851955  0.75000000  0.61665913  1.0
  Cl  Cl25  1  0.94851955  0.75000000  0.88334087  1.0
  Cl  Cl26  1  0.55148045  0.25000000  0.38334087  1.0
  Cl  Cl27  1  0.05148045  0.25000000  0.11665913  1.0
