# generated using pymatgen
data_Mg3Bi2
_symmetry_space_group_name_H-M   'P 1'
_cell_length_a   11.86761325
_cell_length_b   11.86761325
_cell_length_c   11.86761325
_cell_angle_alpha   109.47122063
_cell_angle_beta   109.47122063
_cell_angle_gamma   109.47122063
_symmetry_Int_Tables_number   1
_chemical_formula_structural   Mg3Bi2
_chemical_formula_sum   'Mg24 Bi16'
_cell_volume   1286.67322599
_cell_formula_units_Z   8
loop_
 _symmetry_equiv_pos_site_id
 _symmetry_equiv_pos_as_xyz
  1  'x, y, z'
loop_
 _atom_site_type_symbol
 _atom_site_label
 _atom_site_symmetry_multiplicity
 _atom_site_fract_x
 _atom_site_fract_y
 _atom_site_fract_z
 _atom_site_occupancy
  Mg  Mg0  1  1.00473821  0.48696769  0.74499371  1.0
  Mg  Mg1  1  1.25802603  1.01303231  1.01777052  1.0
  Mg  Mg2  1  1.49526179  1.24025551  1.48222948  1.0
  Mg  Mg3  1  1.24197397  1.25974449  1.75500629  1.0
  Mg  Mg4  1  1.25974449  0.75500629  1.24197397  1.0
  Mg  Mg5  1  1.24025551  1.48222948  1.49526179  1.0
  Mg  Mg6  1  1.01303231  1.01777052  1.25802603  1.0
  Mg  Mg7  1  1.48696769  0.74499371  1.00473821  1.0
  Mg  Mg8  1  1.01777052  1.25802603  1.01303231  1.0
  Mg  Mg9  1  0.74499371  1.00473821  0.48696769  1.0
  Mg  Mg10  1  1.75500629  1.24197397  1.25974449  1.0
  Mg  Mg11  1  1.48222948  1.49526179  1.24025551  1.0
  Mg  Mg12  1  0.99526179  1.51303231  1.25500629  1.0
  Mg  Mg13  1  0.74197397  0.98696769  0.98222948  1.0
  Mg  Mg14  1  0.50473821  0.75974449  0.51777052  1.0
  Mg  Mg15  1  0.75802603  0.74025551  0.24499371  1.0
  Mg  Mg16  1  0.74025551  1.24499371  0.75802603  1.0
  Mg  Mg17  1  0.75974449  0.51777052  0.50473821  1.0
  Mg  Mg18  1  0.98696769  0.98222948  0.74197397  1.0
  Mg  Mg19  1  0.51303231  1.25500629  0.99526179  1.0
  Mg  Mg20  1  0.98222948  0.74197397  0.98696769  1.0
  Mg  Mg21  1  1.25500629  0.99526179  1.51303231  1.0
  Mg  Mg22  1  0.24499371  0.75802603  0.74025551  1.0
  Mg  Mg23  1  0.51777052  0.50473821  0.75974449  1.0
  Bi  Bi24  1  -0.00000000  0.50000000  0.50000000  1.0
  Bi  Bi25  1  1.00000000  1.00000000  1.00000000  1.0
  Bi  Bi26  1  0.50000000  1.00000000  0.50000000  1.0
  Bi  Bi27  1  0.50000000  0.50000000  0.00000000  1.0
  Bi  Bi28  1  0.73803635  0.75000000  0.48803635  1.0
  Bi  Bi29  1  0.76196365  0.25000000  1.01196365  1.0
  Bi  Bi30  1  0.25000000  1.01196365  0.76196365  1.0
  Bi  Bi31  1  0.75000000  1.48803635  0.73803635  1.0
  Bi  Bi32  1  0.48803635  0.73803635  0.75000000  1.0
  Bi  Bi33  1  1.01196365  0.76196365  1.25000000  1.0
  Bi  Bi34  1  1.26196365  1.25000000  1.51196365  1.0
  Bi  Bi35  1  0.23803635  0.75000000  0.98803635  1.0
  Bi  Bi36  1  0.75000000  0.98803635  0.23803635  1.0
  Bi  Bi37  1  0.25000000  0.51196365  0.26196365  1.0
  Bi  Bi38  1  1.51196365  1.26196365  1.25000000  1.0
  Bi  Bi39  1  0.98803635  1.23803635  0.75000000  1.0
