# generated using pymatgen
data_CdGa(AgSe2)2
_symmetry_space_group_name_H-M   'P 1'
_cell_length_a   8.16981012
_cell_length_b   7.48036354
_cell_length_c   7.04487905
_cell_angle_alpha   90.00000000
_cell_angle_beta   90.00000000
_cell_angle_gamma   90.00000000
_symmetry_Int_Tables_number   1
_chemical_formula_structural   CdGa(AgSe2)2
_chemical_formula_sum   'Cd2 Ga2 Ag4 Se8'
_cell_volume   430.53474819
_cell_formula_units_Z   2
loop_
 _symmetry_equiv_pos_site_id
 _symmetry_equiv_pos_as_xyz
  1  'x, y, z'
loop_
 _atom_site_type_symbol
 _atom_site_label
 _atom_site_symmetry_multiplicity
 _atom_site_fract_x
 _atom_site_fract_y
 _atom_site_fract_z
 _atom_site_occupancy
  Cd  Cd0  1  0.50000000  0.65039896  0.00261288  1.0
  Cd  Cd1  1  -0.00000000  0.34960104  0.50261288  1.0
  Ga  Ga2  1  0.50000000  0.32550918  0.50274168  1.0
  Ga  Ga3  1  0.00000000  0.67449082  0.00274168  1.0
  Ag  Ag4  1  0.24447466  0.17365986  0.01482743  1.0
  Ag  Ag5  1  0.74447466  0.82634014  0.51482743  1.0
  Ag  Ag6  1  0.75552534  0.17365986  0.01482743  1.0
  Ag  Ag7  1  0.25552534  0.82634014  0.51482743  1.0
  Se  Se8  1  0.26081162  0.16301800  0.38918197  1.0
  Se  Se9  1  0.76081162  0.83698200  0.88918197  1.0
  Se  Se10  1  0.73918838  0.16301800  0.38918197  1.0
  Se  Se11  1  0.23918838  0.83698200  0.88918197  1.0
  Se  Se12  1  0.50000000  0.32204674  0.85341650  1.0
  Se  Se13  1  0.00000000  0.67795326  0.35341650  1.0
  Se  Se14  1  0.50000000  0.63506673  0.38571014  1.0
  Se  Se15  1  -0.00000000  0.36493327  0.88571014  1.0
