# generated using pymatgen
data_LuSbS2O
_symmetry_space_group_name_H-M   'P 1'
_cell_length_a   3.83770554
_cell_length_b   3.83770554
_cell_length_c   13.96191083
_cell_angle_alpha   90.00000000
_cell_angle_beta   90.00000000
_cell_angle_gamma   90.00000000
_symmetry_Int_Tables_number   1
_chemical_formula_structural   LuSbS2O
_chemical_formula_sum   'Lu2 Sb2 S4 O2'
_cell_volume   205.63079662
_cell_formula_units_Z   2
loop_
 _symmetry_equiv_pos_site_id
 _symmetry_equiv_pos_as_xyz
  1  'x, y, z'
loop_
 _atom_site_type_symbol
 _atom_site_label
 _atom_site_symmetry_multiplicity
 _atom_site_fract_x
 _atom_site_fract_y
 _atom_site_fract_z
 _atom_site_occupancy
  Lu  Lu0  1  0.50000000  0.00000000  0.07959193  1.0
  Lu  Lu1  1  0.00000000  0.50000000  0.92040807  1.0
  Sb  Sb2  1  0.50000000  0.00000000  0.64132883  1.0
  Sb  Sb3  1  0.00000000  0.50000000  0.35867117  1.0
  S  S4  1  0.50000000  0.00000000  0.38378488  1.0
  S  S5  1  0.00000000  0.50000000  0.61621512  1.0
  S  S6  1  0.50000000  0.00000000  0.81596584  1.0
  S  S7  1  0.00000000  0.50000000  0.18403416  1.0
  O  O8  1  0.00000000  0.00000000  0.00000000  1.0
  O  O9  1  0.50000000  0.50000000  0.00000000  1.0
