# generated using pymatgen
data_Sc2Pd
_symmetry_space_group_name_H-M   'P 1'
_cell_length_a   8.83093990
_cell_length_b   8.83093990
_cell_length_c   8.83093990
_cell_angle_alpha   60.00000000
_cell_angle_beta   60.00000000
_cell_angle_gamma   60.00000000
_symmetry_Int_Tables_number   1
_chemical_formula_structural   Sc2Pd
_chemical_formula_sum   'Sc16 Pd8'
_cell_volume   486.97401677
_cell_formula_units_Z   8
loop_
 _symmetry_equiv_pos_site_id
 _symmetry_equiv_pos_as_xyz
  1  'x, y, z'
loop_
 _atom_site_type_symbol
 _atom_site_label
 _atom_site_symmetry_multiplicity
 _atom_site_fract_x
 _atom_site_fract_y
 _atom_site_fract_z
 _atom_site_occupancy
  Sc  Sc0  1  1.12500000  0.62500000  0.62500000  1.0
  Sc  Sc1  1  0.62500000  1.12500000  -0.37500000  1.0
  Sc  Sc2  1  -0.37500000  0.62500000  1.12500000  1.0
  Sc  Sc3  1  -0.37500000  0.62500000  0.62500000  1.0
  Sc  Sc4  1  0.81626126  0.81626126  -0.81626126  1.0
  Sc  Sc5  1  0.18373874  1.18373874  -0.18373874  1.0
  Sc  Sc6  1  0.81626126  -0.81626126  0.81626126  1.0
  Sc  Sc7  1  0.18373874  -0.18373874  0.18373874  1.0
  Sc  Sc8  1  -0.81626126  0.81626126  0.81626126  1.0
  Sc  Sc9  1  -0.18373874  0.18373874  0.18373874  1.0
  Sc  Sc10  1  0.43373874  1.43373874  0.06626126  1.0
  Sc  Sc11  1  0.06626126  0.06626126  0.43373874  1.0
  Sc  Sc12  1  0.43373874  1.06626126  0.43373874  1.0
  Sc  Sc13  1  0.06626126  1.43373874  0.06626126  1.0
  Sc  Sc14  1  0.06626126  1.43373874  0.43373874  1.0
  Sc  Sc15  1  0.43373874  1.06626126  0.06626126  1.0
  Pd  Pd16  1  -0.22951905  0.40983968  0.40983968  1.0
  Pd  Pd17  1  0.40983968  -0.22951905  0.40983968  1.0
  Pd  Pd18  1  0.40983968  1.40983968  -0.22951905  1.0
  Pd  Pd19  1  0.40983968  1.40983968  0.40983968  1.0
  Pd  Pd20  1  0.47951905  0.84016032  -0.15983968  1.0
  Pd  Pd21  1  0.84016032  0.47951905  0.84016032  1.0
  Pd  Pd22  1  0.84016032  0.84016032  -0.52048095  1.0
  Pd  Pd23  1  0.84016032  0.84016032  0.84016032  1.0
