# generated using pymatgen
data_Bi2SeO5
_symmetry_space_group_name_H-M   'P 1'
_cell_length_a   8.80345824
_cell_length_b   8.80345824
_cell_length_c   11.67089869
_cell_angle_alpha   90.00000000
_cell_angle_beta   90.00000000
_cell_angle_gamma   36.88702355
_symmetry_Int_Tables_number   1
_chemical_formula_structural   Bi2SeO5
_chemical_formula_sum   'Bi8 Se4 O20'
_cell_volume   542.91919352
_cell_formula_units_Z   4
loop_
 _symmetry_equiv_pos_site_id
 _symmetry_equiv_pos_as_xyz
  1  'x, y, z'
loop_
 _atom_site_type_symbol
 _atom_site_label
 _atom_site_symmetry_multiplicity
 _atom_site_fract_x
 _atom_site_fract_y
 _atom_site_fract_z
 _atom_site_occupancy
  Bi  Bi0  1  -0.28679407  1.11700270  0.10815455  1.0
  Bi  Bi1  1  -0.61700270  0.78679407  0.10815455  1.0
  Bi  Bi2  1  0.21320593  0.61700270  0.89184545  1.0
  Bi  Bi3  1  -0.11700270  0.28679407  0.89184545  1.0
  Bi  Bi4  1  0.00918154  0.49081846  0.11640187  1.0
  Bi  Bi5  1  -0.49081846  0.99081846  0.88359813  1.0
  Bi  Bi6  1  0.04066387  0.45933613  0.63035800  1.0
  Bi  Bi7  1  -0.45933613  0.95933613  0.36964200  1.0
  Se  Se8  1  0.20501986  0.61429989  0.35600168  1.0
  Se  Se9  1  -0.11429989  0.29498014  0.35600168  1.0
  Se  Se10  1  -0.29498014  1.11429989  0.64399832  1.0
  Se  Se11  1  -0.61429989  0.79498014  0.64399832  1.0
  O  O12  1  -0.09505970  0.77247192  0.01124710  1.0
  O  O13  1  -0.27247192  0.59505970  0.01124710  1.0
  O  O14  1  -0.59505970  1.27247192  0.98875290  1.0
  O  O15  1  -0.77247192  1.09505970  0.98875290  1.0
  O  O16  1  0.10306263  0.79182293  0.23686257  1.0
  O  O17  1  -0.29182293  0.39693737  0.23686257  1.0
  O  O18  1  -0.39693737  1.29182293  0.76313743  1.0
  O  O19  1  -0.79182293  0.89693737  0.76313743  1.0
  O  O20  1  -0.66386558  1.34920875  0.28998160  1.0
  O  O21  1  -0.84920875  1.16386558  0.28998160  1.0
  O  O22  1  -0.16386558  0.84920875  0.71001840  1.0
  O  O23  1  -0.34920875  0.66386558  0.71001840  1.0
  O  O24  1  -0.06935713  0.76525433  0.41898221  1.0
  O  O25  1  -0.26525433  0.56935713  0.41898221  1.0
  O  O26  1  -0.56935713  1.26525433  0.58101779  1.0
  O  O27  1  -0.76525433  1.06935713  0.58101779  1.0
  O  O28  1  0.14964057  0.35035943  0.80054983  1.0
  O  O29  1  -0.35035943  0.85035943  0.19945017  1.0
  O  O30  1  0.01096854  -0.01096854  0.00000000  1.0
  O  O31  1  -0.48903146  0.48903146  0.00000000  1.0
