# generated using pymatgen
data_Ca3SiBr2
_symmetry_space_group_name_H-M   'P 1'
_cell_length_a   4.56267018
_cell_length_b   4.56267018
_cell_length_c   12.54484559
_cell_angle_alpha   79.41534491
_cell_angle_beta   100.58465509
_cell_angle_gamma   120.08475851
_symmetry_Int_Tables_number   1
_chemical_formula_structural   Ca3SiBr2
_chemical_formula_sum   'Ca3 Si1 Br2'
_cell_volume   220.83890733
_cell_formula_units_Z   1
loop_
 _symmetry_equiv_pos_site_id
 _symmetry_equiv_pos_as_xyz
  1  'x, y, z'
loop_
 _atom_site_type_symbol
 _atom_site_label
 _atom_site_symmetry_multiplicity
 _atom_site_fract_x
 _atom_site_fract_y
 _atom_site_fract_z
 _atom_site_occupancy
  Ca  Ca0  1  0.71158613  -0.71158613  0.12445571  1.0
  Ca  Ca1  1  0.30898737  -0.30898737  0.91988677  1.0
  Ca  Ca2  1  0.17446991  -0.17446991  0.50257409  1.0
  Si  Si3  1  0.01032069  -0.01032069  0.02225475  1.0
  Br  Br4  1  0.54754302  -0.54754302  0.62024304  1.0
  Br  Br5  1  0.80209288  -0.80209288  0.38658564  1.0
