# generated using pymatgen
data_RbTlF4
_symmetry_space_group_name_H-M   'P 1'
_cell_length_a   8.48250818
_cell_length_b   6.39275707
_cell_length_c   8.57786723
_cell_angle_alpha   90.00000000
_cell_angle_beta   90.00000000
_cell_angle_gamma   90.00000000
_symmetry_Int_Tables_number   1
_chemical_formula_structural   RbTlF4
_chemical_formula_sum   'Rb4 Tl4 F16'
_cell_volume   465.14869659
_cell_formula_units_Z   4
loop_
 _symmetry_equiv_pos_site_id
 _symmetry_equiv_pos_as_xyz
  1  'x, y, z'
loop_
 _atom_site_type_symbol
 _atom_site_label
 _atom_site_symmetry_multiplicity
 _atom_site_fract_x
 _atom_site_fract_y
 _atom_site_fract_z
 _atom_site_occupancy
  Rb  Rb0  1  0.30944716  0.51039307  0.30332082  1.0
  Rb  Rb1  1  0.80944716  0.48960693  0.30332082  1.0
  Rb  Rb2  1  0.69055284  0.48960693  0.80332082  1.0
  Rb  Rb3  1  0.19055284  0.51039307  0.80332082  1.0
  Tl  Tl4  1  0.49998280  -0.00007624  0.05335638  1.0
  Tl  Tl5  1  -0.00001720  1.00007624  0.05335638  1.0
  Tl  Tl6  1  0.50001720  1.00007624  0.55335638  1.0
  Tl  Tl7  1  0.00001720  -0.00007624  0.55335638  1.0
  F  F8  1  0.47438653  0.11332156  0.30333080  1.0
  F  F9  1  0.97438653  0.88667844  0.30333080  1.0
  F  F10  1  0.52561347  0.88667844  0.80333080  1.0
  F  F11  1  0.02561347  0.11332156  0.80333080  1.0
  F  F12  1  0.42678143  0.29903561  -0.01340927  1.0
  F  F13  1  0.92678143  0.70096439  -0.01340927  1.0
  F  F14  1  0.57321857  0.70096439  0.48659073  1.0
  F  F15  1  0.07321857  0.29903561  0.48659073  1.0
  F  F16  1  0.07322965  0.29928721  0.11985384  1.0
  F  F17  1  0.57322965  0.70071279  0.11985384  1.0
  F  F18  1  0.92677035  0.70071279  0.61985384  1.0
  F  F19  1  0.42677035  0.29928721  0.61985384  1.0
  F  F20  1  0.74997507  0.13654426  0.05354742  1.0
  F  F21  1  0.24997507  0.86345574  0.05354742  1.0
  F  F22  1  0.25002493  0.86345574  0.55354742  1.0
  F  F23  1  0.75002493  0.13654426  0.55354742  1.0
