# generated using pymatgen
data_Al7CoCu2
_symmetry_space_group_name_H-M   'P 1'
_cell_length_a   6.30809333
_cell_length_b   6.30809333
_cell_length_c   14.76562227
_cell_angle_alpha   90.00000000
_cell_angle_beta   90.00000000
_cell_angle_gamma   90.00000000
_symmetry_Int_Tables_number   1
_chemical_formula_structural   Al7CoCu2
_chemical_formula_sum   'Al28 Co4 Cu8'
_cell_volume   587.55425261
_cell_formula_units_Z   4
loop_
 _symmetry_equiv_pos_site_id
 _symmetry_equiv_pos_as_xyz
  1  'x, y, z'
loop_
 _atom_site_type_symbol
 _atom_site_label
 _atom_site_symmetry_multiplicity
 _atom_site_fract_x
 _atom_site_fract_y
 _atom_site_fract_z
 _atom_site_occupancy
  Al  Al0  1  0.29553615  0.91358711  0.40012983  1.0
  Al  Al1  1  0.29553615  0.91358711  0.59987017  1.0
  Al  Al2  1  0.79553615  0.58641289  0.90012983  1.0
  Al  Al3  1  0.79553615  0.58641289  0.09987017  1.0
  Al  Al4  1  0.08641289  0.29553615  0.40012983  1.0
  Al  Al5  1  0.08641289  0.29553615  0.59987017  1.0
  Al  Al6  1  0.58641289  0.20446385  0.90012983  1.0
  Al  Al7  1  0.58641289  0.20446385  0.09987017  1.0
  Al  Al8  1  0.70446385  0.08641289  0.40012983  1.0
  Al  Al9  1  0.70446385  0.08641289  0.59987017  1.0
  Al  Al10  1  0.20446385  0.41358711  0.90012983  1.0
  Al  Al11  1  0.20446385  0.41358711  0.09987017  1.0
  Al  Al12  1  0.91358711  0.70446385  0.40012983  1.0
  Al  Al13  1  0.91358711  0.70446385  0.59987017  1.0
  Al  Al14  1  0.41358711  0.79553615  0.90012983  1.0
  Al  Al15  1  0.41358711  0.79553615  0.09987017  1.0
  Al  Al16  1  0.34541061  0.15458939  0.25000000  1.0
  Al  Al17  1  0.34541061  0.15458939  0.75000000  1.0
  Al  Al18  1  0.84541061  0.34541061  0.75000000  1.0
  Al  Al19  1  0.84541061  0.34541061  0.25000000  1.0
  Al  Al20  1  0.65458939  0.84541061  0.25000000  1.0
  Al  Al21  1  0.65458939  0.84541061  0.75000000  1.0
  Al  Al22  1  0.15458939  0.65458939  0.75000000  1.0
  Al  Al23  1  0.15458939  0.65458939  0.25000000  1.0
  Al  Al24  1  0.50000000  0.50000000  0.36826943  1.0
  Al  Al25  1  0.50000000  0.50000000  0.63173057  1.0
  Al  Al26  1  0.00000000  0.00000000  0.86826943  1.0
  Al  Al27  1  0.00000000  0.00000000  0.13173057  1.0
  Co  Co28  1  0.50000000  0.50000000  0.20229902  1.0
  Co  Co29  1  0.50000000  0.50000000  0.79770098  1.0
  Co  Co30  1  0.00000000  0.00000000  0.70229902  1.0
  Co  Co31  1  0.00000000  0.00000000  0.29770098  1.0
  Cu  Cu32  1  0.22764077  0.59163751  0.50000000  1.0
  Cu  Cu33  1  0.72764077  0.90836249  0.00000000  1.0
  Cu  Cu34  1  0.40836249  0.22764077  0.50000000  1.0
  Cu  Cu35  1  0.90836249  0.27235923  0.00000000  1.0
  Cu  Cu36  1  0.77235923  0.40836249  0.50000000  1.0
  Cu  Cu37  1  0.27235923  0.09163751  0.00000000  1.0
  Cu  Cu38  1  0.59163751  0.77235923  0.50000000  1.0
  Cu  Cu39  1  0.09163751  0.72764077  0.00000000  1.0
