# generated using pymatgen
data_MgSiO3
_symmetry_space_group_name_H-M   'P 1'
_cell_length_a   4.86433047
_cell_length_b   6.90534553
_cell_length_c   7.61446414
_cell_angle_alpha   90.00000000
_cell_angle_beta   96.71152446
_cell_angle_gamma   90.00000000
_symmetry_Int_Tables_number   1
_chemical_formula_structural   MgSiO3
_chemical_formula_sum   'Mg6 Si6 O18'
_cell_volume   254.01621425
_cell_formula_units_Z   6
loop_
 _symmetry_equiv_pos_site_id
 _symmetry_equiv_pos_as_xyz
  1  'x, y, z'
loop_
 _atom_site_type_symbol
 _atom_site_label
 _atom_site_symmetry_multiplicity
 _atom_site_fract_x
 _atom_site_fract_y
 _atom_site_fract_z
 _atom_site_occupancy
  Mg  Mg0  1  0.92338850  0.75000000  0.71916788  1.0
  Mg  Mg1  1  0.07661150  0.25000000  0.28083212  1.0
  Mg  Mg2  1  0.52090368  0.75000000  0.03888698  1.0
  Mg  Mg3  1  0.47909632  0.25000000  0.96111302  1.0
  Mg  Mg4  1  0.07683208  0.75000000  0.37281481  1.0
  Mg  Mg5  1  0.92316792  0.25000000  0.62718519  1.0
  Si  Si6  1  0.44188580  0.99761740  0.67114367  1.0
  Si  Si7  1  0.44188580  0.50238260  0.67114367  1.0
  Si  Si8  1  0.55811420  0.49761740  0.32885633  1.0
  Si  Si9  1  0.55811420  0.00238260  0.32885633  1.0
  Si  Si10  1  0.00000000  0.00000000  0.00000000  1.0
  Si  Si11  1  0.00000000  0.50000000  0.00000000  1.0
  O  O12  1  0.84375371  0.94687973  0.20252702  1.0
  O  O13  1  0.84375371  0.55312027  0.20252702  1.0
  O  O14  1  0.15624629  0.44687973  0.79747298  1.0
  O  O15  1  0.15624629  0.05312027  0.79747298  1.0
  O  O16  1  0.73513275  0.95362590  0.54217731  1.0
  O  O17  1  0.73513275  0.54637410  0.54217731  1.0
  O  O18  1  0.26486725  0.45362590  0.45782269  1.0
  O  O19  1  0.26486725  0.04637410  0.45782269  1.0
  O  O20  1  0.67225384  0.94315385  0.86980282  1.0
  O  O21  1  0.67225384  0.55684615  0.86980282  1.0
  O  O22  1  0.32774616  0.44315385  0.13019718  1.0
  O  O23  1  0.32774616  0.05684615  0.13019718  1.0
  O  O24  1  0.45315131  0.75000000  0.29652520  1.0
  O  O25  1  0.54684869  0.25000000  0.70347480  1.0
  O  O26  1  0.31663446  0.75000000  0.64799444  1.0
  O  O27  1  0.68336554  0.25000000  0.35200556  1.0
  O  O28  1  0.10016189  0.75000000  0.98001222  1.0
  O  O29  1  0.89983811  0.25000000  0.01998778  1.0
