# generated using pymatgen
data_Lu3Tl5
_symmetry_space_group_name_H-M   'P 1'
_cell_length_a   6.43741582
_cell_length_b   6.43741582
_cell_length_c   10.50128312
_cell_angle_alpha   90.00000000
_cell_angle_beta   90.00000000
_cell_angle_gamma   76.79932295
_symmetry_Int_Tables_number   1
_chemical_formula_structural   Lu3Tl5
_chemical_formula_sum   'Lu6 Tl10'
_cell_volume   423.67754164
_cell_formula_units_Z   2
loop_
 _symmetry_equiv_pos_site_id
 _symmetry_equiv_pos_as_xyz
  1  'x, y, z'
loop_
 _atom_site_type_symbol
 _atom_site_label
 _atom_site_symmetry_multiplicity
 _atom_site_fract_x
 _atom_site_fract_y
 _atom_site_fract_z
 _atom_site_occupancy
  Lu  Lu0  1  0.78362018  0.78362018  0.50000000  1.0
  Lu  Lu1  1  0.78362018  0.78362018  0.00000000  1.0
  Lu  Lu2  1  0.21637982  0.21637982  0.50000000  1.0
  Lu  Lu3  1  0.21637982  0.21637982  0.00000000  1.0
  Lu  Lu4  1  -0.41804272  1.41804272  0.25000000  1.0
  Lu  Lu5  1  0.41804272  0.58195728  0.75000000  1.0
  Tl  Tl6  1  -0.00932357  1.00932357  0.25000000  1.0
  Tl  Tl7  1  0.00932357  0.99067643  0.75000000  1.0
  Tl  Tl8  1  0.04887425  0.49603524  0.25000000  1.0
  Tl  Tl9  1  -0.50396476  1.04887425  0.75000000  1.0
  Tl  Tl10  1  0.50396476  0.95112575  0.25000000  1.0
  Tl  Tl11  1  -0.04887425  1.50396476  0.75000000  1.0
  Tl  Tl12  1  0.29052785  0.70947215  0.47041711  1.0
  Tl  Tl13  1  0.29052785  0.70947215  0.02958289  1.0
  Tl  Tl14  1  -0.29052785  1.29052785  0.97041711  1.0
  Tl  Tl15  1  -0.29052785  1.29052785  0.52958289  1.0
