# generated using pymatgen
data_YNiP
_symmetry_space_group_name_H-M   'P 1'
_cell_length_a   3.90229020
_cell_length_b   3.90229020
_cell_length_c   15.48047687
_cell_angle_alpha   90.00000000
_cell_angle_beta   90.00000000
_cell_angle_gamma   120.00000000
_symmetry_Int_Tables_number   1
_chemical_formula_structural   YNiP
_chemical_formula_sum   'Y4 Ni4 P4'
_cell_volume   204.15221356
_cell_formula_units_Z   4
loop_
 _symmetry_equiv_pos_site_id
 _symmetry_equiv_pos_as_xyz
  1  'x, y, z'
loop_
 _atom_site_type_symbol
 _atom_site_label
 _atom_site_symmetry_multiplicity
 _atom_site_fract_x
 _atom_site_fract_y
 _atom_site_fract_z
 _atom_site_occupancy
  Y  Y0  1  0.00000000  0.00000000  0.25000000  1.0
  Y  Y1  1  0.00000000  0.00000000  0.75000000  1.0
  Y  Y2  1  0.00000000  0.00000000  0.50000000  1.0
  Y  Y3  1  0.00000000  0.00000000  0.00000000  1.0
  Ni  Ni4  1  0.33333333  0.66666667  0.37174596  1.0
  Ni  Ni5  1  0.33333333  0.66666667  0.12825404  1.0
  Ni  Ni6  1  0.66666667  0.33333333  0.87174596  1.0
  Ni  Ni7  1  0.66666667  0.33333333  0.62825404  1.0
  P  P8  1  0.33333333  0.66666667  0.87697334  1.0
  P  P9  1  0.33333333  0.66666667  0.62302666  1.0
  P  P10  1  0.66666667  0.33333333  0.37697334  1.0
  P  P11  1  0.66666667  0.33333333  0.12302666  1.0
