# generated using pymatgen
data_CsSO3
_symmetry_space_group_name_H-M   'P 1'
_cell_length_a   6.41224210
_cell_length_b   6.41224210
_cell_length_c   12.59947186
_cell_angle_alpha   90.00000000
_cell_angle_beta   90.00000000
_cell_angle_gamma   120.00000000
_symmetry_Int_Tables_number   1
_chemical_formula_structural   CsSO3
_chemical_formula_sum   'Cs4 S4 O12'
_cell_volume   448.64496158
_cell_formula_units_Z   4
loop_
 _symmetry_equiv_pos_site_id
 _symmetry_equiv_pos_as_xyz
  1  'x, y, z'
loop_
 _atom_site_type_symbol
 _atom_site_label
 _atom_site_symmetry_multiplicity
 _atom_site_fract_x
 _atom_site_fract_y
 _atom_site_fract_z
 _atom_site_occupancy
  Cs  Cs0  1  0.33333333  0.66666667  0.74842448  1.0
  Cs  Cs1  1  0.66666667  0.33333333  0.24842448  1.0
  Cs  Cs2  1  -0.00000000  -0.00000000  -0.01268045  1.0
  Cs  Cs3  1  -0.00000000  -0.00000000  0.48731955  1.0
  S  S4  1  0.33333333  0.66666667  0.10268915  1.0
  S  S5  1  0.66666667  0.33333333  0.60268915  1.0
  S  S6  1  0.33333333  0.66666667  0.27799198  1.0
  S  S7  1  0.66666667  0.33333333  0.77799198  1.0
  O  O8  1  0.59142869  0.79571434  0.30654329  1.0
  O  O9  1  0.79571434  0.59142869  0.80654329  1.0
  O  O10  1  0.79571434  0.20428566  0.80654329  1.0
  O  O11  1  0.20428566  0.79571434  0.30654329  1.0
  O  O12  1  0.20428566  0.40857131  0.30654329  1.0
  O  O13  1  0.40857131  0.20428566  0.80654329  1.0
  O  O14  1  0.07591875  0.53795938  0.07244832  1.0
  O  O15  1  0.53795938  0.07591875  0.57244832  1.0
  O  O16  1  0.53795938  0.46204062  0.57244832  1.0
  O  O17  1  0.46204062  0.53795938  0.07244832  1.0
  O  O18  1  0.46204062  0.92408125  0.07244832  1.0
  O  O19  1  0.92408125  0.46204062  0.57244832  1.0
