# generated using pymatgen
data_Zn5P6H22(NO11)2
_symmetry_space_group_name_H-M   'P 1'
_cell_length_a   7.31209507
_cell_length_b   10.40400591
_cell_length_c   9.90196044
_cell_angle_alpha   115.94933422
_cell_angle_beta   104.32803429
_cell_angle_gamma   88.53158568
_symmetry_Int_Tables_number   1
_chemical_formula_structural   Zn5P6H22(NO11)2
_chemical_formula_sum   'Zn5 P6 H22 N2 O22'
_cell_volume   653.31668809
_cell_formula_units_Z   1
loop_
 _symmetry_equiv_pos_site_id
 _symmetry_equiv_pos_as_xyz
  1  'x, y, z'
loop_
 _atom_site_type_symbol
 _atom_site_label
 _atom_site_symmetry_multiplicity
 _atom_site_fract_x
 _atom_site_fract_y
 _atom_site_fract_z
 _atom_site_occupancy
  Zn  Zn0  1  0.66294942  0.66372786  -0.80042809  1.0
  Zn  Zn1  1  0.33705058  0.33627214  -0.19957191  1.0
  Zn  Zn2  1  0.36634431  0.98284353  -0.84923002  1.0
  Zn  Zn3  1  0.63365569  0.01715647  -0.15076998  1.0
  Zn  Zn4  1  0.50000000  0.50000000  -0.50000000  1.0
  P  P5  1  0.76007831  0.88600261  -0.91312084  1.0
  P  P6  1  0.23992169  0.11399739  -0.08687916  1.0
  P  P7  1  0.75663180  0.34993946  -1.00722610  1.0
  P  P8  1  0.24336820  0.65006054  0.00722610  1.0
  P  P9  1  0.74315120  0.79443424  -0.44325885  1.0
  P  P10  1  0.25684880  0.20556576  -0.55674115  1.0
  H  H11  1  0.94478926  0.95638455  -0.85504334  1.0
  H  H12  1  0.05521074  0.04361545  -0.14495666  1.0
  H  H13  1  0.93691923  0.38619552  -1.01477426  1.0
  H  H14  1  0.06308077  0.61380448  0.01477426  1.0
  H  H15  1  0.91977389  0.18662793  -0.43748479  1.0
  H  H16  1  0.08022611  0.81337207  -0.56251521  1.0
  H  H17  1  0.88962604  0.75507717  -0.34918466  1.0
  H  H18  1  0.11037396  0.24492283  -0.65081534  1.0
  H  H19  1  0.72164363  0.41691249  -0.70769695  1.0
  H  H20  1  0.27835637  0.58308751  -0.29230305  1.0
  H  H21  1  0.70545391  0.64760159  -0.20159584  1.0
  H  H22  1  0.29454609  0.35239841  -0.79840416  1.0
  H  H23  1  0.63883849  0.28620833  -0.69958147  1.0
  H  H24  1  0.36116151  0.71379167  -0.30041853  1.0
  H  H25  1  0.32778819  0.51157736  -0.76919860  1.0
  H  H26  1  0.67221181  0.48842264  -0.23080140  1.0
  H  H27  1  0.31289807  0.77713954  -0.55127229  1.0
  H  H28  1  0.68710193  0.22286046  -0.44872771  1.0
  H  H29  1  0.25816984  0.92079063  -0.40771391  1.0
  H  H30  1  0.74183016  0.07920937  -0.59228609  1.0
  H  H31  1  0.23687471  0.91972842  -0.58305371  1.0
  H  H32  1  0.76312529  0.08027158  -0.41694629  1.0
  N  N33  1  0.22032083  0.85625237  -0.52828142  1.0
  N  N34  1  0.77967917  0.14374763  -0.47171858  1.0
  O  O35  1  0.81557001  0.78084743  -0.58329532  1.0
  O  O36  1  0.18442999  0.21915257  -0.41670468  1.0
  O  O37  1  0.76164802  0.20362419  -1.00339576  1.0
  O  O38  1  0.23835198  0.79637581  0.00339576  1.0
  O  O39  1  0.77530469  0.73783512  -0.91431550  1.0
  O  O40  1  0.22469531  0.26216488  -0.08568450  1.0
  O  O41  1  0.72284227  0.46514574  -0.85259079  1.0
  O  O42  1  0.27715773  0.53485426  -0.14740921  1.0
  O  O43  1  0.70205888  0.54758789  -0.27909046  1.0
  O  O44  1  0.29794112  0.45241211  -0.72090954  1.0
  O  O45  1  0.71564837  0.95489972  -0.34486238  1.0
  O  O46  1  0.28435163  0.04510028  -0.65513762  1.0
  O  O47  1  0.70058121  0.38306107  -0.63209051  1.0
  O  O48  1  0.29941879  0.61693893  -0.36790949  1.0
  O  O49  1  0.68244119  0.86512080  -0.08255978  1.0
  O  O50  1  0.31755881  0.13487920  -0.91744022  1.0
  O  O51  1  0.64800723  0.98696603  -0.79869205  1.0
  O  O52  1  0.35199277  0.01303397  -0.20130795  1.0
  O  O53  1  0.56165932  0.69592582  -0.49226012  1.0
  O  O54  1  0.43834068  0.30407418  -0.50773988  1.0
  O  O55  1  0.38304986  0.65096166  -0.84513620  1.0
  O  O56  1  0.61695014  0.34903834  -0.15486380  1.0
