# generated using pymatgen
data_K2Sn3(SbS5)2
_symmetry_space_group_name_H-M   'P 1'
_cell_length_a   7.00307599
_cell_length_b   13.55161507
_cell_length_c   11.92331192
_cell_angle_alpha   90.00000000
_cell_angle_beta   117.61692163
_cell_angle_gamma   90.00000000
_symmetry_Int_Tables_number   1
_chemical_formula_structural   K2Sn3(SbS5)2
_chemical_formula_sum   'K4 Sn6 Sb4 S20'
_cell_volume   1002.63583487
_cell_formula_units_Z   2
loop_
 _symmetry_equiv_pos_site_id
 _symmetry_equiv_pos_as_xyz
  1  'x, y, z'
loop_
 _atom_site_type_symbol
 _atom_site_label
 _atom_site_symmetry_multiplicity
 _atom_site_fract_x
 _atom_site_fract_y
 _atom_site_fract_z
 _atom_site_occupancy
  K  K0  1  0.91253584  0.17270384  0.31525675  1.0
  K  K1  1  0.91253584  0.32729616  0.81525675  1.0
  K  K2  1  0.08746416  0.67270384  0.18474325  1.0
  K  K3  1  0.08746416  0.82729616  0.68474325  1.0
  Sn  Sn4  1  0.61643517  0.45179069  0.15601944  1.0
  Sn  Sn5  1  0.61643517  0.04820931  0.65601944  1.0
  Sn  Sn6  1  0.38356483  0.95179069  0.34398056  1.0
  Sn  Sn7  1  0.38356483  0.54820931  0.84398056  1.0
  Sn  Sn8  1  -0.00000000  0.50000000  0.50000000  1.0
  Sn  Sn9  1  0.00000000  0.00000000  0.00000000  1.0
  Sb  Sb10  1  0.51370500  0.35006562  0.40773714  1.0
  Sb  Sb11  1  0.51370500  0.14993438  0.90773714  1.0
  Sb  Sb12  1  0.48629500  0.85006562  0.09226286  1.0
  Sb  Sb13  1  0.48629500  0.64993438  0.59226286  1.0
  S  S14  1  1.00358074  0.45316649  0.28834068  1.0
  S  S15  1  1.00358074  0.04683351  0.78834068  1.0
  S  S16  1  -0.00358074  0.95316649  0.21165932  1.0
  S  S17  1  -0.00358074  0.54683351  0.71165932  1.0
  S  S18  1  0.90563644  0.17896005  0.03072133  1.0
  S  S19  1  0.90563644  0.32103995  0.53072133  1.0
  S  S20  1  0.09436356  0.67896005  0.46927867  1.0
  S  S21  1  0.09436356  0.82103995  0.96927867  1.0
  S  S22  1  0.58906637  0.10118470  0.44437442  1.0
  S  S23  1  0.58906637  0.39881530  0.94437442  1.0
  S  S24  1  0.41093363  0.60118470  0.05562558  1.0
  S  S25  1  0.41093363  0.89881530  0.55562558  1.0
  S  S26  1  0.45017380  0.30343433  0.18773678  1.0
  S  S27  1  0.45017380  0.19656567  0.68773678  1.0
  S  S28  1  0.54982620  0.80343433  0.31226322  1.0
  S  S29  1  0.54982620  0.69656567  0.81226322  1.0
  S  S30  1  0.41820701  0.02584928  0.12873916  1.0
  S  S31  1  0.41820701  0.47415072  0.62873916  1.0
  S  S32  1  0.58179299  0.52584928  0.37126084  1.0
  S  S33  1  0.58179299  0.97415072  0.87126084  1.0
