# generated using pymatgen
data_Al2Si(O2F)2
_symmetry_space_group_name_H-M   'P 1'
_cell_length_a   8.89746445
_cell_length_b   8.50918257
_cell_length_c   4.71409920
_cell_angle_alpha   90.00000000
_cell_angle_beta   90.00000000
_cell_angle_gamma   90.00000000
_symmetry_Int_Tables_number   1
_chemical_formula_structural   Al2Si(O2F)2
_chemical_formula_sum   'Al8 Si4 O16 F8'
_cell_volume   356.90515485
_cell_formula_units_Z   4
loop_
 _symmetry_equiv_pos_site_id
 _symmetry_equiv_pos_as_xyz
  1  'x, y, z'
loop_
 _atom_site_type_symbol
 _atom_site_label
 _atom_site_symmetry_multiplicity
 _atom_site_fract_x
 _atom_site_fract_y
 _atom_site_fract_z
 _atom_site_occupancy
  Al  Al0  1  0.86953614  0.41667657  0.40290910  1.0
  Al  Al1  1  0.86953614  0.08332343  0.40290910  1.0
  Al  Al2  1  0.36953614  0.41667657  0.09709090  1.0
  Al  Al3  1  0.36953614  0.08332343  0.09709090  1.0
  Al  Al4  1  0.13046386  0.91667657  0.59709090  1.0
  Al  Al5  1  0.13046386  0.58332343  0.59709090  1.0
  Al  Al6  1  0.63046386  0.91667657  0.90290910  1.0
  Al  Al7  1  0.63046386  0.58332343  0.90290910  1.0
  Si  Si8  1  0.56005901  0.25000000  0.60384833  1.0
  Si  Si9  1  0.06005901  0.25000000  0.89615167  1.0
  Si  Si10  1  0.43994099  0.75000000  0.39615167  1.0
  Si  Si11  1  0.93994099  0.75000000  0.10384833  1.0
  O  O12  1  0.98843242  0.90699911  0.29176684  1.0
  O  O13  1  0.98843242  0.59300089  0.29176684  1.0
  O  O14  1  0.48843242  0.90699911  0.20823316  1.0
  O  O15  1  0.48843242  0.59300089  0.20823316  1.0
  O  O16  1  0.01156758  0.40699911  0.70823316  1.0
  O  O17  1  0.01156758  0.09300089  0.70823316  1.0
  O  O18  1  0.51156758  0.40699911  0.79176684  1.0
  O  O19  1  0.51156758  0.09300089  0.79176684  1.0
  O  O20  1  0.96719665  0.25000000  0.20074373  1.0
  O  O21  1  0.46719665  0.25000000  0.29925627  1.0
  O  O22  1  0.03280335  0.75000000  0.79925627  1.0
  O  O23  1  0.53280335  0.75000000  0.70074373  1.0
  O  O24  1  0.74395923  0.25000000  0.54008847  1.0
  O  O25  1  0.24395923  0.25000000  0.95991153  1.0
  O  O26  1  0.25604077  0.75000000  0.45991153  1.0
  O  O27  1  0.75604077  0.75000000  0.04008847  1.0
  F  F28  1  0.74746449  0.44459972  0.09926456  1.0
  F  F29  1  0.74746449  0.05540028  0.09926456  1.0
  F  F30  1  0.24746449  0.44459972  0.40073544  1.0
  F  F31  1  0.24746449  0.05540028  0.40073544  1.0
  F  F32  1  0.25253551  0.94459972  0.90073544  1.0
  F  F33  1  0.25253551  0.55540028  0.90073544  1.0
  F  F34  1  0.75253551  0.94459972  0.59926456  1.0
  F  F35  1  0.75253551  0.55540028  0.59926456  1.0
