# generated using pymatgen
data_Ba(GdS2)2
_symmetry_space_group_name_H-M   'P 1'
_cell_length_a   12.35015941
_cell_length_b   4.10407030
_cell_length_c   14.69267705
_cell_angle_alpha   90.00000000
_cell_angle_beta   90.00000000
_cell_angle_gamma   90.00000000
_symmetry_Int_Tables_number   1
_chemical_formula_structural   Ba(GdS2)2
_chemical_formula_sum   'Ba4 Gd8 S16'
_cell_volume   744.71188871
_cell_formula_units_Z   4
loop_
 _symmetry_equiv_pos_site_id
 _symmetry_equiv_pos_as_xyz
  1  'x, y, z'
loop_
 _atom_site_type_symbol
 _atom_site_label
 _atom_site_symmetry_multiplicity
 _atom_site_fract_x
 _atom_site_fract_y
 _atom_site_fract_z
 _atom_site_occupancy
  Ba  Ba0  1  0.75690974  0.75000000  0.66063241  1.0
  Ba  Ba1  1  0.25690974  0.75000000  0.83936759  1.0
  Ba  Ba2  1  0.24309026  0.25000000  0.33936759  1.0
  Ba  Ba3  1  0.74309026  0.25000000  0.16063241  1.0
  Gd  Gd4  1  0.92128328  0.75000000  0.39755224  1.0
  Gd  Gd5  1  0.42128328  0.75000000  0.10244776  1.0
  Gd  Gd6  1  0.07871672  0.25000000  0.60244776  1.0
  Gd  Gd7  1  0.57871672  0.25000000  0.89755224  1.0
  Gd  Gd8  1  0.43057315  0.75000000  0.60883734  1.0
  Gd  Gd9  1  0.93057315  0.75000000  0.89116266  1.0
  Gd  Gd10  1  0.56942685  0.25000000  0.39116266  1.0
  Gd  Gd11  1  0.06942685  0.25000000  0.10883734  1.0
  S  S12  1  0.91968694  0.75000000  0.07776481  1.0
  S  S13  1  0.41968694  0.75000000  0.42223519  1.0
  S  S14  1  0.08031306  0.25000000  0.92223519  1.0
  S  S15  1  0.58031306  0.25000000  0.57776481  1.0
  S  S16  1  0.70788982  0.75000000  0.33229530  1.0
  S  S17  1  0.20788982  0.75000000  0.16770470  1.0
  S  S18  1  0.29211018  0.25000000  0.66770470  1.0
  S  S19  1  0.79211018  0.25000000  0.83229530  1.0
  S  S20  1  0.62579125  0.75000000  0.02313382  1.0
  S  S21  1  0.12579125  0.75000000  0.47686618  1.0
  S  S22  1  0.37420875  0.25000000  0.97686618  1.0
  S  S23  1  0.87420875  0.25000000  0.52313382  1.0
  S  S24  1  0.52131400  0.75000000  0.78311868  1.0
  S  S25  1  0.02131400  0.75000000  0.71688132  1.0
  S  S26  1  0.47868600  0.25000000  0.21688132  1.0
  S  S27  1  0.97868600  0.25000000  0.28311868  1.0
