# generated using pymatgen
data_HfTaNO3
_symmetry_space_group_name_H-M   'P 1'
_cell_length_a   3.51012116
_cell_length_b   3.59388576
_cell_length_c   5.30211510
_cell_angle_alpha   90.00000000
_cell_angle_beta   90.00000000
_cell_angle_gamma   90.00000000
_symmetry_Int_Tables_number   1
_chemical_formula_structural   HfTaNO3
_chemical_formula_sum   'Hf1 Ta1 N1 O3'
_cell_volume   66.88604641
_cell_formula_units_Z   1
loop_
 _symmetry_equiv_pos_site_id
 _symmetry_equiv_pos_as_xyz
  1  'x, y, z'
loop_
 _atom_site_type_symbol
 _atom_site_label
 _atom_site_symmetry_multiplicity
 _atom_site_fract_x
 _atom_site_fract_y
 _atom_site_fract_z
 _atom_site_occupancy
  Hf  Hf0  1  0.00000000  0.00000000  0.23646327  1.0
  Ta  Ta1  1  0.50000000  0.50000000  0.76141759  1.0
  N  N2  1  0.50000000  0.00000000  0.92812392  1.0
  O  O3  1  0.00000000  0.50000000  0.05920782  1.0
  O  O4  1  0.00000000  0.50000000  0.57684932  1.0
  O  O5  1  0.50000000  0.00000000  0.43793808  1.0
