# generated using pymatgen
data_CoH16Au2C8(NO)8
_symmetry_space_group_name_H-M   'P 1'
_cell_length_a   10.29521761
_cell_length_b   8.54479960
_cell_length_c   6.77566962
_cell_angle_alpha   101.01150082
_cell_angle_beta   108.12959940
_cell_angle_gamma   93.63663309
_symmetry_Int_Tables_number   1
_chemical_formula_structural   CoH16Au2C8(NO)8
_chemical_formula_sum   'Co1 H16 Au2 C8 N8 O8'
_cell_volume   551.19510117
_cell_formula_units_Z   1
loop_
 _symmetry_equiv_pos_site_id
 _symmetry_equiv_pos_as_xyz
  1  'x, y, z'
loop_
 _atom_site_type_symbol
 _atom_site_label
 _atom_site_symmetry_multiplicity
 _atom_site_fract_x
 _atom_site_fract_y
 _atom_site_fract_z
 _atom_site_occupancy
  Co  Co0  1  -0.50000000  -0.00000000  0.00000000  1.0
  H  H1  1  -0.56636189  -0.70803836  -1.00200454  1.0
  H  H2  1  -0.43363811  -0.29196164  0.00200454  1.0
  H  H3  1  -0.41117279  -0.67970573  -0.85880839  1.0
  H  H4  1  -0.58882721  -0.32029427  -0.14119161  1.0
  H  H5  1  -0.67621679  -1.00833529  -0.77858094  1.0
  H  H6  1  -0.32378321  0.00833529  -0.22141906  1.0
  H  H7  1  -0.53088509  -0.26835052  -0.72766173  1.0
  H  H8  1  -0.46911491  -0.73164948  -0.27233827  1.0
  H  H9  1  -0.55197189  -0.87000003  -0.62633141  1.0
  H  H10  1  -0.44802811  -0.12999997  -0.37366859  1.0
  H  H11  1  -0.62282214  -0.39571989  -0.49211493  1.0
  H  H12  1  -0.37717786  -0.60428011  -0.50788507  1.0
  H  H13  1  -0.74598375  -0.50625592  -0.46461788  1.0
  H  H14  1  -0.25401625  -0.49374408  -0.53538212  1.0
  H  H15  1  -0.55593209  -0.62013610  -0.40570533  1.0
  H  H16  1  -0.44406791  -0.37986390  -0.59429467  1.0
  Au  Au17  1  0.00000000  0.00000000  -0.50000000  1.0
  Au  Au18  1  -0.00000000  -0.50000000  -0.00000000  1.0
  C  C19  1  -0.82278168  -0.58243512  -1.00040415  1.0
  C  C20  1  -0.17721832  -0.41756488  0.00040415  1.0
  C  C21  1  -0.89889042  -0.27654521  -0.89594449  1.0
  C  C22  1  -0.10110958  -0.72345479  -0.10405551  1.0
  C  C23  1  -0.19239711  -0.98538886  -0.68098618  1.0
  C  C24  1  -0.80760289  -0.01461114  -0.31901382  1.0
  C  C25  1  -0.93803673  -0.78630305  -0.54436210  1.0
  C  C26  1  -0.06196327  -0.21369695  -0.45563790  1.0
  N  N27  1  -0.71893242  -0.62855958  -0.99976129  1.0
  N  N28  1  -0.28106758  -0.37144042  -0.00023871  1.0
  N  N29  1  -0.83766145  -0.14771854  -0.83555427  1.0
  N  N30  1  -0.16233855  -0.85228146  -0.16444573  1.0
  N  N31  1  -0.30382487  -0.97701742  -0.78692389  1.0
  N  N32  1  -0.69617513  -0.02298258  -0.21307611  1.0
  N  N33  1  -0.90202829  -0.66115693  -0.56750398  1.0
  N  N34  1  -0.09797171  -0.33884307  -0.43249602  1.0
  O  O35  1  -0.47630501  -0.74876110  -0.99360083  1.0
  O  O36  1  -0.52369499  -0.25123890  -0.00639917  1.0
  O  O37  1  -0.58112780  -0.96091761  -0.75437458  1.0
  O  O38  1  -0.41887220  -0.03908239  -0.24562542  1.0
  O  O39  1  -0.49446510  -0.70516440  -0.41362658  1.0
  O  O40  1  -0.50553490  -0.29483560  -0.58637342  1.0
  O  O41  1  -0.64977128  -0.45442743  -0.39457818  1.0
  O  O42  1  -0.35022872  -0.54557257  -0.60542182  1.0
