# generated using pymatgen
data_AlSiTe3
_symmetry_space_group_name_H-M   'P 1'
_cell_length_a   6.90122968
_cell_length_b   6.90122968
_cell_length_c   7.83625525
_cell_angle_alpha   90.00000000
_cell_angle_beta   90.00000000
_cell_angle_gamma   120.00000000
_symmetry_Int_Tables_number   1
_chemical_formula_structural   AlSiTe3
_chemical_formula_sum   'Al2 Si2 Te6'
_cell_volume   323.21549200
_cell_formula_units_Z   2
loop_
 _symmetry_equiv_pos_site_id
 _symmetry_equiv_pos_as_xyz
  1  'x, y, z'
loop_
 _atom_site_type_symbol
 _atom_site_label
 _atom_site_symmetry_multiplicity
 _atom_site_fract_x
 _atom_site_fract_y
 _atom_site_fract_z
 _atom_site_occupancy
  Al  Al0  1  0.33333333  0.66666667  -0.00006790  1.0
  Al  Al1  1  0.66666667  0.33333333  1.00006790  1.0
  Si  Si2  1  -0.00000000  -0.00000000  0.14644535  1.0
  Si  Si3  1  0.00000000  0.00000000  0.85355465  1.0
  Te  Te4  1  0.64366256  0.64373605  0.22797586  1.0
  Te  Te5  1  0.64373605  1.00007349  0.77202414  1.0
  Te  Te6  1  1.00007349  0.35633744  0.22797586  1.0
  Te  Te7  1  0.35626395  -0.00007349  0.22797586  1.0
  Te  Te8  1  0.35633744  0.35626395  0.77202414  1.0
  Te  Te9  1  -0.00007349  0.64366256  0.77202414  1.0
