# generated using pymatgen
data_BaYCuSe3
_symmetry_space_group_name_H-M   'P 1'
_cell_length_a   7.35623265
_cell_length_b   7.35623265
_cell_length_c   10.67970917
_cell_angle_alpha   90.00000000
_cell_angle_beta   90.00000000
_cell_angle_gamma   146.98685135
_symmetry_Int_Tables_number   1
_chemical_formula_structural   BaYCuSe3
_chemical_formula_sum   'Ba2 Y2 Cu2 Se6'
_cell_volume   314.87090686
_cell_formula_units_Z   2
loop_
 _symmetry_equiv_pos_site_id
 _symmetry_equiv_pos_as_xyz
  1  'x, y, z'
loop_
 _atom_site_type_symbol
 _atom_site_label
 _atom_site_symmetry_multiplicity
 _atom_site_fract_x
 _atom_site_fract_y
 _atom_site_fract_z
 _atom_site_occupancy
  Ba  Ba0  1  -0.25212739  0.25212739  0.75000000  1.0
  Ba  Ba1  1  0.25212739  0.74787261  0.25000000  1.0
  Y  Y2  1  0.00000000  0.00000000  0.00000000  1.0
  Y  Y3  1  0.00000000  0.00000000  0.50000000  1.0
  Cu  Cu4  1  0.46895496  0.53104504  0.75000000  1.0
  Cu  Cu5  1  -0.46895496  0.46895496  0.25000000  1.0
  Se  Se6  1  0.36635751  0.63364249  0.93777323  1.0
  Se  Se7  1  0.36635751  0.63364249  0.56222677  1.0
  Se  Se8  1  -0.36635751  0.36635751  0.43777323  1.0
  Se  Se9  1  -0.36635751  0.36635751  0.06222677  1.0
  Se  Se10  1  0.06966113  0.93033887  0.75000000  1.0
  Se  Se11  1  -0.06966113  0.06966113  0.25000000  1.0
