# generated using pymatgen
data_Pt(I3N)2
_symmetry_space_group_name_H-M   'P 1'
_cell_length_a   7.72729752
_cell_length_b   7.72729752
_cell_length_c   7.72729752
_cell_angle_alpha   60.00000000
_cell_angle_beta   60.00000000
_cell_angle_gamma   60.00000000
_symmetry_Int_Tables_number   1
_chemical_formula_structural   Pt(I3N)2
_chemical_formula_sum   'Pt1 I6 N2'
_cell_volume   326.26305898
_cell_formula_units_Z   1
loop_
 _symmetry_equiv_pos_site_id
 _symmetry_equiv_pos_as_xyz
  1  'x, y, z'
loop_
 _atom_site_type_symbol
 _atom_site_label
 _atom_site_symmetry_multiplicity
 _atom_site_fract_x
 _atom_site_fract_y
 _atom_site_fract_z
 _atom_site_occupancy
  Pt  Pt0  1  0.00000000  0.00000000  0.00000000  1.0
  I  I1  1  -0.75439948  0.75439948  0.75439948  1.0
  I  I2  1  -0.24560052  0.24560052  0.75439948  1.0
  I  I3  1  0.75439948  0.75439948  -0.75439948  1.0
  I  I4  1  0.24560052  1.24560052  -0.24560052  1.0
  I  I5  1  0.24560052  -0.24560052  1.24560052  1.0
  I  I6  1  -0.24560052  0.24560052  0.24560052  1.0
  N  N7  1  0.75000000  0.75000000  -0.25000000  1.0
  N  N8  1  1.25000000  0.25000000  0.25000000  1.0
