# generated using pymatgen
data_Zr(NiP)2
_symmetry_space_group_name_H-M   'P 1'
_cell_length_a   5.47089780
_cell_length_b   5.47089780
_cell_length_c   5.47089780
_cell_angle_alpha   140.44283648
_cell_angle_beta   140.44283648
_cell_angle_gamma   57.18152795
_symmetry_Int_Tables_number   1
_chemical_formula_structural   Zr(NiP)2
_chemical_formula_sum   'Zr1 Ni2 P2'
_cell_volume   65.85447385
_cell_formula_units_Z   1
loop_
 _symmetry_equiv_pos_site_id
 _symmetry_equiv_pos_as_xyz
  1  'x, y, z'
loop_
 _atom_site_type_symbol
 _atom_site_label
 _atom_site_symmetry_multiplicity
 _atom_site_fract_x
 _atom_site_fract_y
 _atom_site_fract_z
 _atom_site_occupancy
  Zr  Zr0  1  0.00000000  0.00000000  0.00000000  1.0
  Ni  Ni1  1  0.25000000  0.75000000  0.50000000  1.0
  Ni  Ni2  1  0.75000000  0.25000000  0.50000000  1.0
  P  P3  1  0.61783822  0.61783822  1.00000000  1.0
  P  P4  1  0.38216178  0.38216178  0.00000000  1.0
