# generated using pymatgen
data_InAgS2
_symmetry_space_group_name_H-M   'P 1'
_cell_length_a   7.83034209
_cell_length_b   7.83034209
_cell_length_c   7.83034209
_cell_angle_alpha   28.94133008
_cell_angle_beta   28.94133008
_cell_angle_gamma   28.94133008
_symmetry_Int_Tables_number   1
_chemical_formula_structural   InAgS2
_chemical_formula_sum   'In1 Ag1 S2'
_cell_volume   99.43395578
_cell_formula_units_Z   1
loop_
 _symmetry_equiv_pos_site_id
 _symmetry_equiv_pos_as_xyz
  1  'x, y, z'
loop_
 _atom_site_type_symbol
 _atom_site_label
 _atom_site_symmetry_multiplicity
 _atom_site_fract_x
 _atom_site_fract_y
 _atom_site_fract_z
 _atom_site_occupancy
  In  In0  1  1.50000000  0.50000000  0.50000000  1.0
  Ag  Ag1  1  0.00000000  0.00000000  0.00000000  1.0
  S  S2  1  0.89507610  0.89507610  0.89507610  1.0
  S  S3  1  1.10492390  1.10492390  0.10492390  1.0
