# generated using pymatgen
data_H5CN3
_symmetry_space_group_name_H-M   'P 1'
_cell_length_a   6.52410746
_cell_length_b   6.62432751
_cell_length_c   7.88735211
_cell_angle_alpha   90.00000000
_cell_angle_beta   90.00000000
_cell_angle_gamma   90.00000000
_symmetry_Int_Tables_number   1
_chemical_formula_structural   H5CN3
_chemical_formula_sum   'H20 C4 N12'
_cell_volume   340.87419944
_cell_formula_units_Z   4
loop_
 _symmetry_equiv_pos_site_id
 _symmetry_equiv_pos_as_xyz
  1  'x, y, z'
loop_
 _atom_site_type_symbol
 _atom_site_label
 _atom_site_symmetry_multiplicity
 _atom_site_fract_x
 _atom_site_fract_y
 _atom_site_fract_z
 _atom_site_occupancy
  H  H0  1  0.34912588  0.47902324  0.94122583  1.0
  H  H1  1  0.84912588  0.02097676  0.05877417  1.0
  H  H2  1  0.65087412  0.97902324  0.55877417  1.0
  H  H3  1  0.15087412  0.52097676  0.44122583  1.0
  H  H4  1  0.33494842  0.60359141  0.57257991  1.0
  H  H5  1  0.83494842  0.89640859  0.42742009  1.0
  H  H6  1  0.66505158  0.10359141  0.92742009  1.0
  H  H7  1  0.16505158  0.39640859  0.07257991  1.0
  H  H8  1  0.24125953  0.35826444  0.58993199  1.0
  H  H9  1  0.74125953  0.14173556  0.41006801  1.0
  H  H10  1  0.75874047  0.85826444  0.91006801  1.0
  H  H11  1  0.25874047  0.64173556  0.08993199  1.0
  H  H12  1  0.10000402  0.57187943  0.92482203  1.0
  H  H13  1  0.60000402  0.92812057  0.07517797  1.0
  H  H14  1  0.89999598  0.07187943  0.57517797  1.0
  H  H15  1  0.39999598  0.42812057  0.42482203  1.0
  H  H16  1  0.88454850  0.64097915  0.66632363  1.0
  H  H17  1  0.38454850  0.85902085  0.33367637  1.0
  H  H18  1  0.11545150  0.14097915  0.83367637  1.0
  H  H19  1  0.61545150  0.35902085  0.16632363  1.0
  C  C20  1  0.27468780  0.98966596  0.67166671  1.0
  C  C21  1  0.77468780  0.51033404  0.32833329  1.0
  C  C22  1  0.72531220  0.48966596  0.82833329  1.0
  C  C23  1  0.22531220  0.01033404  0.17166671  1.0
  N  N24  1  0.40103464  0.87170488  0.62368887  1.0
  N  N25  1  0.90103464  0.62829512  0.37631113  1.0
  N  N26  1  0.59896536  0.37170488  0.87631113  1.0
  N  N27  1  0.09896536  0.12829512  0.12368887  1.0
  N  N28  1  0.36336042  0.87852424  0.20571037  1.0
  N  N29  1  0.86336042  0.62147576  0.79428963  1.0
  N  N30  1  0.63663958  0.37852424  0.29428963  1.0
  N  N31  1  0.13663958  0.12147576  0.70571037  1.0
  N  N32  1  0.28279634  0.47530108  0.50751945  1.0
  N  N33  1  0.78279634  0.02469892  0.49248055  1.0
  N  N34  1  0.71720366  0.97530108  0.99248055  1.0
  N  N35  1  0.21720366  0.52469892  0.00751945  1.0
