# generated using pymatgen
data_Tl3PbBr5
_symmetry_space_group_name_H-M   'P 1'
_cell_length_a   9.01650525
_cell_length_b   9.01650525
_cell_length_c   15.65764931
_cell_angle_alpha   90.00000000
_cell_angle_beta   90.00000000
_cell_angle_gamma   90.00000000
_symmetry_Int_Tables_number   1
_chemical_formula_structural   Tl3PbBr5
_chemical_formula_sum   'Tl12 Pb4 Br20'
_cell_volume   1272.92566231
_cell_formula_units_Z   4
loop_
 _symmetry_equiv_pos_site_id
 _symmetry_equiv_pos_as_xyz
  1  'x, y, z'
loop_
 _atom_site_type_symbol
 _atom_site_label
 _atom_site_symmetry_multiplicity
 _atom_site_fract_x
 _atom_site_fract_y
 _atom_site_fract_z
 _atom_site_occupancy
  Tl  Tl0  1  0.99444663  0.81341444  0.69622580  1.0
  Tl  Tl1  1  0.81341444  0.00555337  0.44622580  1.0
  Tl  Tl2  1  0.00555337  0.18658556  0.19622580  1.0
  Tl  Tl3  1  0.18658556  0.99444663  0.94622580  1.0
  Tl  Tl4  1  0.82820407  0.64106968  0.96341744  1.0
  Tl  Tl5  1  0.64106968  0.17179593  0.71341744  1.0
  Tl  Tl6  1  0.17179593  0.35893032  0.46341744  1.0
  Tl  Tl7  1  0.35893032  0.82820407  0.21341744  1.0
  Tl  Tl8  1  0.31836792  0.88718933  0.52333392  1.0
  Tl  Tl9  1  0.88718933  0.68163208  0.27333392  1.0
  Tl  Tl10  1  0.68163208  0.11281067  0.02333392  1.0
  Tl  Tl11  1  0.11281067  0.31836792  0.77333392  1.0
  Pb  Pb12  1  0.68954428  0.52562966  0.54202062  1.0
  Pb  Pb13  1  0.52562966  0.31045572  0.29202062  1.0
  Pb  Pb14  1  0.31045572  0.47437034  0.04202062  1.0
  Pb  Pb15  1  0.47437034  0.68954428  0.79202062  1.0
  Br  Br16  1  0.97879983  0.66891679  0.49411064  1.0
  Br  Br17  1  0.66891679  0.02120017  0.24411064  1.0
  Br  Br18  1  0.02120017  0.33108321  -0.00588936  1.0
  Br  Br19  1  0.33108321  0.97879983  0.74411064  1.0
  Br  Br20  1  0.83342691  0.97951616  0.84957188  1.0
  Br  Br21  1  0.97951616  0.16657309  0.59957188  1.0
  Br  Br22  1  0.16657309  0.02048384  0.34957188  1.0
  Br  Br23  1  0.02048384  0.83342691  0.09957188  1.0
  Br  Br24  1  0.79849598  0.50532303  0.74189509  1.0
  Br  Br25  1  0.50532303  0.20150402  0.49189509  1.0
  Br  Br26  1  0.20150402  0.49467697  0.24189509  1.0
  Br  Br27  1  0.49467697  0.79849598  -0.00810491  1.0
  Br  Br28  1  0.64655149  0.82679920  0.61603346  1.0
  Br  Br29  1  0.82679920  0.35344851  0.36603346  1.0
  Br  Br30  1  0.35344851  0.17320080  0.11603346  1.0
  Br  Br31  1  0.17320080  0.64655149  0.86603346  1.0
  Br  Br32  1  0.36094164  0.51422248  0.64739115  1.0
  Br  Br33  1  0.51422248  0.63905836  0.39739115  1.0
  Br  Br34  1  0.63905836  0.48577752  0.14739115  1.0
  Br  Br35  1  0.48577752  0.36094164  0.89739115  1.0
