# generated using pymatgen
data_Ag3Sb4F24
_symmetry_space_group_name_H-M   'P 1'
_cell_length_a   11.08530497
_cell_length_b   11.08530497
_cell_length_c   11.08530497
_cell_angle_alpha   109.47122063
_cell_angle_beta   109.47122063
_cell_angle_gamma   109.47122063
_symmetry_Int_Tables_number   1
_chemical_formula_structural   Ag3Sb4F24
_chemical_formula_sum   'Ag6 Sb8 F48'
_cell_volume   1048.62702541
_cell_formula_units_Z   2
loop_
 _symmetry_equiv_pos_site_id
 _symmetry_equiv_pos_as_xyz
  1  'x, y, z'
loop_
 _atom_site_type_symbol
 _atom_site_label
 _atom_site_symmetry_multiplicity
 _atom_site_fract_x
 _atom_site_fract_y
 _atom_site_fract_z
 _atom_site_occupancy
  Ag  Ag0  1  1.12500000  0.87500000  1.25000000  1.0
  Ag  Ag1  1  0.37500000  0.62500000  0.75000000  1.0
  Ag  Ag2  1  0.25000000  1.12500000  0.87500000  1.0
  Ag  Ag3  1  0.75000000  1.37500000  0.62500000  1.0
  Ag  Ag4  1  0.62500000  0.75000000  0.37500000  1.0
  Ag  Ag5  1  0.87500000  0.25000000  1.12500000  1.0
  Sb  Sb6  1  1.38232352  1.38232352  1.38232352  1.0
  Sb  Sb7  1  1.50000000  1.00000000  1.11767648  1.0
  Sb  Sb8  1  0.88232352  0.88232352  0.88232352  1.0
  Sb  Sb9  1  0.50000000  1.00000000  0.61767648  1.0
  Sb  Sb10  1  1.00000000  1.11767648  1.50000000  1.0
  Sb  Sb11  1  1.11767648  0.50000000  1.00000000  1.0
  Sb  Sb12  1  1.00000000  0.61767648  1.50000000  1.0
  Sb  Sb13  1  0.61767648  1.50000000  1.00000000  1.0
  F  F14  1  1.36461156  1.30419056  1.19142088  1.0
  F  F15  1  1.61276968  1.17319068  1.30857912  1.0
  F  F16  1  0.80419056  0.86461156  0.69142088  1.0
  F  F17  1  0.67319068  1.11276968  0.80857912  1.0
  F  F18  1  1.19142088  1.36461156  1.30419056  1.0
  F  F19  1  1.56042101  0.88723032  1.19580944  1.0
  F  F20  1  0.86461156  0.69142088  0.80419056  1.0
  F  F21  1  0.38723032  1.06042101  0.69580944  1.0
  F  F22  1  1.30419056  1.19142088  1.36461156  1.0
  F  F23  1  1.32680932  0.93957899  1.13538844  1.0
  F  F24  1  0.69142088  0.80419056  0.86461156  1.0
  F  F25  1  0.43957899  0.82680932  0.63538844  1.0
  F  F26  1  0.88723032  1.19580944  0.56042101  1.0
  F  F27  1  1.13538844  0.32680932  0.93957899  1.0
  F  F28  1  0.82680932  0.63538844  0.43957899  1.0
  F  F29  1  0.69580944  0.38723032  1.06042101  1.0
  F  F30  1  0.93957899  1.13538844  0.32680932  1.0
  F  F31  1  1.30857912  0.61276968  1.17319068  1.0
  F  F32  1  1.11276968  0.80857912  1.67319068  1.0
  F  F33  1  0.63538844  1.43957899  0.82680932  1.0
  F  F34  1  1.17319068  1.30857912  1.61276968  1.0
  F  F35  1  1.19580944  1.56042101  0.88723032  1.0
  F  F36  1  1.06042101  0.69580944  1.38723032  1.0
  F  F37  1  0.80857912  1.67319068  1.11276968  1.0
  F  F38  1  0.08171663  0.97566054  0.91279005  1.0
  F  F39  1  1.56287049  1.16892658  1.58720995  1.0
  F  F40  1  0.47566054  0.58171663  0.41279005  1.0
  F  F41  1  1.66892658  1.06287049  1.08720995  1.0
  F  F42  1  0.91279005  1.08171663  0.97566054  1.0
  F  F43  1  0.60605609  0.93712951  0.52433946  1.0
  F  F44  1  1.58171663  1.41279005  1.47566054  1.0
  F  F45  1  1.43712951  1.10605609  1.02433946  1.0
  F  F46  1  0.97566054  0.91279005  0.08171663  1.0
  F  F47  1  1.33107342  0.89394391  1.41828337  1.0
  F  F48  1  1.41279005  1.47566054  1.58171663  1.0
  F  F49  1  0.39394391  0.83107342  0.91828337  1.0
  F  F50  1  0.93712951  0.52433946  0.60605609  1.0
  F  F51  1  1.41828337  1.33107342  1.89394391  1.0
  F  F52  1  0.83107342  0.91828337  0.39394391  1.0
  F  F53  1  1.02433946  1.43712951  1.10605609  1.0
  F  F54  1  1.89394391  1.41828337  1.33107342  1.0
  F  F55  1  0.58720995  0.56287049  0.16892658  1.0
  F  F56  1  1.06287049  1.08720995  1.66892658  1.0
  F  F57  1  0.91828337  1.39394391  0.83107342  1.0
  F  F58  1  0.16892658  0.58720995  0.56287049  1.0
  F  F59  1  0.52433946  0.60605609  0.93712951  1.0
  F  F60  1  1.10605609  1.02433946  1.43712951  1.0
  F  F61  1  1.08720995  0.66892658  1.06287049  1.0
