# generated using pymatgen
data_CsAgC2
_symmetry_space_group_name_H-M   'P 1'
_cell_length_a   4.85263152
_cell_length_b   4.85263152
_cell_length_c   5.32227277
_cell_angle_alpha   90.00000000
_cell_angle_beta   90.00000000
_cell_angle_gamma   90.00000000
_symmetry_Int_Tables_number   1
_chemical_formula_structural   CsAgC2
_chemical_formula_sum   'Cs1 Ag1 C2'
_cell_volume   125.32905318
_cell_formula_units_Z   1
loop_
 _symmetry_equiv_pos_site_id
 _symmetry_equiv_pos_as_xyz
  1  'x, y, z'
loop_
 _atom_site_type_symbol
 _atom_site_label
 _atom_site_symmetry_multiplicity
 _atom_site_fract_x
 _atom_site_fract_y
 _atom_site_fract_z
 _atom_site_occupancy
  Cs  Cs0  1  0.50000000  0.50000000  0.50000000  1.0
  Ag  Ag1  1  0.00000000  0.00000000  0.00000000  1.0
  C  C2  1  0.00000000  0.00000000  0.61733719  1.0
  C  C3  1  0.00000000  0.00000000  0.38266281  1.0
