# generated using pymatgen
data_Cu(Cl2O)2
_symmetry_space_group_name_H-M   'P 1'
_cell_length_a   7.95209985
_cell_length_b   6.44482157
_cell_length_c   7.16409569
_cell_angle_alpha   71.28830620
_cell_angle_beta   50.14051606
_cell_angle_gamma   58.57117774
_symmetry_Int_Tables_number   1
_chemical_formula_structural   Cu(Cl2O)2
_chemical_formula_sum   'Cu2 Cl8 O4'
_cell_volume   240.43892303
_cell_formula_units_Z   2
loop_
 _symmetry_equiv_pos_site_id
 _symmetry_equiv_pos_as_xyz
  1  'x, y, z'
loop_
 _atom_site_type_symbol
 _atom_site_label
 _atom_site_symmetry_multiplicity
 _atom_site_fract_x
 _atom_site_fract_y
 _atom_site_fract_z
 _atom_site_occupancy
  Cu  Cu0  1  0.00000000  0.00000000  0.00000000  1.0
  Cu  Cu1  1  0.25000000  0.25000000  1.25000000  1.0
  Cl  Cl2  1  0.43666539  0.44316581  1.30832438  1.0
  Cl  Cl3  1  -0.18815558  0.30832438  0.44316581  1.0
  Cl  Cl4  1  -0.19316581  0.81333461  0.43815558  1.0
  Cl  Cl5  1  -0.05832438  0.43815558  0.81333461  1.0
  Cl  Cl6  1  0.30832438  -0.18815558  1.43666539  1.0
  Cl  Cl7  1  0.44316581  0.43666539  -0.18815558  1.0
  Cl  Cl8  1  -0.56184442  0.94167562  0.80683419  1.0
  Cl  Cl9  1  -0.18666539  0.80683419  0.94167562  1.0
  O  O10  1  0.12500000  0.12500000  1.62500000  1.0
  O  O11  1  0.12500000  0.62500000  1.12500000  1.0
  O  O12  1  0.12500000  0.12500000  1.12500000  1.0
  O  O13  1  0.62500000  0.12500000  1.12500000  1.0
