# generated using pymatgen
data_GePt
_symmetry_space_group_name_H-M   'P 1'
_cell_length_a   5.80940925
_cell_length_b   3.75472362
_cell_length_c   6.15643607
_cell_angle_alpha   90.00000000
_cell_angle_beta   90.00000000
_cell_angle_gamma   90.00000000
_symmetry_Int_Tables_number   1
_chemical_formula_structural   GePt
_chemical_formula_sum   'Ge4 Pt4'
_cell_volume   134.28865384
_cell_formula_units_Z   4
loop_
 _symmetry_equiv_pos_site_id
 _symmetry_equiv_pos_as_xyz
  1  'x, y, z'
loop_
 _atom_site_type_symbol
 _atom_site_label
 _atom_site_symmetry_multiplicity
 _atom_site_fract_x
 _atom_site_fract_y
 _atom_site_fract_z
 _atom_site_occupancy
  Ge  Ge0  1  0.81400981  0.75000000  0.58871196  1.0
  Ge  Ge1  1  0.31400981  0.75000000  0.91128804  1.0
  Ge  Ge2  1  0.18599019  0.25000000  0.41128804  1.0
  Ge  Ge3  1  0.68599019  0.25000000  0.08871196  1.0
  Pt  Pt4  1  1.00160702  0.75000000  0.19212850  1.0
  Pt  Pt5  1  0.50160702  0.75000000  0.30787150  1.0
  Pt  Pt6  1  -0.00160702  0.25000000  0.80787150  1.0
  Pt  Pt7  1  0.49839298  0.25000000  0.69212850  1.0
