# generated using pymatgen
data_C3S2NCl
_symmetry_space_group_name_H-M   'P 1'
_cell_length_a   4.62027856
_cell_length_b   8.39644516
_cell_length_c   15.58762456
_cell_angle_alpha   90.00000000
_cell_angle_beta   90.41401805
_cell_angle_gamma   90.00000000
_symmetry_Int_Tables_number   1
_chemical_formula_structural   C3S2NCl
_chemical_formula_sum   'C12 S8 N4 Cl4'
_cell_volume   604.68920336
_cell_formula_units_Z   4
loop_
 _symmetry_equiv_pos_site_id
 _symmetry_equiv_pos_as_xyz
  1  'x, y, z'
loop_
 _atom_site_type_symbol
 _atom_site_label
 _atom_site_symmetry_multiplicity
 _atom_site_fract_x
 _atom_site_fract_y
 _atom_site_fract_z
 _atom_site_occupancy
  C  C0  1  0.05134462  0.53973726  0.08857552  1.0
  C  C1  1  0.94865538  0.46026274  0.91142448  1.0
  C  C2  1  0.94865538  0.03973726  0.41142448  1.0
  C  C3  1  0.05134462  0.96026274  0.58857552  1.0
  C  C4  1  0.15357769  0.64204897  0.02161148  1.0
  C  C5  1  0.84642231  0.35795103  0.97838852  1.0
  C  C6  1  0.84642231  0.14204897  0.47838852  1.0
  C  C7  1  0.15357769  0.85795103  0.52161148  1.0
  C  C8  1  0.10352537  0.60436346  0.93694389  1.0
  C  C9  1  0.89647463  0.39563654  0.06305611  1.0
  C  C10  1  0.89647463  0.10436346  0.56305611  1.0
  C  C11  1  0.10352537  0.89563654  0.43694389  1.0
  S  S12  1  0.96248919  0.43975084  0.23874050  1.0
  S  S13  1  0.03751081  0.56024916  0.76125950  1.0
  S  S14  1  0.03751081  0.93975084  0.26125950  1.0
  S  S15  1  0.96248919  0.06024916  0.73874050  1.0
  S  S16  1  0.21830770  0.72164526  0.85172916  1.0
  S  S17  1  0.78169230  0.27835474  0.14827084  1.0
  S  S18  1  0.78169230  0.22164526  0.64827084  1.0
  S  S19  1  0.21830770  0.77835474  0.35172916  1.0
  N  N20  1  0.08931216  0.56995663  0.17090713  1.0
  N  N21  1  0.91068784  0.43004337  0.82909287  1.0
  N  N22  1  0.91068784  0.06995663  0.32909287  1.0
  N  N23  1  0.08931216  0.93004337  0.67090713  1.0
  Cl  Cl24  1  0.33951041  0.81381447  0.04808472  1.0
  Cl  Cl25  1  0.66048959  0.18618553  0.95191528  1.0
  Cl  Cl26  1  0.66048959  0.31381447  0.45191528  1.0
  Cl  Cl27  1  0.33951041  0.68618553  0.54808472  1.0
