# generated using pymatgen
data_Zr6Al2CoH10
_symmetry_space_group_name_H-M   'P 1'
_cell_length_a   8.09373409
_cell_length_b   8.09373409
_cell_length_c   7.12983159
_cell_angle_alpha   90.00000000
_cell_angle_beta   90.00000000
_cell_angle_gamma   120.00000000
_symmetry_Int_Tables_number   1
_chemical_formula_structural   Zr6Al2CoH10
_chemical_formula_sum   'Zr12 Al4 Co2 H20'
_cell_volume   404.48998022
_cell_formula_units_Z   2
loop_
 _symmetry_equiv_pos_site_id
 _symmetry_equiv_pos_as_xyz
  1  'x, y, z'
loop_
 _atom_site_type_symbol
 _atom_site_label
 _atom_site_symmetry_multiplicity
 _atom_site_fract_x
 _atom_site_fract_y
 _atom_site_fract_z
 _atom_site_occupancy
  Zr  Zr0  1  0.62579032  0.57716617  0.25000000  1.0
  Zr  Zr1  1  0.57716617  0.62579032  0.75000000  1.0
  Zr  Zr2  1  0.95137586  0.37420968  0.25000000  1.0
  Zr  Zr3  1  0.42283383  0.04862414  0.25000000  1.0
  Zr  Zr4  1  0.37420968  0.95137586  0.75000000  1.0
  Zr  Zr5  1  0.04862414  0.42283383  0.75000000  1.0
  Zr  Zr6  1  0.26130476  0.26130476  0.50000000  1.0
  Zr  Zr7  1  0.26130476  0.26130476  0.00000000  1.0
  Zr  Zr8  1  0.00000000  0.73869524  0.50000000  1.0
  Zr  Zr9  1  0.00000000  0.73869524  0.00000000  1.0
  Zr  Zr10  1  0.73869524  0.00000000  0.50000000  1.0
  Zr  Zr11  1  0.73869524  0.00000000  0.00000000  1.0
  Al  Al12  1  0.33333333  0.66666667  0.44783265  1.0
  Al  Al13  1  0.33333333  0.66666667  0.05216735  1.0
  Al  Al14  1  0.66666667  0.33333333  0.94783265  1.0
  Al  Al15  1  0.66666667  0.33333333  0.55216735  1.0
  Co  Co16  1  0.00000000  0.00000000  0.25000000  1.0
  Co  Co17  1  0.00000000  0.00000000  0.75000000  1.0
  H  H18  1  0.11907622  0.88404628  0.25000000  1.0
  H  H19  1  0.88404628  0.11907622  0.75000000  1.0
  H  H20  1  0.76497006  0.88092378  0.25000000  1.0
  H  H21  1  0.11595372  0.23502994  0.25000000  1.0
  H  H22  1  0.88092378  0.76497006  0.75000000  1.0
  H  H23  1  0.23502994  0.11595372  0.75000000  1.0
  H  H24  1  0.88533924  0.59081989  0.25000000  1.0
  H  H25  1  0.59081989  0.88533924  0.75000000  1.0
  H  H26  1  0.70548065  0.11466076  0.25000000  1.0
  H  H27  1  0.40918011  0.29451935  0.25000000  1.0
  H  H28  1  0.11466076  0.70548065  0.75000000  1.0
  H  H29  1  0.29451935  0.40918011  0.75000000  1.0
  H  H30  1  0.72052070  0.72052070  0.50000000  1.0
  H  H31  1  0.72052070  0.72052070  0.00000000  1.0
  H  H32  1  0.00000000  0.27947930  0.50000000  1.0
  H  H33  1  0.00000000  0.27947930  0.00000000  1.0
  H  H34  1  0.27947930  0.00000000  0.50000000  1.0
  H  H35  1  0.27947930  0.00000000  0.00000000  1.0
  H  H36  1  0.00000000  0.00000000  0.50000000  1.0
  H  H37  1  0.00000000  0.00000000  0.00000000  1.0
