# generated using pymatgen
data_Nd(BrO6)3
_symmetry_space_group_name_H-M   'P 1'
_cell_length_a   11.70366793
_cell_length_b   11.70366793
_cell_length_c   6.02977516
_cell_angle_alpha   90.00000000
_cell_angle_beta   90.00000000
_cell_angle_gamma   120.00000000
_symmetry_Int_Tables_number   1
_chemical_formula_structural   Nd(BrO6)3
_chemical_formula_sum   'Nd2 Br6 O36'
_cell_volume   715.27942417
_cell_formula_units_Z   2
loop_
 _symmetry_equiv_pos_site_id
 _symmetry_equiv_pos_as_xyz
  1  'x, y, z'
loop_
 _atom_site_type_symbol
 _atom_site_label
 _atom_site_symmetry_multiplicity
 _atom_site_fract_x
 _atom_site_fract_y
 _atom_site_fract_z
 _atom_site_occupancy
  O  O0  1  0.20824200  0.10412100  0.19692191  1.0
  O  O1  1  0.10412100  0.20824200  0.69692191  1.0
  O  O2  1  0.10412100  0.89587900  0.69692191  1.0
  O  O3  1  0.89587900  0.10412100  0.19692191  1.0
  O  O4  1  0.89587900  0.79175800  0.19692191  1.0
  O  O5  1  0.79175800  0.89587900  0.69692191  1.0
  O  O6  1  0.80425413  0.40212707  0.27736636  1.0
  O  O7  1  0.40212707  0.80425413  0.77736636  1.0
  O  O8  1  0.40212707  0.59787293  0.77736636  1.0
  O  O9  1  0.59787293  0.40212707  0.27736636  1.0
  O  O10  1  0.59787293  0.19574587  0.27736636  1.0
  O  O11  1  0.19574587  0.59787293  0.77736636  1.0
  O  O12  1  0.11580106  0.55790053  0.22888063  1.0
  O  O13  1  0.55790053  0.11580106  0.72888063  1.0
  O  O14  1  0.55790053  0.44209947  0.72888063  1.0
  O  O15  1  0.44209947  0.55790053  0.22888063  1.0
  O  O16  1  0.44209947  0.88419894  0.22888063  1.0
  O  O17  1  0.88419894  0.44209947  0.72888063  1.0
  O  O18  1  0.53891191  0.76945596  0.01739629  1.0
  O  O19  1  0.76945596  0.53891191  0.51739629  1.0
  O  O20  1  0.76945596  0.23054404  0.51739629  1.0
  O  O21  1  0.23054404  0.76945596  0.01739629  1.0
  O  O22  1  0.23054404  0.46108809  0.01739629  1.0
  O  O23  1  0.46108809  0.23054404  0.51739629  1.0
  O  O24  1  0.67900719  0.58948483  0.00412660  1.0
  O  O25  1  0.67900719  0.08952236  0.00412660  1.0
  O  O26  1  0.58948483  0.67900719  0.50412660  1.0
  O  O27  1  0.58948483  0.91047764  0.50412660  1.0
  O  O28  1  0.91047764  0.58948483  0.00412660  1.0
  O  O29  1  0.91047764  0.32099281  0.00412660  1.0
  O  O30  1  0.41051517  0.32099281  0.00412660  1.0
  O  O31  1  0.41051517  0.08952236  0.00412660  1.0
  O  O32  1  0.32099281  0.91047764  0.50412660  1.0
  O  O33  1  0.32099281  0.41051517  0.50412660  1.0
  O  O34  1  0.08952236  0.67900719  0.50412660  1.0
  O  O35  1  0.08952236  0.41051517  0.50412660  1.0
  Br  Br36  1  0.30733194  0.15366597  -0.02423206  1.0
  Br  Br37  1  0.15366597  0.30733194  0.47576794  1.0
  Br  Br38  1  0.15366597  0.84633403  0.47576794  1.0
  Br  Br39  1  0.84633403  0.15366597  -0.02423206  1.0
  Br  Br40  1  0.84633403  0.69266806  -0.02423206  1.0
  Br  Br41  1  0.69266806  0.84633403  0.47576794  1.0
  Nd  Nd42  1  0.33333333  0.66666667  0.10624101  1.0
  Nd  Nd43  1  0.66666667  0.33333333  0.60624101  1.0
