# generated using pymatgen
data_CaMn(CO3)2
_symmetry_space_group_name_H-M   'P 1'
_cell_length_a   6.18186437
_cell_length_b   6.18186437
_cell_length_c   6.18186437
_cell_angle_alpha   46.88841398
_cell_angle_beta   46.88841398
_cell_angle_gamma   46.88841398
_symmetry_Int_Tables_number   1
_chemical_formula_structural   CaMn(CO3)2
_chemical_formula_sum   'Ca1 Mn1 C2 O6'
_cell_volume   115.06007878
_cell_formula_units_Z   1
loop_
 _symmetry_equiv_pos_site_id
 _symmetry_equiv_pos_as_xyz
  1  'x, y, z'
loop_
 _atom_site_type_symbol
 _atom_site_label
 _atom_site_symmetry_multiplicity
 _atom_site_fract_x
 _atom_site_fract_y
 _atom_site_fract_z
 _atom_site_occupancy
  Ca  Ca0  1  0.00000000  -0.00000000  0.00000000  1.0
  Mn  Mn1  1  0.50000000  0.50000000  -0.50000000  1.0
  C  C2  1  0.24520886  0.24520886  0.24520886  1.0
  C  C3  1  0.75479114  -0.24520886  -0.24520886  1.0
  O  O4  1  0.26711169  0.97240492  -0.50152741  1.0
  O  O5  1  0.50152741  -0.26711169  0.02759508  1.0
  O  O6  1  1.02759508  -0.49847259  -0.26711169  1.0
  O  O7  1  0.73288831  0.02759508  -0.49847259  1.0
  O  O8  1  0.49847259  0.26711169  -0.02759508  1.0
  O  O9  1  0.97240492  0.49847259  -0.73288831  1.0
