# generated using pymatgen
data_NaV2O4
_symmetry_space_group_name_H-M   'P 1'
_cell_length_a   9.25036143
_cell_length_b   2.88609551
_cell_length_c   10.72480694
_cell_angle_alpha   90.00000000
_cell_angle_beta   90.00000000
_cell_angle_gamma   90.00000000
_symmetry_Int_Tables_number   1
_chemical_formula_structural   NaV2O4
_chemical_formula_sum   'Na4 V8 O16'
_cell_volume   286.32474636
_cell_formula_units_Z   4
loop_
 _symmetry_equiv_pos_site_id
 _symmetry_equiv_pos_as_xyz
  1  'x, y, z'
loop_
 _atom_site_type_symbol
 _atom_site_label
 _atom_site_symmetry_multiplicity
 _atom_site_fract_x
 _atom_site_fract_y
 _atom_site_fract_z
 _atom_site_occupancy
  Na  Na0  1  0.75795921  0.75000000  0.65197865  1.0
  Na  Na1  1  0.25795921  0.75000000  0.84802135  1.0
  Na  Na2  1  0.24204079  0.25000000  0.34802135  1.0
  Na  Na3  1  0.74204079  0.25000000  0.15197865  1.0
  V  V4  1  0.91325499  0.75000000  0.39597092  1.0
  V  V5  1  0.41325499  0.75000000  0.10402908  1.0
  V  V6  1  0.08674501  0.25000000  0.60402908  1.0
  V  V7  1  0.58674501  0.25000000  0.89597092  1.0
  V  V8  1  0.43872227  0.75000000  0.61464856  1.0
  V  V9  1  0.93872227  0.75000000  0.88535144  1.0
  V  V10  1  0.56127773  0.25000000  0.38535144  1.0
  V  V11  1  0.06127773  0.25000000  0.11464856  1.0
  O  O12  1  0.92331769  0.75000000  0.07040094  1.0
  O  O13  1  0.42331769  0.75000000  0.42959906  1.0
  O  O14  1  0.07668231  0.25000000  0.92959906  1.0
  O  O15  1  0.57668231  0.25000000  0.57040094  1.0
  O  O16  1  0.70690348  0.75000000  0.35498145  1.0
  O  O17  1  0.20690348  0.75000000  0.14501855  1.0
  O  O18  1  0.29309652  0.25000000  0.64501855  1.0
  O  O19  1  0.79309652  0.25000000  0.85498145  1.0
  O  O20  1  0.61004263  0.75000000  0.01894812  1.0
  O  O21  1  0.11004263  0.75000000  0.48105188  1.0
  O  O22  1  0.38995737  0.25000000  0.98105188  1.0
  O  O23  1  0.88995737  0.25000000  0.51894812  1.0
  O  O24  1  0.52049599  0.75000000  0.78275295  1.0
  O  O25  1  0.02049599  0.75000000  0.71724705  1.0
  O  O26  1  0.47950401  0.25000000  0.21724705  1.0
  O  O27  1  0.97950401  0.25000000  0.28275295  1.0
