# generated using pymatgen
data_KZnP2H5O9
_symmetry_space_group_name_H-M   'P 1'
_cell_length_a   7.72796208
_cell_length_b   8.09597153
_cell_length_c   8.00534859
_cell_angle_alpha   116.03464790
_cell_angle_beta   108.02338630
_cell_angle_gamma   84.40449047
_symmetry_Int_Tables_number   1
_chemical_formula_structural   KZnP2H5O9
_chemical_formula_sum   'K2 Zn2 P4 H10 O18'
_cell_volume   427.52173644
_cell_formula_units_Z   2
loop_
 _symmetry_equiv_pos_site_id
 _symmetry_equiv_pos_as_xyz
  1  'x, y, z'
loop_
 _atom_site_type_symbol
 _atom_site_label
 _atom_site_symmetry_multiplicity
 _atom_site_fract_x
 _atom_site_fract_y
 _atom_site_fract_z
 _atom_site_occupancy
  K  K0  1  0.85396118  0.27380770  -0.22790235  1.0
  K  K1  1  0.14603882  0.72619230  -0.77209765  1.0
  Zn  Zn2  1  0.26029784  0.52816537  -0.23301490  1.0
  Zn  Zn3  1  0.73970216  0.47183463  -0.76698510  1.0
  P  P4  1  0.08071080  0.23983546  -0.67921682  1.0
  P  P5  1  0.91928920  0.76016454  -0.32078318  1.0
  P  P6  1  0.37856925  0.24652668  -0.04953867  1.0
  P  P7  1  0.62143075  0.75347332  -0.95046133  1.0
  H  H8  1  0.13838896  0.93939903  -0.27634919  1.0
  H  H9  1  0.86161104  0.06060097  -0.72365081  1.0
  H  H10  1  0.20119234  0.07900425  -0.92231764  1.0
  H  H11  1  0.79880766  0.92099575  -0.07768236  1.0
  H  H12  1  0.46619659  0.03280391  -0.29615503  1.0
  H  H13  1  0.53380341  0.96719609  -0.70384497  1.0
  H  H14  1  0.45235973  0.23413782  -0.53208438  1.0
  H  H15  1  0.54764027  0.76586218  -0.46791562  1.0
  H  H16  1  0.55478910  0.23012120  -0.67256701  1.0
  H  H17  1  0.44521090  0.76987880  -0.32743299  1.0
  O  O18  1  0.02887506  0.65239105  -0.20833946  1.0
  O  O19  1  0.97112494  0.34760895  -0.79166054  1.0
  O  O20  1  0.04517099  0.84199065  -0.39340869  1.0
  O  O21  1  0.95482901  0.15800935  -0.60659131  1.0
  O  O22  1  0.16085978  0.06435435  -0.81703414  1.0
  O  O23  1  0.83914022  0.93564565  -0.18296586  1.0
  O  O24  1  0.23864625  0.35379372  -0.50183976  1.0
  O  O25  1  0.76135375  0.64620628  -0.49816024  1.0
  O  O26  1  0.26481144  0.41167040  -0.06293810  1.0
  O  O27  1  0.73518856  0.58832960  -0.93706190  1.0
  O  O28  1  0.25535059  0.08981275  -0.08176904  1.0
  O  O29  1  0.74464941  0.91018725  -0.91823096  1.0
  O  O30  1  0.47248895  0.68881533  -0.15151219  1.0
  O  O31  1  0.52751105  0.31118467  -0.84848781  1.0
  O  O32  1  0.47589807  0.17315152  -0.21718856  1.0
  O  O33  1  0.52410193  0.82684848  -0.78281144  1.0
  O  O34  1  0.56127391  0.18395281  -0.57430477  1.0
  O  O35  1  0.43872609  0.81604719  -0.42569523  1.0
