# generated using pymatgen
data_RbTeOF4
_symmetry_space_group_name_H-M   'P 1'
_cell_length_a   8.58490498
_cell_length_b   8.58490498
_cell_length_c   14.45440643
_cell_angle_alpha   85.21462102
_cell_angle_beta   94.78537898
_cell_angle_gamma   148.00756997
_symmetry_Int_Tables_number   1
_chemical_formula_structural   RbTeOF4
_chemical_formula_sum   'Rb4 Te4 O4 F16'
_cell_volume   562.27334471
_cell_formula_units_Z   4
loop_
 _symmetry_equiv_pos_site_id
 _symmetry_equiv_pos_as_xyz
  1  'x, y, z'
loop_
 _atom_site_type_symbol
 _atom_site_label
 _atom_site_symmetry_multiplicity
 _atom_site_fract_x
 _atom_site_fract_y
 _atom_site_fract_z
 _atom_site_occupancy
  F  F0  1  0.91102957  0.32173894  0.61891075  1.0
  F  F1  1  0.67826106  0.08897043  0.11891075  1.0
  F  F2  1  0.69107283  0.05863108  0.89223714  1.0
  F  F3  1  0.94136892  0.30892717  0.39223714  1.0
  F  F4  1  0.56330110  -0.21723960  0.73704375  1.0
  F  F5  1  1.21723960  0.43669890  0.23704375  1.0
  F  F6  1  0.12686621  0.12322245  0.86271031  1.0
  F  F7  1  0.87677755  0.87313379  0.36271031  1.0
  F  F8  1  0.60076539  -0.25473265  0.51783767  1.0
  F  F9  1  1.25473265  0.39923461  0.01783767  1.0
  F  F10  1  0.13983019  0.09336368  0.63604959  1.0
  F  F11  1  0.90663632  0.86016981  0.13604959  1.0
  F  F12  1  1.04301508  0.57598897  0.79769066  1.0
  F  F13  1  0.42401103  -0.04301508  0.29769066  1.0
  F  F14  1  0.77459681  0.60570968  0.95738195  1.0
  F  F15  1  0.39429032  0.22540319  0.45738195  1.0
  Rb  Rb16  1  0.35591108  -0.14979183  0.50563149  1.0
  Rb  Rb17  1  1.14979183  0.64408892  0.00563149  1.0
  Rb  Rb18  1  0.66812380  0.53784216  0.74927179  1.0
  Rb  Rb19  1  0.46215784  0.33187620  0.24927179  1.0
  O  O20  1  0.87587053  0.69435282  0.53513774  1.0
  O  O21  1  0.30564718  0.12412947  0.03513774  1.0
  O  O22  1  0.51226191  0.05782551  0.71983527  1.0
  O  O23  1  0.94217449  0.48773809  0.21983527  1.0
  Te  Te24  1  0.02342885  0.03263016  0.49509111  1.0
  Te  Te25  1  0.96736984  0.97657115  -0.00490889  1.0
  Te  Te26  1  0.85052319  0.20535516  0.75986078  1.0
  Te  Te27  1  0.79464484  0.14947681  0.25986078  1.0
