# generated using pymatgen
data_LaVSe2O
_symmetry_space_group_name_H-M   'P 1'
_cell_length_a   6.17839981
_cell_length_b   6.17839981
_cell_length_c   8.43175756
_cell_angle_alpha   90.28190054
_cell_angle_beta   89.71809946
_cell_angle_gamma   142.91722577
_symmetry_Int_Tables_number   1
_chemical_formula_structural   LaVSe2O
_chemical_formula_sum   'La2 V2 Se4 O2'
_cell_volume   194.07011646
_cell_formula_units_Z   2
loop_
 _symmetry_equiv_pos_site_id
 _symmetry_equiv_pos_as_xyz
  1  'x, y, z'
loop_
 _atom_site_type_symbol
 _atom_site_label
 _atom_site_symmetry_multiplicity
 _atom_site_fract_x
 _atom_site_fract_y
 _atom_site_fract_z
 _atom_site_occupancy
  La  La0  1  0.22948974  -0.22948974  0.19868487  1.0
  La  La1  1  0.77051026  0.22948974  0.80131513  1.0
  V  V2  1  0.50000000  0.50000000  -0.00000000  1.0
  V  V3  1  -0.00000000  0.00000000  0.50000000  1.0
  Se  Se4  1  0.95413481  0.04586519  0.19853324  1.0
  Se  Se5  1  0.04586519  -0.04586519  0.80146676  1.0
  Se  Se6  1  0.63833836  0.36166164  0.46409977  1.0
  Se  Se7  1  0.36166164  -0.36166164  0.53590023  1.0
  O  O8  1  0.66277590  0.33722410  0.05852262  1.0
  O  O9  1  0.33722410  -0.33722410  0.94147738  1.0
