# generated using pymatgen
data_Pd(Cl2O)2
_symmetry_space_group_name_H-M   'P 1'
_cell_length_a   7.47691687
_cell_length_b   7.47691687
_cell_length_c   7.47691687
_cell_angle_alpha   118.64260021
_cell_angle_beta   118.64260021
_cell_angle_gamma   92.36761762
_symmetry_Int_Tables_number   1
_chemical_formula_structural   Pd(Cl2O)2
_chemical_formula_sum   'Pd2 Cl8 O4'
_cell_volume   301.35054449
_cell_formula_units_Z   2
loop_
 _symmetry_equiv_pos_site_id
 _symmetry_equiv_pos_as_xyz
  1  'x, y, z'
loop_
 _atom_site_type_symbol
 _atom_site_label
 _atom_site_symmetry_multiplicity
 _atom_site_fract_x
 _atom_site_fract_y
 _atom_site_fract_z
 _atom_site_occupancy
  Pd  Pd0  1  0.00000000  0.00000000  0.00000000  1.0
  Pd  Pd1  1  0.75000000  0.25000000  0.50000000  1.0
  Cl  Cl2  1  1.12317703  0.31875362  0.80442341  1.0
  Cl  Cl3  1  0.23566979  -0.06875362  0.30442341  1.0
  Cl  Cl4  1  0.51433021  0.31875362  0.19557659  1.0
  Cl  Cl5  1  0.62682297  -0.06875362  0.69557659  1.0
  Cl  Cl6  1  0.68124638  0.48566979  0.80442341  1.0
  Cl  Cl7  1  1.06875362  1.37317703  1.30442341  1.0
  Cl  Cl8  1  0.68124638  0.87682297  1.19557659  1.0
  Cl  Cl9  1  1.06875362  0.76433021  0.69557659  1.0
  O  O10  1  0.37500000  0.12500000  0.25000000  1.0
  O  O11  1  0.87500000  0.12500000  0.75000000  1.0
  O  O12  1  0.87500000  1.12500000  1.25000000  1.0
  O  O13  1  0.87500000  0.62500000  0.75000000  1.0
