# generated using pymatgen
data_HgS2O7
_symmetry_space_group_name_H-M   'P 1'
_cell_length_a   5.34323501
_cell_length_b   13.37826035
_cell_length_c   9.92717692
_cell_angle_alpha   90.00000000
_cell_angle_beta   120.73295551
_cell_angle_gamma   90.00000000
_symmetry_Int_Tables_number   1
_chemical_formula_structural   HgS2O7
_chemical_formula_sum   'Hg4 S8 O28'
_cell_volume   609.96526901
_cell_formula_units_Z   4
loop_
 _symmetry_equiv_pos_site_id
 _symmetry_equiv_pos_as_xyz
  1  'x, y, z'
loop_
 _atom_site_type_symbol
 _atom_site_label
 _atom_site_symmetry_multiplicity
 _atom_site_fract_x
 _atom_site_fract_y
 _atom_site_fract_z
 _atom_site_occupancy
  Hg  Hg0  1  0.62638499  0.15118716  0.32251352  1.0
  Hg  Hg1  1  0.62638499  0.34881284  0.82251352  1.0
  Hg  Hg2  1  0.37361501  0.65118716  0.17748648  1.0
  Hg  Hg3  1  0.37361501  0.84881284  0.67748648  1.0
  S  S4  1  0.87191744  0.47614969  0.19259004  1.0
  S  S5  1  0.87191744  0.02385031  0.69259004  1.0
  S  S6  1  0.12808256  0.97614969  0.30740996  1.0
  S  S7  1  0.12808256  0.52385031  0.80740996  1.0
  S  S8  1  0.22424576  0.31603829  0.40599341  1.0
  S  S9  1  0.22424576  0.18396171  0.90599341  1.0
  S  S10  1  0.77575424  0.81603829  0.09400659  1.0
  S  S11  1  0.77575424  0.68396171  0.59400659  1.0
  O  O12  1  0.02717170  0.05594315  0.36973026  1.0
  O  O13  1  0.02717170  0.44405685  0.86973026  1.0
  O  O14  1  0.97282830  0.55594315  0.13026974  1.0
  O  O15  1  0.97282830  0.94405685  0.63026974  1.0
  O  O16  1  0.96484503  0.29206317  0.41405967  1.0
  O  O17  1  0.96484503  0.20793683  0.91405967  1.0
  O  O18  1  0.03515497  0.79206317  0.08594033  1.0
  O  O19  1  0.03515497  0.70793683  0.58594033  1.0
  O  O20  1  0.81874037  0.93302762  0.15931236  1.0
  O  O21  1  0.81874037  0.56697238  0.65931236  1.0
  O  O22  1  0.18125963  0.43302762  0.34068764  1.0
  O  O23  1  0.18125963  0.06697238  0.84068764  1.0
  O  O24  1  0.72990995  0.39268266  0.08370648  1.0
  O  O25  1  0.72990995  0.10731734  0.58370648  1.0
  O  O26  1  0.27009005  0.89268266  0.41629352  1.0
  O  O27  1  0.27009005  0.60731734  0.91629352  1.0
  O  O28  1  0.49690453  0.17447216  0.05622595  1.0
  O  O29  1  0.49690453  0.32552784  0.55622595  1.0
  O  O30  1  0.50309547  0.67447216  0.44377405  1.0
  O  O31  1  0.50309547  0.82552784  0.94377405  1.0
  O  O32  1  0.29105820  0.01175614  0.23445860  1.0
  O  O33  1  0.29105820  0.48824386  0.73445860  1.0
  O  O34  1  0.70894180  0.51175614  0.26554140  1.0
  O  O35  1  0.70894180  0.98824386  0.76554140  1.0
  O  O36  1  0.25417255  0.25642775  0.29000812  1.0
  O  O37  1  0.25417255  0.24357225  0.79000812  1.0
  O  O38  1  0.74582745  0.75642775  0.20999188  1.0
  O  O39  1  0.74582745  0.74357225  0.70999188  1.0
