# generated using pymatgen
data_CsLa(PS3)2
_symmetry_space_group_name_H-M   'P 1'
_cell_length_a   13.00943631
_cell_length_b   7.70942941
_cell_length_c   11.60988380
_cell_angle_alpha   90.00000000
_cell_angle_beta   107.64894042
_cell_angle_gamma   90.00000000
_symmetry_Int_Tables_number   1
_chemical_formula_structural   CsLa(PS3)2
_chemical_formula_sum   'Cs4 La4 P8 S24'
_cell_volume   1109.61040290
_cell_formula_units_Z   4
loop_
 _symmetry_equiv_pos_site_id
 _symmetry_equiv_pos_as_xyz
  1  'x, y, z'
loop_
 _atom_site_type_symbol
 _atom_site_label
 _atom_site_symmetry_multiplicity
 _atom_site_fract_x
 _atom_site_fract_y
 _atom_site_fract_z
 _atom_site_occupancy
  Cs  Cs0  1  0.61495399  0.92933112  0.35967436  1.0
  Cs  Cs1  1  0.38504601  0.42933112  0.14032564  1.0
  Cs  Cs2  1  0.38504601  0.07066888  0.64032564  1.0
  Cs  Cs3  1  0.61495399  0.57066888  0.85967436  1.0
  La  La4  1  0.86395959  0.39871063  0.60334899  1.0
  La  La5  1  0.13604041  0.89871063  0.89665101  1.0
  La  La6  1  0.13604041  0.60128937  0.39665101  1.0
  La  La7  1  0.86395959  0.10128937  0.10334899  1.0
  P  P8  1  0.84207432  0.59341194  0.25861800  1.0
  P  P9  1  0.15792568  0.09341194  0.24138200  1.0
  P  P10  1  0.15792568  0.40658806  0.74138200  1.0
  P  P11  1  0.84207432  0.90658806  0.75861800  1.0
  P  P12  1  0.73503752  0.37540579  0.28273722  1.0
  P  P13  1  0.26496248  0.87540579  0.21726278  1.0
  P  P14  1  0.26496248  0.62459421  0.71726278  1.0
  P  P15  1  0.73503752  0.12459421  0.78273722  1.0
  S  S16  1  0.64772650  0.46886787  0.38637341  1.0
  S  S17  1  0.35227350  0.96886787  0.11362659  1.0
  S  S18  1  0.35227350  0.53113213  0.61362659  1.0
  S  S19  1  0.64772650  0.03113213  0.88637341  1.0
  S  S20  1  0.74831390  0.72481280  0.64897582  1.0
  S  S21  1  0.25168610  0.22481280  0.85102418  1.0
  S  S22  1  0.25168610  0.27518720  0.35102418  1.0
  S  S23  1  0.74831390  0.77518720  0.14897582  1.0
  S  S24  1  0.84289597  0.30570330  0.87459580  1.0
  S  S25  1  0.15710403  0.80570330  0.62540420  1.0
  S  S26  1  0.15710403  0.69429670  0.12540420  1.0
  S  S27  1  0.84289597  0.19429670  0.37459580  1.0
  S  S28  1  0.04918723  0.52743970  0.81186193  1.0
  S  S29  1  0.95081277  0.02743970  0.68813807  1.0
  S  S30  1  0.95081277  0.47256030  0.18813807  1.0
  S  S31  1  0.04918723  0.97256030  0.31186193  1.0
  S  S32  1  0.65816128  0.21937211  0.61531664  1.0
  S  S33  1  0.34183872  0.71937211  0.88468336  1.0
  S  S34  1  0.34183872  0.78062789  0.38468336  1.0
  S  S35  1  0.65816128  0.28062789  0.11531664  1.0
  S  S36  1  0.08254512  0.32060371  0.56964838  1.0
  S  S37  1  0.91745488  0.82060371  0.93035162  1.0
  S  S38  1  0.91745488  0.67939629  0.43035162  1.0
  S  S39  1  0.08254512  0.17939629  0.06964838  1.0
