# generated using pymatgen
data_Tl(Cu3S2)2
_symmetry_space_group_name_H-M   'P 1'
_cell_length_a   12.44359992
_cell_length_b   12.44359992
_cell_length_c   12.44359992
_cell_angle_alpha   161.79517024
_cell_angle_beta   161.79517024
_cell_angle_gamma   25.85619887
_symmetry_Int_Tables_number   1
_chemical_formula_structural   Tl(Cu3S2)2
_chemical_formula_sum   'Tl1 Cu6 S4'
_cell_volume   188.00038093
_cell_formula_units_Z   1
loop_
 _symmetry_equiv_pos_site_id
 _symmetry_equiv_pos_as_xyz
  1  'x, y, z'
loop_
 _atom_site_type_symbol
 _atom_site_label
 _atom_site_symmetry_multiplicity
 _atom_site_fract_x
 _atom_site_fract_y
 _atom_site_fract_z
 _atom_site_occupancy
  Tl  Tl0  1  0.00000000  0.00000000  0.00000000  1.0
  Cu  Cu1  1  0.37074674  0.87074674  0.50000000  1.0
  Cu  Cu2  1  0.62925326  0.12925326  0.50000000  1.0
  Cu  Cu3  1  0.87074674  0.37074674  0.50000000  1.0
  Cu  Cu4  1  0.12925326  0.62925326  0.50000000  1.0
  Cu  Cu5  1  0.25000000  0.75000000  0.50000000  1.0
  Cu  Cu6  1  0.75000000  0.25000000  0.50000000  1.0
  S  S7  1  0.80539740  0.80539740  1.00000000  1.0
  S  S8  1  0.19460260  0.19460260  0.00000000  1.0
  S  S9  1  0.58150380  0.58150380  1.00000000  1.0
  S  S10  1  0.41849620  0.41849620  0.00000000  1.0
