# generated using pymatgen
data_Ba(MnBi)2
_symmetry_space_group_name_H-M   'P 1'
_cell_length_a   7.62870209
_cell_length_b   7.62870209
_cell_length_c   7.62870209
_cell_angle_alpha   144.82219733
_cell_angle_beta   144.82219733
_cell_angle_gamma   50.59956998
_symmetry_Int_Tables_number   1
_chemical_formula_structural   Ba(MnBi)2
_chemical_formula_sum   'Ba1 Mn2 Bi2'
_cell_volume   146.61125894
_cell_formula_units_Z   1
loop_
 _symmetry_equiv_pos_site_id
 _symmetry_equiv_pos_as_xyz
  1  'x, y, z'
loop_
 _atom_site_type_symbol
 _atom_site_label
 _atom_site_symmetry_multiplicity
 _atom_site_fract_x
 _atom_site_fract_y
 _atom_site_fract_z
 _atom_site_occupancy
  Ba  Ba0  1  0.00000000  0.00000000  0.00000000  1.0
  Mn  Mn1  1  0.25000000  0.75000000  0.50000000  1.0
  Mn  Mn2  1  0.75000000  0.25000000  0.50000000  1.0
  Bi  Bi3  1  0.63121555  0.63121555  1.00000000  1.0
  Bi  Bi4  1  0.36878445  0.36878445  0.00000000  1.0
