# generated using pymatgen
data_La2P3Au
_symmetry_space_group_name_H-M   'P 1'
_cell_length_a   7.84149848
_cell_length_b   4.26857646
_cell_length_c   16.48034308
_cell_angle_alpha   90.00000000
_cell_angle_beta   90.00000000
_cell_angle_gamma   90.00000000
_symmetry_Int_Tables_number   1
_chemical_formula_structural   La2P3Au
_chemical_formula_sum   'La8 P12 Au4'
_cell_volume   551.63063419
_cell_formula_units_Z   4
loop_
 _symmetry_equiv_pos_site_id
 _symmetry_equiv_pos_as_xyz
  1  'x, y, z'
loop_
 _atom_site_type_symbol
 _atom_site_label
 _atom_site_symmetry_multiplicity
 _atom_site_fract_x
 _atom_site_fract_y
 _atom_site_fract_z
 _atom_site_occupancy
  La  La0  1  0.90272147  0.75000000  0.79374330  1.0
  La  La1  1  0.40272147  0.75000000  0.70625670  1.0
  La  La2  1  0.09727853  0.25000000  0.20625670  1.0
  La  La3  1  0.59727853  0.25000000  0.29374330  1.0
  La  La4  1  0.76104289  0.75000000  0.52080049  1.0
  La  La5  1  0.26104289  0.75000000  0.97919951  1.0
  La  La6  1  0.23895711  0.25000000  0.47919951  1.0
  La  La7  1  0.73895711  0.25000000  0.02080049  1.0
  P  P8  1  0.97001940  0.75000000  0.09494276  1.0
  P  P9  1  0.47001940  0.75000000  0.40505724  1.0
  P  P10  1  0.02998060  0.25000000  0.90505724  1.0
  P  P11  1  0.52998060  0.25000000  0.59494276  1.0
  P  P12  1  0.79966336  0.75000000  0.20067353  1.0
  P  P13  1  0.29966336  0.75000000  0.29932647  1.0
  P  P14  1  0.20033664  0.25000000  0.79932647  1.0
  P  P15  1  0.70033664  0.25000000  0.70067353  1.0
  P  P16  1  0.61255537  0.75000000  0.90909370  1.0
  P  P17  1  0.11255537  0.75000000  0.59090630  1.0
  P  P18  1  0.38744463  0.25000000  0.09090630  1.0
  P  P19  1  0.88744463  0.25000000  0.40909370  1.0
  Au  Au20  1  0.99978385  0.75000000  0.35522764  1.0
  Au  Au21  1  0.49978385  0.75000000  0.14477236  1.0
  Au  Au22  1  0.00021615  0.25000000  0.64477236  1.0
  Au  Au23  1  0.50021615  0.25000000  0.85522764  1.0
