# generated using pymatgen
data_InNi21B20
_symmetry_space_group_name_H-M   'P 1'
_cell_length_a   7.16954573
_cell_length_b   7.16954573
_cell_length_c   7.16954573
_cell_angle_alpha   90.00000000
_cell_angle_beta   90.00000000
_cell_angle_gamma   90.00000000
_symmetry_Int_Tables_number   1
_chemical_formula_structural   InNi21B20
_chemical_formula_sum   'In1 Ni21 B20'
_cell_volume   368.53175718
_cell_formula_units_Z   1
loop_
 _symmetry_equiv_pos_site_id
 _symmetry_equiv_pos_as_xyz
  1  'x, y, z'
loop_
 _atom_site_type_symbol
 _atom_site_label
 _atom_site_symmetry_multiplicity
 _atom_site_fract_x
 _atom_site_fract_y
 _atom_site_fract_z
 _atom_site_occupancy
  In  In0  1  0.00000000  0.00000000  0.00000000  1.0
  Ni  Ni1  1  0.00000000  0.00000000  0.50000000  1.0
  Ni  Ni2  1  0.50000000  0.00000000  0.00000000  1.0
  Ni  Ni3  1  0.00000000  0.50000000  0.00000000  1.0
  Ni  Ni4  1  0.50000000  0.23134589  0.50000000  1.0
  Ni  Ni5  1  0.50000000  0.50000000  0.23134589  1.0
  Ni  Ni6  1  0.23134589  0.50000000  0.50000000  1.0
  Ni  Ni7  1  0.50000000  0.50000000  0.76865411  1.0
  Ni  Ni8  1  0.76865411  0.50000000  0.50000000  1.0
  Ni  Ni9  1  0.50000000  0.76865411  0.50000000  1.0
  Ni  Ni10  1  0.28936167  0.28936167  0.00000000  1.0
  Ni  Ni11  1  0.00000000  0.28936167  0.28936167  1.0
  Ni  Ni12  1  0.28936167  0.00000000  0.28936167  1.0
  Ni  Ni13  1  0.00000000  0.28936167  0.71063833  1.0
  Ni  Ni14  1  0.28936167  0.00000000  0.71063833  1.0
  Ni  Ni15  1  0.71063833  0.28936167  0.00000000  1.0
  Ni  Ni16  1  0.71063833  0.00000000  0.28936167  1.0
  Ni  Ni17  1  0.71063833  0.00000000  0.71063833  1.0
  Ni  Ni18  1  0.28936167  0.71063833  0.00000000  1.0
  Ni  Ni19  1  0.00000000  0.71063833  0.28936167  1.0
  Ni  Ni20  1  0.00000000  0.71063833  0.71063833  1.0
  Ni  Ni21  1  0.71063833  0.71063833  0.00000000  1.0
  B  B22  1  0.29287628  0.29287628  0.29287628  1.0
  B  B23  1  0.29287628  0.29287628  0.70712372  1.0
  B  B24  1  0.70712372  0.29287628  0.29287628  1.0
  B  B25  1  0.70712372  0.29287628  0.70712372  1.0
  B  B26  1  0.29287628  0.70712372  0.29287628  1.0
  B  B27  1  0.29287628  0.70712372  0.70712372  1.0
  B  B28  1  0.70712372  0.70712372  0.70712372  1.0
  B  B29  1  0.70712372  0.70712372  0.29287628  1.0
  B  B30  1  0.50000000  0.19904496  0.19904496  1.0
  B  B31  1  0.19904496  0.50000000  0.19904496  1.0
  B  B32  1  0.19904496  0.19904496  0.50000000  1.0
  B  B33  1  0.50000000  0.19904496  0.80095504  1.0
  B  B34  1  0.19904496  0.50000000  0.80095504  1.0
  B  B35  1  0.80095504  0.50000000  0.19904496  1.0
  B  B36  1  0.80095504  0.19904496  0.50000000  1.0
  B  B37  1  0.80095504  0.50000000  0.80095504  1.0
  B  B38  1  0.50000000  0.80095504  0.19904496  1.0
  B  B39  1  0.19904496  0.80095504  0.50000000  1.0
  B  B40  1  0.50000000  0.80095504  0.80095504  1.0
  B  B41  1  0.80095504  0.80095504  0.50000000  1.0
