# generated using pymatgen
data_K2CrH2Cl5O
_symmetry_space_group_name_H-M   'P 1'
_cell_length_a   13.84432885
_cell_length_b   9.24367799
_cell_length_c   7.65520296
_cell_angle_alpha   90.00000000
_cell_angle_beta   90.00000000
_cell_angle_gamma   90.00000000
_symmetry_Int_Tables_number   1
_chemical_formula_structural   K2CrH2Cl5O
_chemical_formula_sum   'K8 Cr4 H8 Cl20 O4'
_cell_volume   979.65559842
_cell_formula_units_Z   4
loop_
 _symmetry_equiv_pos_site_id
 _symmetry_equiv_pos_as_xyz
  1  'x, y, z'
loop_
 _atom_site_type_symbol
 _atom_site_label
 _atom_site_symmetry_multiplicity
 _atom_site_fract_x
 _atom_site_fract_y
 _atom_site_fract_z
 _atom_site_occupancy
  K  K0  1  0.65475543  0.49880465  0.38714342  1.0
  K  K1  1  0.65475543  0.00119535  0.38714342  1.0
  K  K2  1  0.15475543  0.49880465  0.11285658  1.0
  K  K3  1  0.15475543  0.00119535  0.11285658  1.0
  K  K4  1  0.34524457  0.99880465  0.61285658  1.0
  K  K5  1  0.34524457  0.50119535  0.61285658  1.0
  K  K6  1  0.84524457  0.99880465  0.88714342  1.0
  K  K7  1  0.84524457  0.50119535  0.88714342  1.0
  Cr  Cr8  1  0.89655217  0.25000000  0.31285477  1.0
  Cr  Cr9  1  0.39655217  0.25000000  0.18714523  1.0
  Cr  Cr10  1  0.10344783  0.75000000  0.68714523  1.0
  Cr  Cr11  1  0.60344783  0.75000000  0.81285477  1.0
  H  H12  1  0.96215669  0.83624431  0.47740997  1.0
  H  H13  1  0.96215669  0.66375569  0.47740997  1.0
  H  H14  1  0.46215669  0.83624431  0.02259003  1.0
  H  H15  1  0.46215669  0.66375569  0.02259003  1.0
  H  H16  1  0.03784331  0.33624431  0.52259003  1.0
  H  H17  1  0.03784331  0.16375569  0.52259003  1.0
  H  H18  1  0.53784331  0.33624431  0.97740997  1.0
  H  H19  1  0.53784331  0.16375569  0.97740997  1.0
  Cl  Cl20  1  0.90015011  0.50524318  0.31023716  1.0
  Cl  Cl21  1  0.90015011  -0.00524318  0.31023716  1.0
  Cl  Cl22  1  0.40015011  0.50524318  0.18976284  1.0
  Cl  Cl23  1  0.40015011  -0.00524318  0.18976284  1.0
  Cl  Cl24  1  0.09984989  1.00524318  0.68976284  1.0
  Cl  Cl25  1  0.09984989  0.49475682  0.68976284  1.0
  Cl  Cl26  1  0.59984989  1.00524318  0.81023716  1.0
  Cl  Cl27  1  0.59984989  0.49475682  0.81023716  1.0
  Cl  Cl28  1  0.98975508  0.25000000  0.05191674  1.0
  Cl  Cl29  1  0.48975508  0.25000000  0.44808326  1.0
  Cl  Cl30  1  0.01024492  0.75000000  0.94808326  1.0
  Cl  Cl31  1  0.51024492  0.75000000  0.55191674  1.0
  Cl  Cl32  1  0.80542852  0.25000000  0.57478404  1.0
  Cl  Cl33  1  0.30542852  0.25000000  0.92521596  1.0
  Cl  Cl34  1  0.19457148  0.75000000  0.42521596  1.0
  Cl  Cl35  1  0.69457148  0.75000000  0.07478404  1.0
  Cl  Cl36  1  0.75517844  0.25000000  0.14520056  1.0
  Cl  Cl37  1  0.25517844  0.25000000  0.35479944  1.0
  Cl  Cl38  1  0.24482156  0.75000000  0.85479944  1.0
  Cl  Cl39  1  0.74482156  0.75000000  0.64520056  1.0
  O  O40  1  0.02139439  0.25000000  0.45153477  1.0
  O  O41  1  0.52139439  0.25000000  0.04846523  1.0
  O  O42  1  0.97860561  0.75000000  0.54846523  1.0
  O  O43  1  0.47860561  0.75000000  0.95153477  1.0
