# generated using pymatgen
data_CoAg(N3O4)2
_symmetry_space_group_name_H-M   'P 1'
_cell_length_a   7.08324998
_cell_length_b   7.08324998
_cell_length_c   10.48033732
_cell_angle_alpha   90.00000000
_cell_angle_beta   90.00000000
_cell_angle_gamma   90.00000000
_symmetry_Int_Tables_number   1
_chemical_formula_structural   CoAg(N3O4)2
_chemical_formula_sum   'Co2 Ag2 N12 O16'
_cell_volume   525.82399316
_cell_formula_units_Z   2
loop_
 _symmetry_equiv_pos_site_id
 _symmetry_equiv_pos_as_xyz
  1  'x, y, z'
loop_
 _atom_site_type_symbol
 _atom_site_label
 _atom_site_symmetry_multiplicity
 _atom_site_fract_x
 _atom_site_fract_y
 _atom_site_fract_z
 _atom_site_occupancy
  Ag  Ag0  1  0.50000000  0.50000000  0.50000000  1.0
  Ag  Ag1  1  0.00000000  0.00000000  0.00000000  1.0
  O  O2  1  0.77284819  0.83624900  0.59634490  1.0
  O  O3  1  0.22715181  0.16375100  0.59634490  1.0
  O  O4  1  0.27284819  0.33624900  0.90365510  1.0
  O  O5  1  0.72715181  0.66375100  0.90365510  1.0
  O  O6  1  0.77284819  0.16375100  0.40365510  1.0
  O  O7  1  0.22715181  0.83624900  0.40365510  1.0
  O  O8  1  0.27284819  0.66375100  0.09634490  1.0
  O  O9  1  0.72715181  0.33624900  0.09634490  1.0
  O  O10  1  0.83624900  0.22715181  0.59634490  1.0
  O  O11  1  0.16375100  0.77284819  0.59634490  1.0
  O  O12  1  0.33624900  0.72715181  0.90365510  1.0
  O  O13  1  0.66375100  0.27284819  0.90365510  1.0
  O  O14  1  0.16375100  0.22715181  0.40365510  1.0
  O  O15  1  0.83624900  0.77284819  0.40365510  1.0
  O  O16  1  0.66375100  0.72715181  0.09634490  1.0
  O  O17  1  0.33624900  0.27284819  0.09634490  1.0
  N  N18  1  0.73909392  0.73909392  0.50000000  1.0
  N  N19  1  0.26090608  0.26090608  0.50000000  1.0
  N  N20  1  0.23909392  0.23909392  -0.00000000  1.0
  N  N21  1  0.76090608  0.76090608  -0.00000000  1.0
  N  N22  1  0.73909392  0.26090608  0.50000000  1.0
  N  N23  1  0.26090608  0.73909392  0.50000000  1.0
  N  N24  1  0.23909392  0.76090608  0.00000000  1.0
  N  N25  1  0.76090608  0.23909392  0.00000000  1.0
  N  N26  1  0.50000000  0.50000000  0.69497742  1.0
  N  N27  1  0.00000000  0.00000000  0.80502258  1.0
  N  N28  1  0.50000000  0.50000000  0.30502258  1.0
  N  N29  1  0.00000000  0.00000000  0.19497742  1.0
  Co  Co30  1  0.00000000  0.00000000  0.50000000  1.0
  Co  Co31  1  0.50000000  0.50000000  0.00000000  1.0
