# generated using pymatgen
data_SiO2
_symmetry_space_group_name_H-M   'P 1'
_cell_length_a   4.11613391
_cell_length_b   5.08367648
_cell_length_c   4.52905661
_cell_angle_alpha   90.00000000
_cell_angle_beta   90.00000000
_cell_angle_gamma   90.00000000
_symmetry_Int_Tables_number   1
_chemical_formula_structural   SiO2
_chemical_formula_sum   'Si4 O8'
_cell_volume   94.77093137
_cell_formula_units_Z   4
loop_
 _symmetry_equiv_pos_site_id
 _symmetry_equiv_pos_as_xyz
  1  'x, y, z'
loop_
 _atom_site_type_symbol
 _atom_site_label
 _atom_site_symmetry_multiplicity
 _atom_site_fract_x
 _atom_site_fract_y
 _atom_site_fract_z
 _atom_site_occupancy
  Si  Si0  1  0.00000000  0.65209934  0.25000000  1.0
  Si  Si1  1  0.00000000  0.34790066  0.75000000  1.0
  Si  Si2  1  0.50000000  0.15209934  0.25000000  1.0
  Si  Si3  1  0.50000000  0.84790066  0.75000000  1.0
  O  O4  1  0.73092373  0.88241552  0.07994866  1.0
  O  O5  1  0.73092373  0.11758448  0.57994866  1.0
  O  O6  1  0.23092373  0.38241552  0.42005134  1.0
  O  O7  1  0.23092373  0.61758448  0.92005134  1.0
  O  O8  1  0.26907627  0.88241552  0.42005134  1.0
  O  O9  1  0.26907627  0.11758448  0.92005134  1.0
  O  O10  1  0.76907627  0.38241552  0.07994866  1.0
  O  O11  1  0.76907627  0.61758448  0.57994866  1.0
