# generated using pymatgen
data_Na2PdF4
_symmetry_space_group_name_H-M   'P 1'
_cell_length_a   3.50546323
_cell_length_b   5.66681751
_cell_length_c   10.26609485
_cell_angle_alpha   90.00000000
_cell_angle_beta   95.38326607
_cell_angle_gamma   90.00000000
_symmetry_Int_Tables_number   1
_chemical_formula_structural   Na2PdF4
_chemical_formula_sum   'Na4 Pd2 F8'
_cell_volume   203.03465994
_cell_formula_units_Z   2
loop_
 _symmetry_equiv_pos_site_id
 _symmetry_equiv_pos_as_xyz
  1  'x, y, z'
loop_
 _atom_site_type_symbol
 _atom_site_label
 _atom_site_symmetry_multiplicity
 _atom_site_fract_x
 _atom_site_fract_y
 _atom_site_fract_z
 _atom_site_occupancy
  Na  Na0  1  0.71698077  0.95651212  0.65119112  1.0
  Na  Na1  1  0.71698077  0.54348788  0.15119112  1.0
  Na  Na2  1  0.28301923  0.45651212  0.84880888  1.0
  Na  Na3  1  0.28301923  0.04348788  0.34880888  1.0
  Pd  Pd4  1  0.00000000  -0.00000000  0.00000000  1.0
  Pd  Pd5  1  -0.00000000  0.50000000  0.50000000  1.0
  F  F6  1  0.79207757  0.17710951  0.83952464  1.0
  F  F7  1  0.79207757  0.32289049  0.33952464  1.0
  F  F8  1  0.20792243  0.67710951  0.66047536  1.0
  F  F9  1  0.20792243  0.82289049  0.16047536  1.0
  F  F10  1  0.79359262  0.69476897  0.92584021  1.0
  F  F11  1  0.79359262  0.80523103  0.42584021  1.0
  F  F12  1  0.20640738  0.19476897  0.57415979  1.0
  F  F13  1  0.20640738  0.30523103  0.07415979  1.0
