# generated using pymatgen
data_La(Sb3Os)4
_symmetry_space_group_name_H-M   'P 1'
_cell_length_a   8.16610946
_cell_length_b   8.16610946
_cell_length_c   8.16610946
_cell_angle_alpha   109.47122063
_cell_angle_beta   109.47122063
_cell_angle_gamma   109.47122063
_symmetry_Int_Tables_number   1
_chemical_formula_structural   La(Sb3Os)4
_chemical_formula_sum   'La1 Sb12 Os4'
_cell_volume   419.20234243
_cell_formula_units_Z   1
loop_
 _symmetry_equiv_pos_site_id
 _symmetry_equiv_pos_as_xyz
  1  'x, y, z'
loop_
 _atom_site_type_symbol
 _atom_site_label
 _atom_site_symmetry_multiplicity
 _atom_site_fract_x
 _atom_site_fract_y
 _atom_site_fract_z
 _atom_site_occupancy
  La  La0  1  0.00000000  0.00000000  0.00000000  1.0
  Sb  Sb1  1  0.84275362  1.33974660  1.18250022  1.0
  Sb  Sb2  1  0.84275362  0.66025340  0.50300702  1.0
  Sb  Sb3  1  0.15724638  0.33974660  0.49699298  1.0
  Sb  Sb4  1  0.15724638  0.66025340  0.81749978  1.0
  Sb  Sb5  1  0.50300702  0.84275362  0.66025340  1.0
  Sb  Sb6  1  1.18250022  0.84275362  1.33974660  1.0
  Sb  Sb7  1  0.66025340  0.81749978  0.15724638  1.0
  Sb  Sb8  1  0.66025340  0.50300702  0.84275362  1.0
  Sb  Sb9  1  0.81749978  0.15724638  0.66025340  1.0
  Sb  Sb10  1  0.49699298  0.15724638  0.33974660  1.0
  Sb  Sb11  1  0.33974660  0.49699298  0.15724638  1.0
  Sb  Sb12  1  1.33974660  1.18250022  0.84275362  1.0
  Os  Os13  1  0.50000000  1.00000000  1.00000000  1.0
  Os  Os14  1  0.50000000  0.50000000  0.50000000  1.0
  Os  Os15  1  1.00000000  1.00000000  0.50000000  1.0
  Os  Os16  1  1.00000000  0.50000000  1.00000000  1.0
