# generated using pymatgen
data_La5Mg41
_symmetry_space_group_name_H-M   'P 1'
_cell_length_a   11.69258890
_cell_length_b   11.69258890
_cell_length_c   11.69258890
_cell_angle_alpha   101.49835991
_cell_angle_beta   101.49835991
_cell_angle_gamma   126.96451092
_symmetry_Int_Tables_number   1
_chemical_formula_structural   La5Mg41
_chemical_formula_sum   'La5 Mg41'
_cell_volume   1142.89763304
_cell_formula_units_Z   1
loop_
 _symmetry_equiv_pos_site_id
 _symmetry_equiv_pos_as_xyz
  1  'x, y, z'
loop_
 _atom_site_type_symbol
 _atom_site_label
 _atom_site_symmetry_multiplicity
 _atom_site_fract_x
 _atom_site_fract_y
 _atom_site_fract_z
 _atom_site_occupancy
  La  La0  1  0.57092003  0.76212921  1.33304924  1.0
  La  La1  1  0.76212921  1.42907997  1.19120918  1.0
  La  La2  1  0.42907997  0.23787079  0.66695076  1.0
  La  La3  1  1.23787079  0.57092003  0.80879082  1.0
  La  La4  1  0.00000000  0.00000000  0.00000000  1.0
  Mg  Mg5  1  1.08502351  0.91823535  0.71110076  1.0
  Mg  Mg6  1  0.79286541  0.62607725  0.71110076  1.0
  Mg  Mg7  1  0.91823535  0.20713459  0.83321184  1.0
  Mg  Mg8  1  1.62607725  0.91497649  0.83321184  1.0
  Mg  Mg9  1  1.20713459  1.37392275  1.28889924  1.0
  Mg  Mg10  1  0.91497649  1.08176465  1.28889924  1.0
  Mg  Mg11  1  0.37392275  1.08502351  1.16678816  1.0
  Mg  Mg12  1  1.08176465  1.79286541  1.16678816  1.0
  Mg  Mg13  1  1.17168635  1.23084337  1.78770762  1.0
  Mg  Mg14  1  1.55686425  1.61602127  1.78770762  1.0
  Mg  Mg15  1  1.23084337  1.44313575  1.05915701  1.0
  Mg  Mg16  1  0.61602127  0.82831365  1.05915701  1.0
  Mg  Mg17  1  0.44313575  0.38397873  0.21229238  1.0
  Mg  Mg18  1  0.82831365  0.76915663  0.21229238  1.0
  Mg  Mg19  1  1.38397873  1.17168635  0.94084299  1.0
  Mg  Mg20  1  0.76915663  0.55686425  0.94084299  1.0
  Mg  Mg21  1  0.88967837  1.17995461  1.55568778  1.0
  Mg  Mg22  1  1.37573317  1.66600941  1.55568778  1.0
  Mg  Mg23  1  1.17995461  1.62426683  1.29027624  1.0
  Mg  Mg24  1  0.66600941  1.11032163  1.29027624  1.0
  Mg  Mg25  1  0.62426683  0.33399059  0.44431222  1.0
  Mg  Mg26  1  1.11032163  0.82004539  0.44431222  1.0
  Mg  Mg27  1  1.33399059  0.88967837  0.70972376  1.0
  Mg  Mg28  1  0.82004539  0.37573317  0.70972376  1.0
  Mg  Mg29  1  0.98891625  0.59696084  0.58587709  1.0
  Mg  Mg30  1  0.59696084  0.01108375  0.60804460  1.0
  Mg  Mg31  1  1.01108375  1.40303916  1.41412291  1.0
  Mg  Mg32  1  0.40303916  0.98891625  1.39195540  1.0
  Mg  Mg33  1  0.78392788  0.66004916  0.44397704  1.0
  Mg  Mg34  1  0.66004916  0.21607212  0.87612129  1.0
  Mg  Mg35  1  1.21607212  1.33995084  1.55602296  1.0
  Mg  Mg36  1  0.33995084  0.78392788  1.12387871  1.0
  Mg  Mg37  1  0.77936299  0.87819108  1.65755408  1.0
  Mg  Mg38  1  0.87819108  1.22063701  1.09882809  1.0
  Mg  Mg39  1  0.22063701  0.12180892  0.34244592  1.0
  Mg  Mg40  1  1.12180892  0.77936299  0.90117191  1.0
  Mg  Mg41  1  1.00000000  1.00000000  0.50000000  1.0
  Mg  Mg42  1  0.50000000  0.50000000  0.50000000  1.0
  Mg  Mg43  1  1.00000000  1.50000000  1.00000000  1.0
  Mg  Mg44  1  0.50000000  1.00000000  1.00000000  1.0
  Mg  Mg45  1  0.50000000  0.50000000  -0.00000000  1.0
