# generated using pymatgen
data_MgFe(SiO3)2
_symmetry_space_group_name_H-M   'P 1'
_cell_length_a   4.90602461
_cell_length_b   4.90602461
_cell_length_c   6.75330546
_cell_angle_alpha   90.00000000
_cell_angle_beta   90.00000000
_cell_angle_gamma   147.99648242
_symmetry_Int_Tables_number   1
_chemical_formula_structural   MgFe(SiO3)2
_chemical_formula_sum   'Mg1 Fe1 Si2 O6'
_cell_volume   86.14463042
_cell_formula_units_Z   1
loop_
 _symmetry_equiv_pos_site_id
 _symmetry_equiv_pos_as_xyz
  1  'x, y, z'
loop_
 _atom_site_type_symbol
 _atom_site_label
 _atom_site_symmetry_multiplicity
 _atom_site_fract_x
 _atom_site_fract_y
 _atom_site_fract_z
 _atom_site_occupancy
  Fe  Fe0  1  -0.26903354  0.26903354  0.50000000  1.0
  O  O1  1  0.37870929  0.62129071  0.70207571  1.0
  O  O2  1  0.37870929  0.62129071  0.29792429  1.0
  O  O3  1  -0.06934324  0.06934324  0.00000000  1.0
  O  O4  1  -0.37283269  0.37283269  0.19647299  1.0
  O  O5  1  -0.37283269  0.37283269  0.80352701  1.0
  O  O6  1  0.06395330  0.93604670  0.50000000  1.0
  Si  Si7  1  -0.00120735  1.00120735  0.24840705  1.0
  Si  Si8  1  -0.00120735  1.00120735  0.75159295  1.0
  Mg  Mg9  1  0.26478500  0.73521500  0.00000000  1.0
