# generated using pymatgen
data_BaHo(CoO3)2
_symmetry_space_group_name_H-M   'P 1'
_cell_length_a   3.87950728
_cell_length_b   3.87950728
_cell_length_c   7.49266333
_cell_angle_alpha   90.00000000
_cell_angle_beta   90.00000000
_cell_angle_gamma   90.00000000
_symmetry_Int_Tables_number   1
_chemical_formula_structural   BaHo(CoO3)2
_chemical_formula_sum   'Ba1 Ho1 Co2 O6'
_cell_volume   112.76890439
_cell_formula_units_Z   1
loop_
 _symmetry_equiv_pos_site_id
 _symmetry_equiv_pos_as_xyz
  1  'x, y, z'
loop_
 _atom_site_type_symbol
 _atom_site_label
 _atom_site_symmetry_multiplicity
 _atom_site_fract_x
 _atom_site_fract_y
 _atom_site_fract_z
 _atom_site_occupancy
  Ba  Ba0  1  0.50000000  0.50000000  0.50000000  1.0
  O  O1  1  0.50000000  0.00000000  0.78089129  1.0
  O  O2  1  0.00000000  0.50000000  0.78089129  1.0
  O  O3  1  0.50000000  0.00000000  0.21910871  1.0
  O  O4  1  0.00000000  0.50000000  0.21910871  1.0
  O  O5  1  0.00000000  0.00000000  0.00000000  1.0
  O  O6  1  0.00000000  0.00000000  0.50000000  1.0
  Co  Co7  1  0.00000000  0.00000000  0.75314032  1.0
  Co  Co8  1  0.00000000  0.00000000  0.24685968  1.0
  Ho  Ho9  1  0.50000000  0.50000000  0.00000000  1.0
