# generated using pymatgen
data_TcC3ClO3
_symmetry_space_group_name_H-M   'P 1'
_cell_length_a   9.45089951
_cell_length_b   9.45089951
_cell_length_c   9.45089951
_cell_angle_alpha   109.47122063
_cell_angle_beta   109.47122063
_cell_angle_gamma   109.47122063
_symmetry_Int_Tables_number   1
_chemical_formula_structural   TcC3ClO3
_chemical_formula_sum   'Tc4 C12 Cl4 O12'
_cell_volume   649.82669127
_cell_formula_units_Z   4
loop_
 _symmetry_equiv_pos_site_id
 _symmetry_equiv_pos_as_xyz
  1  'x, y, z'
loop_
 _atom_site_type_symbol
 _atom_site_label
 _atom_site_symmetry_multiplicity
 _atom_site_fract_x
 _atom_site_fract_y
 _atom_site_fract_z
 _atom_site_occupancy
  Tc  Tc0  1  0.74706162  0.74706162  0.74706162  1.0
  Tc  Tc1  1  1.00000000  1.00000000  0.25293838  1.0
  Tc  Tc2  1  1.00000000  0.25293838  1.00000000  1.0
  Tc  Tc3  1  0.25293838  1.00000000  1.00000000  1.0
  C  C4  1  0.74084962  0.57076099  0.57076099  1.0
  C  C5  1  0.57076099  0.74084962  0.57076099  1.0
  C  C6  1  1.00000000  1.17008863  0.42923901  1.0
  C  C7  1  1.17008863  1.00000000  0.42923901  1.0
  C  C8  1  0.57076099  0.57076099  0.74084962  1.0
  C  C9  1  0.82991137  0.82991137  0.25915038  1.0
  C  C10  1  1.00000000  0.42923901  1.17008863  1.0
  C  C11  1  0.82991137  0.25915038  0.82991137  1.0
  C  C12  1  0.25915038  0.82991137  0.82991137  1.0
  C  C13  1  0.42923901  1.00000000  1.17008863  1.0
  C  C14  1  1.17008863  0.42923901  1.00000000  1.0
  C  C15  1  0.42923901  1.17008863  1.00000000  1.0
  Cl  Cl16  1  0.21873027  0.21873027  0.21873027  1.0
  Cl  Cl17  1  1.00000000  1.00000000  0.78126973  1.0
  Cl  Cl18  1  1.00000000  0.78126973  1.00000000  1.0
  Cl  Cl19  1  0.78126973  1.00000000  1.00000000  1.0
  O  O20  1  0.73362579  0.46103544  0.46103544  1.0
  O  O21  1  0.46103544  0.73362579  0.46103544  1.0
  O  O22  1  1.00000000  1.27259035  0.53896456  1.0
  O  O23  1  1.27259035  1.00000000  0.53896456  1.0
  O  O24  1  0.46103544  0.46103544  0.73362579  1.0
  O  O25  1  0.72740965  0.72740965  0.26637421  1.0
  O  O26  1  1.00000000  0.53896456  1.27259035  1.0
  O  O27  1  0.72740965  0.26637421  0.72740965  1.0
  O  O28  1  0.26637421  0.72740965  0.72740965  1.0
  O  O29  1  0.53896456  1.00000000  1.27259035  1.0
  O  O30  1  1.27259035  0.53896456  1.00000000  1.0
  O  O31  1  0.53896456  1.27259035  1.00000000  1.0
