# generated using pymatgen
data_RbHSO4
_symmetry_space_group_name_H-M   'P 1'
_cell_length_a   7.60993725
_cell_length_b   7.90577621
_cell_length_c   7.65192984
_cell_angle_alpha   90.00000000
_cell_angle_beta   107.01766303
_cell_angle_gamma   90.00000000
_symmetry_Int_Tables_number   1
_chemical_formula_structural   RbHSO4
_chemical_formula_sum   'Rb4 H4 S4 O16'
_cell_volume   440.20191947
_cell_formula_units_Z   4
loop_
 _symmetry_equiv_pos_site_id
 _symmetry_equiv_pos_as_xyz
  1  'x, y, z'
loop_
 _atom_site_type_symbol
 _atom_site_label
 _atom_site_symmetry_multiplicity
 _atom_site_fract_x
 _atom_site_fract_y
 _atom_site_fract_z
 _atom_site_occupancy
  Rb  Rb0  1  0.30192515  0.92292391  0.06095206  1.0
  Rb  Rb1  1  0.69807485  0.42292391  0.93904794  1.0
  Rb  Rb2  1  0.69813477  0.17674415  0.43900667  1.0
  Rb  Rb3  1  0.30186523  0.67674415  0.56099333  1.0
  H  H4  1  0.12182349  0.35087410  0.32789290  1.0
  H  H5  1  0.87817651  0.85087410  0.67210710  1.0
  H  H6  1  0.12163972  0.24919919  0.82795508  1.0
  H  H7  1  0.87836028  0.74919919  0.17204492  1.0
  S  S8  1  0.25163333  0.42398346  0.04937933  1.0
  S  S9  1  0.74836667  0.92398346  0.95062067  1.0
  S  S10  1  0.25149617  0.17585494  0.54931176  1.0
  S  S11  1  0.74850383  0.67585494  0.45068824  1.0
  O  O12  1  0.70470967  0.06327540  0.05774497  1.0
  O  O13  1  0.29529033  0.56327540  0.94225503  1.0
  O  O14  1  0.40334238  0.30247000  0.11405106  1.0
  O  O15  1  0.59665762  0.80247000  0.88594894  1.0
  O  O16  1  0.17529845  0.48510229  0.19571635  1.0
  O  O17  1  0.82470155  -0.01489771  0.80428365  1.0
  O  O18  1  0.08126561  0.27935870  0.42026690  1.0
  O  O19  1  0.91873439  0.77935870  0.57973310  1.0
  O  O20  1  0.29465814  0.03637980  0.44211487  1.0
  O  O21  1  0.70534186  0.53637980  0.55788513  1.0
  O  O22  1  0.40355289  0.29703304  0.61391244  1.0
  O  O23  1  0.59644711  0.79703304  0.38608756  1.0
  O  O24  1  0.17508514  0.11499332  0.69570164  1.0
  O  O25  1  0.82491486  0.61499332  0.30429836  1.0
  O  O26  1  0.08113223  0.32090772  0.92020630  1.0
  O  O27  1  0.91886777  0.82090772  0.07979370  1.0
