# generated using pymatgen
data_La2CN3Cl
_symmetry_space_group_name_H-M   'P 1'
_cell_length_a   8.30141806
_cell_length_b   8.30141806
_cell_length_c   3.96593990
_cell_angle_alpha   90.00000000
_cell_angle_beta   90.00000000
_cell_angle_gamma   108.64247612
_symmetry_Int_Tables_number   1
_chemical_formula_structural   La2CN3Cl
_chemical_formula_sum   'La4 C2 N6 Cl2'
_cell_volume   258.96701012
_cell_formula_units_Z   2
loop_
 _symmetry_equiv_pos_site_id
 _symmetry_equiv_pos_as_xyz
  1  'x, y, z'
loop_
 _atom_site_type_symbol
 _atom_site_label
 _atom_site_symmetry_multiplicity
 _atom_site_fract_x
 _atom_site_fract_y
 _atom_site_fract_z
 _atom_site_occupancy
  La  La0  1  0.13792782  0.86207218  0.00000000  1.0
  La  La1  1  -0.13792782  1.13792782  0.00000000  1.0
  La  La2  1  0.71283491  0.71283491  0.50000000  1.0
  La  La3  1  0.28716509  0.28716509  0.50000000  1.0
  C  C4  1  0.00000000  1.50000000  0.50000000  1.0
  C  C5  1  0.50000000  1.00000000  0.50000000  1.0
  N  N6  1  0.00488304  0.65011670  0.50000000  1.0
  N  N7  1  -0.34988330  1.00488304  0.50000000  1.0
  N  N8  1  0.34988330  0.99511696  0.50000000  1.0
  N  N9  1  -0.00488304  1.34988330  0.50000000  1.0
  N  N10  1  0.84466704  0.84466704  0.00000000  1.0
  N  N11  1  0.15533296  0.15533296  0.00000000  1.0
  Cl  Cl12  1  0.37835027  0.62164973  0.00000000  1.0
  Cl  Cl13  1  -0.37835027  1.37835027  0.00000000  1.0
