# generated using pymatgen
data_Sn(PN2)2
_symmetry_space_group_name_H-M   'P 1'
_cell_length_a   8.43056120
_cell_length_b   8.43056120
_cell_length_c   8.35354893
_cell_angle_alpha   90.00000000
_cell_angle_beta   90.00000000
_cell_angle_gamma   89.62629541
_symmetry_Int_Tables_number   1
_chemical_formula_structural   Sn(PN2)2
_chemical_formula_sum   'Sn6 P12 N24'
_cell_volume   593.71053334
_cell_formula_units_Z   6
loop_
 _symmetry_equiv_pos_site_id
 _symmetry_equiv_pos_as_xyz
  1  'x, y, z'
loop_
 _atom_site_type_symbol
 _atom_site_label
 _atom_site_symmetry_multiplicity
 _atom_site_fract_x
 _atom_site_fract_y
 _atom_site_fract_z
 _atom_site_occupancy
  Sn  Sn0  1  -0.34875344  0.65124656  0.50666006  1.0
  Sn  Sn1  1  0.34875344  1.34875344  0.50666006  1.0
  Sn  Sn2  1  -0.14933100  0.14933100  0.29224218  1.0
  Sn  Sn3  1  -0.85066900  0.85066900  0.29224218  1.0
  Sn  Sn4  1  -0.15055846  0.84944154  -0.00300454  1.0
  Sn  Sn5  1  0.15055846  1.15055846  -0.00300454  1.0
  P  P6  1  0.50000000  1.00000000  0.39599294  1.0
  P  P7  1  -0.00000000  0.50000000  0.39599294  1.0
  P  P8  1  -0.00433900  0.25212067  0.65029983  1.0
  P  P9  1  0.00433900  0.74787933  0.65029983  1.0
  P  P10  1  0.25212067  0.99566100  0.65029983  1.0
  P  P11  1  0.74787933  1.00433900  0.65029983  1.0
  P  P12  1  0.50186746  1.25353286  0.14403853  1.0
  P  P13  1  -0.50186746  0.74646714  0.14403853  1.0
  P  P14  1  0.25353286  1.50186746  0.14403853  1.0
  P  P15  1  -0.25353286  0.49813254  0.14403853  1.0
  P  P16  1  -0.00000000  0.50000000  0.89241652  1.0
  P  P17  1  0.50000000  1.00000000  0.89241652  1.0
  N  N18  1  -0.35184811  0.92197731  0.49856001  1.0
  N  N19  1  0.35184811  1.07802269  0.49856001  1.0
  N  N20  1  -0.07802269  0.64815189  0.49856001  1.0
  N  N21  1  0.07802269  1.35184811  0.49856001  1.0
  N  N22  1  -0.85780339  0.85780339  0.56440663  1.0
  N  N23  1  -0.14219661  0.14219661  0.56440663  1.0
  N  N24  1  0.57944116  1.14638326  0.29409072  1.0
  N  N25  1  -0.57944116  0.85361674  0.29409072  1.0
  N  N26  1  0.14638326  1.57944116  0.29409072  1.0
  N  N27  1  -0.14638326  0.42055884  0.29409072  1.0
  N  N28  1  0.35301802  1.35301802  0.22898738  1.0
  N  N29  1  -0.35301802  0.64698198  0.22898738  1.0
  N  N30  1  -0.35588676  0.35588676  0.07301307  1.0
  N  N31  1  -0.64411324  0.64411324  0.07301307  1.0
  N  N32  1  -0.14159701  0.58146202  0.00680344  1.0
  N  N33  1  0.14159701  1.41853798  0.00680344  1.0
  N  N34  1  -0.41853798  0.85840299  0.00680344  1.0
  N  N35  1  0.41853798  1.14159701  0.00680344  1.0
  N  N36  1  0.64426637  1.07545166  0.79216696  1.0
  N  N37  1  -0.64426637  0.92454834  0.79216696  1.0
  N  N38  1  0.07545166  1.64426637  0.79216696  1.0
  N  N39  1  -0.07545166  0.35573363  0.79216696  1.0
  N  N40  1  0.14551473  1.14551473  0.72436679  1.0
  N  N41  1  -0.14551473  0.85448527  0.72436679  1.0
