# generated using pymatgen
data_BH5NCl
_symmetry_space_group_name_H-M   'P 1'
_cell_length_a   4.62456026
_cell_length_b   4.62456026
_cell_length_c   8.57046632
_cell_angle_alpha   90.00000000
_cell_angle_beta   90.00000000
_cell_angle_gamma   89.02550624
_symmetry_Int_Tables_number   1
_chemical_formula_structural   BH5NCl
_chemical_formula_sum   'B2 H10 N2 Cl2'
_cell_volume   183.26626140
_cell_formula_units_Z   2
loop_
 _symmetry_equiv_pos_site_id
 _symmetry_equiv_pos_as_xyz
  1  'x, y, z'
loop_
 _atom_site_type_symbol
 _atom_site_label
 _atom_site_symmetry_multiplicity
 _atom_site_fract_x
 _atom_site_fract_y
 _atom_site_fract_z
 _atom_site_occupancy
  B  B0  1  0.12745640  0.87254360  0.00397592  1.0
  B  B1  1  -0.12745640  1.12745640  0.50397592  1.0
  H  H2  1  -0.00061518  1.30820504  0.43054102  1.0
  H  H3  1  0.30820504  0.99938482  0.93054102  1.0
  H  H4  1  -0.30820504  1.00061518  0.43054102  1.0
  H  H5  1  0.00061518  0.69179496  0.93054102  1.0
  H  H6  1  -0.00506940  1.25883526  0.13706448  1.0
  H  H7  1  0.25883526  0.99493060  0.63706448  1.0
  H  H8  1  -0.25883526  1.00506940  0.13706448  1.0
  H  H9  1  0.00506940  0.74116474  0.63706448  1.0
  H  H10  1  0.20212566  0.79787434  0.47898014  1.0
  H  H11  1  -0.20212566  1.20212566  0.97898014  1.0
  N  N12  1  0.10030960  0.89969040  0.57109429  1.0
  N  N13  1  -0.10030960  1.10030960  0.07109429  1.0
  Cl  Cl14  1  0.31323108  0.68676892  0.17763864  1.0
  Cl  Cl15  1  -0.31323108  1.31323108  0.67763864  1.0
