# generated using pymatgen
data_Sc2Au
_symmetry_space_group_name_H-M   'P 1'
_cell_length_a   6.56100531
_cell_length_b   4.68807765
_cell_length_c   8.38327475
_cell_angle_alpha   90.00000000
_cell_angle_beta   90.00000000
_cell_angle_gamma   90.00000000
_symmetry_Int_Tables_number   1
_chemical_formula_structural   Sc2Au
_chemical_formula_sum   'Sc8 Au4'
_cell_volume   257.85697646
_cell_formula_units_Z   4
loop_
 _symmetry_equiv_pos_site_id
 _symmetry_equiv_pos_as_xyz
  1  'x, y, z'
loop_
 _atom_site_type_symbol
 _atom_site_label
 _atom_site_symmetry_multiplicity
 _atom_site_fract_x
 _atom_site_fract_y
 _atom_site_fract_z
 _atom_site_occupancy
  Sc  Sc0  1  0.98339638  0.75000000  0.68572019  1.0
  Sc  Sc1  1  0.48339638  0.75000000  0.81427981  1.0
  Sc  Sc2  1  0.01660362  0.25000000  0.31427981  1.0
  Sc  Sc3  1  0.51660362  0.25000000  0.18572019  1.0
  Sc  Sc4  1  0.84546040  0.75000000  0.07701214  1.0
  Sc  Sc5  1  0.34546040  0.75000000  0.42298786  1.0
  Sc  Sc6  1  0.15453960  0.25000000  0.92298786  1.0
  Sc  Sc7  1  0.65453960  0.25000000  0.57701214  1.0
  Au  Au8  1  0.75869330  0.75000000  0.40078211  1.0
  Au  Au9  1  0.25869330  0.75000000  0.09921789  1.0
  Au  Au10  1  0.24130670  0.25000000  0.59921789  1.0
  Au  Au11  1  0.74130670  0.25000000  0.90078211  1.0
