# generated using pymatgen
data_TmAl2Pd5
_symmetry_space_group_name_H-M   'P 1'
_cell_length_a   7.99509536
_cell_length_b   7.99509536
_cell_length_c   7.99509536
_cell_angle_alpha   149.89325485
_cell_angle_beta   149.89325485
_cell_angle_gamma   43.09811560
_symmetry_Int_Tables_number   1
_chemical_formula_structural   TmAl2Pd5
_chemical_formula_sum   'Tm1 Al2 Pd5'
_cell_volume   128.25333910
_cell_formula_units_Z   1
loop_
 _symmetry_equiv_pos_site_id
 _symmetry_equiv_pos_as_xyz
  1  'x, y, z'
loop_
 _atom_site_type_symbol
 _atom_site_label
 _atom_site_symmetry_multiplicity
 _atom_site_fract_x
 _atom_site_fract_y
 _atom_site_fract_z
 _atom_site_occupancy
  Tm  Tm0  1  -0.00000000  -0.00000000  -0.00000000  1.0
  Al  Al1  1  0.74736615  0.74736615  1.00000000  1.0
  Al  Al2  1  0.25263385  0.25263385  0.00000000  1.0
  Pd  Pd3  1  0.35449670  0.85449670  0.50000000  1.0
  Pd  Pd4  1  0.64550330  0.14550330  0.50000000  1.0
  Pd  Pd5  1  0.85449670  0.35449670  0.50000000  1.0
  Pd  Pd6  1  0.14550330  0.64550330  0.50000000  1.0
  Pd  Pd7  1  0.50000000  0.50000000  1.00000000  1.0
