# generated using pymatgen
data_Li4C3
_symmetry_space_group_name_H-M   'P 1'
_cell_length_a   3.80985959
_cell_length_b   3.80985959
_cell_length_c   6.23080288
_cell_angle_alpha   65.93845548
_cell_angle_beta   114.06154452
_cell_angle_gamma   119.86297861
_symmetry_Int_Tables_number   1
_chemical_formula_structural   Li4C3
_chemical_formula_sum   'Li4 C3'
_cell_volume   69.18212019
_cell_formula_units_Z   1
loop_
 _symmetry_equiv_pos_site_id
 _symmetry_equiv_pos_as_xyz
  1  'x, y, z'
loop_
 _atom_site_type_symbol
 _atom_site_label
 _atom_site_symmetry_multiplicity
 _atom_site_fract_x
 _atom_site_fract_y
 _atom_site_fract_z
 _atom_site_occupancy
  Li  Li0  1  1.36150061  -0.36150061  0.16079543  1.0
  Li  Li1  1  0.63849939  -0.63849939  0.83920457  1.0
  Li  Li2  1  0.21221736  -0.21221736  0.61324697  1.0
  Li  Li3  1  0.78778264  0.21221736  0.38675303  1.0
  C  C4  1  0.03425029  -0.03425029  0.22966870  1.0
  C  C5  1  0.96574971  0.03425029  0.77033130  1.0
  C  C6  1  0.00000000  0.00000000  0.00000000  1.0
