# generated using pymatgen
data_K2PdF4
_symmetry_space_group_name_H-M   'P 1'
_cell_length_a   5.87459781
_cell_length_b   5.87459781
_cell_length_c   4.31150600
_cell_angle_alpha   86.59279649
_cell_angle_beta   93.40720351
_cell_angle_gamma   118.14873378
_symmetry_Int_Tables_number   1
_chemical_formula_structural   K2PdF4
_chemical_formula_sum   'K2 Pd1 F4'
_cell_volume   130.88024164
_cell_formula_units_Z   1
loop_
 _symmetry_equiv_pos_site_id
 _symmetry_equiv_pos_as_xyz
  1  'x, y, z'
loop_
 _atom_site_type_symbol
 _atom_site_label
 _atom_site_symmetry_multiplicity
 _atom_site_fract_x
 _atom_site_fract_y
 _atom_site_fract_z
 _atom_site_occupancy
  K  K0  1  0.65599558  -0.65599558  0.72245509  1.0
  K  K1  1  0.34400442  -0.34400442  0.27754491  1.0
  Pd  Pd2  1  0.00000000  0.00000000  0.00000000  1.0
  F  F3  1  0.65261902  -0.12452470  0.78728212  1.0
  F  F4  1  1.12452470  0.34738098  0.78728212  1.0
  F  F5  1  0.87547530  -0.34738098  0.21271788  1.0
  F  F6  1  1.34738098  0.12452470  0.21271788  1.0
