# generated using pymatgen
data_Na3Ca2BiO4
_symmetry_space_group_name_H-M   'P 1'
_cell_length_a   15.25773850
_cell_length_b   15.25723336
_cell_length_c   7.09412572
_cell_angle_alpha   76.56083439
_cell_angle_beta   76.55289849
_cell_angle_gamma   26.88626712
_symmetry_Int_Tables_number   1
_chemical_formula_structural   Na3Ca2BiO4
_chemical_formula_sum   'Na12 Ca8 Bi4 O16'
_cell_volume   725.17070106
_cell_formula_units_Z   4
loop_
 _symmetry_equiv_pos_site_id
 _symmetry_equiv_pos_as_xyz
  1  'x, y, z'
loop_
 _atom_site_type_symbol
 _atom_site_label
 _atom_site_symmetry_multiplicity
 _atom_site_fract_x
 _atom_site_fract_y
 _atom_site_fract_z
 _atom_site_occupancy
  Na  Na0  1  0.34745488  0.75475334  0.94892972  1.0
  Na  Na1  1  -0.05113793  -0.05107028  0.75475334  1.0
  Na  Na2  1  -0.50475334  0.90254512  0.30113793  1.0
  Na  Na3  1  0.30107028  0.30113793  0.90254512  1.0
  Na  Na4  1  -0.05107028  -0.05113793  1.34745488  1.0
  Na  Na5  1  0.75475334  0.34745488  -0.05113793  1.0
  Na  Na6  1  -0.69886207  1.30107028  0.49524666  1.0
  Na  Na7  1  -0.09745488  0.49524666  1.30107028  1.0
  Na  Na8  1  0.62500000  -0.37500000  1.12500000  1.0
  Na  Na9  1  -0.37500000  1.12500000  0.62500000  1.0
  Na  Na10  1  -0.37500000  0.62500000  0.62500000  1.0
  Na  Na11  1  1.12500000  -0.37500000  0.62500000  1.0
  Ca  Ca12  1  -0.20679431  0.79311955  1.48756459  1.0
  Ca  Ca13  1  -0.07388984  0.48756459  0.79311955  1.0
  Ca  Ca14  1  -0.54311955  1.45679431  0.32388984  1.0
  Ca  Ca15  1  -0.23756459  0.32388984  1.45679431  1.0
  Ca  Ca16  1  0.48756459  -0.07388984  0.79320569  1.0
  Ca  Ca17  1  0.79311955  -0.20679431  -0.07388984  1.0
  Ca  Ca18  1  -0.67611016  0.76243541  0.45688045  1.0
  Ca  Ca19  1  0.45679431  0.45688045  0.76243541  1.0
  Bi  Bi20  1  0.12500000  0.12500000  1.62500000  1.0
  Bi  Bi21  1  0.12500000  0.62500000  1.12500000  1.0
  Bi  Bi22  1  0.12500000  0.12500000  1.12500000  1.0
  Bi  Bi23  1  0.62500000  0.12500000  1.12500000  1.0
  O  O24  1  0.22505621  -0.29920791  1.53709906  1.0
  O  O25  1  0.53705265  0.53709906  -0.29920791  1.0
  O  O26  1  -0.45079209  1.02494379  0.71294735  1.0
  O  O27  1  -0.28709906  0.71294735  1.02494379  1.0
  O  O28  1  0.53709906  0.53705265  1.22505621  1.0
  O  O29  1  -0.29920791  0.22505621  0.53705265  1.0
  O  O30  1  -0.28705265  0.71290094  0.54920791  1.0
  O  O31  1  0.02494379  0.54920791  0.71290094  1.0
  O  O32  1  -0.11863170  0.36103291  0.37881960  1.0
  O  O33  1  0.37877920  0.37881960  1.36103291  1.0
  O  O34  1  -0.11103291  0.36863170  0.87122080  1.0
  O  O35  1  -0.12881960  0.87122080  0.36863170  1.0
  O  O36  1  0.37881960  0.37877920  -0.11863170  1.0
  O  O37  1  0.36103291  -0.11863170  1.37877920  1.0
  O  O38  1  -0.12877920  0.87118040  0.88896709  1.0
  O  O39  1  -0.63136830  0.88896709  0.87118040  1.0
