# generated using pymatgen
data_Ca5(PPd)6
_symmetry_space_group_name_H-M   'P 1'
_cell_length_a   8.23589978
_cell_length_b   4.10653130
_cell_length_c   19.20816166
_cell_angle_alpha   90.00000000
_cell_angle_beta   90.00000000
_cell_angle_gamma   90.00000000
_symmetry_Int_Tables_number   1
_chemical_formula_structural   Ca5(PPd)6
_chemical_formula_sum   'Ca10 P12 Pd12'
_cell_volume   649.63885514
_cell_formula_units_Z   2
loop_
 _symmetry_equiv_pos_site_id
 _symmetry_equiv_pos_as_xyz
  1  'x, y, z'
loop_
 _atom_site_type_symbol
 _atom_site_label
 _atom_site_symmetry_multiplicity
 _atom_site_fract_x
 _atom_site_fract_y
 _atom_site_fract_z
 _atom_site_occupancy
  Ca  Ca0  1  0.49843879  0.50000000  0.12924804  1.0
  Ca  Ca1  1  0.99843879  0.50000000  0.87075196  1.0
  Ca  Ca2  1  0.50156121  0.50000000  0.87075196  1.0
  Ca  Ca3  1  0.00156121  0.50000000  0.12924804  1.0
  Ca  Ca4  1  0.49157785  0.00000000  0.31784720  1.0
  Ca  Ca5  1  0.99157785  0.00000000  0.68215280  1.0
  Ca  Ca6  1  0.50842215  0.00000000  0.68215280  1.0
  Ca  Ca7  1  0.00842215  0.00000000  0.31784720  1.0
  Ca  Ca8  1  0.00000000  0.50000000  0.50000000  1.0
  Ca  Ca9  1  0.50000000  0.50000000  0.50000000  1.0
  P  P10  1  0.75000000  0.50000000  0.25785151  1.0
  P  P11  1  0.25000000  0.50000000  0.74214849  1.0
  P  P12  1  0.75000000  0.50000000  0.37334534  1.0
  P  P13  1  0.25000000  0.50000000  0.62665466  1.0
  P  P14  1  0.75000000  0.50000000  0.74498476  1.0
  P  P15  1  0.25000000  0.50000000  0.25501524  1.0
  P  P16  1  0.75000000  0.00000000  0.07557392  1.0
  P  P17  1  0.25000000  0.00000000  0.92442608  1.0
  P  P18  1  0.75000000  0.00000000  0.55771421  1.0
  P  P19  1  0.25000000  0.00000000  0.44228579  1.0
  P  P20  1  0.75000000  0.00000000  0.92782837  1.0
  P  P21  1  0.25000000  0.00000000  0.07217163  1.0
  Pd  Pd22  1  0.75000000  0.50000000  0.00155184  1.0
  Pd  Pd23  1  0.25000000  0.50000000  0.99844816  1.0
  Pd  Pd24  1  0.75000000  0.50000000  0.62076791  1.0
  Pd  Pd25  1  0.25000000  0.50000000  0.37923209  1.0
  Pd  Pd26  1  0.75000000  0.00000000  0.19878443  1.0
  Pd  Pd27  1  0.25000000  0.00000000  0.80121557  1.0
  Pd  Pd28  1  0.75000000  0.00000000  0.43250841  1.0
  Pd  Pd29  1  0.25000000  0.00000000  0.56749159  1.0
  Pd  Pd30  1  0.75000000  0.00000000  0.80639620  1.0
  Pd  Pd31  1  0.25000000  0.00000000  0.19360380  1.0
  Pd  Pd32  1  0.00000000  0.00000000  0.00000000  1.0
  Pd  Pd33  1  0.50000000  0.00000000  0.00000000  1.0
