# generated using pymatgen
data_TiNi
_symmetry_space_group_name_H-M   'P 1'
_cell_length_a   7.28509437
_cell_length_b   7.28509437
_cell_length_c   5.33401739
_cell_angle_alpha   90.00000000
_cell_angle_beta   90.00000000
_cell_angle_gamma   120.00000000
_symmetry_Int_Tables_number   1
_chemical_formula_structural   TiNi
_chemical_formula_sum   'Ti9 Ni9'
_cell_volume   245.16328020
_cell_formula_units_Z   9
loop_
 _symmetry_equiv_pos_site_id
 _symmetry_equiv_pos_as_xyz
  1  'x, y, z'
loop_
 _atom_site_type_symbol
 _atom_site_label
 _atom_site_symmetry_multiplicity
 _atom_site_fract_x
 _atom_site_fract_y
 _atom_site_fract_z
 _atom_site_occupancy
  Ti  Ti0  1  0.66903901  0.65597660  0.15457493  1.0
  Ti  Ti1  1  0.65597660  0.98693758  0.84542507  1.0
  Ti  Ti2  1  0.98693758  0.33096099  0.15457493  1.0
  Ti  Ti3  1  0.34402340  0.01306242  0.15457493  1.0
  Ti  Ti4  1  0.33096099  0.34402340  0.84542507  1.0
  Ti  Ti5  1  0.01306242  0.66903901  0.84542507  1.0
  Ti  Ti6  1  0.33333333  0.66666667  0.54218868  1.0
  Ti  Ti7  1  0.66666667  0.33333333  0.45781132  1.0
  Ti  Ti8  1  0.00000000  0.00000000  0.50000000  1.0
  Ni  Ni9  1  0.02679319  0.68662116  0.35948232  1.0
  Ni  Ni10  1  0.68662116  0.65982796  0.64051768  1.0
  Ni  Ni11  1  0.65982796  0.97320681  0.35948232  1.0
  Ni  Ni12  1  0.31337884  0.34017204  0.35948232  1.0
  Ni  Ni13  1  0.97320681  0.31337884  0.64051768  1.0
  Ni  Ni14  1  0.34017204  0.02679319  0.64051768  1.0
  Ni  Ni15  1  0.33333333  0.66666667  0.08621491  1.0
  Ni  Ni16  1  0.66666667  0.33333333  0.91378509  1.0
  Ni  Ni17  1  0.00000000  0.00000000  0.00000000  1.0
