# generated using pymatgen
data_CsAgF3
_symmetry_space_group_name_H-M   'P 1'
_cell_length_a   6.37295638
_cell_length_b   6.37295638
_cell_length_c   6.37295638
_cell_angle_alpha   118.46100793
_cell_angle_beta   118.46100793
_cell_angle_gamma   92.68694449
_symmetry_Int_Tables_number   1
_chemical_formula_structural   CsAgF3
_chemical_formula_sum   'Cs2 Ag2 F6'
_cell_volume   187.05887475
_cell_formula_units_Z   2
loop_
 _symmetry_equiv_pos_site_id
 _symmetry_equiv_pos_as_xyz
  1  'x, y, z'
loop_
 _atom_site_type_symbol
 _atom_site_label
 _atom_site_symmetry_multiplicity
 _atom_site_fract_x
 _atom_site_fract_y
 _atom_site_fract_z
 _atom_site_occupancy
  Cs  Cs0  1  0.25000000  0.25000000  -0.00000000  1.0
  Cs  Cs1  1  0.75000000  0.75000000  -0.00000000  1.0
  Ag  Ag2  1  1.00000000  0.50000000  0.50000000  1.0
  Ag  Ag3  1  0.50000000  1.00000000  0.50000000  1.0
  F  F4  1  0.77144412  0.27144412  1.04288823  1.0
  F  F5  1  0.72855588  0.77144412  0.50000000  1.0
  F  F6  1  0.27144412  0.22855588  0.50000000  1.0
  F  F7  1  1.22855588  0.72855588  0.95711177  1.0
  F  F8  1  0.75000000  0.25000000  0.50000000  1.0
  F  F9  1  0.25000000  0.75000000  0.50000000  1.0
