# generated using pymatgen
data_LiCuO2
_symmetry_space_group_name_H-M   'P 1'
_cell_length_a   5.16575999
_cell_length_b   5.26219047
_cell_length_c   3.46354187
_cell_angle_alpha   104.08635642
_cell_angle_beta   99.41480859
_cell_angle_gamma   102.67567426
_symmetry_Int_Tables_number   1
_chemical_formula_structural   LiCuO2
_chemical_formula_sum   'Li2 Cu2 O4'
_cell_volume   86.71956730
_cell_formula_units_Z   2
loop_
 _symmetry_equiv_pos_site_id
 _symmetry_equiv_pos_as_xyz
  1  'x, y, z'
loop_
 _atom_site_type_symbol
 _atom_site_label
 _atom_site_symmetry_multiplicity
 _atom_site_fract_x
 _atom_site_fract_y
 _atom_site_fract_z
 _atom_site_occupancy
  Li  Li0  1  0.93982712  0.25447683  0.14359267  1.0
  Li  Li1  1  0.06017288  0.74552317  0.85640733  1.0
  Cu  Cu2  1  0.50000000  0.50000000  0.50000000  1.0
  Cu  Cu3  1  0.50000000  -0.00000000  0.50000000  1.0
  O  O4  1  0.76553638  0.32742666  0.62103679  1.0
  O  O5  1  0.23446362  0.67257334  0.37896321  1.0
  O  O6  1  0.71398346  0.84302969  0.79379840  1.0
  O  O7  1  0.28601654  0.15697031  0.20620160  1.0
