# generated using pymatgen
data_Ba2V2Te2O11
_symmetry_space_group_name_H-M   'P 1'
_cell_length_a   7.67127953
_cell_length_b   7.81474174
_cell_length_c   9.74158052
_cell_angle_alpha   90.00000000
_cell_angle_beta   94.26242316
_cell_angle_gamma   90.00000000
_symmetry_Int_Tables_number   1
_chemical_formula_structural   Ba2V2Te2O11
_chemical_formula_sum   'Ba4 V4 Te4 O22'
_cell_volume   582.38339023
_cell_formula_units_Z   2
loop_
 _symmetry_equiv_pos_site_id
 _symmetry_equiv_pos_as_xyz
  1  'x, y, z'
loop_
 _atom_site_type_symbol
 _atom_site_label
 _atom_site_symmetry_multiplicity
 _atom_site_fract_x
 _atom_site_fract_y
 _atom_site_fract_z
 _atom_site_occupancy
  Ba  Ba0  1  0.86611314  0.75000000  0.14237888  1.0
  Ba  Ba1  1  0.13388686  0.25000000  0.85762112  1.0
  Ba  Ba2  1  0.14024768  0.75000000  0.57691788  1.0
  Ba  Ba3  1  0.85975232  0.25000000  0.42308212  1.0
  V  V4  1  0.60649596  0.75000000  0.41805141  1.0
  V  V5  1  0.39350404  0.25000000  0.58194859  1.0
  V  V6  1  0.31548141  0.75000000  0.99135609  1.0
  V  V7  1  0.68451859  0.25000000  0.00864391  1.0
  Te  Te8  1  0.71325987  0.96694651  0.75513640  1.0
  Te  Te9  1  0.71325987  0.53305349  0.75513640  1.0
  Te  Te10  1  0.28674013  0.46694651  0.24486360  1.0
  Te  Te11  1  0.28674013  0.03305349  0.24486360  1.0
  O  O12  1  0.92593667  0.47989819  0.67330800  1.0
  O  O13  1  0.92593667  0.02010181  0.67330800  1.0
  O  O14  1  0.07406333  0.97989819  0.32669200  1.0
  O  O15  1  0.07406333  0.52010181  0.32669200  1.0
  O  O16  1  0.80478018  0.43007352  0.94760172  1.0
  O  O17  1  0.80478018  0.06992648  0.94760172  1.0
  O  O18  1  0.19521982  0.93007352  0.05239828  1.0
  O  O19  1  0.19521982  0.56992648  0.05239828  1.0
  O  O20  1  0.69689341  0.92351224  0.35203956  1.0
  O  O21  1  0.69689341  0.57648776  0.35203956  1.0
  O  O22  1  0.30310659  0.42351224  0.64796044  1.0
  O  O23  1  0.30310659  0.07648776  0.64796044  1.0
  O  O24  1  0.80511066  0.75000000  0.85285585  1.0
  O  O25  1  0.19488934  0.25000000  0.14714415  1.0
  O  O26  1  0.65439597  0.75000000  0.60253839  1.0
  O  O27  1  0.34560403  0.25000000  0.39746161  1.0
  O  O28  1  0.51494537  0.75000000  0.06895716  1.0
  O  O29  1  0.48505463  0.25000000  0.93104284  1.0
  O  O30  1  0.38036475  0.75000000  0.37569053  1.0
  O  O31  1  0.61963525  0.25000000  0.62430947  1.0
  O  O32  1  0.31966421  0.75000000  0.82156942  1.0
  O  O33  1  0.68033579  0.25000000  0.17843058  1.0
