# generated using pymatgen
data_MgSiO3
_symmetry_space_group_name_H-M   'P 1'
_cell_length_a   9.36154508
_cell_length_b   8.85849652
_cell_length_c   5.37915046
_cell_angle_alpha   90.00000000
_cell_angle_beta   90.00000000
_cell_angle_gamma   90.00000000
_symmetry_Int_Tables_number   1
_chemical_formula_structural   MgSiO3
_chemical_formula_sum   'Mg8 Si8 O24'
_cell_volume   446.08872205
_cell_formula_units_Z   8
loop_
 _symmetry_equiv_pos_site_id
 _symmetry_equiv_pos_as_xyz
  1  'x, y, z'
loop_
 _atom_site_type_symbol
 _atom_site_label
 _atom_site_symmetry_multiplicity
 _atom_site_fract_x
 _atom_site_fract_y
 _atom_site_fract_z
 _atom_site_occupancy
  Mg  Mg0  1  0.00000000  0.76128376  0.75000000  1.0
  Mg  Mg1  1  0.00000000  0.23871624  0.25000000  1.0
  Mg  Mg2  1  0.50000000  0.26128376  0.75000000  1.0
  Mg  Mg3  1  0.50000000  0.73871624  0.25000000  1.0
  Mg  Mg4  1  0.00000000  0.40142450  0.75000000  1.0
  Mg  Mg5  1  0.00000000  0.59857550  0.25000000  1.0
  Mg  Mg6  1  0.50000000  0.90142450  0.75000000  1.0
  Mg  Mg7  1  0.50000000  0.09857550  0.25000000  1.0
  Si  Si8  1  0.70794200  0.59063118  0.56314832  1.0
  Si  Si9  1  0.70794200  0.40936882  0.06314832  1.0
  Si  Si10  1  0.20794200  0.09063118  0.93685168  1.0
  Si  Si11  1  0.20794200  0.90936882  0.43685168  1.0
  Si  Si12  1  0.29205800  0.59063118  0.93685168  1.0
  Si  Si13  1  0.29205800  0.40936882  0.43685168  1.0
  Si  Si14  1  0.79205800  0.09063118  0.56314832  1.0
  Si  Si15  1  0.79205800  0.90936882  0.06314832  1.0
  O  O16  1  0.88214975  0.59379789  0.57635347  1.0
  O  O17  1  0.88214975  0.40620211  0.07635347  1.0
  O  O18  1  0.38214975  0.09379789  0.92364653  1.0
  O  O19  1  0.38214975  0.90620211  0.42364653  1.0
  O  O20  1  0.11785025  0.59379789  0.92364653  1.0
  O  O21  1  0.11785025  0.40620211  0.42364653  1.0
  O  O22  1  0.61785025  0.09379789  0.57635347  1.0
  O  O23  1  0.61785025  0.90620211  0.07635347  1.0
  O  O24  1  0.84855868  0.97405803  0.78561392  1.0
  O  O25  1  0.84855868  0.02594197  0.28561392  1.0
  O  O26  1  0.34855868  0.47405803  0.71438608  1.0
  O  O27  1  0.34855868  0.52594197  0.21438608  1.0
  O  O28  1  0.15144132  0.97405803  0.71438608  1.0
  O  O29  1  0.15144132  0.02594197  0.21438608  1.0
  O  O30  1  0.65144132  0.47405803  0.78561392  1.0
  O  O31  1  0.65144132  0.52594197  0.28561392  1.0
  O  O32  1  0.62161117  0.74753173  0.56752157  1.0
  O  O33  1  0.62161117  0.25246827  0.06752157  1.0
  O  O34  1  0.12161117  0.24753173  0.93247843  1.0
  O  O35  1  0.12161117  0.75246827  0.43247843  1.0
  O  O36  1  0.37838883  0.74753173  0.93247843  1.0
  O  O37  1  0.37838883  0.25246827  0.43247843  1.0
  O  O38  1  0.87838883  0.24753173  0.56752157  1.0
  O  O39  1  0.87838883  0.75246827  0.06752157  1.0
