# generated using pymatgen
data_Tl2Ge2S5
_symmetry_space_group_name_H-M   'P 1'
_cell_length_a   10.94413029
_cell_length_b   10.94413029
_cell_length_c   9.03480680
_cell_angle_alpha   80.58027840
_cell_angle_beta   99.41972160
_cell_angle_gamma   89.72744752
_symmetry_Int_Tables_number   1
_chemical_formula_structural   Tl2Ge2S5
_chemical_formula_sum   'Tl8 Ge8 S20'
_cell_volume   1052.59501924
_cell_formula_units_Z   4
loop_
 _symmetry_equiv_pos_site_id
 _symmetry_equiv_pos_as_xyz
  1  'x, y, z'
loop_
 _atom_site_type_symbol
 _atom_site_label
 _atom_site_symmetry_multiplicity
 _atom_site_fract_x
 _atom_site_fract_y
 _atom_site_fract_z
 _atom_site_occupancy
  Tl  Tl0  1  0.29264372  -0.04859507  0.37773757  1.0
  Tl  Tl1  1  1.04859507  0.70735628  0.87773757  1.0
  Tl  Tl2  1  0.95140493  -0.70735628  0.12226243  1.0
  Tl  Tl3  1  1.70735628  0.04859507  0.62226243  1.0
  Tl  Tl4  1  1.56213144  0.29387397  0.10055082  1.0
  Tl  Tl5  1  0.70612603  -0.56213144  0.60055082  1.0
  Tl  Tl6  1  1.29387397  0.56213144  0.39944918  1.0
  Tl  Tl7  1  0.43786856  -0.29387397  0.89944918  1.0
  Ge  Ge8  1  0.63244859  -0.23085748  0.39072120  1.0
  Ge  Ge9  1  1.23085748  0.36755141  0.89072120  1.0
  Ge  Ge10  1  0.76914252  -0.36755141  0.10927880  1.0
  Ge  Ge11  1  1.36755141  0.23085748  0.60927880  1.0
  Ge  Ge12  1  0.76515405  -0.03157807  0.10156973  1.0
  Ge  Ge13  1  1.03157807  0.23484595  0.60156973  1.0
  Ge  Ge14  1  0.96842193  -0.23484595  0.39843027  1.0
  Ge  Ge15  1  1.23484595  0.03157807  0.89843027  1.0
  S  S16  1  0.74287749  -0.18104158  0.95236682  1.0
  S  S17  1  1.18104158  0.25712251  0.45236682  1.0
  S  S18  1  0.81895842  -0.25712251  0.54763318  1.0
  S  S19  1  1.25712251  0.18104158  0.04763318  1.0
  S  S20  1  0.61154510  -0.04195266  0.24451576  1.0
  S  S21  1  1.04195266  0.38845490  0.74451576  1.0
  S  S22  1  0.95804734  -0.38845490  0.25548424  1.0
  S  S23  1  1.38845490  0.04195266  0.75548424  1.0
  S  S24  1  1.74452365  0.14889818  0.95633057  1.0
  S  S25  1  0.85110182  -0.74452365  0.45633057  1.0
  S  S26  1  1.14889818  0.74452365  0.54366943  1.0
  S  S27  1  0.25547635  -0.14889818  0.04366943  1.0
  S  S28  1  1.51085660  0.25465791  0.46932534  1.0
  S  S29  1  0.74534209  -0.51085660  0.96932534  1.0
  S  S30  1  1.25465791  0.51085660  0.03067466  1.0
  S  S31  1  0.48914340  -0.25465791  0.53067466  1.0
  S  S32  1  0.95360621  -0.04639379  0.25000000  1.0
  S  S33  1  1.04639379  0.04639379  0.75000000  1.0
  S  S34  1  0.61315928  -0.38684072  0.25000000  1.0
  S  S35  1  1.38684072  0.38684072  0.75000000  1.0
