# generated using pymatgen
data_MnAu4
_symmetry_space_group_name_H-M   'P 1'
_cell_length_a   5.04916868
_cell_length_b   5.04916868
_cell_length_c   5.04916868
_cell_angle_alpha   99.09869858
_cell_angle_beta   99.09869858
_cell_angle_gamma   133.13571018
_symmetry_Int_Tables_number   1
_chemical_formula_structural   MnAu4
_chemical_formula_sum   'Mn1 Au4'
_cell_volume   86.18796739
_cell_formula_units_Z   1
loop_
 _symmetry_equiv_pos_site_id
 _symmetry_equiv_pos_as_xyz
  1  'x, y, z'
loop_
 _atom_site_type_symbol
 _atom_site_label
 _atom_site_symmetry_multiplicity
 _atom_site_fract_x
 _atom_site_fract_y
 _atom_site_fract_z
 _atom_site_occupancy
  Mn  Mn0  1  0.00000000  0.00000000  0.00000000  1.0
  Au  Au1  1  0.79498365  0.60157006  0.39655371  1.0
  Au  Au2  1  0.60157006  0.20501635  0.80658641  1.0
  Au  Au3  1  1.20501635  1.39842994  1.60344629  1.0
  Au  Au4  1  0.39842994  0.79498365  1.19341359  1.0
