# generated using pymatgen
data_Cs2PtC4(BrN2)2
_symmetry_space_group_name_H-M   'P 1'
_cell_length_a   10.22924137
_cell_length_b   10.22924137
_cell_length_c   13.85269241
_cell_angle_alpha   48.82601343
_cell_angle_beta   131.17398657
_cell_angle_gamma   137.52741940
_symmetry_Int_Tables_number   1
_chemical_formula_structural   Cs2PtC4(BrN2)2
_chemical_formula_sum   'Cs4 Pt2 C8 Br4 N8'
_cell_volume   692.86874626
_cell_formula_units_Z   2
loop_
 _symmetry_equiv_pos_site_id
 _symmetry_equiv_pos_as_xyz
  1  'x, y, z'
loop_
 _atom_site_type_symbol
 _atom_site_label
 _atom_site_symmetry_multiplicity
 _atom_site_fract_x
 _atom_site_fract_y
 _atom_site_fract_z
 _atom_site_occupancy
  Cs  Cs0  1  1.31124663  0.66096924  0.99391425  1.0
  Cs  Cs1  1  1.33903076  -0.31124663  0.49391425  1.0
  Cs  Cs2  1  0.66096924  0.31124663  0.50608575  1.0
  Cs  Cs3  1  0.68875337  -0.66096924  0.00608575  1.0
  Pt  Pt4  1  0.00000000  0.00000000  0.00000000  1.0
  Pt  Pt5  1  -0.00000000  0.00000000  0.50000000  1.0
  C  C6  1  1.76885500  -0.09306218  0.83761034  1.0
  C  C7  1  1.09306218  -0.76885500  0.33761034  1.0
  C  C8  1  0.90693782  0.76885500  0.66238966  1.0
  C  C9  1  0.23114500  0.09306218  0.16238966  1.0
  C  C10  1  0.84991271  0.07072590  0.98767663  1.0
  C  C11  1  0.92927410  -0.84991271  0.48767663  1.0
  C  C12  1  1.07072590  0.84991271  0.51232337  1.0
  C  C13  1  1.15008729  -0.07072590  0.01232337  1.0
  Br  Br14  1  0.35907085  0.17897745  0.65787127  1.0
  Br  Br15  1  0.82102255  0.64092915  0.15787127  1.0
  Br  Br16  1  1.17897745  -0.64092915  0.84212873  1.0
  Br  Br17  1  1.64092915  -0.17897745  0.34212873  1.0
  N  N18  1  1.63539847  -0.14453439  0.74235172  1.0
  N  N19  1  1.14453439  -0.63539847  0.24235172  1.0
  N  N20  1  0.85546561  0.63539847  0.75764828  1.0
  N  N21  1  0.36460153  0.14453439  0.25764828  1.0
  N  N22  1  0.75944087  0.10756558  0.98106250  1.0
  N  N23  1  0.89243442  -0.75944087  0.48106250  1.0
  N  N24  1  1.10756558  0.75944087  0.51893750  1.0
  N  N25  1  1.24055913  -0.10756558  0.01893750  1.0
