# generated using pymatgen
data_S2O5F2
_symmetry_space_group_name_H-M   'P 1'
_cell_length_a   8.07626359
_cell_length_b   8.07626359
_cell_length_c   10.23834530
_cell_angle_alpha   90.00000000
_cell_angle_beta   90.00000000
_cell_angle_gamma   90.00000000
_symmetry_Int_Tables_number   1
_chemical_formula_structural   S2O5F2
_chemical_formula_sum   'S8 O20 F8'
_cell_volume   667.80665504
_cell_formula_units_Z   4
loop_
 _symmetry_equiv_pos_site_id
 _symmetry_equiv_pos_as_xyz
  1  'x, y, z'
loop_
 _atom_site_type_symbol
 _atom_site_label
 _atom_site_symmetry_multiplicity
 _atom_site_fract_x
 _atom_site_fract_y
 _atom_site_fract_z
 _atom_site_occupancy
  S  S0  1  0.07463653  0.33591323  0.36607154  1.0
  S  S1  1  0.42536347  0.83591323  0.13392846  1.0
  S  S2  1  0.66408677  0.07463653  0.63392846  1.0
  S  S3  1  0.83591323  0.57463653  0.86607154  1.0
  S  S4  1  0.92536347  0.66408677  0.36607154  1.0
  S  S5  1  0.57463653  0.16408677  0.13392846  1.0
  S  S6  1  0.33591323  0.92536347  0.63392846  1.0
  S  S7  1  0.16408677  0.42536347  0.86607154  1.0
  O  O8  1  0.98052847  0.30175426  0.48074086  1.0
  O  O9  1  0.51947153  0.80175426  0.01925914  1.0
  O  O10  1  0.69824574  0.98052847  0.51925914  1.0
  O  O11  1  0.80175426  0.48052847  0.98074086  1.0
  O  O12  1  0.01947153  0.69824574  0.48074086  1.0
  O  O13  1  0.48052847  0.19824574  0.01925914  1.0
  O  O14  1  0.30175426  0.01947153  0.51925914  1.0
  O  O15  1  0.19824574  0.51947153  0.98074086  1.0
  O  O16  1  0.10724662  0.22111726  0.26381192  1.0
  O  O17  1  0.39275338  0.72111726  0.23618808  1.0
  O  O18  1  0.77888274  0.10724662  0.73618808  1.0
  O  O19  1  0.72111726  0.60724662  0.76381192  1.0
  O  O20  1  0.89275338  0.77888274  0.26381192  1.0
  O  O21  1  0.60724662  0.27888274  0.23618808  1.0
  O  O22  1  0.22111726  0.89275338  0.73618808  1.0
  O  O23  1  0.27888274  0.39275338  0.76381192  1.0
  O  O24  1  0.00000000  0.50000000  0.28978630  1.0
  O  O25  1  0.50000000  0.00000000  0.21021370  1.0
  O  O26  1  0.50000000  0.00000000  0.71021370  1.0
  O  O27  1  0.00000000  0.50000000  0.78978630  1.0
  F  F28  1  0.24534765  0.41280289  0.41066817  1.0
  F  F29  1  0.25465235  0.91280289  0.08933183  1.0
  F  F30  1  0.58719711  0.24534765  0.58933183  1.0
  F  F31  1  0.91280289  0.74534765  0.91066817  1.0
  F  F32  1  0.75465235  0.58719711  0.41066817  1.0
  F  F33  1  0.74534765  0.08719711  0.08933183  1.0
  F  F34  1  0.41280289  0.75465235  0.58933183  1.0
  F  F35  1  0.08719711  0.25465235  0.91066817  1.0
