# generated using pymatgen
data_ZnGaNO
_symmetry_space_group_name_H-M   'P 1'
_cell_length_a   3.26866295
_cell_length_b   5.60980343
_cell_length_c   5.29438359
_cell_angle_alpha   90.00000000
_cell_angle_beta   90.00000000
_cell_angle_gamma   90.00000000
_symmetry_Int_Tables_number   1
_chemical_formula_structural   ZnGaNO
_chemical_formula_sum   'Zn2 Ga2 N2 O2'
_cell_volume   97.08076458
_cell_formula_units_Z   2
loop_
 _symmetry_equiv_pos_site_id
 _symmetry_equiv_pos_as_xyz
  1  'x, y, z'
loop_
 _atom_site_type_symbol
 _atom_site_label
 _atom_site_symmetry_multiplicity
 _atom_site_fract_x
 _atom_site_fract_y
 _atom_site_fract_z
 _atom_site_occupancy
  Zn  Zn0  1  0.50000000  0.17648073  0.48901229  1.0
  Zn  Zn1  1  0.50000000  0.82351927  0.98901229  1.0
  Ga  Ga2  1  0.00000000  0.65116667  0.50760939  1.0
  Ga  Ga3  1  -0.00000000  0.34883333  1.00760939  1.0
  N  N4  1  0.00000000  0.66306614  0.86766626  1.0
  N  N5  1  0.00000000  0.33693386  0.36766626  1.0
  O  O6  1  0.50000000  0.18014660  0.88970966  1.0
  O  O7  1  0.50000000  0.81985340  0.38970966  1.0
