# generated using pymatgen
data_YGa2Pd
_symmetry_space_group_name_H-M   'P 1'
_cell_length_a   5.55117308
_cell_length_b   5.55117308
_cell_length_c   6.62961548
_cell_angle_alpha   90.00000000
_cell_angle_beta   90.00000000
_cell_angle_gamma   132.88713700
_symmetry_Int_Tables_number   1
_chemical_formula_structural   YGa2Pd
_chemical_formula_sum   'Y2 Ga4 Pd2'
_cell_volume   149.68611662
_cell_formula_units_Z   2
loop_
 _symmetry_equiv_pos_site_id
 _symmetry_equiv_pos_as_xyz
  1  'x, y, z'
loop_
 _atom_site_type_symbol
 _atom_site_label
 _atom_site_symmetry_multiplicity
 _atom_site_fract_x
 _atom_site_fract_y
 _atom_site_fract_z
 _atom_site_occupancy
  Y  Y0  1  0.41155717  0.58844283  0.75000000  1.0
  Y  Y1  1  -0.41155717  0.41155717  0.25000000  1.0
  Ga  Ga2  1  0.12753432  0.87246568  0.94645510  1.0
  Ga  Ga3  1  0.12753432  0.87246568  0.55354490  1.0
  Ga  Ga4  1  -0.12753432  0.12753432  0.44645510  1.0
  Ga  Ga5  1  -0.12753432  0.12753432  0.05354490  1.0
  Pd  Pd6  1  -0.29905494  0.29905494  0.75000000  1.0
  Pd  Pd7  1  0.29905494  0.70094506  0.25000000  1.0
