# generated using pymatgen
data_YbC2
_symmetry_space_group_name_H-M   'P 1'
_cell_length_a   4.04383615
_cell_length_b   4.04383615
_cell_length_c   4.04383615
_cell_angle_alpha   125.72532694
_cell_angle_beta   125.72532694
_cell_angle_gamma   80.34005432
_symmetry_Int_Tables_number   1
_chemical_formula_structural   YbC2
_chemical_formula_sum   'Yb1 C2'
_cell_volume   42.05111504
_cell_formula_units_Z   1
loop_
 _symmetry_equiv_pos_site_id
 _symmetry_equiv_pos_as_xyz
  1  'x, y, z'
loop_
 _atom_site_type_symbol
 _atom_site_label
 _atom_site_symmetry_multiplicity
 _atom_site_fract_x
 _atom_site_fract_y
 _atom_site_fract_z
 _atom_site_occupancy
  Yb  Yb0  1  0.00000000  0.00000000  0.00000000  1.0
  C  C1  1  0.60384168  0.60384168  1.00000000  1.0
  C  C2  1  0.39615832  0.39615832  0.00000000  1.0
