# generated using pymatgen
data_CsLu(MoO4)2
_symmetry_space_group_name_H-M   'P 1'
_cell_length_a   7.55396138
_cell_length_b   7.55396138
_cell_length_c   7.79966816
_cell_angle_alpha   61.65716757
_cell_angle_beta   118.34283243
_cell_angle_gamma   92.53326407
_symmetry_Int_Tables_number   1
_chemical_formula_structural   CsLu(MoO4)2
_chemical_formula_sum   'Cs2 Lu2 Mo4 O16'
_cell_volume   335.19267940
_cell_formula_units_Z   2
loop_
 _symmetry_equiv_pos_site_id
 _symmetry_equiv_pos_as_xyz
  1  'x, y, z'
loop_
 _atom_site_type_symbol
 _atom_site_label
 _atom_site_symmetry_multiplicity
 _atom_site_fract_x
 _atom_site_fract_y
 _atom_site_fract_z
 _atom_site_occupancy
  Cs  Cs0  1  0.19184311  0.19184311  0.25000000  1.0
  Cs  Cs1  1  0.80815689  0.80815689  0.75000000  1.0
  Lu  Lu2  1  0.77263751  0.77263751  0.25000000  1.0
  Lu  Lu3  1  0.22736249  0.22736249  0.75000000  1.0
  Mo  Mo4  1  0.69300692  0.30641381  0.23169531  1.0
  Mo  Mo5  1  0.69358619  0.30699308  0.73169531  1.0
  Mo  Mo6  1  1.30641381  -0.30699308  0.26830469  1.0
  Mo  Mo7  1  1.30699308  -0.30641381  0.76830469  1.0
  O  O8  1  1.59021199  -0.37235796  0.03994541  1.0
  O  O9  1  1.37235796  -0.59021199  0.53994541  1.0
  O  O10  1  0.62764204  0.59021199  0.46005459  1.0
  O  O11  1  0.40978801  0.37235796  0.96005459  1.0
  O  O12  1  0.77345066  0.05424361  0.28743047  1.0
  O  O13  1  0.94575639  0.22654934  0.78743047  1.0
  O  O14  1  1.05424361  -0.22654934  0.21256953  1.0
  O  O15  1  1.22654934  -0.05424361  0.71256953  1.0
  O  O16  1  1.36717881  -0.06364844  0.11988232  1.0
  O  O17  1  1.06364844  -0.36717881  0.61988232  1.0
  O  O18  1  0.93635156  0.36717881  0.38011768  1.0
  O  O19  1  0.63282119  0.06364844  0.88011768  1.0
  O  O20  1  0.61240747  0.24202491  0.42688144  1.0
  O  O21  1  0.75797509  0.38759253  0.92688144  1.0
  O  O22  1  1.24202491  -0.38759253  0.07311856  1.0
  O  O23  1  1.38759253  -0.24202491  0.57311856  1.0
