# generated using pymatgen
data_P2H4PbO4
_symmetry_space_group_name_H-M   'P 1'
_cell_length_a   8.73800222
_cell_length_b   8.73800222
_cell_length_c   6.08656681
_cell_angle_alpha   87.60161593
_cell_angle_beta   92.39838407
_cell_angle_gamma   139.18915109
_symmetry_Int_Tables_number   1
_chemical_formula_structural   P2H4PbO4
_chemical_formula_sum   'P4 H8 Pb2 O8'
_cell_volume   303.42505707
_cell_formula_units_Z   2
loop_
 _symmetry_equiv_pos_site_id
 _symmetry_equiv_pos_as_xyz
  1  'x, y, z'
loop_
 _atom_site_type_symbol
 _atom_site_label
 _atom_site_symmetry_multiplicity
 _atom_site_fract_x
 _atom_site_fract_y
 _atom_site_fract_z
 _atom_site_occupancy
  P  P0  1  0.38295137  0.11532213  0.76615958  1.0
  P  P1  1  0.88467787  0.61704863  0.26615958  1.0
  P  P2  1  1.11532213  0.38295137  0.73384042  1.0
  P  P3  1  0.61704863  -0.11532213  0.23384042  1.0
  H  H4  1  0.56507136  0.18863675  0.64377806  1.0
  H  H5  1  0.81136325  0.43492864  0.14377806  1.0
  H  H6  1  1.18863675  0.56507136  0.85622194  1.0
  H  H7  1  0.43492864  -0.18863675  0.35622194  1.0
  H  H8  1  0.30683564  -0.06845872  0.90103028  1.0
  H  H9  1  1.06845872  0.69316436  0.40103028  1.0
  H  H10  1  0.93154128  0.30683564  0.59896972  1.0
  H  H11  1  0.69316436  0.06845872  0.09896972  1.0
  Pb  Pb12  1  0.74996937  0.74996937  0.75000000  1.0
  Pb  Pb13  1  0.25003063  0.25003063  0.25000000  1.0
  O  O14  1  0.81765950  -0.01231385  0.39239623  1.0
  O  O15  1  1.01231385  0.18234050  0.89239623  1.0
  O  O16  1  0.98768615  0.81765950  0.10760377  1.0
  O  O17  1  0.18234050  0.01231385  0.60760377  1.0
  O  O18  1  0.48824179  0.31656590  0.91341709  1.0
  O  O19  1  0.68343410  0.51175821  0.41341709  1.0
  O  O20  1  1.31656590  0.48824179  0.58658291  1.0
  O  O21  1  0.51175821  -0.31656590  0.08658291  1.0
