# generated using pymatgen
data_Lu2MnSe4
_symmetry_space_group_name_H-M   'P 1'
_cell_length_a   8.09515276
_cell_length_b   8.09515276
_cell_length_c   8.09515276
_cell_angle_alpha   60.00000000
_cell_angle_beta   60.00000000
_cell_angle_gamma   60.00000000
_symmetry_Int_Tables_number   1
_chemical_formula_structural   Lu2MnSe4
_chemical_formula_sum   'Lu4 Mn2 Se8'
_cell_volume   375.11130035
_cell_formula_units_Z   2
loop_
 _symmetry_equiv_pos_site_id
 _symmetry_equiv_pos_as_xyz
  1  'x, y, z'
loop_
 _atom_site_type_symbol
 _atom_site_label
 _atom_site_symmetry_multiplicity
 _atom_site_fract_x
 _atom_site_fract_y
 _atom_site_fract_z
 _atom_site_occupancy
  Lu  Lu0  1  1.12500000  -0.37500000  0.62500000  1.0
  Lu  Lu1  1  0.62500000  1.12500000  -0.37500000  1.0
  Lu  Lu2  1  0.62500000  0.62500000  0.12500000  1.0
  Lu  Lu3  1  0.62500000  0.62500000  -0.37500000  1.0
  Mn  Mn4  1  0.25000000  0.25000000  0.25000000  1.0
  Mn  Mn5  1  0.00000000  1.00000000  -0.00000000  1.0
  Se  Se6  1  -0.13671979  0.37890660  0.37890660  1.0
  Se  Se7  1  0.37890660  0.86328021  0.37890660  1.0
  Se  Se8  1  0.37890660  1.37890660  -0.13671979  1.0
  Se  Se9  1  0.37890660  0.37890660  0.37890660  1.0
  Se  Se10  1  0.38671979  0.87109340  -0.12890660  1.0
  Se  Se11  1  0.87109340  -0.61328021  0.87109340  1.0
  Se  Se12  1  0.87109340  0.87109340  -0.61328021  1.0
  Se  Se13  1  0.87109340  -0.12890660  0.87109340  1.0
