# generated using pymatgen
data_V2Zn2O7
_symmetry_space_group_name_H-M   'P 1'
_cell_length_a   5.50640291
_cell_length_b   5.50640291
_cell_length_c   5.07277365
_cell_angle_alpha   77.80191041
_cell_angle_beta   102.19808959
_cell_angle_gamma   79.87504971
_symmetry_Int_Tables_number   1
_chemical_formula_structural   V2Zn2O7
_chemical_formula_sum   'V2 Zn2 O7'
_cell_volume   142.97698221
_cell_formula_units_Z   1
loop_
 _symmetry_equiv_pos_site_id
 _symmetry_equiv_pos_as_xyz
  1  'x, y, z'
loop_
 _atom_site_type_symbol
 _atom_site_label
 _atom_site_symmetry_multiplicity
 _atom_site_fract_x
 _atom_site_fract_y
 _atom_site_fract_z
 _atom_site_occupancy
  V  V0  1  0.78145559  -0.78145559  0.59484746  1.0
  V  V1  1  0.21854441  -0.21854441  0.40515254  1.0
  Zn  Zn2  1  0.68408646  -0.31591354  -0.00000000  1.0
  Zn  Zn3  1  1.31591354  0.31591354  -0.00000000  1.0
  O  O4  1  1.62305001  0.04680745  0.78773711  1.0
  O  O5  1  0.95319255  -0.62305001  0.78773711  1.0
  O  O6  1  1.04680745  0.62305001  0.21226289  1.0
  O  O7  1  0.37694999  -0.04680745  0.21226289  1.0
  O  O8  1  0.41566152  -0.41566152  0.72324976  1.0
  O  O9  1  0.58433848  -0.58433848  0.27675024  1.0
  O  O10  1  0.00000000  -0.00000000  0.50000000  1.0
