# generated using pymatgen
data_K7Nb(SO4)6
_symmetry_space_group_name_H-M   'P 1'
_cell_length_a   9.45680962
_cell_length_b   9.45680962
_cell_length_c   9.45680962
_cell_angle_alpha   109.46076817
_cell_angle_beta   109.46076817
_cell_angle_gamma   109.46076817
_symmetry_Int_Tables_number   1
_chemical_formula_structural   K7Nb(SO4)6
_chemical_formula_sum   'K7 Nb1 S6 O24'
_cell_volume   651.29838637
_cell_formula_units_Z   1
loop_
 _symmetry_equiv_pos_site_id
 _symmetry_equiv_pos_as_xyz
  1  'x, y, z'
loop_
 _atom_site_type_symbol
 _atom_site_label
 _atom_site_symmetry_multiplicity
 _atom_site_fract_x
 _atom_site_fract_y
 _atom_site_fract_z
 _atom_site_occupancy
  K  K0  1  0.67670903  0.83668744  0.33398589  1.0
  K  K1  1  1.16331256  -0.33398589  0.32329097  1.0
  K  K2  1  0.66601411  0.32329097  0.16331256  1.0
  K  K3  1  1.32329097  0.16331256  -0.33398589  1.0
  K  K4  1  0.83668744  1.33398589  -0.32329097  1.0
  K  K5  1  1.33398589  0.67670903  -0.16331256  1.0
  K  K6  1  0.50000000  0.50000000  0.50000000  1.0
  Nb  Nb7  1  0.00000000  0.00000000  0.00000000  1.0
  S  S8  1  1.74486852  0.61845874  -0.03170812  1.0
  S  S9  1  0.38154126  1.03170812  -0.74486852  1.0
  S  S10  1  1.03170812  0.25513148  -0.61845874  1.0
  S  S11  1  0.25513148  0.38154126  0.03170812  1.0
  S  S12  1  1.61845874  -0.03170812  0.74486852  1.0
  S  S13  1  0.96829188  0.74486852  0.61845874  1.0
  O  O14  1  1.76892245  0.97803228  -0.10751492  1.0
  O  O15  1  1.02196772  0.10751492  -0.76892245  1.0
  O  O16  1  1.10751492  -0.76892245  0.02196772  1.0
  O  O17  1  0.23107755  0.02196772  0.10751492  1.0
  O  O18  1  0.97803228  0.89248508  0.76892245  1.0
  O  O19  1  0.89248508  1.76892245  -0.02196772  1.0
  O  O20  1  0.63758632  0.68601538  0.01414411  1.0
  O  O21  1  1.31398462  -0.01414411  0.36241368  1.0
  O  O22  1  0.98585589  0.36241368  0.31398462  1.0
  O  O23  1  1.36241368  0.31398462  -0.01414411  1.0
  O  O24  1  0.68601538  1.01414411  -0.36241368  1.0
  O  O25  1  1.01414411  0.63758632  -0.31398462  1.0
  O  O26  1  1.47520094  0.78690707  -0.35194593  1.0
  O  O27  1  1.21309293  0.35194593  -0.47520094  1.0
  O  O28  1  1.35194593  -0.47520094  0.21309293  1.0
  O  O29  1  0.52479906  0.21309293  0.35194593  1.0
  O  O30  1  0.78690707  0.64805407  0.47520094  1.0
  O  O31  1  0.64805407  1.47520094  -0.21309293  1.0
  O  O32  1  0.57406526  1.09192809  -0.16545459  1.0
  O  O33  1  0.90807191  0.16545459  0.42593474  1.0
  O  O34  1  1.16545459  0.42593474  -0.09192809  1.0
  O  O35  1  1.42593474  -0.09192809  0.16545459  1.0
  O  O36  1  1.09192809  0.83454541  -0.42593474  1.0
  O  O37  1  0.83454541  0.57406526  0.09192809  1.0
