# generated using pymatgen
data_Sc2VB2Rh5
_symmetry_space_group_name_H-M   'P 1'
_cell_length_a   9.31743216
_cell_length_b   9.31743216
_cell_length_c   3.08784951
_cell_angle_alpha   90.00000000
_cell_angle_beta   90.00000000
_cell_angle_gamma   90.00000000
_symmetry_Int_Tables_number   1
_chemical_formula_structural   Sc2VB2Rh5
_chemical_formula_sum   'Sc4 V2 B4 Rh10'
_cell_volume   268.07024102
_cell_formula_units_Z   2
loop_
 _symmetry_equiv_pos_site_id
 _symmetry_equiv_pos_as_xyz
  1  'x, y, z'
loop_
 _atom_site_type_symbol
 _atom_site_label
 _atom_site_symmetry_multiplicity
 _atom_site_fract_x
 _atom_site_fract_y
 _atom_site_fract_z
 _atom_site_occupancy
  Sc  Sc0  1  0.32481439  0.17518561  0.00000000  1.0
  Sc  Sc1  1  0.82481439  0.32481439  0.00000000  1.0
  Sc  Sc2  1  0.67518561  0.82481439  0.00000000  1.0
  Sc  Sc3  1  0.17518561  0.67518561  0.00000000  1.0
  V  V4  1  0.50000000  0.50000000  0.00000000  1.0
  V  V5  1  0.00000000  0.00000000  0.00000000  1.0
  B  B6  1  0.87708912  0.62291088  0.00000000  1.0
  B  B7  1  0.37708912  0.87708912  0.00000000  1.0
  B  B8  1  0.12291088  0.37708912  0.00000000  1.0
  B  B9  1  0.62291088  0.12291088  0.00000000  1.0
  Rh  Rh10  1  0.50000000  0.00000000  0.50000000  1.0
  Rh  Rh11  1  0.00000000  0.50000000  0.50000000  1.0
  Rh  Rh12  1  0.42881568  0.71745778  0.50000000  1.0
  Rh  Rh13  1  0.92881568  0.78254222  0.50000000  1.0
  Rh  Rh14  1  0.28254222  0.42881568  0.50000000  1.0
  Rh  Rh15  1  0.78254222  0.07118432  0.50000000  1.0
  Rh  Rh16  1  0.57118432  0.28254222  0.50000000  1.0
  Rh  Rh17  1  0.07118432  0.21745778  0.50000000  1.0
  Rh  Rh18  1  0.71745778  0.57118432  0.50000000  1.0
  Rh  Rh19  1  0.21745778  0.92881568  0.50000000  1.0
