# generated using pymatgen
data_CaSiO3
_symmetry_space_group_name_H-M   'P 1'
_cell_length_a   9.50828671
_cell_length_b   6.81359019
_cell_length_c   7.00845189
_cell_angle_alpha   114.69306077
_cell_angle_beta   103.09190523
_cell_angle_gamma   86.79265600
_symmetry_Int_Tables_number   1
_chemical_formula_structural   CaSiO3
_chemical_formula_sum   'Ca6 Si6 O18'
_cell_volume   401.42157024
_cell_formula_units_Z   6
loop_
 _symmetry_equiv_pos_site_id
 _symmetry_equiv_pos_as_xyz
  1  'x, y, z'
loop_
 _atom_site_type_symbol
 _atom_site_label
 _atom_site_symmetry_multiplicity
 _atom_site_fract_x
 _atom_site_fract_y
 _atom_site_fract_z
 _atom_site_occupancy
  Ca  Ca0  1  0.15245494  0.30834210  0.51511331  1.0
  Ca  Ca1  1  0.84754506  0.69165790  0.48488669  1.0
  Ca  Ca2  1  0.45738061  0.08504025  0.25922579  1.0
  Ca  Ca3  1  0.54261939  0.91495975  0.74077421  1.0
  Ca  Ca4  1  0.10478986  0.76901355  0.02363556  1.0
  Ca  Ca5  1  0.89521014  0.23098645  0.97636444  1.0
  O  O6  1  0.66051434  0.31316347  0.51641174  1.0
  O  O7  1  0.33948566  0.68683653  0.48358826  1.0
  O  O8  1  0.60656344  0.63346144  0.86071648  1.0
  O  O9  1  0.39343656  0.36653856  0.13928352  1.0
  O  O10  1  0.84489568  0.83871097  0.87886255  1.0
  O  O11  1  0.15510432  0.16128903  0.12113745  1.0
  O  O12  1  0.89842691  0.30836735  0.36958901  1.0
  O  O13  1  0.10157309  0.69163265  0.63041099  1.0
  O  O14  1  0.86866480  0.61273172  0.12344264  1.0
  O  O15  1  0.13133520  0.38726828  0.87655736  1.0
  O  O16  1  0.87042129  0.06386967  0.59684101  1.0
  O  O17  1  0.12957871  0.93613033  0.40315899  1.0
  O  O18  1  0.70307228  0.97478585  0.19529630  1.0
  O  O19  1  0.29692772  0.02521415  0.80470370  1.0
  O  O20  1  0.58827508  0.71907142  0.41028294  1.0
  O  O21  1  0.41172492  0.28092858  0.58971706  1.0
  O  O22  1  0.64777411  0.23988088  0.86576005  1.0
  O  O23  1  0.35222589  0.76011912  0.13423995  1.0
  Si  Si24  1  0.79968737  0.16690430  0.43130170  1.0
  Si  Si25  1  0.20031263  0.83309570  0.56869830  1.0
  Si  Si26  1  0.57602310  0.36559423  0.71999358  1.0
  Si  Si27  1  0.42397690  0.63440577  0.28000642  1.0
  Si  Si28  1  0.76762540  0.75500563  1.01879293  1.0
  Si  Si29  1  0.23237460  0.24499437  -0.01879293  1.0
