# generated using pymatgen
data_Rb2Cr(BrCl)2
_symmetry_space_group_name_H-M   'P 1'
_cell_length_a   9.18768629
_cell_length_b   9.18768629
_cell_length_c   7.30659883
_cell_angle_alpha   90.00000000
_cell_angle_beta   90.00000000
_cell_angle_gamma   46.86614513
_symmetry_Int_Tables_number   1
_chemical_formula_structural   Rb2Cr(BrCl)2
_chemical_formula_sum   'Rb4 Cr2 Br4 Cl4'
_cell_volume   450.09759453
_cell_formula_units_Z   2
loop_
 _symmetry_equiv_pos_site_id
 _symmetry_equiv_pos_as_xyz
  1  'x, y, z'
loop_
 _atom_site_type_symbol
 _atom_site_label
 _atom_site_symmetry_multiplicity
 _atom_site_fract_x
 _atom_site_fract_y
 _atom_site_fract_z
 _atom_site_occupancy
  Rb  Rb0  1  0.13484336  1.13484336  0.50000000  1.0
  Rb  Rb1  1  0.63484336  0.63484336  0.00000000  1.0
  Rb  Rb2  1  0.86515664  0.86515664  0.50000000  1.0
  Rb  Rb3  1  0.36515664  1.36515664  0.00000000  1.0
  Cr  Cr4  1  -0.50000000  0.50000000  0.50000000  1.0
  Cr  Cr5  1  0.00000000  0.00000000  0.00000000  1.0
  Br  Br6  1  0.34556418  1.34556418  0.50000000  1.0
  Br  Br7  1  0.84556418  0.84556418  0.00000000  1.0
  Br  Br8  1  0.65443582  0.65443582  0.50000000  1.0
  Br  Br9  1  0.15443582  1.15443582  0.00000000  1.0
  Cl  Cl10  1  -0.26670442  0.26670442  0.26616611  1.0
  Cl  Cl11  1  -0.76670442  0.76670442  0.23383389  1.0
  Cl  Cl12  1  -0.73329558  0.73329558  0.73383389  1.0
  Cl  Cl13  1  -0.23329558  0.23329558  0.76616611  1.0
