# generated using pymatgen
data_Li5B4
_symmetry_space_group_name_H-M   'P 1'
_cell_length_a   4.86697275
_cell_length_b   4.86697275
_cell_length_c   4.86697275
_cell_angle_alpha   72.12942786
_cell_angle_beta   72.12942786
_cell_angle_gamma   72.12942786
_symmetry_Int_Tables_number   1
_chemical_formula_structural   Li5B4
_chemical_formula_sum   'Li5 B4'
_cell_volume   101.51003990
_cell_formula_units_Z   1
loop_
 _symmetry_equiv_pos_site_id
 _symmetry_equiv_pos_as_xyz
  1  'x, y, z'
loop_
 _atom_site_type_symbol
 _atom_site_label
 _atom_site_symmetry_multiplicity
 _atom_site_fract_x
 _atom_site_fract_y
 _atom_site_fract_z
 _atom_site_occupancy
  Li  Li0  1  1.06804596  -0.38176174  -0.38176174  1.0
  Li  Li1  1  0.61823826  1.06804596  -0.38176174  1.0
  Li  Li2  1  0.61823826  -0.38176174  0.06804596  1.0
  Li  Li3  1  -0.00152724  -0.00152724  -0.00152724  1.0
  Li  Li4  1  0.56646234  0.56646234  -0.43353766  1.0
  B  B5  1  1.42496984  1.10796558  0.10796558  1.0
  B  B6  1  1.10796558  1.42496984  0.10796558  1.0
  B  B7  1  1.10796558  1.10796558  0.42496984  1.0
  B  B8  1  1.33964144  1.33964144  0.33964144  1.0
