# generated using pymatgen
data_Ir3Se8
_symmetry_space_group_name_H-M   'P 1'
_cell_length_a   6.04794381
_cell_length_b   6.04794381
_cell_length_c   6.04794381
_cell_angle_alpha   90.50304779
_cell_angle_beta   90.50304779
_cell_angle_gamma   90.50304779
_symmetry_Int_Tables_number   1
_chemical_formula_structural   Ir3Se8
_chemical_formula_sum   'Ir3 Se8'
_cell_volume   221.19368663
_cell_formula_units_Z   1
loop_
 _symmetry_equiv_pos_site_id
 _symmetry_equiv_pos_as_xyz
  1  'x, y, z'
loop_
 _atom_site_type_symbol
 _atom_site_label
 _atom_site_symmetry_multiplicity
 _atom_site_fract_x
 _atom_site_fract_y
 _atom_site_fract_z
 _atom_site_occupancy
  Ir  Ir0  1  0.50000000  1.00000000  -0.50000000  1.0
  Ir  Ir1  1  0.50000000  0.50000000  -0.00000000  1.0
  Ir  Ir2  1  1.00000000  0.50000000  -0.50000000  1.0
  Se  Se3  1  0.62543482  0.62543482  0.62543482  1.0
  Se  Se4  1  0.37456518  0.37456518  0.37456518  1.0
  Se  Se5  1  1.38184524  0.11597046  -0.12130768  1.0
  Se  Se6  1  0.87869232  0.38184524  0.11597046  1.0
  Se  Se7  1  1.11597046  -0.12130768  0.38184524  1.0
  Se  Se8  1  0.61815476  0.88402954  0.12130768  1.0
  Se  Se9  1  1.12130768  0.61815476  -0.11597046  1.0
  Se  Se10  1  0.88402954  1.12130768  -0.38184524  1.0
