# generated using pymatgen
data_KCuPdSe5
_symmetry_space_group_name_H-M   'P 1'
_cell_length_a   6.27917656
_cell_length_b   7.38171023
_cell_length_c   9.10912857
_cell_angle_alpha   90.00000000
_cell_angle_beta   103.22604931
_cell_angle_gamma   90.00000000
_symmetry_Int_Tables_number   1
_chemical_formula_structural   KCuPdSe5
_chemical_formula_sum   'K2 Cu2 Pd2 Se10'
_cell_volume   411.01844792
_cell_formula_units_Z   2
loop_
 _symmetry_equiv_pos_site_id
 _symmetry_equiv_pos_as_xyz
  1  'x, y, z'
loop_
 _atom_site_type_symbol
 _atom_site_label
 _atom_site_symmetry_multiplicity
 _atom_site_fract_x
 _atom_site_fract_y
 _atom_site_fract_z
 _atom_site_occupancy
  K  K0  1  0.24324425  0.75000000  0.45444634  1.0
  K  K1  1  0.75675575  0.25000000  0.54555366  1.0
  Cu  Cu2  1  0.38078312  0.75000000  0.89268014  1.0
  Cu  Cu3  1  0.61921688  0.25000000  0.10731986  1.0
  Pd  Pd4  1  0.00000000  0.00000000  0.00000000  1.0
  Pd  Pd5  1  0.00000000  0.50000000  0.00000000  1.0
  Se  Se6  1  0.81939134  0.98959583  0.21622574  1.0
  Se  Se7  1  0.81939134  0.51040417  0.21622574  1.0
  Se  Se8  1  0.18060866  0.48959583  0.78377426  1.0
  Se  Se9  1  0.18060866  0.01040417  0.78377426  1.0
  Se  Se10  1  0.78804304  0.75000000  0.60635674  1.0
  Se  Se11  1  0.21195696  0.25000000  0.39364326  1.0
  Se  Se12  1  0.76813111  0.75000000  0.86519171  1.0
  Se  Se13  1  0.23186889  0.25000000  0.13480829  1.0
  Se  Se14  1  0.54133535  0.75000000  0.15836634  1.0
  Se  Se15  1  0.45866465  0.25000000  0.84163366  1.0
