# generated using pymatgen
data_K2HfO6
_symmetry_space_group_name_H-M   'P 1'
_cell_length_a   9.82629024
_cell_length_b   9.82629024
_cell_length_c   6.93077467
_cell_angle_alpha   90.00000000
_cell_angle_beta   90.00000000
_cell_angle_gamma   88.39397486
_symmetry_Int_Tables_number   1
_chemical_formula_structural   K2HfO6
_chemical_formula_sum   'K8 Hf4 O24'
_cell_volume   668.94485739
_cell_formula_units_Z   4
loop_
 _symmetry_equiv_pos_site_id
 _symmetry_equiv_pos_as_xyz
  1  'x, y, z'
loop_
 _atom_site_type_symbol
 _atom_site_label
 _atom_site_symmetry_multiplicity
 _atom_site_fract_x
 _atom_site_fract_y
 _atom_site_fract_z
 _atom_site_occupancy
  K  K0  1  -0.10741132  1.39258868  0.73140856  1.0
  K  K1  1  0.10741132  1.60741132  0.26859144  1.0
  K  K2  1  -0.60741132  0.89258868  0.26859144  1.0
  K  K3  1  -0.39258868  1.10741132  0.73140856  1.0
  K  K4  1  0.12122496  0.12122496  0.00000000  1.0
  K  K5  1  0.37877504  0.37877504  0.00000000  1.0
  K  K6  1  -0.12122496  0.87877504  0.00000000  1.0
  K  K7  1  -0.37877504  0.62122496  0.00000000  1.0
  Hf  Hf8  1  -0.25000000  1.25000000  0.21358390  1.0
  Hf  Hf9  1  -0.75000000  0.75000000  0.78641610  1.0
  Hf  Hf10  1  0.25000000  0.25000000  0.50000000  1.0
  Hf  Hf11  1  -0.25000000  0.75000000  0.50000000  1.0
  O  O12  1  -0.10824567  1.10824567  0.37038755  1.0
  O  O13  1  -0.60824567  0.60824567  0.62961245  1.0
  O  O14  1  -0.89175433  0.89175433  0.62961245  1.0
  O  O15  1  -0.39175433  1.39175433  0.37038755  1.0
  O  O16  1  -0.15684169  1.15684169  0.99327547  1.0
  O  O17  1  -0.65684169  0.65684169  0.00672453  1.0
  O  O18  1  -0.84315831  0.84315831  0.00672453  1.0
  O  O19  1  -0.34315831  1.34315831  0.99327547  1.0
  O  O20  1  -0.11974347  1.38025653  0.34380496  1.0
  O  O21  1  0.11974347  1.61974347  0.65619504  1.0
  O  O22  1  -0.61974347  0.88025653  0.65619504  1.0
  O  O23  1  -0.38025653  1.11974347  0.34380496  1.0
  O  O24  1  0.17963895  0.35042219  0.25860722  1.0
  O  O25  1  0.14957781  0.32036105  0.74139278  1.0
  O  O26  1  -0.64957781  1.17963895  0.74139278  1.0
  O  O27  1  -0.67963895  1.14957781  0.25860722  1.0
  O  O28  1  -0.17963895  0.64957781  0.74139278  1.0
  O  O29  1  -0.14957781  0.67963895  0.25860722  1.0
  O  O30  1  -0.35042219  0.82036105  0.25860722  1.0
  O  O31  1  -0.32036105  0.85042219  0.74139278  1.0
  O  O32  1  0.39895270  0.39895270  0.50000000  1.0
  O  O33  1  0.10104730  0.10104730  0.50000000  1.0
  O  O34  1  -0.39895270  0.60104730  0.50000000  1.0
  O  O35  1  -0.10104730  0.89895270  0.50000000  1.0
