# generated using pymatgen
data_Sm2Ta2Cl2O7
_symmetry_space_group_name_H-M   'P 1'
_cell_length_a   8.11129145
_cell_length_b   8.11129145
_cell_length_c   6.87068621
_cell_angle_alpha   67.00492101
_cell_angle_beta   112.99507899
_cell_angle_gamma   151.92551252
_symmetry_Int_Tables_number   1
_chemical_formula_structural   Sm2Ta2Cl2O7
_chemical_formula_sum   'Sm2 Ta2 Cl2 O7'
_cell_volume   194.73012618
_cell_formula_units_Z   1
loop_
 _symmetry_equiv_pos_site_id
 _symmetry_equiv_pos_as_xyz
  1  'x, y, z'
loop_
 _atom_site_type_symbol
 _atom_site_label
 _atom_site_symmetry_multiplicity
 _atom_site_fract_x
 _atom_site_fract_y
 _atom_site_fract_z
 _atom_site_occupancy
  Sm  Sm0  1  0.69622401  -0.69622401  0.66108022  1.0
  Sm  Sm1  1  1.30377599  -0.30377599  0.33891978  1.0
  Ta  Ta2  1  0.96532376  -0.96532376  0.69745696  1.0
  Ta  Ta3  1  1.03467624  -0.03467624  0.30254304  1.0
  Cl  Cl4  1  1.31847715  -0.31847715  0.93357590  1.0
  Cl  Cl5  1  0.68152285  -0.68152285  0.06642410  1.0
  O  O6  1  0.92055155  -0.92055155  0.34495908  1.0
  O  O7  1  1.07944845  -0.07944845  0.65504092  1.0
  O  O8  1  0.82441185  -0.82441185  0.56367042  1.0
  O  O9  1  1.17558815  -0.17558815  0.43632958  1.0
  O  O10  1  1.45048954  -0.45048954  0.66075299  1.0
  O  O11  1  0.54951046  -0.54951046  0.33924701  1.0
  O  O12  1  0.00000000  0.00000000  0.00000000  1.0
