# generated using pymatgen
data_CsW3I7
_symmetry_space_group_name_H-M   'P 1'
_cell_length_a   10.87502561
_cell_length_b   10.87502561
_cell_length_c   17.06416862
_cell_angle_alpha   90.00000000
_cell_angle_beta   90.00000000
_cell_angle_gamma   120.00000000
_symmetry_Int_Tables_number   1
_chemical_formula_structural   CsW3I7
_chemical_formula_sum   'Cs4 W12 I28'
_cell_volume   1747.73805307
_cell_formula_units_Z   4
loop_
 _symmetry_equiv_pos_site_id
 _symmetry_equiv_pos_as_xyz
  1  'x, y, z'
loop_
 _atom_site_type_symbol
 _atom_site_label
 _atom_site_symmetry_multiplicity
 _atom_site_fract_x
 _atom_site_fract_y
 _atom_site_fract_z
 _atom_site_occupancy
  Cs  Cs0  1  0.33333333  0.66666667  0.75000000  1.0
  Cs  Cs1  1  0.66666667  0.33333333  0.25000000  1.0
  Cs  Cs2  1  -0.00000000  -0.00000000  0.00000000  1.0
  Cs  Cs3  1  -0.00000000  -0.00000000  0.50000000  1.0
  W  W4  1  0.80996968  0.33519560  0.81366849  1.0
  W  W5  1  0.52522592  0.19003032  0.81366849  1.0
  W  W6  1  0.66480440  0.47477408  0.81366849  1.0
  W  W7  1  0.19003032  0.52522592  0.31366849  1.0
  W  W8  1  0.33519560  0.80996968  0.31366849  1.0
  W  W9  1  0.47477408  0.66480440  0.31366849  1.0
  W  W10  1  0.19003032  0.66480440  0.18633151  1.0
  W  W11  1  0.47477408  0.80996968  0.18633151  1.0
  W  W12  1  0.33519560  0.52522592  0.18633151  1.0
  W  W13  1  0.80996968  0.47477408  0.68633151  1.0
  W  W14  1  0.66480440  0.19003032  0.68633151  1.0
  W  W15  1  0.52522592  0.33519560  0.68633151  1.0
  I  I16  1  0.66666667  0.33333333  0.95189186  1.0
  I  I17  1  0.33333333  0.66666667  0.45189186  1.0
  I  I18  1  0.33333333  0.66666667  0.04810814  1.0
  I  I19  1  0.66666667  0.33333333  0.54810814  1.0
  I  I20  1  0.67380357  0.03581466  0.81985919  1.0
  I  I21  1  0.36201110  0.32619643  0.81985919  1.0
  I  I22  1  0.96418534  0.63798890  0.81985919  1.0
  I  I23  1  0.32619643  0.36201110  0.31985919  1.0
  I  I24  1  0.03581466  0.67380357  0.31985919  1.0
  I  I25  1  0.63798890  0.96418534  0.31985919  1.0
  I  I26  1  0.32619643  0.96418534  0.18014081  1.0
  I  I27  1  0.63798890  0.67380357  0.18014081  1.0
  I  I28  1  0.03581466  0.36201110  0.18014081  1.0
  I  I29  1  0.67380357  0.63798890  0.68014081  1.0
  I  I30  1  0.96418534  0.32619643  0.68014081  1.0
  I  I31  1  0.36201110  0.03581466  0.68014081  1.0
  I  I32  1  0.03570112  0.34774793  0.90753614  1.0
  I  I33  1  0.31204680  0.96429888  0.90753614  1.0
  I  I34  1  0.65225207  0.68795320  0.90753614  1.0
  I  I35  1  0.96429888  0.31204680  0.40753614  1.0
  I  I36  1  0.34774793  0.03570112  0.40753614  1.0
  I  I37  1  0.68795320  0.65225207  0.40753614  1.0
  I  I38  1  0.96429888  0.65225207  0.09246386  1.0
  I  I39  1  0.68795320  0.03570112  0.09246386  1.0
  I  I40  1  0.34774793  0.31204680  0.09246386  1.0
  I  I41  1  0.03570112  0.68795320  0.59246386  1.0
  I  I42  1  0.65225207  0.96429888  0.59246386  1.0
  I  I43  1  0.31204680  0.34774793  0.59246386  1.0
