# generated using pymatgen
data_ScAl2CNO
_symmetry_space_group_name_H-M   'P 1'
_cell_length_a   15.03389442
_cell_length_b   15.03389442
_cell_length_c   15.03389442
_cell_angle_alpha   12.39024407
_cell_angle_beta   12.39024407
_cell_angle_gamma   12.39024407
_symmetry_Int_Tables_number   1
_chemical_formula_structural   ScAl2CNO
_chemical_formula_sum   'Sc2 Al4 C2 N2 O2'
_cell_volume   136.00919412
_cell_formula_units_Z   2
loop_
 _symmetry_equiv_pos_site_id
 _symmetry_equiv_pos_as_xyz
  1  'x, y, z'
loop_
 _atom_site_type_symbol
 _atom_site_label
 _atom_site_symmetry_multiplicity
 _atom_site_fract_x
 _atom_site_fract_y
 _atom_site_fract_z
 _atom_site_occupancy
  Sc  Sc0  1  1.50000000  0.50000000  0.50000000  1.0
  Sc  Sc1  1  0.00000000  0.00000000  0.00000000  1.0
  Al  Al2  1  0.88245610  0.88245610  0.88245610  1.0
  Al  Al3  1  1.11754390  1.11754390  0.11754390  1.0
  Al  Al4  1  0.73166296  0.73166296  0.73166296  1.0
  Al  Al5  1  1.26833704  1.26833704  0.26833704  1.0
  C  C6  1  0.80067690  0.80067690  0.80067690  1.0
  C  C7  1  1.19932310  1.19932310  0.19932310  1.0
  N  N8  1  0.92629963  0.92629963  0.92629963  1.0
  N  N9  1  1.07370037  1.07370037  0.07370037  1.0
  O  O10  1  0.68969411  0.68969411  0.68969411  1.0
  O  O11  1  1.31030589  1.31030589  0.31030589  1.0
