# generated using pymatgen
data_Ba(GdTe2)2
_symmetry_space_group_name_H-M   'P 1'
_cell_length_a   13.82836368
_cell_length_b   4.53550198
_cell_length_c   16.43721444
_cell_angle_alpha   90.00000000
_cell_angle_beta   90.00000000
_cell_angle_gamma   90.00000000
_symmetry_Int_Tables_number   1
_chemical_formula_structural   Ba(GdTe2)2
_chemical_formula_sum   'Ba4 Gd8 Te16'
_cell_volume   1030.91859831
_cell_formula_units_Z   4
loop_
 _symmetry_equiv_pos_site_id
 _symmetry_equiv_pos_as_xyz
  1  'x, y, z'
loop_
 _atom_site_type_symbol
 _atom_site_label
 _atom_site_symmetry_multiplicity
 _atom_site_fract_x
 _atom_site_fract_y
 _atom_site_fract_z
 _atom_site_occupancy
  Ba  Ba0  1  0.76042406  0.75000000  0.66819981  1.0
  Ba  Ba1  1  0.26042406  0.75000000  0.83180019  1.0
  Ba  Ba2  1  0.23957594  0.25000000  0.33180019  1.0
  Ba  Ba3  1  0.73957594  0.25000000  0.16819981  1.0
  Gd  Gd4  1  0.91928762  0.75000000  0.40306051  1.0
  Gd  Gd5  1  0.41928762  0.75000000  0.09693949  1.0
  Gd  Gd6  1  0.08071238  0.25000000  0.59693949  1.0
  Gd  Gd7  1  0.58071238  0.25000000  0.90306051  1.0
  Gd  Gd8  1  0.43815543  0.75000000  0.60951966  1.0
  Gd  Gd9  1  0.93815543  0.75000000  0.89048034  1.0
  Gd  Gd10  1  0.56184457  0.25000000  0.39048034  1.0
  Gd  Gd11  1  0.06184457  0.25000000  0.10951966  1.0
  Te  Te12  1  0.52588208  0.75000000  0.78408234  1.0
  Te  Te13  1  0.02588208  0.75000000  0.71591766  1.0
  Te  Te14  1  0.47411792  0.25000000  0.21591766  1.0
  Te  Te15  1  0.97411792  0.25000000  0.28408234  1.0
  Te  Te16  1  0.91088205  0.75000000  0.07758702  1.0
  Te  Te17  1  0.41088205  0.75000000  0.42241298  1.0
  Te  Te18  1  0.08911795  0.25000000  0.92241298  1.0
  Te  Te19  1  0.58911795  0.25000000  0.57758702  1.0
  Te  Te20  1  0.70566639  0.75000000  0.33467194  1.0
  Te  Te21  1  0.20566639  0.75000000  0.16532806  1.0
  Te  Te22  1  0.29433361  0.25000000  0.66532806  1.0
  Te  Te23  1  0.79433361  0.25000000  0.83467194  1.0
  Te  Te24  1  0.62901799  0.75000000  0.02830776  1.0
  Te  Te25  1  0.12901799  0.75000000  0.47169224  1.0
  Te  Te26  1  0.37098201  0.25000000  0.97169224  1.0
  Te  Te27  1  0.87098201  0.25000000  0.52830776  1.0
