# generated using pymatgen
data_Cl2
_symmetry_space_group_name_H-M   'P 1'
_cell_length_a   8.54338921
_cell_length_b   8.54338921
_cell_length_c   8.26361528
_cell_angle_alpha   90.00000000
_cell_angle_beta   90.00000000
_cell_angle_gamma   90.00000000
_symmetry_Int_Tables_number   1
_chemical_formula_structural   Cl2
_chemical_formula_sum   Cl16
_cell_volume   603.15713987
_cell_formula_units_Z   8
loop_
 _symmetry_equiv_pos_site_id
 _symmetry_equiv_pos_as_xyz
  1  'x, y, z'
loop_
 _atom_site_type_symbol
 _atom_site_label
 _atom_site_symmetry_multiplicity
 _atom_site_fract_x
 _atom_site_fract_y
 _atom_site_fract_z
 _atom_site_occupancy
  Cl  Cl0  1  0.25929859  0.92679655  0.50071526  1.0
  Cl  Cl1  1  0.25929859  0.07320345  1.00071526  1.0
  Cl  Cl2  1  0.75929859  0.42679655  -0.00071526  1.0
  Cl  Cl3  1  0.75929859  0.57320345  0.49928474  1.0
  Cl  Cl4  1  0.92679655  0.25929859  -0.00071526  1.0
  Cl  Cl5  1  0.92679655  0.74070141  0.49928474  1.0
  Cl  Cl6  1  0.42679655  0.75929859  0.50071526  1.0
  Cl  Cl7  1  0.42679655  0.24070141  1.00071526  1.0
  Cl  Cl8  1  0.74070141  0.92679655  1.00071526  1.0
  Cl  Cl9  1  0.74070141  0.07320345  0.50071526  1.0
  Cl  Cl10  1  0.24070141  0.42679655  0.49928474  1.0
  Cl  Cl11  1  0.24070141  0.57320345  -0.00071526  1.0
  Cl  Cl12  1  0.07320345  0.25929859  0.49928474  1.0
  Cl  Cl13  1  0.07320345  0.74070141  -0.00071526  1.0
  Cl  Cl14  1  0.57320345  0.75929859  1.00071526  1.0
  Cl  Cl15  1  0.57320345  0.24070141  0.50071526  1.0
