# generated using pymatgen
data_K2Fe2B2O7
_symmetry_space_group_name_H-M   'P 1'
_cell_length_a   8.87591661
_cell_length_b   8.87591661
_cell_length_c   8.78312978
_cell_angle_alpha   90.00000000
_cell_angle_beta   90.00000000
_cell_angle_gamma   120.00000000
_symmetry_Int_Tables_number   1
_chemical_formula_structural   K2Fe2B2O7
_chemical_formula_sum   'K6 Fe6 B6 O21'
_cell_volume   599.24767516
_cell_formula_units_Z   3
loop_
 _symmetry_equiv_pos_site_id
 _symmetry_equiv_pos_as_xyz
  1  'x, y, z'
loop_
 _atom_site_type_symbol
 _atom_site_label
 _atom_site_symmetry_multiplicity
 _atom_site_fract_x
 _atom_site_fract_y
 _atom_site_fract_z
 _atom_site_occupancy
  K  K0  1  0.68087637  0.68087637  0.50000000  1.0
  K  K1  1  0.00000000  0.31912363  0.50000000  1.0
  K  K2  1  0.31912363  0.00000000  0.50000000  1.0
  K  K3  1  0.65002788  0.65002788  0.00000000  1.0
  K  K4  1  0.00000000  0.34997212  0.00000000  1.0
  K  K5  1  0.34997212  0.00000000  0.00000000  1.0
  Fe  Fe6  1  0.33333333  0.66666667  0.27106269  1.0
  Fe  Fe7  1  0.66666667  0.33333333  0.72893731  1.0
  Fe  Fe8  1  0.33333333  0.66666667  0.69463853  1.0
  Fe  Fe9  1  0.66666667  0.33333333  0.30536147  1.0
  Fe  Fe10  1  0.00000000  0.00000000  0.21138121  1.0
  Fe  Fe11  1  0.00000000  0.00000000  0.78861879  1.0
  B  B12  1  0.00165945  0.66639043  0.24190398  1.0
  B  B13  1  0.66639043  0.00165945  0.75809602  1.0
  B  B14  1  0.66473098  0.99834055  0.24190398  1.0
  B  B15  1  0.33360957  0.33526902  0.24190398  1.0
  B  B16  1  0.99834055  0.66473098  0.75809602  1.0
  B  B17  1  0.33526902  0.33360957  0.75809602  1.0
  O  O18  1  0.93480372  0.77215583  0.28164217  1.0
  O  O19  1  0.77215583  0.93480372  0.71835783  1.0
  O  O20  1  0.83735211  0.06519628  0.28164217  1.0
  O  O21  1  0.22784417  0.16264789  0.28164217  1.0
  O  O22  1  0.06519628  0.83735211  0.71835783  1.0
  O  O23  1  0.16264789  0.22784417  0.71835783  1.0
  O  O24  1  0.17587961  0.73855634  0.20388589  1.0
  O  O25  1  0.73855634  0.17587961  0.79611411  1.0
  O  O26  1  0.56267673  0.82412039  0.20388589  1.0
  O  O27  1  0.26144366  0.43732327  0.20388589  1.0
  O  O28  1  0.82412039  0.56267673  0.79611411  1.0
  O  O29  1  0.43732327  0.26144366  0.79611411  1.0
  O  O30  1  0.51253048  0.40898472  0.23891438  1.0
  O  O31  1  0.40898472  0.51253048  0.76108562  1.0
  O  O32  1  0.89645424  0.48746952  0.23891438  1.0
  O  O33  1  0.59101528  0.10354576  0.23891438  1.0
  O  O34  1  0.48746952  0.89645424  0.76108562  1.0
  O  O35  1  0.10354576  0.59101528  0.76108562  1.0
  O  O36  1  0.33333333  0.66666667  0.48284007  1.0
  O  O37  1  0.66666667  0.33333333  0.51715993  1.0
  O  O38  1  0.00000000  0.00000000  0.00000000  1.0
