# generated using pymatgen
data_Sb2O5
_symmetry_space_group_name_H-M   'P 1'
_cell_length_a   6.90972890
_cell_length_b   6.90972890
_cell_length_c   5.51917205
_cell_angle_alpha   77.35237667
_cell_angle_beta   102.64762333
_cell_angle_gamma   138.40478418
_symmetry_Int_Tables_number   1
_chemical_formula_structural   Sb2O5
_chemical_formula_sum   'Sb4 O10'
_cell_volume   170.06842034
_cell_formula_units_Z   2
loop_
 _symmetry_equiv_pos_site_id
 _symmetry_equiv_pos_as_xyz
  1  'x, y, z'
loop_
 _atom_site_type_symbol
 _atom_site_label
 _atom_site_symmetry_multiplicity
 _atom_site_fract_x
 _atom_site_fract_y
 _atom_site_fract_z
 _atom_site_occupancy
  Sb  Sb0  1  1.59994494  -0.12389128  0.71725339  1.0
  Sb  Sb1  1  1.12389128  -0.59994494  0.21725339  1.0
  Sb  Sb2  1  0.87610872  -0.40005506  0.78274661  1.0
  Sb  Sb3  1  1.40005506  0.12389128  0.28274661  1.0
  O  O4  1  1.28217762  -0.12249749  0.62307084  1.0
  O  O5  1  1.12249749  -0.28217762  0.12307084  1.0
  O  O6  1  0.87750251  -0.71782238  0.87692916  1.0
  O  O7  1  1.71782238  0.12249749  0.37692916  1.0
  O  O8  1  1.51353296  0.31020994  0.95011452  1.0
  O  O9  1  0.68979006  -0.51353296  0.45011452  1.0
  O  O10  1  1.31020994  -0.48646704  0.54988548  1.0
  O  O11  1  1.48646704  -0.31020994  0.04988548  1.0
  O  O12  1  0.91913083  0.91913083  0.75000000  1.0
  O  O13  1  0.08086917  0.08086917  0.25000000  1.0
