# generated using pymatgen
data_Rb2MnOF5
_symmetry_space_group_name_H-M   'P 1'
_cell_length_a   6.37038096
_cell_length_b   6.37038096
_cell_length_c   8.16821235
_cell_angle_alpha   90.00000000
_cell_angle_beta   90.00000000
_cell_angle_gamma   90.07981828
_symmetry_Int_Tables_number   1
_chemical_formula_structural   Rb2MnOF5
_chemical_formula_sum   'Rb4 Mn2 O2 F10'
_cell_volume   331.48005912
_cell_formula_units_Z   2
loop_
 _symmetry_equiv_pos_site_id
 _symmetry_equiv_pos_as_xyz
  1  'x, y, z'
loop_
 _atom_site_type_symbol
 _atom_site_label
 _atom_site_symmetry_multiplicity
 _atom_site_fract_x
 _atom_site_fract_y
 _atom_site_fract_z
 _atom_site_occupancy
  O  O0  1  -0.49939647  1.49939647  0.25000000  1.0
  O  O1  1  0.49939647  0.50060353  0.75000000  1.0
  Mn  Mn2  1  0.00000000  0.00000000  0.50000000  1.0
  Mn  Mn3  1  0.00000000  0.00000000  0.00000000  1.0
  Rb  Rb4  1  0.00054213  0.49987140  0.25000000  1.0
  Rb  Rb5  1  -0.50012860  1.00054213  0.75000000  1.0
  Rb  Rb6  1  0.50012860  0.99945787  0.25000000  1.0
  Rb  Rb7  1  -0.00054213  1.50012860  0.75000000  1.0
  F  F8  1  0.79655625  0.79655625  0.50000000  1.0
  F  F9  1  0.79655625  0.79655625  -0.00000000  1.0
  F  F10  1  0.20344375  0.20344375  0.50000000  1.0
  F  F11  1  0.20344375  0.20344375  0.00000000  1.0
  F  F12  1  -0.00015048  1.00015048  0.25000000  1.0
  F  F13  1  0.00015048  0.99984952  0.75000000  1.0
  F  F14  1  0.20321265  0.79678735  1.00017818  1.0
  F  F15  1  0.20321265  0.79678735  0.49982182  1.0
  F  F16  1  -0.20321265  1.20321265  0.50017818  1.0
  F  F17  1  -0.20321265  1.20321265  -0.00017818  1.0
