# generated using pymatgen
data_KSr2Cl5
_symmetry_space_group_name_H-M   'P 1'
_cell_length_a   8.95077725
_cell_length_b   7.95194930
_cell_length_c   12.89760611
_cell_angle_alpha   90.00000000
_cell_angle_beta   90.08087579
_cell_angle_gamma   90.00000000
_symmetry_Int_Tables_number   1
_chemical_formula_structural   KSr2Cl5
_chemical_formula_sum   'K4 Sr8 Cl20'
_cell_volume   918.00073409
_cell_formula_units_Z   4
loop_
 _symmetry_equiv_pos_site_id
 _symmetry_equiv_pos_as_xyz
  1  'x, y, z'
loop_
 _atom_site_type_symbol
 _atom_site_label
 _atom_site_symmetry_multiplicity
 _atom_site_fract_x
 _atom_site_fract_y
 _atom_site_fract_z
 _atom_site_occupancy
  K  K0  1  0.49013625  0.46337436  0.17089413  1.0
  K  K1  1  0.49013625  0.03662564  0.67089413  1.0
  K  K2  1  0.50986375  0.96337436  0.32910587  1.0
  K  K3  1  0.50986375  0.53662564  0.82910587  1.0
  Sr  Sr4  1  0.99777834  0.48232790  0.17742966  1.0
  Sr  Sr5  1  0.99777834  0.01767210  0.67742966  1.0
  Sr  Sr6  1  0.00222166  0.98232790  0.32257034  1.0
  Sr  Sr7  1  0.00222166  0.51767210  0.82257034  1.0
  Sr  Sr8  1  0.75017746  0.43567869  0.49500598  1.0
  Sr  Sr9  1  0.75017746  0.06432131  0.99500598  1.0
  Sr  Sr10  1  0.24982254  0.93567869  0.00499402  1.0
  Sr  Sr11  1  0.24982254  0.56432131  0.50499402  1.0
  Cl  Cl12  1  0.96390435  0.84328249  0.10296983  1.0
  Cl  Cl13  1  0.96390435  0.65671751  0.60296983  1.0
  Cl  Cl14  1  0.03609565  0.34328249  0.39703017  1.0
  Cl  Cl15  1  0.03609565  0.15671751  0.89703017  1.0
  Cl  Cl16  1  0.78427358  0.04979319  0.49710305  1.0
  Cl  Cl17  1  0.78427358  0.45020681  0.99710305  1.0
  Cl  Cl18  1  0.21572642  0.54979319  0.00289695  1.0
  Cl  Cl19  1  0.21572642  0.95020681  0.50289695  1.0
  Cl  Cl20  1  0.78546397  0.67360240  0.31853708  1.0
  Cl  Cl21  1  0.78546397  0.82639760  0.81853708  1.0
  Cl  Cl22  1  0.21453603  0.17360240  0.18146292  1.0
  Cl  Cl23  1  0.21453603  0.32639760  0.68146292  1.0
  Cl  Cl24  1  0.77112305  0.19566681  0.21402722  1.0
  Cl  Cl25  1  0.77112305  0.30433319  0.71402722  1.0
  Cl  Cl26  1  0.22887695  0.69566681  0.28597278  1.0
  Cl  Cl27  1  0.22887695  0.80433319  0.78597278  1.0
  Cl  Cl28  1  0.46761399  0.33548108  0.40801903  1.0
  Cl  Cl29  1  0.46761399  0.16451892  0.90801903  1.0
  Cl  Cl30  1  0.53238601  0.83548108  0.09198097  1.0
  Cl  Cl31  1  0.53238601  0.66451892  0.59198097  1.0
