# generated using pymatgen
data_AuCS2Cl3
_symmetry_space_group_name_H-M   'P 1'
_cell_length_a   9.39664835
_cell_length_b   9.39664835
_cell_length_c   11.78893463
_cell_angle_alpha   65.97924396
_cell_angle_beta   114.02075604
_cell_angle_gamma   110.94827526
_symmetry_Int_Tables_number   1
_chemical_formula_structural   AuCS2Cl3
_chemical_formula_sum   'Au4 C4 S8 Cl12'
_cell_volume   845.17582865
_cell_formula_units_Z   4
loop_
 _symmetry_equiv_pos_site_id
 _symmetry_equiv_pos_as_xyz
  1  'x, y, z'
loop_
 _atom_site_type_symbol
 _atom_site_label
 _atom_site_symmetry_multiplicity
 _atom_site_fract_x
 _atom_site_fract_y
 _atom_site_fract_z
 _atom_site_occupancy
  Au  Au0  1  0.71504746  0.04148348  0.46923725  1.0
  Au  Au1  1  1.04148348  -0.28495254  0.03076275  1.0
  Au  Au2  1  1.28495254  -0.04148348  0.53076275  1.0
  Au  Au3  1  0.95851652  0.28495254  0.96923725  1.0
  C  C4  1  1.70768035  -0.25202336  0.45752540  1.0
  C  C5  1  0.74797664  0.70768035  0.04247460  1.0
  C  C6  1  0.29231965  0.25202336  0.54247460  1.0
  C  C7  1  1.25202336  -0.70768035  0.95752540  1.0
  S  S8  1  1.57955791  -0.13612139  0.34475938  1.0
  S  S9  1  0.86387861  0.57955791  0.15524062  1.0
  S  S10  1  0.42044209  0.13612139  0.65524062  1.0
  S  S11  1  1.13612139  -0.57955791  0.84475938  1.0
  S  S12  1  0.83967188  0.82538997  0.57866675  1.0
  S  S13  1  1.82538997  -0.16032812  0.92133325  1.0
  S  S14  1  1.16032812  -0.82538997  0.42133325  1.0
  S  S15  1  0.17461003  0.16032812  0.07866675  1.0
  Cl  Cl16  1  0.56410253  0.23308234  0.33692088  1.0
  Cl  Cl17  1  1.23308234  -0.43589747  0.16307912  1.0
  Cl  Cl18  1  1.43589747  -0.23308234  0.66307912  1.0
  Cl  Cl19  1  0.76691766  0.43589747  0.83692088  1.0
  Cl  Cl20  1  0.87470079  0.18708339  0.61446825  1.0
  Cl  Cl21  1  1.18708339  -0.12529921  0.88553175  1.0
  Cl  Cl22  1  1.12529921  -0.18708339  0.38553175  1.0
  Cl  Cl23  1  0.81291661  0.12529921  0.11446825  1.0
  Cl  Cl24  1  0.70413426  0.57069145  0.45077966  1.0
  Cl  Cl25  1  1.57069145  -0.29586574  0.04922034  1.0
  Cl  Cl26  1  1.29586574  -0.57069145  0.54922034  1.0
  Cl  Cl27  1  0.42930855  0.29586574  0.95077966  1.0
