# generated using pymatgen
data_SiH8C2NClO
_symmetry_space_group_name_H-M   'P 1'
_cell_length_a   6.85378603
_cell_length_b   6.50095954
_cell_length_c   9.05176246
_cell_angle_alpha   104.12576852
_cell_angle_beta   100.15932936
_cell_angle_gamma   98.26827051
_symmetry_Int_Tables_number   1
_chemical_formula_structural   SiH8C2NClO
_chemical_formula_sum   'Si2 H16 C4 N2 Cl2 O2'
_cell_volume   377.53646675
_cell_formula_units_Z   2
loop_
 _symmetry_equiv_pos_site_id
 _symmetry_equiv_pos_as_xyz
  1  'x, y, z'
loop_
 _atom_site_type_symbol
 _atom_site_label
 _atom_site_symmetry_multiplicity
 _atom_site_fract_x
 _atom_site_fract_y
 _atom_site_fract_z
 _atom_site_occupancy
  Si  Si0  1  -0.70989734  -0.05947270  -0.31920394  1.0
  Si  Si1  1  -0.29010266  -0.94052730  -0.68079606  1.0
  H  H2  1  -0.60540826  -0.23011125  -0.03853874  1.0
  H  H3  1  -0.39459174  -0.76988875  -0.96146126  1.0
  H  H4  1  -0.11800441  -0.48390597  -0.27373213  1.0
  H  H5  1  -0.88199559  -0.51609403  -0.72626787  1.0
  H  H6  1  -0.79478828  -0.46929952  -0.09302676  1.0
  H  H7  1  -0.20521172  -0.53070048  -0.90697324  1.0
  H  H8  1  -0.14921077  -0.25502528  -0.34442514  1.0
  H  H9  1  -0.85078923  -0.74497472  -0.65557486  1.0
  H  H10  1  -0.82996627  -0.22702022  -0.96172179  1.0
  H  H11  1  -0.17003373  -0.77297978  -0.03827821  1.0
  H  H12  1  -0.52488413  -0.14895321  -0.28619651  1.0
  H  H13  1  -0.47511587  -0.85104679  -0.71380349  1.0
  H  H14  1  -0.15458614  -0.24195157  -0.14425718  1.0
  H  H15  1  -0.84541386  -0.75804843  -0.85574282  1.0
  H  H16  1  -0.85083374  -0.16367503  -0.47276663  1.0
  H  H17  1  -0.14916626  -0.83632497  -0.52723337  1.0
  C  C18  1  -0.76855528  -0.29206749  -0.06413394  1.0
  C  C19  1  -0.23144472  -0.70793251  -0.93586606  1.0
  C  C20  1  -0.08583673  -0.30641443  -0.24261064  1.0
  C  C21  1  -0.91416327  -0.69358557  -0.75738936  1.0
  N  N22  1  -0.86652308  -0.23332115  -0.20054629  1.0
  N  N23  1  -0.13347692  -0.76667885  -0.79945371  1.0
  Cl  Cl24  1  -0.59296439  -0.74920724  -0.34116380  1.0
  Cl  Cl25  1  -0.40703561  -0.25079276  -0.65883620  1.0
  O  O26  1  -0.82079275  -0.99225326  -0.16619726  1.0
  O  O27  1  -0.17920725  -0.00774674  -0.83380274  1.0
