# generated using pymatgen
data_AlPO4
_symmetry_space_group_name_H-M   'P 1'
_cell_length_a   4.62367407
_cell_length_b   4.62367407
_cell_length_c   6.10421845
_cell_angle_alpha   90.00000000
_cell_angle_beta   90.00000000
_cell_angle_gamma   112.20705583
_symmetry_Int_Tables_number   1
_chemical_formula_structural   AlPO4
_chemical_formula_sum   'Al2 P2 O8'
_cell_volume   120.81836360
_cell_formula_units_Z   2
loop_
 _symmetry_equiv_pos_site_id
 _symmetry_equiv_pos_as_xyz
  1  'x, y, z'
loop_
 _atom_site_type_symbol
 _atom_site_label
 _atom_site_symmetry_multiplicity
 _atom_site_fract_x
 _atom_site_fract_y
 _atom_site_fract_z
 _atom_site_occupancy
  Al  Al0  1  0.00000000  0.00000000  0.50000000  1.0
  Al  Al1  1  0.00000000  0.00000000  0.00000000  1.0
  P  P2  1  0.34519423  0.65480577  0.25000000  1.0
  P  P3  1  -0.34519423  1.34519423  0.75000000  1.0
  O  O4  1  0.21716929  0.28340018  0.25000000  1.0
  O  O5  1  -0.71659982  1.21716929  0.75000000  1.0
  O  O6  1  0.71659982  0.78283071  0.25000000  1.0
  O  O7  1  -0.21716929  1.71659982  0.75000000  1.0
  O  O8  1  0.23484482  0.76515518  0.45731407  1.0
  O  O9  1  0.23484482  0.76515518  0.04268593  1.0
  O  O10  1  -0.23484482  1.23484482  0.95731407  1.0
  O  O11  1  -0.23484482  1.23484482  0.54268593  1.0
