# generated using pymatgen
data_AgGe2(PO4)3
_symmetry_space_group_name_H-M   'P 1'
_cell_length_a   8.80930438
_cell_length_b   8.80930438
_cell_length_c   8.80930438
_cell_angle_alpha   56.47913178
_cell_angle_beta   56.47913178
_cell_angle_gamma   56.47913178
_symmetry_Int_Tables_number   1
_chemical_formula_structural   AgGe2(PO4)3
_chemical_formula_sum   'Ag2 Ge4 P6 O24'
_cell_volume   444.06038939
_cell_formula_units_Z   2
loop_
 _symmetry_equiv_pos_site_id
 _symmetry_equiv_pos_as_xyz
  1  'x, y, z'
loop_
 _atom_site_type_symbol
 _atom_site_label
 _atom_site_symmetry_multiplicity
 _atom_site_fract_x
 _atom_site_fract_y
 _atom_site_fract_z
 _atom_site_occupancy
  Ag  Ag0  1  1.00000000  -0.00000000  -0.00000000  1.0
  Ag  Ag1  1  0.50000000  0.50000000  0.50000000  1.0
  Ge  Ge2  1  0.85206962  -0.14793038  -0.14793038  1.0
  Ge  Ge3  1  0.35206962  0.35206962  0.35206962  1.0
  Ge  Ge4  1  0.64793038  0.64793038  -0.35206962  1.0
  Ge  Ge5  1  1.14793038  0.14793038  0.14793038  1.0
  P  P6  1  0.46588824  0.75000000  0.03411176  1.0
  P  P7  1  0.96588824  -0.46588824  0.25000000  1.0
  P  P8  1  0.25000000  0.96588824  -0.46588824  1.0
  P  P9  1  0.75000000  1.03411176  -0.53411176  1.0
  P  P10  1  0.53411176  0.25000000  -0.03411176  1.0
  P  P11  1  1.03411176  0.46588824  -0.25000000  1.0
  O  O12  1  0.75820306  1.01571133  -0.35343854  1.0
  O  O13  1  1.25820306  0.14656146  -0.48428867  1.0
  O  O14  1  0.85343854  0.48428867  -0.25820306  1.0
  O  O15  1  0.35343854  0.24179694  -0.01571133  1.0
  O  O16  1  0.98428867  0.35343854  -0.75820306  1.0
  O  O17  1  0.48428867  0.74179694  -0.14656146  1.0
  O  O18  1  0.24179694  0.98428867  -0.64656146  1.0
  O  O19  1  0.74179694  0.85343854  -0.51571133  1.0
  O  O20  1  0.64656146  0.75820306  0.01571133  1.0
  O  O21  1  1.14656146  -0.48428867  0.25820306  1.0
  O  O22  1  0.51571133  0.25820306  0.14656146  1.0
  O  O23  1  1.01571133  0.64656146  -0.24179694  1.0
  O  O24  1  0.71676683  0.06554546  -0.06127334  1.0
  O  O25  1  1.21676683  0.43872666  -0.43445454  1.0
  O  O26  1  0.56127334  0.43445454  -0.21676683  1.0
  O  O27  1  1.06127334  0.28323317  -0.06554546  1.0
  O  O28  1  0.93445454  0.06127334  0.28323317  1.0
  O  O29  1  0.43445454  0.78323317  -0.43872666  1.0
  O  O30  1  1.28323317  -0.06554546  0.06127334  1.0
  O  O31  1  0.78323317  0.56127334  -0.56554546  1.0
  O  O32  1  0.93872666  -0.28323317  0.06554546  1.0
  O  O33  1  0.43872666  0.56554546  0.21676683  1.0
  O  O34  1  0.56554546  1.21676683  -0.56127334  1.0
  O  O35  1  1.06554546  -0.06127334  -0.28323317  1.0
