# generated using pymatgen
data_BaH4O3
_symmetry_space_group_name_H-M   'P 1'
_cell_length_a   3.92654202
_cell_length_b   6.40581810
_cell_length_c   7.04361113
_cell_angle_alpha   90.00000000
_cell_angle_beta   90.00000000
_cell_angle_gamma   90.00000000
_symmetry_Int_Tables_number   1
_chemical_formula_structural   BaH4O3
_chemical_formula_sum   'Ba2 H8 O6'
_cell_volume   177.16593566
_cell_formula_units_Z   2
loop_
 _symmetry_equiv_pos_site_id
 _symmetry_equiv_pos_as_xyz
  1  'x, y, z'
loop_
 _atom_site_type_symbol
 _atom_site_label
 _atom_site_symmetry_multiplicity
 _atom_site_fract_x
 _atom_site_fract_y
 _atom_site_fract_z
 _atom_site_occupancy
  Ba  Ba0  1  0.50000000  0.64156424  0.51982631  1.0
  Ba  Ba1  1  0.50000000  0.35843576  0.01982631  1.0
  H  H2  1  0.70105770  0.87763654  0.08752833  1.0
  H  H3  1  0.70105770  0.12236346  0.58752833  1.0
  H  H4  1  0.29894230  0.87763654  0.08752833  1.0
  H  H5  1  0.29894230  0.12236346  0.58752833  1.0
  H  H6  1  0.00000000  0.98436824  0.36850121  1.0
  H  H7  1  0.00000000  0.01563176  0.86850121  1.0
  H  H8  1  0.00000000  0.69501353  0.87416623  1.0
  H  H9  1  0.00000000  0.30498647  0.37416623  1.0
  O  O10  1  0.50000000  0.79432368  0.13685861  1.0
  O  O11  1  0.50000000  0.20567632  0.63685861  1.0
  O  O12  1  0.00000000  0.96410864  0.50553058  1.0
  O  O13  1  0.00000000  0.03589136  0.00553058  1.0
  O  O14  1  0.00000000  0.56374735  0.80396039  1.0
  O  O15  1  0.00000000  0.43625265  0.30396039  1.0
