# generated using pymatgen
data_Pd(PbCl3)2
_symmetry_space_group_name_H-M   'P 1'
_cell_length_a   9.42043774
_cell_length_b   6.62294222
_cell_length_c   8.00232900
_cell_angle_alpha   90.00000000
_cell_angle_beta   90.60041473
_cell_angle_gamma   90.00000000
_symmetry_Int_Tables_number   1
_chemical_formula_structural   Pd(PbCl3)2
_chemical_formula_sum   'Pd2 Pb4 Cl12'
_cell_volume   499.24601369
_cell_formula_units_Z   2
loop_
 _symmetry_equiv_pos_site_id
 _symmetry_equiv_pos_as_xyz
  1  'x, y, z'
loop_
 _atom_site_type_symbol
 _atom_site_label
 _atom_site_symmetry_multiplicity
 _atom_site_fract_x
 _atom_site_fract_y
 _atom_site_fract_z
 _atom_site_occupancy
  Pd  Pd0  1  0.00000000  0.00000000  0.00000000  1.0
  Pd  Pd1  1  -0.00000000  0.50000000  0.50000000  1.0
  Pb  Pb2  1  0.71298119  0.54672098  0.86841773  1.0
  Pb  Pb3  1  0.71298119  0.95327902  0.36841773  1.0
  Pb  Pb4  1  0.28701881  0.04672098  0.63158227  1.0
  Pb  Pb5  1  0.28701881  0.45327902  0.13158227  1.0
  Cl  Cl6  1  0.92779455  0.79152665  0.63649893  1.0
  Cl  Cl7  1  0.92779455  0.70847335  0.13649893  1.0
  Cl  Cl8  1  0.07220545  0.29152665  0.86350107  1.0
  Cl  Cl9  1  0.07220545  0.20847335  0.36350107  1.0
  Cl  Cl10  1  0.55352636  0.83655022  0.66209575  1.0
  Cl  Cl11  1  0.55352636  0.66344978  0.16209575  1.0
  Cl  Cl12  1  0.44647364  0.33655022  0.83790425  1.0
  Cl  Cl13  1  0.44647364  0.16344978  0.33790425  1.0
  Cl  Cl14  1  0.22796777  0.86699684  0.97234619  1.0
  Cl  Cl15  1  0.22796777  0.63300316  0.47234619  1.0
  Cl  Cl16  1  0.77203223  0.36699684  0.52765381  1.0
  Cl  Cl17  1  0.77203223  0.13300316  0.02765381  1.0
