# generated using pymatgen
data_Zr2CuGe4
_symmetry_space_group_name_H-M   'P 1'
_cell_length_a   16.87583123
_cell_length_b   16.87583123
_cell_length_c   3.81122822
_cell_angle_alpha   90.00000000
_cell_angle_beta   90.00000000
_cell_angle_gamma   166.98542208
_symmetry_Int_Tables_number   1
_chemical_formula_structural   Zr2CuGe4
_chemical_formula_sum   'Zr4 Cu2 Ge8'
_cell_volume   244.43403665
_cell_formula_units_Z   2
loop_
 _symmetry_equiv_pos_site_id
 _symmetry_equiv_pos_as_xyz
  1  'x, y, z'
loop_
 _atom_site_type_symbol
 _atom_site_label
 _atom_site_symmetry_multiplicity
 _atom_site_fract_x
 _atom_site_fract_y
 _atom_site_fract_z
 _atom_site_occupancy
  Zr  Zr0  1  0.17779660  0.82220340  0.75000000  1.0
  Zr  Zr1  1  -0.17779660  0.17779660  0.25000000  1.0
  Zr  Zr2  1  0.45286380  0.54713620  0.75000000  1.0
  Zr  Zr3  1  -0.45286380  0.45286380  0.25000000  1.0
  Cu  Cu4  1  -0.24995273  0.24995273  0.75000000  1.0
  Cu  Cu5  1  0.24995273  0.75004727  0.25000000  1.0
  Ge  Ge6  1  0.02724598  0.97275402  0.75000000  1.0
  Ge  Ge7  1  -0.02724598  0.02724598  0.25000000  1.0
  Ge  Ge8  1  0.29771873  0.70228127  0.75000000  1.0
  Ge  Ge9  1  -0.29771873  0.29771873  0.25000000  1.0
  Ge  Ge10  1  -0.38679227  0.38679227  0.75000000  1.0
  Ge  Ge11  1  0.38679227  0.61320773  0.25000000  1.0
  Ge  Ge12  1  -0.11293863  0.11293863  0.75000000  1.0
  Ge  Ge13  1  0.11293863  0.88706137  0.25000000  1.0
