# generated using pymatgen
data_Sr3In5
_symmetry_space_group_name_H-M   'P 1'
_cell_length_a   6.55290013
_cell_length_b   6.55290013
_cell_length_c   16.86415603
_cell_angle_alpha   90.00000000
_cell_angle_beta   90.00000000
_cell_angle_gamma   134.86199369
_symmetry_Int_Tables_number   1
_chemical_formula_structural   Sr3In5
_chemical_formula_sum   'Sr6 In10'
_cell_volume   513.28700187
_cell_formula_units_Z   2
loop_
 _symmetry_equiv_pos_site_id
 _symmetry_equiv_pos_as_xyz
  1  'x, y, z'
loop_
 _atom_site_type_symbol
 _atom_site_label
 _atom_site_symmetry_multiplicity
 _atom_site_fract_x
 _atom_site_fract_y
 _atom_site_fract_z
 _atom_site_occupancy
  Sr  Sr0  1  0.08708636  0.91291364  0.89086289  1.0
  Sr  Sr1  1  0.08708636  0.91291364  0.60913711  1.0
  Sr  Sr2  1  -0.08708636  0.08708636  0.39086289  1.0
  Sr  Sr3  1  -0.08708636  0.08708636  0.10913711  1.0
  Sr  Sr4  1  0.36348655  0.63651345  0.75000000  1.0
  Sr  Sr5  1  -0.36348655  0.36348655  0.25000000  1.0
  In  In6  1  0.20861198  0.79138802  0.39788839  1.0
  In  In7  1  0.20861198  0.79138802  0.10211161  1.0
  In  In8  1  -0.20861198  0.20861198  0.89788839  1.0
  In  In9  1  -0.20861198  0.20861198  0.60211161  1.0
  In  In10  1  0.38363646  0.61636354  0.96610372  1.0
  In  In11  1  0.38363646  0.61636354  0.53389628  1.0
  In  In12  1  -0.38363646  0.38363646  0.46610372  1.0
  In  In13  1  -0.38363646  0.38363646  0.03389628  1.0
  In  In14  1  -0.34809847  0.34809847  0.75000000  1.0
  In  In15  1  0.34809847  0.65190153  0.25000000  1.0
