# generated using pymatgen
data_NaAl11O17
_symmetry_space_group_name_H-M   'P 1'
_cell_length_a   5.65784913
_cell_length_b   5.65784913
_cell_length_c   22.81744685
_cell_angle_alpha   90.00000000
_cell_angle_beta   90.00000000
_cell_angle_gamma   120.00000000
_symmetry_Int_Tables_number   1
_chemical_formula_structural   NaAl11O17
_chemical_formula_sum   'Na2 Al22 O34'
_cell_volume   632.55807438
_cell_formula_units_Z   2
loop_
 _symmetry_equiv_pos_site_id
 _symmetry_equiv_pos_as_xyz
  1  'x, y, z'
loop_
 _atom_site_type_symbol
 _atom_site_label
 _atom_site_symmetry_multiplicity
 _atom_site_fract_x
 _atom_site_fract_y
 _atom_site_fract_z
 _atom_site_occupancy
  Na  Na0  1  0.33333333  0.66666667  0.75000000  1.0
  Na  Na1  1  0.66666667  0.33333333  0.25000000  1.0
  Al  Al2  1  0.16750247  0.83249753  0.89318386  1.0
  Al  Al3  1  0.16750247  0.83249753  0.60681614  1.0
  Al  Al4  1  0.16750247  0.33500494  0.89318386  1.0
  Al  Al5  1  0.16750247  0.33500494  0.60681614  1.0
  Al  Al6  1  0.83249753  0.16750247  0.39318386  1.0
  Al  Al7  1  0.83249753  0.16750247  0.10681614  1.0
  Al  Al8  1  0.83249753  0.66499506  0.39318386  1.0
  Al  Al9  1  0.83249753  0.66499506  0.10681614  1.0
  Al  Al10  1  0.66499506  0.83249753  0.89318386  1.0
  Al  Al11  1  0.66499506  0.83249753  0.60681614  1.0
  Al  Al12  1  0.33500494  0.16750247  0.39318386  1.0
  Al  Al13  1  0.33500494  0.16750247  0.10681614  1.0
  Al  Al14  1  0.33333333  0.66666667  0.47530076  1.0
  Al  Al15  1  0.33333333  0.66666667  0.02469924  1.0
  Al  Al16  1  0.66666667  0.33333333  0.97530076  1.0
  Al  Al17  1  0.66666667  0.33333333  0.52469924  1.0
  Al  Al18  1  0.33333333  0.66666667  0.32454831  1.0
  Al  Al19  1  0.33333333  0.66666667  0.17545169  1.0
  Al  Al20  1  0.66666667  0.33333333  0.82454831  1.0
  Al  Al21  1  0.66666667  0.33333333  0.67545169  1.0
  Al  Al22  1  0.00000000  0.00000000  0.50000000  1.0
  Al  Al23  1  0.00000000  0.00000000  0.00000000  1.0
  O  O24  1  0.50342495  0.49657505  0.35386390  1.0
  O  O25  1  0.50342495  0.49657505  0.14613610  1.0
  O  O26  1  0.50342495  0.00684991  0.35386390  1.0
  O  O27  1  0.50342495  0.00684991  0.14613610  1.0
  O  O28  1  0.49657505  0.50342495  0.85386390  1.0
  O  O29  1  0.49657505  0.50342495  0.64613610  1.0
  O  O30  1  0.49657505  -0.00684991  0.85386390  1.0
  O  O31  1  0.49657505  -0.00684991  0.64613610  1.0
  O  O32  1  -0.00684991  0.49657505  0.35386390  1.0
  O  O33  1  -0.00684991  0.49657505  0.14613610  1.0
  O  O34  1  0.00684991  0.50342495  0.85386390  1.0
  O  O35  1  0.00684991  0.50342495  0.64613610  1.0
  O  O36  1  0.15724371  0.84275629  0.45022999  1.0
  O  O37  1  0.15724371  0.84275629  0.04977001  1.0
  O  O38  1  0.15724371  0.31448743  0.45022999  1.0
  O  O39  1  0.15724371  0.31448743  0.04977001  1.0
  O  O40  1  0.84275629  0.15724371  0.95022999  1.0
  O  O41  1  0.84275629  0.15724371  0.54977001  1.0
  O  O42  1  0.84275629  0.68551257  0.95022999  1.0
  O  O43  1  0.84275629  0.68551257  0.54977001  1.0
  O  O44  1  0.68551257  0.84275629  0.45022999  1.0
  O  O45  1  0.68551257  0.84275629  0.04977001  1.0
  O  O46  1  0.31448743  0.15724371  0.95022999  1.0
  O  O47  1  0.31448743  0.15724371  0.54977001  1.0
  O  O48  1  0.33333333  0.66666667  0.94443822  1.0
  O  O49  1  0.33333333  0.66666667  0.55556178  1.0
  O  O50  1  0.66666667  0.33333333  0.44443822  1.0
  O  O51  1  0.66666667  0.33333333  0.05556178  1.0
  O  O52  1  0.00000000  0.00000000  0.35864919  1.0
  O  O53  1  0.00000000  0.00000000  0.14135081  1.0
  O  O54  1  0.00000000  0.00000000  0.85864919  1.0
  O  O55  1  0.00000000  0.00000000  0.64135081  1.0
  O  O56  1  0.33333333  0.66666667  0.25000000  1.0
  O  O57  1  0.66666667  0.33333333  0.75000000  1.0
