# generated using pymatgen
data_Ag5P(S2Cl)2
_symmetry_space_group_name_H-M   'P 1'
_cell_length_a   6.44460519
_cell_length_b   6.44460519
_cell_length_c   7.47065807
_cell_angle_alpha   90.00000000
_cell_angle_beta   90.00000000
_cell_angle_gamma   59.04616732
_symmetry_Int_Tables_number   1
_chemical_formula_structural   Ag5P(S2Cl)2
_chemical_formula_sum   'Ag5 P1 S4 Cl2'
_cell_volume   266.08914737
_cell_formula_units_Z   1
loop_
 _symmetry_equiv_pos_site_id
 _symmetry_equiv_pos_as_xyz
  1  'x, y, z'
loop_
 _atom_site_type_symbol
 _atom_site_label
 _atom_site_symmetry_multiplicity
 _atom_site_fract_x
 _atom_site_fract_y
 _atom_site_fract_z
 _atom_site_occupancy
  Ag  Ag0  1  0.27410195  0.34179241  0.28052893  1.0
  Ag  Ag1  1  -0.34179241  0.72589805  0.28052893  1.0
  Ag  Ag2  1  0.27410195  0.34179241  0.71947107  1.0
  Ag  Ag3  1  -0.34179241  0.72589805  0.71947107  1.0
  Ag  Ag4  1  0.00567634  -0.00567634  0.00000000  1.0
  P  P5  1  -0.93635463  0.93635463  0.50000000  1.0
  S  S6  1  0.01227695  0.28421928  0.50000000  1.0
  S  S7  1  -0.28421928  0.98772305  0.50000000  1.0
  S  S8  1  -0.74845283  0.74845283  0.27070385  1.0
  S  S9  1  -0.74845283  0.74845283  0.72929615  1.0
  Cl  Cl10  1  -0.12317490  0.46081790  0.00000000  1.0
  Cl  Cl11  1  -0.46081790  1.12317490  0.00000000  1.0
