# generated using pymatgen
data_SbH3C2(O2F3)2
_symmetry_space_group_name_H-M   'P 1'
_cell_length_a   8.49112514
_cell_length_b   8.49112514
_cell_length_c   8.92230827
_cell_angle_alpha   54.94050024
_cell_angle_beta   125.05949976
_cell_angle_gamma   112.48394409
_symmetry_Int_Tables_number   1
_chemical_formula_structural   SbH3C2(O2F3)2
_chemical_formula_sum   'Sb2 H6 C4 O8 F12'
_cell_volume   429.70392963
_cell_formula_units_Z   2
loop_
 _symmetry_equiv_pos_site_id
 _symmetry_equiv_pos_as_xyz
  1  'x, y, z'
loop_
 _atom_site_type_symbol
 _atom_site_label
 _atom_site_symmetry_multiplicity
 _atom_site_fract_x
 _atom_site_fract_y
 _atom_site_fract_z
 _atom_site_occupancy
  Sb  Sb0  1  1.24025455  0.46544134  0.53493653  1.0
  Sb  Sb1  1  1.53455866  -0.24025455  0.03493653  1.0
  H  H2  1  0.76862506  0.54785871  0.55478739  1.0
  H  H3  1  0.45214129  0.23137494  0.05478739  1.0
  H  H4  1  0.96631166  0.56304638  0.06067134  1.0
  H  H5  1  1.43695362  0.03368834  0.56067134  1.0
  H  H6  1  1.00858129  0.01780767  0.70988995  1.0
  H  H7  1  0.98219233  -0.00858129  0.20988995  1.0
  C  C8  1  0.90561904  0.79151969  0.67372890  1.0
  C  C9  1  0.20848031  0.09438096  0.17372890  1.0
  C  C10  1  0.86956389  0.57171037  0.79730583  1.0
  C  C11  1  0.42828963  0.13043611  0.29730583  1.0
  O  O12  1  0.86506640  0.85963749  0.49459137  1.0
  O  O13  1  0.14036251  0.13493360  -0.00540863  1.0
  O  O14  1  0.97987872  0.87621067  0.78922197  1.0
  O  O15  1  1.12378933  0.02012128  0.28922197  1.0
  O  O16  1  0.79802906  0.47015570  0.70565678  1.0
  O  O17  1  0.52984430  0.20197094  0.20565678  1.0
  O  O18  1  0.90676966  -0.51745853  0.98622156  1.0
  O  O19  1  0.51745853  0.09323034  0.48622156  1.0
  F  F20  1  1.06287176  0.61347802  0.24128152  1.0
  F  F21  1  0.38652198  -0.06287176  0.74128152  1.0
  F  F22  1  1.13419024  0.55738031  0.60744971  1.0
  F  F23  1  1.44261969  -0.13419024  0.10744971  1.0
  F  F24  1  1.31714979  -0.42900263  0.01633907  1.0
  F  F25  1  0.42900263  -0.31714979  0.51633907  1.0
  F  F26  1  1.04755823  0.24777941  0.54975964  1.0
  F  F27  1  1.75222059  -0.04755823  0.04975964  1.0
  F  F28  1  1.33905686  0.37378592  0.45473046  1.0
  F  F29  1  0.62621408  -0.33905686  0.95473046  1.0
  F  F30  1  1.41924192  0.31581761  0.82422798  1.0
  F  F31  1  0.68418239  0.58075808  0.32422798  1.0
