# generated using pymatgen
data_PNCl2
_symmetry_space_group_name_H-M   'P 1'
_cell_length_a   16.65010377
_cell_length_b   16.65010377
_cell_length_c   6.54902649
_cell_angle_alpha   90.00000000
_cell_angle_beta   90.00000000
_cell_angle_gamma   90.00000000
_symmetry_Int_Tables_number   1
_chemical_formula_structural   PNCl2
_chemical_formula_sum   'P16 N16 Cl32'
_cell_volume   1815.56012773
_cell_formula_units_Z   16
loop_
 _symmetry_equiv_pos_site_id
 _symmetry_equiv_pos_as_xyz
  1  'x, y, z'
loop_
 _atom_site_type_symbol
 _atom_site_label
 _atom_site_symmetry_multiplicity
 _atom_site_fract_x
 _atom_site_fract_y
 _atom_site_fract_z
 _atom_site_occupancy
  P  P0  1  0.14376767  0.69047051  0.26377399  1.0
  P  P1  1  0.85623233  0.30952949  0.26377399  1.0
  P  P2  1  0.19047051  0.35623233  0.76377399  1.0
  P  P3  1  0.80952949  0.64376767  0.76377399  1.0
  P  P4  1  0.35623233  0.80952949  0.23622601  1.0
  P  P5  1  0.64376767  0.19047051  0.23622601  1.0
  P  P6  1  0.30952949  0.14376767  0.73622601  1.0
  P  P7  1  0.69047051  0.85623233  0.73622601  1.0
  P  P8  1  0.19008608  0.85058210  0.37862093  1.0
  P  P9  1  0.80991392  0.14941790  0.37862093  1.0
  P  P10  1  0.35058210  0.30991392  0.87862093  1.0
  P  P11  1  0.64941790  0.69008608  0.87862093  1.0
  P  P12  1  0.30991392  0.64941790  0.12137907  1.0
  P  P13  1  0.69008608  0.35058210  0.12137907  1.0
  P  P14  1  0.14941790  0.19008608  0.62137907  1.0
  P  P15  1  0.85058210  0.80991392  0.62137907  1.0
  N  N16  1  0.13619649  0.77199812  0.38759489  1.0
  N  N17  1  0.86380351  0.22800188  0.38759489  1.0
  N  N18  1  0.27199812  0.36380351  0.88759489  1.0
  N  N19  1  0.72800188  0.63619649  0.88759489  1.0
  N  N20  1  0.36380351  0.72800188  0.11240511  1.0
  N  N21  1  0.63619649  0.27199812  0.11240511  1.0
  N  N22  1  0.22800188  0.13619649  0.61240511  1.0
  N  N23  1  0.77199812  0.86380351  0.61240511  1.0
  N  N24  1  0.27177234  0.85154442  0.25691873  1.0
  N  N25  1  0.72822766  0.14845558  0.25691873  1.0
  N  N26  1  0.35154442  0.22822766  0.75691873  1.0
  N  N27  1  0.64845558  0.77177234  0.75691873  1.0
  N  N28  1  0.22822766  0.64845558  0.24308127  1.0
  N  N29  1  0.77177234  0.35154442  0.24308127  1.0
  N  N30  1  0.14845558  0.27177234  0.74308127  1.0
  N  N31  1  0.85154442  0.72822766  0.74308127  1.0
  Cl  Cl32  1  0.09062438  0.70170020  0.98505744  1.0
  Cl  Cl33  1  0.90937562  0.29829980  0.98505744  1.0
  Cl  Cl34  1  0.20170020  0.40937562  0.48505744  1.0
  Cl  Cl35  1  0.79829980  0.59062438  0.48505744  1.0
  Cl  Cl36  1  0.40937562  0.79829980  0.51494256  1.0
  Cl  Cl37  1  0.59062438  0.20170020  0.51494256  1.0
  Cl  Cl38  1  0.29829980  0.09062438  0.01494256  1.0
  Cl  Cl39  1  0.70170020  0.90937562  0.01494256  1.0
  Cl  Cl40  1  0.07091894  0.61257884  0.41026406  1.0
  Cl  Cl41  1  0.92908106  0.38742116  0.41026406  1.0
  Cl  Cl42  1  0.11257884  0.42908106  0.91026406  1.0
  Cl  Cl43  1  0.88742116  0.57091894  0.91026406  1.0
  Cl  Cl44  1  0.42908106  0.88742116  0.08973594  1.0
  Cl  Cl45  1  0.57091894  0.11257884  0.08973594  1.0
  Cl  Cl46  1  0.38742116  0.07091894  0.58973594  1.0
  Cl  Cl47  1  0.61257884  0.92908106  0.58973594  1.0
  Cl  Cl48  1  0.20574442  0.88638060  0.67159201  1.0
  Cl  Cl49  1  0.79425558  0.11361940  0.67159201  1.0
  Cl  Cl50  1  0.38638060  0.29425558  0.17159201  1.0
  Cl  Cl51  1  0.61361940  0.70574442  0.17159201  1.0
  Cl  Cl52  1  0.29425558  0.61361940  0.82840799  1.0
  Cl  Cl53  1  0.70574442  0.38638060  0.82840799  1.0
  Cl  Cl54  1  0.11361940  0.20574442  0.32840799  1.0
  Cl  Cl55  1  0.88638060  0.79425558  0.32840799  1.0
  Cl  Cl56  1  0.12337399  0.94082762  0.25913782  1.0
  Cl  Cl57  1  0.87662601  0.05917238  0.25913782  1.0
  Cl  Cl58  1  0.44082762  0.37662601  0.75913782  1.0
  Cl  Cl59  1  0.55917238  0.62337399  0.75913782  1.0
  Cl  Cl60  1  0.37662601  0.55917238  0.24086218  1.0
  Cl  Cl61  1  0.62337399  0.44082762  0.24086218  1.0
  Cl  Cl62  1  0.05917238  0.12337399  0.74086218  1.0
  Cl  Cl63  1  0.94082762  0.87662601  0.74086218  1.0
