# generated using pymatgen
data_Rb(IO3)3
_symmetry_space_group_name_H-M   'P 1'
_cell_length_a   8.51293427
_cell_length_b   8.05118588
_cell_length_c   8.30376262
_cell_angle_alpha   59.08248958
_cell_angle_beta   68.15853839
_cell_angle_gamma   73.03575972
_symmetry_Int_Tables_number   1
_chemical_formula_structural   Rb(IO3)3
_chemical_formula_sum   'Rb2 I6 O18'
_cell_volume   449.58242873
_cell_formula_units_Z   2
loop_
 _symmetry_equiv_pos_site_id
 _symmetry_equiv_pos_as_xyz
  1  'x, y, z'
loop_
 _atom_site_type_symbol
 _atom_site_label
 _atom_site_symmetry_multiplicity
 _atom_site_fract_x
 _atom_site_fract_y
 _atom_site_fract_z
 _atom_site_occupancy
  O  O0  1  -0.35695992  -0.39054290  -0.46474988  1.0
  O  O1  1  -0.64304008  -0.60945710  -0.53525012  1.0
  O  O2  1  -0.50621306  -0.10240526  -0.77190854  1.0
  O  O3  1  -0.49378694  -0.89759474  -0.22809146  1.0
  O  O4  1  -0.83108623  -0.22071771  -0.50823608  1.0
  O  O5  1  -0.16891377  -0.77928229  -0.49176392  1.0
  O  O6  1  -0.67896836  -0.58149122  -0.16124926  1.0
  O  O7  1  -0.32103164  -0.41850878  -0.83875074  1.0
  O  O8  1  -0.89488919  -0.33084116  -0.10081761  1.0
  O  O9  1  -0.10511081  -0.66915884  -0.89918239  1.0
  O  O10  1  -0.55885945  -0.34170307  -0.08188854  1.0
  O  O11  1  -0.44114055  -0.65829693  -0.91811146  1.0
  O  O12  1  -0.95826905  -0.37373714  -0.67146740  1.0
  O  O13  1  -0.04173095  -0.62626286  -0.32853260  1.0
  O  O14  1  -0.83040465  -0.01056477  -0.91228279  1.0
  O  O15  1  -0.16959535  -0.98943523  -0.08771721  1.0
  O  O16  1  -0.27603094  -0.01393690  -0.65545120  1.0
  O  O17  1  -0.72396906  -0.98606310  -0.34454880  1.0
  Rb  Rb18  1  -0.81383406  -0.75376476  -0.73338218  1.0
  Rb  Rb19  1  -0.18616594  -0.24623524  -0.26661782  1.0
  I  I20  1  -0.75891085  -0.26385866  -0.72928828  1.0
  I  I21  1  -0.24108915  -0.73614134  -0.27071172  1.0
  I  I22  1  -0.28781831  -0.19887417  -0.73523526  1.0
  I  I23  1  -0.71218169  -0.80112583  -0.26476474  1.0
  I  I24  1  -0.66845730  -0.30179857  -0.26769162  1.0
  I  I25  1  -0.33154270  -0.69820143  -0.73230838  1.0
