# generated using pymatgen
data_Ba3Y4O9
_symmetry_space_group_name_H-M   'P 1'
_cell_length_a   9.22843043
_cell_length_b   9.22843043
_cell_length_c   9.22843043
_cell_angle_alpha   38.82091904
_cell_angle_beta   38.82091904
_cell_angle_gamma   38.82091904
_symmetry_Int_Tables_number   1
_chemical_formula_structural   Ba3Y4O9
_chemical_formula_sum   'Ba3 Y4 O9'
_cell_volume   277.67071561
_cell_formula_units_Z   1
loop_
 _symmetry_equiv_pos_site_id
 _symmetry_equiv_pos_as_xyz
  1  'x, y, z'
loop_
 _atom_site_type_symbol
 _atom_site_label
 _atom_site_symmetry_multiplicity
 _atom_site_fract_x
 _atom_site_fract_y
 _atom_site_fract_z
 _atom_site_occupancy
  Ba  Ba0  1  -0.00084575  -0.00084575  -0.00084575  1.0
  Ba  Ba1  1  0.58025307  0.58025307  -0.41974693  1.0
  Ba  Ba2  1  0.16578979  0.16578979  0.16578979  1.0
  Y  Y3  1  0.86453093  -0.13546907  -0.13546907  1.0
  Y  Y4  1  0.73883650  -0.26116350  -0.26116350  1.0
  Y  Y5  1  0.42619206  0.42619206  -0.57380794  1.0
  Y  Y6  1  0.30076143  0.30076143  0.30076143  1.0
  O  O7  1  0.45466929  0.58405863  -0.95807442  1.0
  O  O8  1  0.04192558  0.45466929  -0.41594137  1.0
  O  O9  1  0.58405863  0.04192558  -0.54533071  1.0
  O  O10  1  0.58478929  -0.29297304  0.12553459  1.0
  O  O11  1  1.12553459  -0.41521071  -0.29297304  1.0
  O  O12  1  0.70702696  0.12553459  -0.41521071  1.0
  O  O13  1  1.01788048  -0.41799712  0.14779426  1.0
  O  O14  1  1.14779426  0.01788048  -0.41799712  1.0
  O  O15  1  0.58200288  0.14779426  0.01788048  1.0
