# generated using pymatgen
data_Mg(AuF4)2
_symmetry_space_group_name_H-M   'P 1'
_cell_length_a   5.57986102
_cell_length_b   5.92350890
_cell_length_c   11.03689481
_cell_angle_alpha   90.00000000
_cell_angle_beta   109.50622407
_cell_angle_gamma   90.00000000
_symmetry_Int_Tables_number   1
_chemical_formula_structural   Mg(AuF4)2
_chemical_formula_sum   'Mg2 Au4 F16'
_cell_volume   343.85803170
_cell_formula_units_Z   2
loop_
 _symmetry_equiv_pos_site_id
 _symmetry_equiv_pos_as_xyz
  1  'x, y, z'
loop_
 _atom_site_type_symbol
 _atom_site_label
 _atom_site_symmetry_multiplicity
 _atom_site_fract_x
 _atom_site_fract_y
 _atom_site_fract_z
 _atom_site_occupancy
  Mg  Mg0  1  0.00000000  0.50000000  0.50000000  1.0
  Mg  Mg1  1  0.00000000  0.00000000  0.00000000  1.0
  Au  Au2  1  0.63113491  0.26515962  0.17603871  1.0
  Au  Au3  1  0.63113491  0.23484038  0.67603871  1.0
  Au  Au4  1  0.36886509  0.76515962  0.32396129  1.0
  Au  Au5  1  0.36886509  0.73484038  0.82396129  1.0
  F  F6  1  0.92470780  0.36145342  0.32172492  1.0
  F  F7  1  0.92470780  0.13854658  0.82172492  1.0
  F  F8  1  0.07529220  0.86145342  0.17827508  1.0
  F  F9  1  0.07529220  0.63854658  0.67827508  1.0
  F  F10  1  0.84171616  0.26044024  0.06295255  1.0
  F  F11  1  0.84171616  0.23955976  0.56295255  1.0
  F  F12  1  0.15828384  0.76044024  0.43704745  1.0
  F  F13  1  0.15828384  0.73955976  0.93704745  1.0
  F  F14  1  0.66971925  0.67384984  0.46692778  1.0
  F  F15  1  0.66971925  0.82615016  0.96692778  1.0
  F  F16  1  0.33028075  0.17384984  0.03307222  1.0
  F  F17  1  0.33028075  0.32615016  0.53307222  1.0
  F  F18  1  0.42679759  0.27253573  0.28559759  1.0
  F  F19  1  0.42679759  0.22746427  0.78559759  1.0
  F  F20  1  0.57320241  0.77253573  0.21440241  1.0
  F  F21  1  0.57320241  0.72746427  0.71440241  1.0
