# generated using pymatgen
data_H7C2SN4Cl
_symmetry_space_group_name_H-M   'P 1'
_cell_length_a   6.73058551
_cell_length_b   7.47588116
_cell_length_c   14.86302944
_cell_angle_alpha   90.00000000
_cell_angle_beta   91.47850953
_cell_angle_gamma   90.00000000
_symmetry_Int_Tables_number   1
_chemical_formula_structural   H7C2SN4Cl
_chemical_formula_sum   'H28 C8 S4 N16 Cl4'
_cell_volume   747.61492224
_cell_formula_units_Z   4
loop_
 _symmetry_equiv_pos_site_id
 _symmetry_equiv_pos_as_xyz
  1  'x, y, z'
loop_
 _atom_site_type_symbol
 _atom_site_label
 _atom_site_symmetry_multiplicity
 _atom_site_fract_x
 _atom_site_fract_y
 _atom_site_fract_z
 _atom_site_occupancy
  H  H0  1  0.91180900  0.28566491  0.89046075  1.0
  H  H1  1  0.91180900  0.21433509  0.39046075  1.0
  H  H2  1  0.08819100  0.78566491  0.60953925  1.0
  H  H3  1  0.08819100  0.71433509  0.10953925  1.0
  H  H4  1  0.83287677  0.82964932  0.59878412  1.0
  H  H5  1  0.83287677  0.67035068  0.09878412  1.0
  H  H6  1  0.16712323  0.32964932  0.90121588  1.0
  H  H7  1  0.16712323  0.17035068  0.40121588  1.0
  H  H8  1  0.86955436  0.35728083  0.61541002  1.0
  H  H9  1  0.86955436  0.14271917  0.11541002  1.0
  H  H10  1  0.13044564  0.85728083  0.88458998  1.0
  H  H11  1  0.13044564  0.64271917  0.38458998  1.0
  H  H12  1  0.67674510  0.69600844  0.97226613  1.0
  H  H13  1  0.67674510  0.80399156  0.47226613  1.0
  H  H14  1  0.32325490  0.19600844  0.52773387  1.0
  H  H15  1  0.32325490  0.30399156  0.02773387  1.0
  H  H16  1  0.55129268  0.72905106  0.74604408  1.0
  H  H17  1  0.55129268  0.77094894  0.24604408  1.0
  H  H18  1  0.44870732  0.22905106  0.75395592  1.0
  H  H19  1  0.44870732  0.27094894  0.25395592  1.0
  H  H20  1  0.53590669  0.59198815  0.84249521  1.0
  H  H21  1  0.53590669  0.90801185  0.34249521  1.0
  H  H22  1  0.46409331  0.09198815  0.65750479  1.0
  H  H23  1  0.46409331  0.40801185  0.15750479  1.0
  H  H24  1  0.26666030  0.79635745  0.98718049  1.0
  H  H25  1  0.26666030  0.70364255  0.48718049  1.0
  H  H26  1  0.73333970  0.29635745  0.51281951  1.0
  H  H27  1  0.73333970  0.20364255  0.01281951  1.0
  C  C28  1  0.97007863  0.75075807  0.98403293  1.0
  C  C29  1  0.97007863  0.74924193  0.48403293  1.0
  C  C30  1  0.02992137  0.25075807  0.51596707  1.0
  C  C31  1  0.02992137  0.24924193  0.01596707  1.0
  C  C32  1  0.75658057  0.78294149  0.84505552  1.0
  C  C33  1  0.75658057  0.71705851  0.34505552  1.0
  C  C34  1  0.24341943  0.28294149  0.65494448  1.0
  C  C35  1  0.24341943  0.21705851  0.15494448  1.0
  S  S36  1  0.89476919  0.92477853  0.78465095  1.0
  S  S37  1  0.89476919  0.57522147  0.28465095  1.0
  S  S38  1  0.10523081  0.42477853  0.71534905  1.0
  S  S39  1  0.10523081  0.07522147  0.21534905  1.0
  N  N40  1  0.96585028  0.80547310  0.56904388  1.0
  N  N41  1  0.96585028  0.69452690  0.06904388  1.0
  N  N42  1  0.03414972  0.30547310  0.93095612  1.0
  N  N43  1  0.03414972  0.19452690  0.43095612  1.0
  N  N44  1  0.86244946  0.30736321  0.55096276  1.0
  N  N45  1  0.86244946  0.19263679  0.05096276  1.0
  N  N46  1  0.13755054  0.80736321  0.94903724  1.0
  N  N47  1  0.13755054  0.69263679  0.44903724  1.0
  N  N48  1  0.79505938  0.74125257  0.93528330  1.0
  N  N49  1  0.79505938  0.75874743  0.43528330  1.0
  N  N50  1  0.20494062  0.24125257  0.56471670  1.0
  N  N51  1  0.20494062  0.25874743  0.06471670  1.0
  N  N52  1  0.59186964  0.70416765  0.81187698  1.0
  N  N53  1  0.59186964  0.79583235  0.31187698  1.0
  N  N54  1  0.40813036  0.20416765  0.68812302  1.0
  N  N55  1  0.40813036  0.29583235  0.18812302  1.0
  Cl  Cl56  1  0.48089530  0.80839700  0.59398296  1.0
  Cl  Cl57  1  0.48089530  0.69160300  0.09398296  1.0
  Cl  Cl58  1  0.51910470  0.30839700  0.90601704  1.0
  Cl  Cl59  1  0.51910470  0.19160300  0.40601704  1.0
