# generated using pymatgen
data_Na(CO)3
_symmetry_space_group_name_H-M   'P 1'
_cell_length_a   9.40277735
_cell_length_b   8.30744982
_cell_length_c   7.20118636
_cell_angle_alpha   74.25917805
_cell_angle_beta   58.25274520
_cell_angle_gamma   47.48807675
_symmetry_Int_Tables_number   1
_chemical_formula_structural   Na(CO)3
_chemical_formula_sum   'Na4 C12 O12'
_cell_volume   349.40343171
_cell_formula_units_Z   4
loop_
 _symmetry_equiv_pos_site_id
 _symmetry_equiv_pos_as_xyz
  1  'x, y, z'
loop_
 _atom_site_type_symbol
 _atom_site_label
 _atom_site_symmetry_multiplicity
 _atom_site_fract_x
 _atom_site_fract_y
 _atom_site_fract_z
 _atom_site_occupancy
  Na  Na0  1  1.14888263  -0.14888263  0.14888263  1.0
  Na  Na1  1  0.85111737  0.14888263  -0.14888263  1.0
  Na  Na2  1  0.10111737  1.39888263  0.10111737  1.0
  Na  Na3  1  0.39888263  1.10111737  0.39888263  1.0
  C  C4  1  0.39815299  0.39815299  -0.39815299  1.0
  C  C5  1  0.60184701  0.60184701  -0.60184701  1.0
  C  C6  1  0.85184701  0.85184701  0.64815299  1.0
  C  C7  1  0.64815299  0.64815299  0.85184701  1.0
  C  C8  1  0.59867688  0.30041063  0.38375837  1.0
  C  C9  1  0.38375837  0.71715412  0.59867688  1.0
  C  C10  1  0.30041063  0.59867688  -0.28284588  1.0
  C  C11  1  -0.28284588  1.38375837  0.30041063  1.0
  C  C12  1  0.65132312  0.94958937  -0.13375837  1.0
  C  C13  1  0.86624163  0.53284588  -0.34867688  1.0
  C  C14  1  0.94958937  0.65132312  0.53284588  1.0
  C  C15  1  0.53284588  0.86624163  0.94958937  1.0
  O  O16  1  0.68814533  0.68814533  0.31185467  1.0
  O  O17  1  1.31185467  0.31185467  -0.31185467  1.0
  O  O18  1  0.56185467  0.56185467  -0.06185467  1.0
  O  O19  1  -0.06185467  0.93814533  0.56185467  1.0
  O  O20  1  0.27632081  0.90761327  0.67690081  1.0
  O  O21  1  0.67690081  0.13916511  0.27632081  1.0
  O  O22  1  0.90761327  0.27632081  0.13916511  1.0
  O  O23  1  0.13916511  0.67690081  0.90761327  1.0
  O  O24  1  -0.02632081  1.34238673  0.57309919  1.0
  O  O25  1  0.57309919  1.11083489  -0.02632081  1.0
  O  O26  1  0.34238673  0.97367919  0.11083489  1.0
  O  O27  1  0.11083489  1.57309919  0.34238673  1.0
