# generated using pymatgen
data_Co2B4Mo
_symmetry_space_group_name_H-M   'P 1'
_cell_length_a   6.57592139
_cell_length_b   6.57592139
_cell_length_c   6.57592139
_cell_angle_alpha   153.42468599
_cell_angle_beta   153.06893983
_cell_angle_gamma   38.19607968
_symmetry_Int_Tables_number   1
_chemical_formula_structural   Co2B4Mo
_chemical_formula_sum   'Co2 B4 Mo1'
_cell_volume   57.52605410
_cell_formula_units_Z   1
loop_
 _symmetry_equiv_pos_site_id
 _symmetry_equiv_pos_as_xyz
  1  'x, y, z'
loop_
 _atom_site_type_symbol
 _atom_site_label
 _atom_site_symmetry_multiplicity
 _atom_site_fract_x
 _atom_site_fract_y
 _atom_site_fract_z
 _atom_site_occupancy
  Co  Co0  1  0.81447763  0.31447763  0.50000000  1.0
  Co  Co1  1  0.18552237  0.68552237  0.50000000  1.0
  B  B2  1  0.65159325  0.15159325  0.50000000  1.0
  B  B3  1  0.34840675  0.84840675  0.50000000  1.0
  B  B4  1  0.57477612  0.57477612  1.00000000  1.0
  B  B5  1  0.42522388  0.42522388  0.00000000  1.0
  Mo  Mo6  1  0.00000000  0.00000000  0.00000000  1.0
