# generated using pymatgen
data_Na5InS4
_symmetry_space_group_name_H-M   'P 1'
_cell_length_a   6.89735127
_cell_length_b   8.83547541
_cell_length_c   7.90145849
_cell_angle_alpha   90.00000000
_cell_angle_beta   91.27039236
_cell_angle_gamma   90.00000000
_symmetry_Int_Tables_number   1
_chemical_formula_structural   Na5InS4
_chemical_formula_sum   'Na10 In2 S8'
_cell_volume   481.40740552
_cell_formula_units_Z   2
loop_
 _symmetry_equiv_pos_site_id
 _symmetry_equiv_pos_as_xyz
  1  'x, y, z'
loop_
 _atom_site_type_symbol
 _atom_site_label
 _atom_site_symmetry_multiplicity
 _atom_site_fract_x
 _atom_site_fract_y
 _atom_site_fract_z
 _atom_site_occupancy
  Na  Na0  1  0.65471873  0.97897716  0.66545080  1.0
  Na  Na1  1  0.65471873  0.52102284  0.66545080  1.0
  Na  Na2  1  0.34528127  0.47897716  0.33454920  1.0
  Na  Na3  1  0.34528127  0.02102284  0.33454920  1.0
  Na  Na4  1  0.97501530  0.25000000  0.53463965  1.0
  Na  Na5  1  0.02498470  0.75000000  0.46536035  1.0
  Na  Na6  1  0.66837883  0.25000000  0.16068026  1.0
  Na  Na7  1  0.33162117  0.75000000  0.83931974  1.0
  Na  Na8  1  0.00000000  0.50000000  0.00000000  1.0
  Na  Na9  1  0.00000000  0.00000000  0.00000000  1.0
  In  In10  1  0.36255666  0.25000000  0.82281129  1.0
  In  In11  1  0.63744334  0.75000000  0.17718871  1.0
  S  S12  1  0.23456685  0.48107135  0.67055562  1.0
  S  S13  1  0.23456685  0.01892865  0.67055562  1.0
  S  S14  1  0.76543315  0.98107135  0.32944438  1.0
  S  S15  1  0.76543315  0.51892865  0.32944438  1.0
  S  S16  1  0.72690181  0.25000000  0.82160878  1.0
  S  S17  1  0.27309819  0.75000000  0.17839122  1.0
  S  S18  1  0.24153792  0.25000000  0.11815740  1.0
  S  S19  1  0.75846208  0.75000000  0.88184260  1.0
