# generated using pymatgen
data_Zn3(SnRu)2
_symmetry_space_group_name_H-M   'P 1'
_cell_length_a   8.29621216
_cell_length_b   4.17416812
_cell_length_c   13.88185957
_cell_angle_alpha   90.00000000
_cell_angle_beta   90.00000000
_cell_angle_gamma   90.00000000
_symmetry_Int_Tables_number   1
_chemical_formula_structural   Zn3(SnRu)2
_chemical_formula_sum   'Zn12 Sn8 Ru8'
_cell_volume   480.72580225
_cell_formula_units_Z   4
loop_
 _symmetry_equiv_pos_site_id
 _symmetry_equiv_pos_as_xyz
  1  'x, y, z'
loop_
 _atom_site_type_symbol
 _atom_site_label
 _atom_site_symmetry_multiplicity
 _atom_site_fract_x
 _atom_site_fract_y
 _atom_site_fract_z
 _atom_site_occupancy
  Zn  Zn0  1  0.96484331  0.75000000  0.04069890  1.0
  Zn  Zn1  1  0.46484331  0.75000000  0.45930110  1.0
  Zn  Zn2  1  0.03515669  0.25000000  0.95930110  1.0
  Zn  Zn3  1  0.53515669  0.25000000  0.54069890  1.0
  Zn  Zn4  1  0.91046433  0.75000000  0.24335799  1.0
  Zn  Zn5  1  0.41046433  0.75000000  0.25664201  1.0
  Zn  Zn6  1  0.08953567  0.25000000  0.75664201  1.0
  Zn  Zn7  1  0.58953567  0.25000000  0.74335799  1.0
  Zn  Zn8  1  0.65724190  0.75000000  0.13128482  1.0
  Zn  Zn9  1  0.15724190  0.75000000  0.36871518  1.0
  Zn  Zn10  1  0.34275810  0.25000000  0.86871518  1.0
  Zn  Zn11  1  0.84275810  0.25000000  0.63128482  1.0
  Sn  Sn12  1  0.85209049  0.75000000  0.47707049  1.0
  Sn  Sn13  1  0.35209049  0.75000000  0.02292951  1.0
  Sn  Sn14  1  0.14790951  0.25000000  0.52292951  1.0
  Sn  Sn15  1  0.64790951  0.25000000  0.97707049  1.0
  Sn  Sn16  1  0.84505329  0.75000000  0.80446212  1.0
  Sn  Sn17  1  0.34505329  0.75000000  0.69553788  1.0
  Sn  Sn18  1  0.15494671  0.25000000  0.19553788  1.0
  Sn  Sn19  1  0.65494671  0.25000000  0.30446212  1.0
  Ru  Ru20  1  0.65037107  0.75000000  0.63122172  1.0
  Ru  Ru21  1  0.15037107  0.75000000  0.86877828  1.0
  Ru  Ru22  1  0.34962893  0.25000000  0.36877828  1.0
  Ru  Ru23  1  0.84962893  0.25000000  0.13122172  1.0
  Ru  Ru24  1  0.54108031  0.75000000  0.85586759  1.0
  Ru  Ru25  1  0.04108031  0.75000000  0.64413241  1.0
  Ru  Ru26  1  0.45891969  0.25000000  0.14413241  1.0
  Ru  Ru27  1  0.95891969  0.25000000  0.35586759  1.0
