# generated using pymatgen
data_BaGe(PO4)2
_symmetry_space_group_name_H-M   'P 1'
_cell_length_a   4.81032426
_cell_length_b   4.81032426
_cell_length_c   7.83376188
_cell_angle_alpha   86.22347854
_cell_angle_beta   93.77652146
_cell_angle_gamma   115.35210225
_symmetry_Int_Tables_number   1
_chemical_formula_structural   BaGe(PO4)2
_chemical_formula_sum   'Ba1 Ge1 P2 O8'
_cell_volume   163.31159972
_cell_formula_units_Z   1
loop_
 _symmetry_equiv_pos_site_id
 _symmetry_equiv_pos_as_xyz
  1  'x, y, z'
loop_
 _atom_site_type_symbol
 _atom_site_label
 _atom_site_symmetry_multiplicity
 _atom_site_fract_x
 _atom_site_fract_y
 _atom_site_fract_z
 _atom_site_occupancy
  Ba  Ba0  1  -0.00000000  0.00000000  0.50000000  1.0
  Ge  Ge1  1  0.00000000  0.00000000  0.00000000  1.0
  P  P2  1  0.63391035  -0.63391035  0.80287186  1.0
  P  P3  1  0.36608965  -0.36608965  0.19712814  1.0
  O  O4  1  1.27501185  0.22983356  0.82338919  1.0
  O  O5  1  0.77016644  -0.27501185  0.82338919  1.0
  O  O6  1  1.22983356  0.27501185  0.17661081  1.0
  O  O7  1  0.72498815  -0.22983356  0.17661081  1.0
  O  O8  1  0.77272249  -0.77272249  0.94814992  1.0
  O  O9  1  0.22727751  -0.22727751  0.05185008  1.0
  O  O10  1  0.68457180  -0.68457180  0.61869344  1.0
  O  O11  1  0.31542820  -0.31542820  0.38130656  1.0
