# generated using pymatgen
data_SrPO4
_symmetry_space_group_name_H-M   'P 1'
_cell_length_a   7.35104103
_cell_length_b   7.05571827
_cell_length_c   7.36833530
_cell_angle_alpha   80.67842442
_cell_angle_beta   80.84248418
_cell_angle_gamma   91.46828507
_symmetry_Int_Tables_number   1
_chemical_formula_structural   SrPO4
_chemical_formula_sum   'Sr4 P4 O16'
_cell_volume   371.80061213
_cell_formula_units_Z   4
loop_
 _symmetry_equiv_pos_site_id
 _symmetry_equiv_pos_as_xyz
  1  'x, y, z'
loop_
 _atom_site_type_symbol
 _atom_site_label
 _atom_site_symmetry_multiplicity
 _atom_site_fract_x
 _atom_site_fract_y
 _atom_site_fract_z
 _atom_site_occupancy
  Sr  Sr0  1  -0.81528203  -0.92956025  -0.74447082  1.0
  Sr  Sr1  1  -0.18471797  -0.07043975  -0.25552918  1.0
  Sr  Sr2  1  -0.32234895  -0.64677350  -0.66180654  1.0
  Sr  Sr3  1  -0.67765105  -0.35322650  -0.33819346  1.0
  P  P4  1  -0.69228448  -0.89339363  -0.29016731  1.0
  P  P5  1  -0.30771552  -0.10660637  -0.70983269  1.0
  P  P6  1  -0.80040046  -0.45214978  -0.78526367  1.0
  P  P7  1  -0.19959954  -0.54785022  -0.21473633  1.0
  O  O8  1  -0.83584362  -0.99631334  -0.38095276  1.0
  O  O9  1  -0.16415638  -0.00368666  -0.61904724  1.0
  O  O10  1  -0.62830203  -0.69249347  -0.40888242  1.0
  O  O11  1  -0.37169797  -0.30750653  -0.59111758  1.0
  O  O12  1  -0.77327980  -0.86764319  -0.08940714  1.0
  O  O13  1  -0.22672020  -0.13235681  -0.91059286  1.0
  O  O14  1  -0.63388778  -0.58562857  -0.77114568  1.0
  O  O15  1  -0.36611222  -0.41437143  -0.22885432  1.0
  O  O16  1  -0.77306945  -0.35337777  -0.99156461  1.0
  O  O17  1  -0.22693055  -0.64662223  -0.00843539  1.0
  O  O18  1  -0.97673584  -0.58753068  -0.73692342  1.0
  O  O19  1  -0.02326416  -0.41246932  -0.26307658  1.0
  O  O20  1  -0.80382068  -0.29969814  -0.65696192  1.0
  O  O21  1  -0.19617932  -0.70030186  -0.34303808  1.0
  O  O22  1  -0.47526407  -0.97582219  -0.71833470  1.0
  O  O23  1  -0.52473593  -0.02417781  -0.28166530  1.0
