# generated using pymatgen
data_Sc2B2PRh5
_symmetry_space_group_name_H-M   'P 1'
_cell_length_a   9.09897572
_cell_length_b   9.09897572
_cell_length_c   3.15868275
_cell_angle_alpha   90.00000000
_cell_angle_beta   90.00000000
_cell_angle_gamma   90.00000000
_symmetry_Int_Tables_number   1
_chemical_formula_structural   Sc2B2PRh5
_chemical_formula_sum   'Sc4 B4 P2 Rh10'
_cell_volume   261.51163796
_cell_formula_units_Z   2
loop_
 _symmetry_equiv_pos_site_id
 _symmetry_equiv_pos_as_xyz
  1  'x, y, z'
loop_
 _atom_site_type_symbol
 _atom_site_label
 _atom_site_symmetry_multiplicity
 _atom_site_fract_x
 _atom_site_fract_y
 _atom_site_fract_z
 _atom_site_occupancy
  Sc  Sc0  1  0.32593172  0.17406828  0.00000000  1.0
  Sc  Sc1  1  0.82593172  0.32593172  0.00000000  1.0
  Sc  Sc2  1  0.67406828  0.82593172  0.00000000  1.0
  Sc  Sc3  1  0.17406828  0.67406828  0.00000000  1.0
  B  B4  1  0.87571936  0.62428064  0.00000000  1.0
  B  B5  1  0.37571936  0.87571936  0.00000000  1.0
  B  B6  1  0.12428064  0.37571936  0.00000000  1.0
  B  B7  1  0.62428064  0.12428064  0.00000000  1.0
  P  P8  1  0.50000000  0.50000000  0.00000000  1.0
  P  P9  1  0.00000000  0.00000000  0.00000000  1.0
  Rh  Rh10  1  0.50000000  0.00000000  0.50000000  1.0
  Rh  Rh11  1  0.00000000  0.50000000  0.50000000  1.0
  Rh  Rh12  1  0.42837876  0.71206644  0.50000000  1.0
  Rh  Rh13  1  0.92837876  0.78793356  0.50000000  1.0
  Rh  Rh14  1  0.28793356  0.42837876  0.50000000  1.0
  Rh  Rh15  1  0.78793356  0.07162124  0.50000000  1.0
  Rh  Rh16  1  0.57162124  0.28793356  0.50000000  1.0
  Rh  Rh17  1  0.07162124  0.21206644  0.50000000  1.0
  Rh  Rh18  1  0.71206644  0.57162124  0.50000000  1.0
  Rh  Rh19  1  0.21206644  0.92837876  0.50000000  1.0
