# generated using pymatgen
data_AuSO4
_symmetry_space_group_name_H-M   'P 1'
_cell_length_a   8.62599603
_cell_length_b   10.89792268
_cell_length_c   8.76685514
_cell_angle_alpha   90.00000000
_cell_angle_beta   90.00000000
_cell_angle_gamma   90.00000000
_symmetry_Int_Tables_number   1
_chemical_formula_structural   AuSO4
_chemical_formula_sum   'Au8 S8 O32'
_cell_volume   824.13205491
_cell_formula_units_Z   8
loop_
 _symmetry_equiv_pos_site_id
 _symmetry_equiv_pos_as_xyz
  1  'x, y, z'
loop_
 _atom_site_type_symbol
 _atom_site_label
 _atom_site_symmetry_multiplicity
 _atom_site_fract_x
 _atom_site_fract_y
 _atom_site_fract_z
 _atom_site_occupancy
  Au  Au0  1  0.44384846  0.48392904  0.36825378  1.0
  Au  Au1  1  0.44384846  0.01607096  0.86825378  1.0
  Au  Au2  1  0.94384846  0.48392904  0.13174622  1.0
  Au  Au3  1  0.94384846  0.01607096  0.63174622  1.0
  Au  Au4  1  0.55615154  0.98392904  0.13174622  1.0
  Au  Au5  1  0.55615154  0.51607096  0.63174622  1.0
  Au  Au6  1  0.05615154  0.98392904  0.36825378  1.0
  Au  Au7  1  0.05615154  0.51607096  0.86825378  1.0
  S  S8  1  0.26162494  0.36330091  0.08350395  1.0
  S  S9  1  0.26162494  0.13669909  0.58350395  1.0
  S  S10  1  0.76162494  0.36330091  0.41649605  1.0
  S  S11  1  0.76162494  0.13669909  0.91649605  1.0
  S  S12  1  0.73837506  0.86330091  0.41649605  1.0
  S  S13  1  0.73837506  0.63669909  0.91649605  1.0
  S  S14  1  0.23837506  0.86330091  0.08350395  1.0
  S  S15  1  0.23837506  0.63669909  0.58350395  1.0
  O  O16  1  0.35455891  0.47175039  0.13867620  1.0
  O  O17  1  0.35455891  0.02824961  0.63867620  1.0
  O  O18  1  0.85455891  0.47175039  0.36132380  1.0
  O  O19  1  0.85455891  0.02824961  0.86132380  1.0
  O  O20  1  0.64544109  0.97175039  0.36132380  1.0
  O  O21  1  0.64544109  0.52824961  0.86132380  1.0
  O  O22  1  0.14544109  0.97175039  0.13867620  1.0
  O  O23  1  0.14544109  0.52824961  0.63867620  1.0
  O  O24  1  0.33804024  0.24625860  0.09300528  1.0
  O  O25  1  0.33804024  0.25374140  0.59300528  1.0
  O  O26  1  0.83804024  0.24625860  0.40699472  1.0
  O  O27  1  0.83804024  0.25374140  0.90699472  1.0
  O  O28  1  0.66195976  0.74625860  0.40699472  1.0
  O  O29  1  0.66195976  0.75374140  0.90699472  1.0
  O  O30  1  0.16195976  0.74625860  0.09300528  1.0
  O  O31  1  0.16195976  0.75374140  0.59300528  1.0
  O  O32  1  0.22358476  0.10795479  0.41537696  1.0
  O  O33  1  0.22358476  0.39204521  0.91537696  1.0
  O  O34  1  0.72358476  0.10795479  0.08462304  1.0
  O  O35  1  0.72358476  0.39204521  0.58462304  1.0
  O  O36  1  0.77641524  0.60795479  0.08462304  1.0
  O  O37  1  0.77641524  0.89204521  0.58462304  1.0
  O  O38  1  0.27641524  0.60795479  0.41537696  1.0
  O  O39  1  0.27641524  0.89204521  0.91537696  1.0
  O  O40  1  0.10821479  0.35649031  0.17445575  1.0
  O  O41  1  0.10821479  0.14350969  0.67445575  1.0
  O  O42  1  0.60821479  0.35649031  0.32554425  1.0
  O  O43  1  0.60821479  0.14350969  0.82554425  1.0
  O  O44  1  0.89178521  0.85649031  0.32554425  1.0
  O  O45  1  0.89178521  0.64350969  0.82554425  1.0
  O  O46  1  0.39178521  0.85649031  0.17445575  1.0
  O  O47  1  0.39178521  0.64350969  0.67445575  1.0
