# generated using pymatgen
data_Bi(BO2)3
_symmetry_space_group_name_H-M   'P 1'
_cell_length_a   4.46519564
_cell_length_b   6.78251298
_cell_length_c   14.20649991
_cell_angle_alpha   90.00000000
_cell_angle_beta   95.25351509
_cell_angle_gamma   90.00000000
_symmetry_Int_Tables_number   1
_chemical_formula_structural   Bi(BO2)3
_chemical_formula_sum   'Bi4 B12 O24'
_cell_volume   428.44002953
_cell_formula_units_Z   4
loop_
 _symmetry_equiv_pos_site_id
 _symmetry_equiv_pos_as_xyz
  1  'x, y, z'
loop_
 _atom_site_type_symbol
 _atom_site_label
 _atom_site_symmetry_multiplicity
 _atom_site_fract_x
 _atom_site_fract_y
 _atom_site_fract_z
 _atom_site_occupancy
  Bi  Bi0  1  0.77621890  0.29710099  0.93237769  1.0
  Bi  Bi1  1  0.77621890  0.20289901  0.43237769  1.0
  Bi  Bi2  1  0.22378110  0.79710099  0.56762231  1.0
  Bi  Bi3  1  0.22378110  0.70289901  0.06762231  1.0
  B  B4  1  0.87513383  0.41825970  0.64110135  1.0
  B  B5  1  0.87513383  0.08174030  0.14110135  1.0
  B  B6  1  0.12486617  0.91825970  0.85889865  1.0
  B  B7  1  0.12486617  0.58174030  0.35889865  1.0
  B  B8  1  0.83177829  0.68740554  0.75398440  1.0
  B  B9  1  0.83177829  0.81259446  0.25398440  1.0
  B  B10  1  0.16822171  0.18740554  0.74601560  1.0
  B  B11  1  0.16822171  0.31259446  0.24601560  1.0
  B  B12  1  0.66028664  0.75933068  0.91198813  1.0
  B  B13  1  0.66028664  0.74066932  0.41198813  1.0
  B  B14  1  0.33971336  0.25933068  0.58801187  1.0
  B  B15  1  0.33971336  0.24066932  0.08801187  1.0
  O  O16  1  0.93230878  0.31502517  0.73220722  1.0
  O  O17  1  0.93230878  0.18497483  0.23220722  1.0
  O  O18  1  0.06769122  0.81502517  0.76779278  1.0
  O  O19  1  0.06769122  0.68497483  0.26779278  1.0
  O  O20  1  0.84651891  0.93601660  0.90581600  1.0
  O  O21  1  0.84651891  0.56398340  0.40581600  1.0
  O  O22  1  0.15348109  0.43601660  0.59418400  1.0
  O  O23  1  0.15348109  0.06398340  0.09418400  1.0
  O  O24  1  0.76415776  0.63248716  0.99452868  1.0
  O  O25  1  0.76415776  0.86751284  0.49452868  1.0
  O  O26  1  0.23584224  0.13248716  0.50547132  1.0
  O  O27  1  0.23584224  0.36751284  0.00547132  1.0
  O  O28  1  0.76718905  0.61787478  0.66171685  1.0
  O  O29  1  0.76718905  0.88212522  0.16171685  1.0
  O  O30  1  0.23281095  0.11787478  0.83828315  1.0
  O  O31  1  0.23281095  0.38212522  0.33828315  1.0
  O  O32  1  0.66089680  0.63663446  0.82554267  1.0
  O  O33  1  0.66089680  0.86336554  0.32554267  1.0
  O  O34  1  0.33910320  0.13663446  0.67445733  1.0
  O  O35  1  0.33910320  0.36336554  0.17445733  1.0
  O  O36  1  0.34575442  0.81324005  0.92628903  1.0
  O  O37  1  0.34575442  0.68675995  0.42628903  1.0
  O  O38  1  0.65424558  0.31324005  0.57371097  1.0
  O  O39  1  0.65424558  0.18675995  0.07371097  1.0
