# generated using pymatgen
data_Ti2Ag(PO4)3
_symmetry_space_group_name_H-M   'P 1'
_cell_length_a   8.94849440
_cell_length_b   8.94849440
_cell_length_c   8.94849440
_cell_angle_alpha   57.63618780
_cell_angle_beta   57.63618780
_cell_angle_gamma   57.63618780
_symmetry_Int_Tables_number   1
_chemical_formula_structural   Ti2Ag(PO4)3
_chemical_formula_sum   'Ti4 Ag2 P6 O24'
_cell_volume   479.15438109
_cell_formula_units_Z   2
loop_
 _symmetry_equiv_pos_site_id
 _symmetry_equiv_pos_as_xyz
  1  'x, y, z'
loop_
 _atom_site_type_symbol
 _atom_site_label
 _atom_site_symmetry_multiplicity
 _atom_site_fract_x
 _atom_site_fract_y
 _atom_site_fract_z
 _atom_site_occupancy
  Ti  Ti0  1  0.85428435  -0.14571565  -0.14571565  1.0
  Ti  Ti1  1  0.35428435  0.35428435  0.35428435  1.0
  Ti  Ti2  1  0.64571565  0.64571565  -0.35428435  1.0
  Ti  Ti3  1  1.14571565  0.14571565  0.14571565  1.0
  Ag  Ag4  1  1.00000000  0.00000000  0.00000000  1.0
  Ag  Ag5  1  0.50000000  0.50000000  0.50000000  1.0
  P  P6  1  0.46468465  0.75000000  0.03531535  1.0
  P  P7  1  0.96468465  -0.46468465  0.25000000  1.0
  P  P8  1  0.25000000  0.96468465  -0.46468465  1.0
  P  P9  1  0.75000000  1.03531535  -0.53531535  1.0
  P  P10  1  0.53531535  0.25000000  -0.03531535  1.0
  P  P11  1  1.03531535  0.46468465  -0.25000000  1.0
  O  O12  1  0.77941608  1.00366720  -0.36355098  1.0
  O  O13  1  1.27941608  0.13644902  -0.49633280  1.0
  O  O14  1  0.86355098  0.49633280  -0.27941608  1.0
  O  O15  1  0.36355098  0.22058392  -0.00366720  1.0
  O  O16  1  0.99633280  0.36355098  -0.77941608  1.0
  O  O17  1  0.49633280  0.72058392  -0.13644902  1.0
  O  O18  1  0.22058392  0.99633280  -0.63644902  1.0
  O  O19  1  0.72058392  0.86355098  -0.50366720  1.0
  O  O20  1  0.63644902  0.77941608  0.00366720  1.0
  O  O21  1  1.13644902  -0.49633280  0.27941608  1.0
  O  O22  1  0.50366720  0.27941608  0.13644902  1.0
  O  O23  1  1.00366720  0.63644902  -0.22058392  1.0
  O  O24  1  0.71561381  0.07443928  -0.06131347  1.0
  O  O25  1  1.21561381  0.43868653  -0.42556072  1.0
  O  O26  1  0.56131347  0.42556072  -0.21561381  1.0
  O  O27  1  1.06131347  0.28438619  -0.07443928  1.0
  O  O28  1  0.92556072  0.06131347  0.28438619  1.0
  O  O29  1  0.42556072  0.78438619  -0.43868653  1.0
  O  O30  1  1.28438619  -0.07443928  0.06131347  1.0
  O  O31  1  0.78438619  0.56131347  -0.57443928  1.0
  O  O32  1  0.93868653  -0.28438619  0.07443928  1.0
  O  O33  1  0.43868653  0.57443928  0.21561381  1.0
  O  O34  1  0.57443928  1.21561381  -0.56131347  1.0
  O  O35  1  1.07443928  -0.06131347  -0.28438619  1.0
