# generated using pymatgen
data_Cr2PBrO4
_symmetry_space_group_name_H-M   'P 1'
_cell_length_a   6.44350244
_cell_length_b   11.78183216
_cell_length_c   6.34593171
_cell_angle_alpha   90.00000000
_cell_angle_beta   90.44223250
_cell_angle_gamma   90.00000000
_symmetry_Int_Tables_number   1
_chemical_formula_structural   Cr2PBrO4
_chemical_formula_sum   'Cr8 P4 Br4 O16'
_cell_volume   481.74507908
_cell_formula_units_Z   4
loop_
 _symmetry_equiv_pos_site_id
 _symmetry_equiv_pos_as_xyz
  1  'x, y, z'
loop_
 _atom_site_type_symbol
 _atom_site_label
 _atom_site_symmetry_multiplicity
 _atom_site_fract_x
 _atom_site_fract_y
 _atom_site_fract_z
 _atom_site_occupancy
  Cr  Cr0  1  0.96797297  0.60349122  0.84651137  1.0
  Cr  Cr1  1  0.96797297  0.89650878  0.34651137  1.0
  Cr  Cr2  1  0.03202703  0.10349122  0.65348863  1.0
  Cr  Cr3  1  0.03202703  0.39650878  0.15348863  1.0
  Cr  Cr4  1  0.35628238  0.88843398  0.99866696  1.0
  Cr  Cr5  1  0.35628238  0.61156602  0.49866696  1.0
  Cr  Cr6  1  0.64371762  0.38843398  0.50133304  1.0
  Cr  Cr7  1  0.64371762  0.11156602  0.00133304  1.0
  P  P8  1  0.86057800  0.87251675  0.86459008  1.0
  P  P9  1  0.86057800  0.62748325  0.36459008  1.0
  P  P10  1  0.13942200  0.37251675  0.63540992  1.0
  P  P11  1  0.13942200  0.12748325  0.13540992  1.0
  Br  Br12  1  0.37076223  0.67308131  0.95191758  1.0
  Br  Br13  1  0.37076223  0.82691869  0.45191758  1.0
  Br  Br14  1  0.62923777  0.17308131  0.54808242  1.0
  Br  Br15  1  0.62923777  0.32691869  0.04808242  1.0
  O  O16  1  0.95911159  0.38573466  0.46618834  1.0
  O  O17  1  0.95911159  0.11426534  0.96618834  1.0
  O  O18  1  0.04088841  0.88573466  0.03381166  1.0
  O  O19  1  0.04088841  0.61426534  0.53381166  1.0
  O  O20  1  0.92746505  0.93799489  0.65992609  1.0
  O  O21  1  0.92746505  0.56200511  0.15992609  1.0
  O  O22  1  0.07253495  0.43799489  0.84007391  1.0
  O  O23  1  0.07253495  0.06200511  0.34007391  1.0
  O  O24  1  0.81742691  0.74869005  0.81877637  1.0
  O  O25  1  0.81742691  0.75130995  0.31877637  1.0
  O  O26  1  0.18257309  0.24869005  0.68122363  1.0
  O  O27  1  0.18257309  0.25130995  0.18122363  1.0
  O  O28  1  0.66290345  0.93428272  0.95723746  1.0
  O  O29  1  0.66290345  0.56571728  0.45723746  1.0
  O  O30  1  0.33709655  0.43428272  0.54276254  1.0
  O  O31  1  0.33709655  0.06571728  0.04276254  1.0
