# generated using pymatgen
data_PH8N3O2
_symmetry_space_group_name_H-M   'P 1'
_cell_length_a   6.83015196
_cell_length_b   8.50452031
_cell_length_c   9.28392396
_cell_angle_alpha   90.00000000
_cell_angle_beta   111.17176979
_cell_angle_gamma   90.00000000
_symmetry_Int_Tables_number   1
_chemical_formula_structural   PH8N3O2
_chemical_formula_sum   'P4 H32 N12 O8'
_cell_volume   502.87665187
_cell_formula_units_Z   4
loop_
 _symmetry_equiv_pos_site_id
 _symmetry_equiv_pos_as_xyz
  1  'x, y, z'
loop_
 _atom_site_type_symbol
 _atom_site_label
 _atom_site_symmetry_multiplicity
 _atom_site_fract_x
 _atom_site_fract_y
 _atom_site_fract_z
 _atom_site_occupancy
  P  P0  1  0.69551680  0.83240348  0.92294468  1.0
  P  P1  1  0.69551680  0.66759652  0.42294468  1.0
  P  P2  1  0.30448320  0.33240348  0.57705532  1.0
  P  P3  1  0.30448320  0.16759652  0.07705532  1.0
  H  H4  1  0.90580038  0.32874032  0.99729405  1.0
  H  H5  1  0.90580038  0.17125968  0.49729405  1.0
  H  H6  1  0.09419962  0.82874032  0.50270595  1.0
  H  H7  1  0.09419962  0.67125968  0.00270595  1.0
  H  H8  1  0.88874531  1.00070335  0.83105041  1.0
  H  H9  1  0.88874531  0.49929665  0.33105041  1.0
  H  H10  1  0.11125469  0.50070335  0.66894959  1.0
  H  H11  1  0.11125469  -0.00070335  0.16894959  1.0
  H  H12  1  0.79966778  0.65786313  0.68946068  1.0
  H  H13  1  0.79966778  0.84213687  0.18946068  1.0
  H  H14  1  0.20033222  0.15786313  0.81053932  1.0
  H  H15  1  0.20033222  0.34213687  0.31053932  1.0
  H  H16  1  0.75260390  0.48916513  0.96126656  1.0
  H  H17  1  0.75260390  0.01083487  0.46126656  1.0
  H  H18  1  0.24739610  0.98916513  0.53873344  1.0
  H  H19  1  0.24739610  0.51083487  0.03873344  1.0
  H  H20  1  0.70994617  0.48413144  0.60852724  1.0
  H  H21  1  0.70994617  1.01586856  0.10852724  1.0
  H  H22  1  0.29005383  -0.01586856  0.89147276  1.0
  H  H23  1  0.29005383  0.51586856  0.39147276  1.0
  H  H24  1  0.67329808  0.33438681  0.83999795  1.0
  H  H25  1  0.67329808  0.16561319  0.33999795  1.0
  H  H26  1  0.32670192  0.83438681  0.66000205  1.0
  H  H27  1  0.32670192  0.66561319  0.16000205  1.0
  H  H28  1  0.36697309  0.55311458  0.73529385  1.0
  H  H29  1  0.36697309  0.94688542  0.23529385  1.0
  H  H30  1  0.63302691  0.05311458  0.76470615  1.0
  H  H31  1  0.63302691  0.44688542  0.26470615  1.0
  H  H32  1  0.33235417  0.68263063  0.97846220  1.0
  H  H33  1  0.33235417  0.81736937  0.47846220  1.0
  H  H34  1  0.66764583  0.18263063  0.52153780  1.0
  H  H35  1  0.66764583  0.31736937  0.02153780  1.0
  N  N36  1  0.79022446  0.58407256  0.59967265  1.0
  N  N37  1  0.79022446  0.91592744  0.09967265  1.0
  N  N38  1  0.20977554  0.08407256  0.90032735  1.0
  N  N39  1  0.20977554  0.41592744  0.40032735  1.0
  N  N40  1  0.74784771  0.36634011  0.95595103  1.0
  N  N41  1  0.74784771  0.13365989  0.45595103  1.0
  N  N42  1  0.25215229  0.86634011  0.54404897  1.0
  N  N43  1  0.25215229  0.63365989  0.04404897  1.0
  N  N44  1  0.73618506  0.96177195  0.80065288  1.0
  N  N45  1  0.73618506  0.53822805  0.30065288  1.0
  N  N46  1  0.26381494  0.46177195  0.69934712  1.0
  N  N47  1  0.26381494  0.03822805  0.19934712  1.0
  O  O48  1  0.82899413  0.68623160  0.93001969  1.0
  O  O49  1  0.82899413  0.81376840  0.43001969  1.0
  O  O50  1  0.17100587  0.18623160  0.56998031  1.0
  O  O51  1  0.17100587  0.31376840  0.06998031  1.0
  O  O52  1  0.45688526  0.80122605  0.86449025  1.0
  O  O53  1  0.45688526  0.69877395  0.36449025  1.0
  O  O54  1  0.54311474  0.30122605  0.63550975  1.0
  O  O55  1  0.54311474  0.19877395  0.13550975  1.0
