# generated using pymatgen
data_Ba3Fe3Si2SbO14
_symmetry_space_group_name_H-M   'P 1'
_cell_length_a   8.66465515
_cell_length_b   8.66465515
_cell_length_c   5.30909329
_cell_angle_alpha   90.00000000
_cell_angle_beta   90.00000000
_cell_angle_gamma   120.00000000
_symmetry_Int_Tables_number   1
_chemical_formula_structural   Ba3Fe3Si2SbO14
_chemical_formula_sum   'Ba3 Fe3 Si2 Sb1 O14'
_cell_volume   345.18630265
_cell_formula_units_Z   1
loop_
 _symmetry_equiv_pos_site_id
 _symmetry_equiv_pos_as_xyz
  1  'x, y, z'
loop_
 _atom_site_type_symbol
 _atom_site_label
 _atom_site_symmetry_multiplicity
 _atom_site_fract_x
 _atom_site_fract_y
 _atom_site_fract_z
 _atom_site_occupancy
  Ba  Ba0  1  0.43430325  0.43430325  0.00000000  1.0
  Ba  Ba1  1  0.00000000  0.56569675  0.00000000  1.0
  Ba  Ba2  1  0.56569675  0.00000000  0.00000000  1.0
  Sb  Sb3  1  0.00000000  0.00000000  0.00000000  1.0
  Si  Si4  1  0.33333333  0.66666667  0.51991543  1.0
  Si  Si5  1  0.66666667  0.33333333  0.48008457  1.0
  O  O6  1  0.33333333  0.66666667  0.21614550  1.0
  O  O7  1  0.66666667  0.33333333  0.78385450  1.0
  O  O8  1  0.10365929  0.88531045  0.22242094  1.0
  O  O9  1  0.88531045  0.10365929  0.77757906  1.0
  O  O10  1  0.78165116  0.89634071  0.22242094  1.0
  O  O11  1  0.11468955  0.21834884  0.22242094  1.0
  O  O12  1  0.89634071  0.78165116  0.77757906  1.0
  O  O13  1  0.21834884  0.11468955  0.77757906  1.0
  O  O14  1  0.70137131  0.52453300  0.35499713  1.0
  O  O15  1  0.52453300  0.70137131  0.64500287  1.0
  O  O16  1  0.82316169  0.29862869  0.35499713  1.0
  O  O17  1  0.47546700  0.17683831  0.35499713  1.0
  O  O18  1  0.29862869  0.82316169  0.64500287  1.0
  O  O19  1  0.17683831  0.47546700  0.64500287  1.0
  Fe  Fe20  1  0.74785473  0.74785473  0.50000000  1.0
  Fe  Fe21  1  0.00000000  0.25214527  0.50000000  1.0
  Fe  Fe22  1  0.25214527  0.00000000  0.50000000  1.0
