# generated using pymatgen
data_Zr3O
_symmetry_space_group_name_H-M   'P 1'
_cell_length_a   6.14865493
_cell_length_b   6.14865493
_cell_length_c   6.14865493
_cell_angle_alpha   54.77775420
_cell_angle_beta   54.77775420
_cell_angle_gamma   54.77775420
_symmetry_Int_Tables_number   1
_chemical_formula_structural   Zr3O
_chemical_formula_sum   'Zr6 O2'
_cell_volume   144.38103360
_cell_formula_units_Z   2
loop_
 _symmetry_equiv_pos_site_id
 _symmetry_equiv_pos_as_xyz
  1  'x, y, z'
loop_
 _atom_site_type_symbol
 _atom_site_label
 _atom_site_symmetry_multiplicity
 _atom_site_fract_x
 _atom_site_fract_y
 _atom_site_fract_z
 _atom_site_occupancy
  Zr  Zr0  1  1.40887962  -0.25000000  0.09112038  1.0
  Zr  Zr1  1  0.90887962  -0.40887962  0.25000000  1.0
  Zr  Zr2  1  0.25000000  0.90887962  -0.40887962  1.0
  Zr  Zr3  1  0.75000000  0.09112038  0.40887962  1.0
  Zr  Zr4  1  0.59112038  0.25000000  -0.09112038  1.0
  Zr  Zr5  1  1.09112038  0.40887962  -0.25000000  1.0
  O  O6  1  1.00000000  0.00000000  0.00000000  1.0
  O  O7  1  0.50000000  0.50000000  0.50000000  1.0
