# generated using pymatgen
data_NiMoO4
_symmetry_space_group_name_H-M   'P 1'
_cell_length_a   4.58249832
_cell_length_b   5.70713699
_cell_length_c   4.91001528
_cell_angle_alpha   90.00000000
_cell_angle_beta   89.39628546
_cell_angle_gamma   90.00000000
_symmetry_Int_Tables_number   1
_chemical_formula_structural   NiMoO4
_chemical_formula_sum   'Ni2 Mo2 O8'
_cell_volume   128.40423428
_cell_formula_units_Z   2
loop_
 _symmetry_equiv_pos_site_id
 _symmetry_equiv_pos_as_xyz
  1  'x, y, z'
loop_
 _atom_site_type_symbol
 _atom_site_label
 _atom_site_symmetry_multiplicity
 _atom_site_fract_x
 _atom_site_fract_y
 _atom_site_fract_z
 _atom_site_occupancy
  Ni  Ni0  1  0.00000000  0.84364002  0.25000000  1.0
  Ni  Ni1  1  0.00000000  0.15635998  0.75000000  1.0
  Mo  Mo2  1  0.50000000  0.31602903  0.25000000  1.0
  Mo  Mo3  1  0.50000000  0.68397097  0.75000000  1.0
  O  O4  1  0.76096846  0.87879977  0.90837195  1.0
  O  O5  1  0.76096846  0.12120023  0.40837195  1.0
  O  O6  1  0.23903154  0.87879977  0.59162805  1.0
  O  O7  1  0.23903154  0.12120023  0.09162805  1.0
  O  O8  1  0.72238124  0.61060156  0.43116723  1.0
  O  O9  1  0.72238124  0.38939844  0.93116723  1.0
  O  O10  1  0.27761876  0.61060156  0.06883277  1.0
  O  O11  1  0.27761876  0.38939844  0.56883277  1.0
