# generated using pymatgen
data_SrFe3(PO4)3
_symmetry_space_group_name_H-M   'P 1'
_cell_length_a   9.24573372
_cell_length_b   9.24573372
_cell_length_c   9.24573372
_cell_angle_alpha   85.81751665
_cell_angle_beta   108.73522924
_cell_angle_gamma   138.74114992
_symmetry_Int_Tables_number   1
_chemical_formula_structural   SrFe3(PO4)3
_chemical_formula_sum   'Sr2 Fe6 P6 O24'
_cell_volume   475.28387008
_cell_formula_units_Z   2
loop_
 _symmetry_equiv_pos_site_id
 _symmetry_equiv_pos_as_xyz
  1  'x, y, z'
loop_
 _atom_site_type_symbol
 _atom_site_label
 _atom_site_symmetry_multiplicity
 _atom_site_fract_x
 _atom_site_fract_y
 _atom_site_fract_z
 _atom_site_occupancy
  Fe  Fe0  1  1.00000000  1.00000000  0.50000000  1.0
  Fe  Fe1  1  1.00000000  0.50000000  1.00000000  1.0
  Fe  Fe2  1  -0.00000000  0.11659383  0.11659383  1.0
  Fe  Fe3  1  0.50000000  0.11659383  0.61659383  1.0
  Fe  Fe4  1  0.50000000  0.88340617  0.38340617  1.0
  Fe  Fe5  1  1.00000000  0.88340617  0.88340617  1.0
  Sr  Sr6  1  1.59731342  1.34731342  1.25000000  1.0
  Sr  Sr7  1  1.40268658  0.65268658  0.75000000  1.0
  P  P8  1  1.00000000  0.67841490  0.67841490  1.0
  P  P9  1  0.50000000  0.67841490  0.17841490  1.0
  P  P10  1  0.50000000  0.32158510  0.82158510  1.0
  P  P11  1  -0.00000000  0.32158510  0.32158510  1.0
  P  P12  1  1.08515721  0.83515721  1.25000000  1.0
  P  P13  1  0.91484279  0.16484279  0.75000000  1.0
  O  O14  1  0.35057280  0.42684716  0.14990657  1.0
  O  O15  1  1.22305941  0.79933377  0.64990657  1.0
  O  O16  1  0.22305941  0.57315284  0.42372564  1.0
  O  O17  1  1.35057280  1.20066623  0.92372564  1.0
  O  O18  1  0.77694059  0.42684716  0.57627436  1.0
  O  O19  1  1.64942720  0.79933377  1.07627436  1.0
  O  O20  1  0.64942720  0.57315284  0.85009343  1.0
  O  O21  1  1.77694059  1.20066623  1.35009343  1.0
  O  O22  1  1.12012746  0.98544779  1.13467967  1.0
  O  O23  1  0.64923188  0.01455221  0.63467967  1.0
  O  O24  1  1.35076812  0.98544779  1.36532033  1.0
  O  O25  1  0.87987254  0.01455221  0.86532033  1.0
  O  O26  1  1.05338256  0.39547393  0.84209138  1.0
  O  O27  1  0.94661744  0.78870882  1.34209138  1.0
  O  O28  1  0.94661744  0.60452607  1.15790862  1.0
  O  O29  1  1.05338256  1.21129118  1.65790862  1.0
  O  O30  1  1.06761595  1.20488262  0.35566029  1.0
  O  O31  1  0.65077767  0.28804435  0.85566029  1.0
  O  O32  1  0.65077767  0.79511738  0.36273332  1.0
  O  O33  1  1.06761595  0.71195565  0.86273332  1.0
  O  O34  1  1.34922233  1.20488262  0.63726668  1.0
  O  O35  1  0.93238405  0.28804435  1.13726668  1.0
  O  O36  1  0.93238405  0.79511738  0.64433971  1.0
  O  O37  1  1.34922233  0.71195565  1.14433971  1.0
