# generated using pymatgen
data_NaH2ClO5
_symmetry_space_group_name_H-M   'P 1'
_cell_length_a   8.47882478
_cell_length_b   8.47882478
_cell_length_c   11.18581892
_cell_angle_alpha   71.30203182
_cell_angle_beta   108.69796818
_cell_angle_gamma   141.79075059
_symmetry_Int_Tables_number   1
_chemical_formula_structural   NaH2ClO5
_chemical_formula_sum   'Na4 H8 Cl4 O20'
_cell_volume   467.89718071
_cell_formula_units_Z   4
loop_
 _symmetry_equiv_pos_site_id
 _symmetry_equiv_pos_as_xyz
  1  'x, y, z'
loop_
 _atom_site_type_symbol
 _atom_site_label
 _atom_site_symmetry_multiplicity
 _atom_site_fract_x
 _atom_site_fract_y
 _atom_site_fract_z
 _atom_site_occupancy
  Na  Na0  1  0.47389908  0.47389908  0.75000000  1.0
  Na  Na1  1  0.52610092  0.52610092  0.25000000  1.0
  Na  Na2  1  0.50000000  0.00000000  0.00000000  1.0
  Na  Na3  1  1.00000000  0.50000000  0.50000000  1.0
  H  H4  1  0.54663515  -0.15797975  0.58578911  1.0
  H  H5  1  1.15797975  0.45336485  0.08578911  1.0
  H  H6  1  0.84202025  0.54663515  0.91421089  1.0
  H  H7  1  0.45336485  0.15797975  0.41421089  1.0
  H  H8  1  1.29871049  0.51945189  0.98615418  1.0
  H  H9  1  0.48054811  -0.29871049  0.48615418  1.0
  H  H10  1  0.51945189  0.29871049  0.51384582  1.0
  H  H11  1  0.70128951  0.48054811  0.01384582  1.0
  Cl  Cl12  1  0.85772940  0.11379638  0.80536538  1.0
  Cl  Cl13  1  0.88620362  0.14227060  0.30536538  1.0
  Cl  Cl14  1  1.11379638  0.85772940  0.69463462  1.0
  Cl  Cl15  1  0.14227060  -0.11379638  0.19463462  1.0
  O  O16  1  0.70881292  -0.15218946  0.85117672  1.0
  O  O17  1  1.15218946  0.29118708  0.35117672  1.0
  O  O18  1  0.84781054  0.70881292  0.64882328  1.0
  O  O19  1  0.29118708  0.15218946  0.14882328  1.0
  O  O20  1  0.41429080  -0.32881618  0.55788852  1.0
  O  O21  1  1.32881618  0.58570920  0.05788852  1.0
  O  O22  1  0.67118382  0.41429080  0.94211148  1.0
  O  O23  1  0.58570920  0.32881618  0.44211148  1.0
  O  O24  1  0.82068297  0.14577108  0.66526511  1.0
  O  O25  1  0.85422892  0.17931703  0.16526511  1.0
  O  O26  1  1.14577108  0.82068297  0.83473489  1.0
  O  O27  1  0.17931703  -0.14577108  0.33473489  1.0
  O  O28  1  0.77750699  0.18012331  0.85452068  1.0
  O  O29  1  0.81987669  0.22249301  0.35452068  1.0
  O  O30  1  1.18012331  0.77750699  0.64547932  1.0
  O  O31  1  0.22249301  -0.18012331  0.14547932  1.0
  O  O32  1  0.28587779  0.13224240  0.65122270  1.0
  O  O33  1  0.86775760  0.71412221  0.15122270  1.0
  O  O34  1  1.13224240  0.28587779  0.84877730  1.0
  O  O35  1  0.71412221  -0.13224240  0.34877730  1.0
