# generated using pymatgen
data_V4S9Br4
_symmetry_space_group_name_H-M   'P 1'
_cell_length_a   10.98383589
_cell_length_b   10.98383589
_cell_length_c   7.45386439
_cell_angle_alpha   90.00000000
_cell_angle_beta   90.00000000
_cell_angle_gamma   90.00000000
_symmetry_Int_Tables_number   1
_chemical_formula_structural   V4S9Br4
_chemical_formula_sum   'V8 S18 Br8'
_cell_volume   899.26886661
_cell_formula_units_Z   2
loop_
 _symmetry_equiv_pos_site_id
 _symmetry_equiv_pos_as_xyz
  1  'x, y, z'
loop_
 _atom_site_type_symbol
 _atom_site_label
 _atom_site_symmetry_multiplicity
 _atom_site_fract_x
 _atom_site_fract_y
 _atom_site_fract_z
 _atom_site_occupancy
  V  V0  1  0.86484606  0.63515394  0.38057857  1.0
  V  V1  1  0.13515394  0.63515394  0.38057857  1.0
  V  V2  1  0.86484606  0.36484606  0.38057857  1.0
  V  V3  1  0.13515394  0.36484606  0.38057857  1.0
  V  V4  1  0.63515394  0.86484606  0.61942143  1.0
  V  V5  1  0.36484606  0.86484606  0.61942143  1.0
  V  V6  1  0.63515394  0.13515394  0.61942143  1.0
  V  V7  1  0.36484606  0.13515394  0.61942143  1.0
  S  S8  1  0.00000000  0.80527223  0.39387687  1.0
  S  S9  1  -0.00000000  0.19472777  0.39387687  1.0
  S  S10  1  0.30527223  0.50000000  0.39387687  1.0
  S  S11  1  0.69472777  0.50000000  0.39387687  1.0
  S  S12  1  0.50000000  0.69472777  0.60612313  1.0
  S  S13  1  0.50000000  0.30527223  0.60612313  1.0
  S  S14  1  0.19472777  -0.00000000  0.60612313  1.0
  S  S15  1  0.80527223  0.00000000  0.60612313  1.0
  S  S16  1  -0.00000000  0.71130130  0.15872021  1.0
  S  S17  1  0.00000000  0.28869870  0.15872021  1.0
  S  S18  1  0.21130130  0.50000000  0.15872021  1.0
  S  S19  1  0.78869870  0.50000000  0.15872021  1.0
  S  S20  1  0.50000000  0.78869870  0.84127979  1.0
  S  S21  1  0.50000000  0.21130130  0.84127979  1.0
  S  S22  1  0.28869870  0.00000000  0.84127979  1.0
  S  S23  1  0.71130130  -0.00000000  0.84127979  1.0
  S  S24  1  0.00000000  0.50000000  0.52490318  1.0
  S  S25  1  0.50000000  0.00000000  0.47509682  1.0
  Br  Br26  1  0.80102558  0.69897442  0.70751038  1.0
  Br  Br27  1  0.19897442  0.69897442  0.70751038  1.0
  Br  Br28  1  0.80102558  0.30102558  0.70751038  1.0
  Br  Br29  1  0.19897442  0.30102558  0.70751038  1.0
  Br  Br30  1  0.69897442  0.80102558  0.29248962  1.0
  Br  Br31  1  0.30102558  0.80102558  0.29248962  1.0
  Br  Br32  1  0.69897442  0.19897442  0.29248962  1.0
  Br  Br33  1  0.30102558  0.19897442  0.29248962  1.0
