# generated using pymatgen
data_Ca4MgB4H6(CO9)2
_symmetry_space_group_name_H-M   'P 1'
_cell_length_a   9.88896123
_cell_length_b   9.88896123
_cell_length_c   4.51436479
_cell_angle_alpha   79.91369534
_cell_angle_beta   100.08630466
_cell_angle_gamma   128.14049927
_symmetry_Int_Tables_number   1
_chemical_formula_structural   Ca4MgB4H6(CO9)2
_chemical_formula_sum   'Ca4 Mg1 B4 H6 C2 O18'
_cell_volume   340.56591487
_cell_formula_units_Z   1
loop_
 _symmetry_equiv_pos_site_id
 _symmetry_equiv_pos_as_xyz
  1  'x, y, z'
loop_
 _atom_site_type_symbol
 _atom_site_label
 _atom_site_symmetry_multiplicity
 _atom_site_fract_x
 _atom_site_fract_y
 _atom_site_fract_z
 _atom_site_occupancy
  Ca  Ca0  1  0.92466447  -0.38688497  0.14728556  1.0
  Ca  Ca1  1  1.38688497  0.07533553  0.14728556  1.0
  Ca  Ca2  1  1.61311503  -0.07533553  0.85271444  1.0
  Ca  Ca3  1  1.07533553  -0.61311503  0.85271444  1.0
  Mg  Mg4  1  -0.00000000  -0.00000000  0.00000000  1.0
  B  B5  1  1.09658718  -0.09658718  0.61333528  1.0
  B  B6  1  0.90341282  -0.90341282  0.38666472  1.0
  B  B7  1  0.77303980  0.77303980  0.50000000  1.0
  B  B8  1  0.22696020  0.22696020  0.50000000  1.0
  H  H9  1  0.61430057  -0.40636969  0.21539361  1.0
  H  H10  1  1.40636969  0.38569943  0.21539361  1.0
  H  H11  1  1.59363031  -0.38569943  0.78460639  1.0
  H  H12  1  1.38569943  -0.59363031  0.78460639  1.0
  H  H13  1  1.21363527  -0.21363527  0.68625919  1.0
  H  H14  1  0.78636473  -0.78636473  0.31374081  1.0
  C  C15  1  1.30551257  -0.30551257  0.24366787  1.0
  C  C16  1  0.69448743  -0.69448743  0.75633213  1.0
  O  O17  1  0.72179622  -0.37036262  0.33108616  1.0
  O  O18  1  1.37036262  0.27820378  0.33108616  1.0
  O  O19  1  1.62963738  -0.27820378  0.66891384  1.0
  O  O20  1  1.27820378  -0.62963738  0.66891384  1.0
  O  O21  1  1.15268044  -0.41562261  0.34268270  1.0
  O  O22  1  1.41562261  -0.15268044  0.34268270  1.0
  O  O23  1  1.58437739  0.15268044  0.65731730  1.0
  O  O24  1  0.84731956  -0.58437739  0.65731730  1.0
  O  O25  1  1.08186457  -0.80748014  0.28167817  1.0
  O  O26  1  1.80748014  -0.08186457  0.28167817  1.0
  O  O27  1  1.19251986  0.08186457  0.71832183  1.0
  O  O28  1  0.91813543  -0.19251986  0.71832183  1.0
  O  O29  1  1.10083861  -0.10083861  0.30555001  1.0
  O  O30  1  0.89916139  -0.89916139  0.69444999  1.0
  O  O31  1  1.17533680  -0.17533680  0.81446047  1.0
  O  O32  1  0.82466320  -0.82466320  0.18553953  1.0
  O  O33  1  1.34618644  -0.34618644  0.03487152  1.0
  O  O34  1  0.65381356  -0.65381356  0.96512848  1.0
