# generated using pymatgen
data_CeP2H2CO6
_symmetry_space_group_name_H-M   'P 1'
_cell_length_a   8.16058606
_cell_length_b   8.16058606
_cell_length_c   5.40426152
_cell_angle_alpha   78.22252572
_cell_angle_beta   101.77747428
_cell_angle_gamma   63.29944754
_symmetry_Int_Tables_number   1
_chemical_formula_structural   CeP2H2CO6
_chemical_formula_sum   'Ce2 P4 H4 C2 O12'
_cell_volume   296.19879575
_cell_formula_units_Z   2
loop_
 _symmetry_equiv_pos_site_id
 _symmetry_equiv_pos_as_xyz
  1  'x, y, z'
loop_
 _atom_site_type_symbol
 _atom_site_label
 _atom_site_symmetry_multiplicity
 _atom_site_fract_x
 _atom_site_fract_y
 _atom_site_fract_z
 _atom_site_occupancy
  Ce  Ce0  1  1.26648380  0.26648380  0.50000000  1.0
  Ce  Ce1  1  0.73351620  0.73351620  0.50000000  1.0
  P  P2  1  0.86596785  0.36536080  0.13160104  1.0
  P  P3  1  1.63463920  0.13403215  0.13160104  1.0
  P  P4  1  1.13403215  0.63463920  0.86839896  1.0
  P  P5  1  1.36536080  -0.13403215  0.86839896  1.0
  H  H6  1  0.80912515  -0.80912515  0.47869521  1.0
  H  H7  1  0.19087485  -0.19087485  0.52130479  1.0
  H  H8  1  0.59316572  -0.59316572  0.25778983  1.0
  H  H9  1  0.40683428  -0.40683428  0.74221017  1.0
  C  C10  1  0.72350382  -0.72350382  0.26482037  1.0
  C  C11  1  0.27649618  -0.27649618  0.73517963  1.0
  O  O12  1  0.88794100  0.49574076  0.29655608  1.0
  O  O13  1  1.50425924  0.11205900  0.29655608  1.0
  O  O14  1  1.11205900  0.50425924  0.70344392  1.0
  O  O15  1  1.49574076  -0.11205900  0.70344392  1.0
  O  O16  1  1.07925867  0.19842863  0.20721952  1.0
  O  O17  1  1.80157137  -0.07925867  0.20721952  1.0
  O  O18  1  0.92074133  0.80157137  0.79278048  1.0
  O  O19  1  1.19842863  0.07925867  0.79278048  1.0
  O  O20  1  0.76322485  0.47832981  0.82759124  1.0
  O  O21  1  1.52167019  0.23677515  0.82759124  1.0
  O  O22  1  1.23677515  0.52167019  0.17240876  1.0
  O  O23  1  1.47832981  -0.23677515  0.17240876  1.0
