# generated using pymatgen
data_LuAl7Au3
_symmetry_space_group_name_H-M   'P 1'
_cell_length_a   8.41668206
_cell_length_b   8.41668206
_cell_length_c   8.41668206
_cell_angle_alpha   57.22450742
_cell_angle_beta   57.22450742
_cell_angle_gamma   57.22450742
_symmetry_Int_Tables_number   1
_chemical_formula_structural   LuAl7Au3
_chemical_formula_sum   'Lu2 Al14 Au6'
_cell_volume   394.65584569
_cell_formula_units_Z   2
loop_
 _symmetry_equiv_pos_site_id
 _symmetry_equiv_pos_as_xyz
  1  'x, y, z'
loop_
 _atom_site_type_symbol
 _atom_site_label
 _atom_site_symmetry_multiplicity
 _atom_site_fract_x
 _atom_site_fract_y
 _atom_site_fract_z
 _atom_site_occupancy
  Lu  Lu0  1  1.00000000  -0.00000000  -0.00000000  1.0
  Lu  Lu1  1  0.50000000  0.50000000  0.50000000  1.0
  Al  Al2  1  0.85290717  0.06951195  -0.33309226  1.0
  Al  Al3  1  1.35290717  0.16690774  -0.43048805  1.0
  Al  Al4  1  0.83309226  0.43048805  -0.35290717  1.0
  Al  Al5  1  1.33309226  0.14709283  -0.06951195  1.0
  Al  Al6  1  0.93048805  0.33309226  0.14709283  1.0
  Al  Al7  1  0.43048805  0.64709283  -0.16690774  1.0
  Al  Al8  1  1.14709283  -0.06951195  0.33309226  1.0
  Al  Al9  1  0.64709283  0.83309226  -0.56951195  1.0
  Al  Al10  1  0.66690774  -0.14709283  0.06951195  1.0
  Al  Al11  1  1.16690774  -0.43048805  0.35290717  1.0
  Al  Al12  1  0.56951195  0.35290717  0.16690774  1.0
  Al  Al13  1  1.06951195  -0.33309226  -0.14709283  1.0
  Al  Al14  1  0.75000000  0.75000000  -0.25000000  1.0
  Al  Al15  1  0.25000000  0.25000000  0.25000000  1.0
  Au  Au16  1  0.42449134  0.75000000  0.07550866  1.0
  Au  Au17  1  0.92449134  -0.42449134  0.25000000  1.0
  Au  Au18  1  0.25000000  0.92449134  -0.42449134  1.0
  Au  Au19  1  0.75000000  1.07550866  -0.57550866  1.0
  Au  Au20  1  0.57550866  0.25000000  -0.07550866  1.0
  Au  Au21  1  1.07550866  0.42449134  -0.25000000  1.0
