# generated using pymatgen
data_GdAu6
_symmetry_space_group_name_H-M   'P 1'
_cell_length_a   10.51304412
_cell_length_b   10.51304412
_cell_length_c   9.85711717
_cell_angle_alpha   90.00000000
_cell_angle_beta   90.00000000
_cell_angle_gamma   90.00000000
_symmetry_Int_Tables_number   1
_chemical_formula_structural   GdAu6
_chemical_formula_sum   'Gd8 Au48'
_cell_volume   1089.44897117
_cell_formula_units_Z   8
loop_
 _symmetry_equiv_pos_site_id
 _symmetry_equiv_pos_as_xyz
  1  'x, y, z'
loop_
 _atom_site_type_symbol
 _atom_site_label
 _atom_site_symmetry_multiplicity
 _atom_site_fract_x
 _atom_site_fract_y
 _atom_site_fract_z
 _atom_site_occupancy
  Gd  Gd0  1  0.82472656  0.32472656  0.03830134  1.0
  Gd  Gd1  1  0.82472656  0.67527344  0.53830134  1.0
  Gd  Gd2  1  0.17527344  0.32472656  0.53830134  1.0
  Gd  Gd3  1  0.17527344  0.67527344  0.03830134  1.0
  Gd  Gd4  1  0.67527344  0.17527344  0.46169866  1.0
  Gd  Gd5  1  0.67527344  0.82472656  0.96169866  1.0
  Gd  Gd6  1  0.32472656  0.17527344  0.96169866  1.0
  Gd  Gd7  1  0.32472656  0.82472656  0.46169866  1.0
  Au  Au8  1  0.76317273  0.93049345  0.67175763  1.0
  Au  Au9  1  0.76317273  0.06950655  0.17175763  1.0
  Au  Au10  1  0.23682727  0.93049345  0.17175763  1.0
  Au  Au11  1  0.23682727  0.06950655  0.67175763  1.0
  Au  Au12  1  0.43049345  0.26317273  0.67175763  1.0
  Au  Au13  1  0.56950655  0.26317273  0.17175763  1.0
  Au  Au14  1  0.43049345  0.73682727  0.17175763  1.0
  Au  Au15  1  0.56950655  0.73682727  0.67175763  1.0
  Au  Au16  1  0.73682727  0.56950655  0.82824237  1.0
  Au  Au17  1  0.73682727  0.43049345  0.32824237  1.0
  Au  Au18  1  0.26317273  0.56950655  0.32824237  1.0
  Au  Au19  1  0.26317273  0.43049345  0.82824237  1.0
  Au  Au20  1  0.06950655  0.23682727  0.82824237  1.0
  Au  Au21  1  0.93049345  0.23682727  0.32824237  1.0
  Au  Au22  1  0.06950655  0.76317273  0.32824237  1.0
  Au  Au23  1  0.93049345  0.76317273  0.82824237  1.0
  Au  Au24  1  0.05171867  0.87356997  0.60505404  1.0
  Au  Au25  1  0.05171867  0.12643003  0.10505404  1.0
  Au  Au26  1  0.94828133  0.87356997  0.10505404  1.0
  Au  Au27  1  0.94828133  0.12643003  0.60505404  1.0
  Au  Au28  1  0.37356997  0.55171867  0.60505404  1.0
  Au  Au29  1  0.62643003  0.55171867  0.10505404  1.0
  Au  Au30  1  0.37356997  0.44828133  0.10505404  1.0
  Au  Au31  1  0.62643003  0.44828133  0.60505404  1.0
  Au  Au32  1  0.44828133  0.62643003  0.89494596  1.0
  Au  Au33  1  0.44828133  0.37356997  0.39494596  1.0
  Au  Au34  1  0.55171867  0.62643003  0.39494596  1.0
  Au  Au35  1  0.55171867  0.37356997  0.89494596  1.0
  Au  Au36  1  0.12643003  0.94828133  0.89494596  1.0
  Au  Au37  1  0.87356997  0.94828133  0.39494596  1.0
  Au  Au38  1  0.12643003  0.05171867  0.39494596  1.0
  Au  Au39  1  0.87356997  0.05171867  0.89494596  1.0
  Au  Au40  1  0.89699508  0.39699508  0.56990517  1.0
  Au  Au41  1  0.89699508  0.60300492  0.06990517  1.0
  Au  Au42  1  0.10300492  0.39699508  0.06990517  1.0
  Au  Au43  1  0.10300492  0.60300492  0.56990517  1.0
  Au  Au44  1  0.60300492  0.10300492  0.93009483  1.0
  Au  Au45  1  0.60300492  0.89699508  0.43009483  1.0
  Au  Au46  1  0.39699508  0.10300492  0.43009483  1.0
  Au  Au47  1  0.39699508  0.89699508  0.93009483  1.0
  Au  Au48  1  0.00000000  0.50000000  0.31529722  1.0
  Au  Au49  1  0.00000000  0.50000000  0.81529722  1.0
  Au  Au50  1  0.50000000  0.00000000  0.18470278  1.0
  Au  Au51  1  0.50000000  0.00000000  0.68470278  1.0
  Au  Au52  1  0.75000000  0.25000000  0.75000000  1.0
  Au  Au53  1  0.75000000  0.75000000  0.25000000  1.0
  Au  Au54  1  0.25000000  0.25000000  0.25000000  1.0
  Au  Au55  1  0.25000000  0.75000000  0.75000000  1.0
