# generated using pymatgen
data_TaSbO4
_symmetry_space_group_name_H-M   'P 1'
_cell_length_a   6.22195885
_cell_length_b   10.40522536
_cell_length_c   6.52148880
_cell_angle_alpha   90.00000000
_cell_angle_beta   90.00000000
_cell_angle_gamma   90.00000000
_symmetry_Int_Tables_number   1
_chemical_formula_structural   TaSbO4
_chemical_formula_sum   'Ta4 Sb4 O16'
_cell_volume   422.20695047
_cell_formula_units_Z   4
loop_
 _symmetry_equiv_pos_site_id
 _symmetry_equiv_pos_as_xyz
  1  'x, y, z'
loop_
 _atom_site_type_symbol
 _atom_site_label
 _atom_site_symmetry_multiplicity
 _atom_site_fract_x
 _atom_site_fract_y
 _atom_site_fract_z
 _atom_site_occupancy
  Ta  Ta0  1  0.75000000  0.50000000  0.00704119  1.0
  Ta  Ta1  1  0.75000000  0.00000000  0.49295881  1.0
  Ta  Ta2  1  0.25000000  0.00000000  0.50704119  1.0
  Ta  Ta3  1  0.25000000  0.50000000  0.99295881  1.0
  Sb  Sb4  1  0.47782642  0.75000000  0.75000000  1.0
  Sb  Sb5  1  1.02217358  0.25000000  0.75000000  1.0
  Sb  Sb6  1  0.52217358  0.25000000  0.25000000  1.0
  Sb  Sb7  1  -0.02217358  0.75000000  0.25000000  1.0
  O  O8  1  0.74426016  0.68847837  0.05249843  1.0
  O  O9  1  0.75573984  0.18847837  0.44750157  1.0
  O  O10  1  0.25573984  0.18847837  0.55249843  1.0
  O  O11  1  0.24426016  0.68847837  0.94750157  1.0
  O  O12  1  0.51932412  0.51954632  0.80181110  1.0
  O  O13  1  -0.01932412  0.01954632  0.69818890  1.0
  O  O14  1  0.48067588  0.01954632  0.30181110  1.0
  O  O15  1  0.01932412  0.51954632  0.19818890  1.0
  O  O16  1  -0.01932412  0.48045368  0.80181110  1.0
  O  O17  1  0.51932412  0.98045368  0.69818890  1.0
  O  O18  1  0.01932412  0.98045368  0.30181110  1.0
  O  O19  1  0.48067588  0.48045368  0.19818890  1.0
  O  O20  1  0.75573984  0.31152163  0.05249843  1.0
  O  O21  1  0.74426016  0.81152163  0.44750157  1.0
  O  O22  1  0.24426016  0.81152163  0.55249843  1.0
  O  O23  1  0.25573984  0.31152163  0.94750157  1.0
