# generated using pymatgen
data_K3(MoO3)10
_symmetry_space_group_name_H-M   'P 1'
_cell_length_a   10.23695612
_cell_length_b   10.23695612
_cell_length_c   10.27146387
_cell_angle_alpha   62.44291600
_cell_angle_beta   117.55708400
_cell_angle_gamma   136.53923393
_symmetry_Int_Tables_number   1
_chemical_formula_structural   K3(MoO3)10
_chemical_formula_sum   'K3 Mo10 O30'
_cell_volume   642.05709279
_cell_formula_units_Z   1
loop_
 _symmetry_equiv_pos_site_id
 _symmetry_equiv_pos_as_xyz
  1  'x, y, z'
loop_
 _atom_site_type_symbol
 _atom_site_label
 _atom_site_symmetry_multiplicity
 _atom_site_fract_x
 _atom_site_fract_y
 _atom_site_fract_z
 _atom_site_occupancy
  K  K0  1  0.31575330  -0.31575330  0.77176526  1.0
  K  K1  1  0.68424670  0.31575330  0.22823474  1.0
  K  K2  1  0.00000000  0.00000000  0.00000000  1.0
  Mo  Mo3  1  0.67778720  -0.16850354  0.54414674  1.0
  Mo  Mo4  1  1.16850354  0.32221280  0.54414674  1.0
  Mo  Mo5  1  0.83149646  0.67778720  0.45585326  1.0
  Mo  Mo6  1  0.32221280  0.16850354  0.45585326  1.0
  Mo  Mo7  1  0.38969495  0.11147745  0.84621547  1.0
  Mo  Mo8  1  0.88852255  0.61030505  0.84621547  1.0
  Mo  Mo9  1  1.11147745  0.38969495  0.15378453  1.0
  Mo  Mo10  1  0.61030505  -0.11147745  0.15378453  1.0
  Mo  Mo11  1  0.72281602  0.27718398  0.67183638  1.0
  Mo  Mo12  1  0.27718398  -0.27718398  0.32816362  1.0
  O  O13  1  0.65673627  -0.15043202  0.68879865  1.0
  O  O14  1  1.15043202  0.34326373  0.68879865  1.0
  O  O15  1  0.84956798  0.65673627  0.31120135  1.0
  O  O16  1  0.34326373  0.15043202  0.31120135  1.0
  O  O17  1  0.44159375  0.07587612  0.65774914  1.0
  O  O18  1  0.92412388  0.55840625  0.65774914  1.0
  O  O19  1  1.07587612  0.44159375  0.34225086  1.0
  O  O20  1  0.55840625  -0.07587612  0.34225086  1.0
  O  O21  1  0.37072020  0.18621092  0.94896811  1.0
  O  O22  1  0.81378908  0.62927980  0.94896811  1.0
  O  O23  1  1.18621092  0.37072020  0.05103189  1.0
  O  O24  1  0.62927980  -0.18621092  0.05103189  1.0
  O  O25  1  0.29018687  0.21325449  0.64738489  1.0
  O  O26  1  0.78674551  0.70981313  0.64738489  1.0
  O  O27  1  1.21325449  0.29018687  0.35261511  1.0
  O  O28  1  0.70981313  -0.21325449  0.35261511  1.0
  O  O29  1  0.92123111  0.07876889  0.51316320  1.0
  O  O30  1  0.07876889  -0.07876889  0.48683680  1.0
  O  O31  1  0.85702116  0.14297884  0.16963416  1.0
  O  O32  1  0.14297884  -0.14297884  0.83036584  1.0
  O  O33  1  0.81587615  0.18412385  0.83182974  1.0
  O  O34  1  0.18412385  -0.18412385  0.16817026  1.0
  O  O35  1  0.74391000  0.25609000  0.52721979  1.0
  O  O36  1  0.25609000  -0.25609000  0.47278021  1.0
  O  O37  1  0.65524048  0.34475952  0.81071430  1.0
  O  O38  1  0.34475952  -0.34475952  0.18928570  1.0
  O  O39  1  0.58372927  0.41627073  0.48967060  1.0
  O  O40  1  0.41627073  -0.41627073  0.51032940  1.0
  O  O41  1  0.50000000  -0.00000000  0.00000000  1.0
  O  O42  1  1.00000000  0.50000000  0.00000000  1.0
