# generated using pymatgen
data_Ca(NiO2)4
_symmetry_space_group_name_H-M   'P 1'
_cell_length_a   6.47634733
_cell_length_b   6.47634733
_cell_length_c   6.47634733
_cell_angle_alpha   52.59691395
_cell_angle_beta   52.59691395
_cell_angle_gamma   52.59691395
_symmetry_Int_Tables_number   1
_chemical_formula_structural   Ca(NiO2)4
_chemical_formula_sum   'Ca1 Ni4 O8'
_cell_volume   158.70514118
_cell_formula_units_Z   1
loop_
 _symmetry_equiv_pos_site_id
 _symmetry_equiv_pos_as_xyz
  1  'x, y, z'
loop_
 _atom_site_type_symbol
 _atom_site_label
 _atom_site_symmetry_multiplicity
 _atom_site_fract_x
 _atom_site_fract_y
 _atom_site_fract_z
 _atom_site_occupancy
  Ca  Ca0  1  1.50000000  0.50000000  0.50000000  1.0
  O  O1  1  0.72398121  0.72398121  0.72398121  1.0
  O  O2  1  1.27601879  1.27601879  0.27601879  1.0
  O  O3  1  1.23402706  0.23402706  0.70962786  1.0
  O  O4  1  1.23402706  0.70962786  0.23402706  1.0
  O  O5  1  1.29037214  0.76597294  0.76597294  1.0
  O  O6  1  1.76597294  0.29037214  0.76597294  1.0
  O  O7  1  1.76597294  0.76597294  0.29037214  1.0
  O  O8  1  0.70962786  1.23402706  0.23402706  1.0
  Ni  Ni9  1  0.50000000  -0.00000000  -0.50000000  1.0
  Ni  Ni10  1  0.50000000  -0.50000000  -0.00000000  1.0
  Ni  Ni11  1  -0.00000000  0.50000000  -0.50000000  1.0
  Ni  Ni12  1  0.00000000  0.00000000  0.00000000  1.0
