# generated using pymatgen
data_Mg(IO3)2
_symmetry_space_group_name_H-M   'P 1'
_cell_length_a   10.96752420
_cell_length_b   5.26988426
_cell_length_c   11.16382301
_cell_angle_alpha   90.00000000
_cell_angle_beta   120.12656260
_cell_angle_gamma   90.00000000
_symmetry_Int_Tables_number   1
_chemical_formula_structural   Mg(IO3)2
_chemical_formula_sum   'Mg4 I8 O24'
_cell_volume   558.08194302
_cell_formula_units_Z   4
loop_
 _symmetry_equiv_pos_site_id
 _symmetry_equiv_pos_as_xyz
  1  'x, y, z'
loop_
 _atom_site_type_symbol
 _atom_site_label
 _atom_site_symmetry_multiplicity
 _atom_site_fract_x
 _atom_site_fract_y
 _atom_site_fract_z
 _atom_site_occupancy
  Mg  Mg0  1  0.74758451  0.77426635  0.75848697  1.0
  Mg  Mg1  1  0.25241549  0.27426635  0.24151303  1.0
  Mg  Mg2  1  0.74756484  0.77418175  0.25846171  1.0
  Mg  Mg3  1  0.25243516  0.27418175  0.74153829  1.0
  I  I4  1  0.40019599  0.67782850  0.56307782  1.0
  I  I5  1  0.59980401  0.17782850  0.43692218  1.0
  I  I6  1  0.93350879  0.70529908  0.09941552  1.0
  I  I7  1  0.06649121  0.20529908  0.90058448  1.0
  I  I8  1  0.59982874  0.17788290  0.93695132  1.0
  I  I9  1  0.40017126  0.67788290  0.06304868  1.0
  I  I10  1  0.93346601  0.70521096  0.59937093  1.0
  I  I11  1  0.06653399  0.20521096  0.40062907  1.0
  O  O12  1  0.08521099  0.49197542  0.22081959  1.0
  O  O13  1  0.91478901  -0.00802458  0.77918041  1.0
  O  O14  1  0.40276893  0.49034138  0.41910665  1.0
  O  O15  1  0.59723107  -0.00965862  0.58089335  1.0
  O  O16  1  0.88189755  0.54401119  0.92875324  1.0
  O  O17  1  0.11810245  0.04401119  0.07124676  1.0
  O  O18  1  0.56957779  0.56088352  0.71474231  1.0
  O  O19  1  0.43042221  0.06088352  0.28525769  1.0
  O  O20  1  0.73259514  0.98513987  0.91356183  1.0
  O  O21  1  0.26740486  0.48513987  0.08643817  1.0
  O  O22  1  0.26745034  0.48499045  0.58645750  1.0
  O  O23  1  0.73254966  0.98499045  0.41354250  1.0
  O  O24  1  0.79706633  0.55302900  0.13307583  1.0
  O  O25  1  0.20293367  1.05302900  0.86692417  1.0
  O  O26  1  0.91483167  -0.00814848  0.27925752  1.0
  O  O27  1  0.08516833  0.49185152  0.72074248  1.0
  O  O28  1  0.59728319  -0.00961366  0.08093248  1.0
  O  O29  1  0.40271681  0.49038634  0.91906752  1.0
  O  O30  1  0.88180308  0.54383984  0.42871745  1.0
  O  O31  1  0.11819692  1.04383984  0.57128255  1.0
  O  O32  1  0.56953907  0.56085235  0.21469760  1.0
  O  O33  1  0.43046093  0.06085235  0.78530240  1.0
  O  O34  1  0.79706009  0.55302957  0.63310741  1.0
  O  O35  1  0.20293991  0.05302957  0.36689259  1.0
