# generated using pymatgen
data_Ba2(Ni3B2)3
_symmetry_space_group_name_H-M   'P 1'
_cell_length_a   7.55199165
_cell_length_b   7.55199165
_cell_length_c   7.55199165
_cell_angle_alpha   83.39505921
_cell_angle_beta   83.39505921
_cell_angle_gamma   83.39505921
_symmetry_Int_Tables_number   1
_chemical_formula_structural   Ba2(Ni3B2)3
_chemical_formula_sum   'Ba4 Ni18 B12'
_cell_volume   422.74374439
_cell_formula_units_Z   2
loop_
 _symmetry_equiv_pos_site_id
 _symmetry_equiv_pos_as_xyz
  1  'x, y, z'
loop_
 _atom_site_type_symbol
 _atom_site_label
 _atom_site_symmetry_multiplicity
 _atom_site_fract_x
 _atom_site_fract_y
 _atom_site_fract_z
 _atom_site_occupancy
  Ba  Ba0  1  0.37681703  0.37681703  -0.62318297  1.0
  Ba  Ba1  1  0.87681703  0.87681703  -0.12318297  1.0
  Ba  Ba2  1  1.12318297  1.12318297  0.12318297  1.0
  Ba  Ba3  1  0.62318297  0.62318297  -0.37681703  1.0
  Ni  Ni4  1  0.78458029  0.25000000  -0.28458029  1.0
  Ni  Ni5  1  0.28458029  0.21541971  -0.25000000  1.0
  Ni  Ni6  1  0.75000000  0.28458029  -0.78458029  1.0
  Ni  Ni7  1  0.25000000  0.71541971  -0.21541971  1.0
  Ni  Ni8  1  0.21541971  0.75000000  -0.71541971  1.0
  Ni  Ni9  1  0.71541971  -0.21541971  0.25000000  1.0
  Ni  Ni10  1  1.06750815  -0.39141251  -0.42401815  1.0
  Ni  Ni11  1  1.56750815  1.07598185  0.10858749  1.0
  Ni  Ni12  1  0.92401815  0.89141251  -0.56750815  1.0
  Ni  Ni13  1  0.42401815  0.93249185  -0.60858749  1.0
  Ni  Ni14  1  0.39141251  0.42401815  -0.06750815  1.0
  Ni  Ni15  1  0.89141251  0.43249185  -0.07598185  1.0
  Ni  Ni16  1  0.93249185  0.39141251  -0.57598185  1.0
  Ni  Ni17  1  0.43249185  0.92401815  -0.10858749  1.0
  Ni  Ni18  1  0.57598185  0.06750815  -0.39141251  1.0
  Ni  Ni19  1  1.07598185  1.10858749  0.56750815  1.0
  Ni  Ni20  1  1.10858749  1.56750815  0.07598185  1.0
  Ni  Ni21  1  0.60858749  -0.42401815  0.06750815  1.0
  B  B22  1  0.46532856  0.81218205  -0.84764106  1.0
  B  B23  1  0.96532856  0.65235894  -0.68781795  1.0
  B  B24  1  0.34764106  0.68781795  -0.96532856  1.0
  B  B25  1  0.84764106  -0.46532856  0.18781795  1.0
  B  B26  1  1.18781795  -0.15235894  -0.46532856  1.0
  B  B27  1  0.68781795  0.03467144  -0.65235894  1.0
  B  B28  1  0.53467144  0.18781795  -0.15235894  1.0
  B  B29  1  0.03467144  0.34764106  -0.31218205  1.0
  B  B30  1  0.15235894  0.46532856  -0.18781795  1.0
  B  B31  1  0.65235894  0.31218205  -0.03467144  1.0
  B  B32  1  0.31218205  0.96532856  -0.34764106  1.0
  B  B33  1  0.81218205  0.15235894  -0.53467144  1.0
