# generated using pymatgen
data_MgV2O6
_symmetry_space_group_name_H-M   'P 1'
_cell_length_a   13.67905789
_cell_length_b   5.65036629
_cell_length_c   4.83986329
_cell_angle_alpha   90.00000000
_cell_angle_beta   90.00000000
_cell_angle_gamma   90.00000000
_symmetry_Int_Tables_number   1
_chemical_formula_structural   MgV2O6
_chemical_formula_sum   'Mg4 V8 O24'
_cell_volume   374.08120154
_cell_formula_units_Z   4
loop_
 _symmetry_equiv_pos_site_id
 _symmetry_equiv_pos_as_xyz
  1  'x, y, z'
loop_
 _atom_site_type_symbol
 _atom_site_label
 _atom_site_symmetry_multiplicity
 _atom_site_fract_x
 _atom_site_fract_y
 _atom_site_fract_z
 _atom_site_occupancy
  Mg  Mg0  1  0.00000000  0.68434605  0.75000000  1.0
  Mg  Mg1  1  0.00000000  0.31565395  0.25000000  1.0
  Mg  Mg2  1  0.50000000  0.18434605  0.75000000  1.0
  Mg  Mg3  1  0.50000000  0.81565395  0.25000000  1.0
  V  V4  1  0.66238146  0.68499844  0.74521663  1.0
  V  V5  1  0.66238146  0.31500156  0.24521663  1.0
  V  V6  1  0.16238146  0.18499844  0.75478337  1.0
  V  V7  1  0.16238146  0.81500156  0.25478337  1.0
  V  V8  1  0.33761854  0.68499844  0.75478337  1.0
  V  V9  1  0.33761854  0.31500156  0.25478337  1.0
  V  V10  1  0.83761854  0.18499844  0.74521663  1.0
  V  V11  1  0.83761854  0.81500156  0.24521663  1.0
  O  O12  1  0.58349447  0.87697067  0.60278235  1.0
  O  O13  1  0.58349447  0.12302933  0.10278235  1.0
  O  O14  1  0.08349447  0.37697067  0.89721765  1.0
  O  O15  1  0.08349447  0.62302933  0.39721765  1.0
  O  O16  1  0.41650553  0.87697067  0.89721765  1.0
  O  O17  1  0.41650553  0.12302933  0.39721765  1.0
  O  O18  1  0.91650553  0.37697067  0.60278235  1.0
  O  O19  1  0.91650553  0.62302933  0.10278235  1.0
  O  O20  1  0.90081648  0.90126696  0.54709807  1.0
  O  O21  1  0.90081648  0.09873304  0.04709807  1.0
  O  O22  1  0.40081648  0.40126696  0.95290193  1.0
  O  O23  1  0.40081648  0.59873304  0.45290193  1.0
  O  O24  1  0.09918352  0.90126696  0.95290193  1.0
  O  O25  1  0.09918352  0.09873304  0.45290193  1.0
  O  O26  1  0.59918352  0.40126696  0.54709807  1.0
  O  O27  1  0.59918352  0.59873304  0.04709807  1.0
  O  O28  1  0.75322593  0.85951405  0.90201854  1.0
  O  O29  1  0.75322593  0.14048595  0.40201854  1.0
  O  O30  1  0.25322593  0.35951405  0.59798146  1.0
  O  O31  1  0.25322593  0.64048595  0.09798146  1.0
  O  O32  1  0.24677407  0.85951405  0.59798146  1.0
  O  O33  1  0.24677407  0.14048595  0.09798146  1.0
  O  O34  1  0.74677407  0.35951405  0.90201854  1.0
  O  O35  1  0.74677407  0.64048595  0.40201854  1.0
