# generated using pymatgen
data_K6Ti2O7
_symmetry_space_group_name_H-M   'P 1'
_cell_length_a   6.62081690
_cell_length_b   9.35856723
_cell_length_c   11.46371203
_cell_angle_alpha   90.00000000
_cell_angle_beta   123.39547521
_cell_angle_gamma   90.00000000
_symmetry_Int_Tables_number   1
_chemical_formula_structural   K6Ti2O7
_chemical_formula_sum   'K12 Ti4 O14'
_cell_volume   593.02931661
_cell_formula_units_Z   2
loop_
 _symmetry_equiv_pos_site_id
 _symmetry_equiv_pos_as_xyz
  1  'x, y, z'
loop_
 _atom_site_type_symbol
 _atom_site_label
 _atom_site_symmetry_multiplicity
 _atom_site_fract_x
 _atom_site_fract_y
 _atom_site_fract_z
 _atom_site_occupancy
  K  K0  1  0.90761199  0.70419118  0.27839852  1.0
  K  K1  1  0.90761199  0.79580882  0.77839852  1.0
  K  K2  1  0.09238801  0.20419118  0.22160148  1.0
  K  K3  1  0.09238801  0.29580882  0.72160148  1.0
  K  K4  1  0.70744037  0.02807067  0.45746052  1.0
  K  K5  1  0.70744037  0.47192933  0.95746052  1.0
  K  K6  1  0.29255963  0.52807067  0.04253948  1.0
  K  K7  1  0.29255963  0.97192933  0.54253948  1.0
  K  K8  1  0.44236509  0.15655750  0.06685415  1.0
  K  K9  1  0.44236509  0.34344250  0.56685415  1.0
  K  K10  1  0.55763491  0.65655750  0.43314585  1.0
  K  K11  1  0.55763491  0.84344250  0.93314585  1.0
  Ti  Ti12  1  0.80878578  0.35537035  0.36778147  1.0
  Ti  Ti13  1  0.80878578  0.14462965  0.86778147  1.0
  Ti  Ti14  1  0.19121422  0.85537035  0.13221853  1.0
  Ti  Ti15  1  0.19121422  0.64462965  0.63221853  1.0
  O  O16  1  1.00090183  0.19898480  0.42745778  1.0
  O  O17  1  1.00090183  0.30101520  0.92745778  1.0
  O  O18  1  -0.00090183  0.69898480  0.07254222  1.0
  O  O19  1  -0.00090183  0.80101520  0.57254222  1.0
  O  O20  1  0.73468486  0.40325757  0.19553678  1.0
  O  O21  1  0.73468486  0.09674243  0.69553678  1.0
  O  O22  1  0.26531514  0.90325757  0.30446322  1.0
  O  O23  1  0.26531514  0.59674243  0.80446322  1.0
  O  O24  1  0.53843619  0.32472259  0.36824744  1.0
  O  O25  1  0.53843619  0.17527741  0.86824744  1.0
  O  O26  1  0.46156381  0.82472259  0.13175256  1.0
  O  O27  1  0.46156381  0.67527741  0.63175256  1.0
  O  O28  1  0.00000000  0.50000000  0.50000000  1.0
  O  O29  1  0.00000000  0.00000000  0.00000000  1.0
