# generated using pymatgen
data_Sr(ClO)2
_symmetry_space_group_name_H-M   'P 1'
_cell_length_a   9.16954398
_cell_length_b   9.16954398
_cell_length_c   6.94097243
_cell_angle_alpha   90.00000000
_cell_angle_beta   90.00000000
_cell_angle_gamma   135.83899967
_symmetry_Int_Tables_number   1
_chemical_formula_structural   Sr(ClO)2
_chemical_formula_sum   'Sr4 Cl8 O8'
_cell_volume   406.58115323
_cell_formula_units_Z   4
loop_
 _symmetry_equiv_pos_site_id
 _symmetry_equiv_pos_as_xyz
  1  'x, y, z'
loop_
 _atom_site_type_symbol
 _atom_site_label
 _atom_site_symmetry_multiplicity
 _atom_site_fract_x
 _atom_site_fract_y
 _atom_site_fract_z
 _atom_site_occupancy
  Sr  Sr0  1  0.25000000  0.75000000  0.75000000  1.0
  Sr  Sr1  1  -0.25000000  0.25000000  0.75000000  1.0
  Sr  Sr2  1  -0.25000000  0.25000000  0.25000000  1.0
  Sr  Sr3  1  0.25000000  0.75000000  0.25000000  1.0
  Cl  Cl4  1  -0.16628181  0.66630071  0.06313278  1.0
  Cl  Cl5  1  -0.66628181  0.16630071  0.43686722  1.0
  Cl  Cl6  1  -0.33369929  -0.16628181  0.93686722  1.0
  Cl  Cl7  1  0.16630071  0.33371819  0.56313278  1.0
  Cl  Cl8  1  0.33369929  1.16628181  0.93686722  1.0
  Cl  Cl9  1  -0.16630071  0.66628181  0.56313278  1.0
  Cl  Cl10  1  0.16628181  0.33369929  0.06313278  1.0
  Cl  Cl11  1  0.66628181  0.83369929  0.43686722  1.0
  O  O12  1  -0.06770994  0.56780631  0.00795907  1.0
  O  O13  1  0.43229006  1.06780631  0.49204093  1.0
  O  O14  1  0.56780631  0.93229006  0.99204093  1.0
  O  O15  1  0.06780631  0.43229006  0.50795907  1.0
  O  O16  1  0.43219369  1.06770994  0.99204093  1.0
  O  O17  1  -0.06780631  0.56770994  0.50795907  1.0
  O  O18  1  0.06770994  0.43219369  0.00795907  1.0
  O  O19  1  0.56770994  0.93219369  0.49204093  1.0
