# generated using pymatgen
data_Cs3B3Se10
_symmetry_space_group_name_H-M   'P 1'
_cell_length_a   7.85554205
_cell_length_b   15.60100860
_cell_length_c   8.77801742
_cell_angle_alpha   73.00659486
_cell_angle_beta   78.26812963
_cell_angle_gamma   84.09319068
_symmetry_Int_Tables_number   1
_chemical_formula_structural   Cs3B3Se10
_chemical_formula_sum   'Cs6 B6 Se20'
_cell_volume   1006.23511554
_cell_formula_units_Z   2
loop_
 _symmetry_equiv_pos_site_id
 _symmetry_equiv_pos_as_xyz
  1  'x, y, z'
loop_
 _atom_site_type_symbol
 _atom_site_label
 _atom_site_symmetry_multiplicity
 _atom_site_fract_x
 _atom_site_fract_y
 _atom_site_fract_z
 _atom_site_occupancy
  Cs  Cs0  1  -0.95877475  -0.78378553  -0.64194722  1.0
  Cs  Cs1  1  -0.04122525  -0.21621447  -0.35805278  1.0
  Cs  Cs2  1  -0.66941058  -0.48289311  -0.18804217  1.0
  Cs  Cs3  1  -0.33058942  -0.51710689  -0.81195783  1.0
  Cs  Cs4  1  -0.25762996  -0.14170922  -0.85496493  1.0
  Cs  Cs5  1  -0.74237004  -0.85829078  -0.14503507  1.0
  B  B6  1  -0.89869122  -0.40884757  -0.69568565  1.0
  B  B7  1  -0.10130878  -0.59115243  -0.30431435  1.0
  B  B8  1  -0.73028110  -0.23790096  -0.96308674  1.0
  B  B9  1  -0.26971890  -0.76209904  -0.03691326  1.0
  B  B10  1  -0.61534297  -0.09414715  -0.30836389  1.0
  B  B11  1  -0.38465703  -0.90585285  -0.69163611  1.0
  Se  Se12  1  -0.92209503  -0.33027222  -0.92662979  1.0
  Se  Se13  1  -0.07790497  -0.66972778  -0.07337021  1.0
  Se  Se14  1  -0.85353255  -0.53914113  -0.70742146  1.0
  Se  Se15  1  -0.14646745  -0.46085887  -0.29257854  1.0
  Se  Se16  1  -0.86053338  -0.62198915  -0.42366106  1.0
  Se  Se17  1  -0.13946662  -0.37801085  -0.57633894  1.0
  Se  Se18  1  -0.79810583  -0.11049906  -0.09570843  1.0
  Se  Se19  1  -0.20189417  -0.88950094  -0.90429157  1.0
  Se  Se20  1  -0.76482048  -0.01981946  -0.47177776  1.0
  Se  Se21  1  -0.23517952  -0.98018054  -0.52822224  1.0
  Se  Se22  1  -0.70963456  -0.22088614  -0.74504175  1.0
  Se  Se23  1  -0.29036544  -0.77911386  -0.25495825  1.0
  Se  Se24  1  -0.53893911  -0.21826514  -0.34460947  1.0
  Se  Se25  1  -0.46106089  -0.78173486  -0.65539053  1.0
  Se  Se26  1  -0.49191935  -0.28285818  -0.07307207  1.0
  Se  Se27  1  -0.50808065  -0.71714182  -0.92692793  1.0
  Se  Se28  1  -0.42579579  -0.02654808  -0.26850875  1.0
  Se  Se29  1  -0.57420421  -0.97345192  -0.73149125  1.0
  Se  Se30  1  -0.31180447  -0.62167415  -0.38129811  1.0
  Se  Se31  1  -0.68819553  -0.37832585  -0.61870189  1.0
