# generated using pymatgen
data_La2MoO5
_symmetry_space_group_name_H-M   'P 1'
_cell_length_a   7.05005388
_cell_length_b   7.05005388
_cell_length_c   7.05005388
_cell_angle_alpha   100.86321585
_cell_angle_beta   100.86321585
_cell_angle_gamma   128.54067300
_symmetry_Int_Tables_number   1
_chemical_formula_structural   La2MoO5
_chemical_formula_sum   'La4 Mo2 O10'
_cell_volume   246.90500955
_cell_formula_units_Z   2
loop_
 _symmetry_equiv_pos_site_id
 _symmetry_equiv_pos_as_xyz
  1  'x, y, z'
loop_
 _atom_site_type_symbol
 _atom_site_label
 _atom_site_symmetry_multiplicity
 _atom_site_fract_x
 _atom_site_fract_y
 _atom_site_fract_z
 _atom_site_occupancy
  La  La0  1  0.60851933  0.17932349  0.78784283  1.0
  La  La1  1  0.39148067  0.82067651  1.21215717  1.0
  La  La2  1  1.17932349  1.39148067  1.57080416  1.0
  La  La3  1  0.82067651  0.60851933  0.42919584  1.0
  Mo  Mo4  1  0.20110587  0.20110587  -0.00000000  1.0
  Mo  Mo5  1  0.79889413  0.79889413  -0.00000000  1.0
  O  O6  1  0.75000000  0.25000000  0.50000000  1.0
  O  O7  1  1.25000000  0.75000000  0.50000000  1.0
  O  O8  1  1.07729867  0.35931035  0.90567248  1.0
  O  O9  1  0.45363787  1.17162619  1.09432752  1.0
  O  O10  1  1.35931035  1.45363787  1.28201168  1.0
  O  O11  1  1.17162619  1.07729867  0.71798832  1.0
  O  O12  1  0.92270133  1.64068965  1.09432752  1.0
  O  O13  1  1.54636213  0.82837381  0.90567248  1.0
  O  O14  1  0.64068965  0.54636213  0.71798832  1.0
  O  O15  1  0.82837381  0.92270133  1.28201168  1.0
