# generated using pymatgen
data_Na2SnGe2(HO4)2
_symmetry_space_group_name_H-M   'P 1'
_cell_length_a   11.54221046
_cell_length_b   5.95951130
_cell_length_c   5.63191391
_cell_angle_alpha   104.21224809
_cell_angle_beta   100.07917839
_cell_angle_gamma   88.17906667
_symmetry_Int_Tables_number   1
_chemical_formula_structural   Na2SnGe2(HO4)2
_chemical_formula_sum   'Na4 Sn2 Ge4 H4 O16'
_cell_volume   369.71819397
_cell_formula_units_Z   2
loop_
 _symmetry_equiv_pos_site_id
 _symmetry_equiv_pos_as_xyz
  1  'x, y, z'
loop_
 _atom_site_type_symbol
 _atom_site_label
 _atom_site_symmetry_multiplicity
 _atom_site_fract_x
 _atom_site_fract_y
 _atom_site_fract_z
 _atom_site_occupancy
  Na  Na0  1  0.65071953  0.82462946  -0.98892963  1.0
  Na  Na1  1  0.34928047  0.17537054  -0.01107037  1.0
  Na  Na2  1  0.93834120  0.58288410  -0.73534892  1.0
  Na  Na3  1  0.06165880  0.41711590  -0.26465108  1.0
  Sn  Sn4  1  0.00000000  0.00000000  0.00000000  1.0
  Sn  Sn5  1  0.50000000  -0.00000000  -0.50000000  1.0
  Ge  Ge6  1  0.25085033  0.71705742  -0.82361467  1.0
  Ge  Ge7  1  0.74914967  0.28294258  -0.17638533  1.0
  Ge  Ge8  1  0.62694241  0.43984688  -0.66938401  1.0
  Ge  Ge9  1  0.37305759  0.56015312  -0.33061599  1.0
  H  H10  1  0.87519878  0.02335756  -0.66069180  1.0
  H  H11  1  0.12480122  0.97664244  -0.33930820  1.0
  H  H12  1  0.85815579  0.69560532  -0.30676278  1.0
  H  H13  1  0.14184421  0.30439468  -0.69323722  1.0
  O  O14  1  0.73482668  0.44165087  -0.86585033  1.0
  O  O15  1  0.26517332  0.55834913  -0.13414967  1.0
  O  O16  1  0.09865790  0.75119527  -0.83961359  1.0
  O  O17  1  0.90134210  0.24880473  -0.16038641  1.0
  O  O18  1  0.86101314  0.93424770  -0.83337874  1.0
  O  O19  1  0.13898686  0.06575230  -0.16662126  1.0
  O  O20  1  0.54062689  0.67840571  -0.71609654  1.0
  O  O21  1  0.45937311  0.32159429  -0.28390346  1.0
  O  O22  1  0.33346418  0.97304267  -0.71050485  1.0
  O  O23  1  0.66653582  0.02695733  -0.28949515  1.0
  O  O24  1  0.70998875  0.49632845  -0.35670843  1.0
  O  O25  1  0.29001125  0.50367155  -0.64329157  1.0
  O  O26  1  0.93960570  0.73541995  -0.30926169  1.0
  O  O27  1  0.06039430  0.26458005  -0.69073831  1.0
  O  O28  1  0.44491195  0.83154066  -0.24893261  1.0
  O  O29  1  0.55508805  0.16845934  -0.75106739  1.0
