# generated using pymatgen
data_BaMn2V2O8
_symmetry_space_group_name_H-M   'P 1'
_cell_length_a   9.94682658
_cell_length_b   9.94682658
_cell_length_c   9.94682658
_cell_angle_alpha   100.97727947
_cell_angle_beta   100.97727947
_cell_angle_gamma   128.25486029
_symmetry_Int_Tables_number   1
_chemical_formula_structural   BaMn2V2O8
_chemical_formula_sum   'Ba4 Mn8 V8 O32'
_cell_volume   695.34368630
_cell_formula_units_Z   4
loop_
 _symmetry_equiv_pos_site_id
 _symmetry_equiv_pos_as_xyz
  1  'x, y, z'
loop_
 _atom_site_type_symbol
 _atom_site_label
 _atom_site_symmetry_multiplicity
 _atom_site_fract_x
 _atom_site_fract_y
 _atom_site_fract_z
 _atom_site_occupancy
  Ba  Ba0  1  0.00000000  0.00000000  0.00000000  1.0
  Ba  Ba1  1  0.50000000  0.50000000  -0.00000000  1.0
  Ba  Ba2  1  0.75000000  1.25000000  0.50000000  1.0
  Ba  Ba3  1  0.25000000  0.75000000  0.50000000  1.0
  Mn  Mn4  1  0.83341584  0.33341584  1.16683168  1.0
  Mn  Mn5  1  1.33341584  1.16658416  1.50000000  1.0
  Mn  Mn6  1  0.58341584  0.58341584  0.66683168  1.0
  Mn  Mn7  1  1.08341584  0.41658416  1.00000000  1.0
  Mn  Mn8  1  0.16658416  0.66658416  0.83316832  1.0
  Mn  Mn9  1  0.66658416  0.83341584  0.50000000  1.0
  Mn  Mn10  1  0.91658416  0.91658416  0.33316832  1.0
  Mn  Mn11  1  1.41658416  1.08341584  1.00000000  1.0
  V  V12  1  1.54516072  0.87500000  1.17016072  1.0
  V  V13  1  1.04516072  0.87500000  1.67016072  1.0
  V  V14  1  0.70483928  1.37500000  0.82983928  1.0
  V  V15  1  0.20483928  0.37500000  0.32983928  1.0
  V  V16  1  1.12500000  1.29516072  0.67016072  1.0
  V  V17  1  1.12500000  0.79516072  1.17016072  1.0
  V  V18  1  1.62500000  1.45483928  1.32983928  1.0
  V  V19  1  0.62500000  0.95483928  0.82983928  1.0
  O  O20  1  1.33581645  0.67142407  1.02194901  1.0
  O  O21  1  1.83581645  1.81386744  1.66439237  1.0
  O  O22  1  1.10052494  0.93613256  1.52194901  1.0
  O  O23  1  1.60052494  1.07857593  1.16439237  1.0
  O  O24  1  0.64947506  1.31386744  0.97805099  1.0
  O  O25  1  1.14947506  1.17142407  0.33560763  1.0
  O  O26  1  0.41418355  0.57857593  0.47805099  1.0
  O  O27  1  0.91418355  1.43613256  0.83560763  1.0
  O  O28  1  0.32857593  0.35052494  0.66439237  1.0
  O  O29  1  1.18613256  0.85052494  1.02194901  1.0
  O  O30  1  1.06386744  0.58581645  1.16439237  1.0
  O  O31  1  0.92142407  1.08581645  0.52194901  1.0
  O  O32  1  0.68613256  0.66418355  1.33560763  1.0
  O  O33  1  0.82857593  1.16418355  0.97805099  1.0
  O  O34  1  0.42142407  0.89947506  0.83560763  1.0
  O  O35  1  1.56386744  1.39947506  1.47805099  1.0
  O  O36  1  0.71945249  0.87863505  0.16392135  1.0
  O  O37  1  0.21945249  1.05553114  0.84081744  1.0
  O  O38  1  0.03528630  0.69446886  0.66392135  1.0
  O  O39  1  0.53528630  0.87136495  0.34081744  1.0
  O  O40  1  1.71471370  1.55553114  1.83607865  1.0
  O  O41  1  1.21471370  0.37863505  1.15918256  1.0
  O  O42  1  1.03054751  0.37136495  1.33607865  1.0
  O  O43  1  1.53054751  1.19446886  1.65918256  1.0
  O  O44  1  1.12136495  1.28528630  0.84081744  1.0
  O  O45  1  0.94446886  0.78528630  1.16392135  1.0
  O  O46  1  1.30553114  0.96945249  1.34081744  1.0
  O  O47  1  1.12863505  1.46945249  0.66392135  1.0
  O  O48  1  1.44446886  1.28054751  1.15918256  1.0
  O  O49  1  0.62136495  0.78054751  0.83607865  1.0
  O  O50  1  0.62863505  0.96471370  0.65918256  1.0
  O  O51  1  1.80553114  1.46471370  1.33607865  1.0
