# generated using pymatgen
data_LiZnInF6
_symmetry_space_group_name_H-M   'P 1'
_cell_length_a   9.06345518
_cell_length_b   9.06345518
_cell_length_c   4.72567143
_cell_angle_alpha   90.00000000
_cell_angle_beta   90.00000000
_cell_angle_gamma   120.00000000
_symmetry_Int_Tables_number   1
_chemical_formula_structural   LiZnInF6
_chemical_formula_sum   'Li3 Zn3 In3 F18'
_cell_volume   336.18763591
_cell_formula_units_Z   3
loop_
 _symmetry_equiv_pos_site_id
 _symmetry_equiv_pos_as_xyz
  1  'x, y, z'
loop_
 _atom_site_type_symbol
 _atom_site_label
 _atom_site_symmetry_multiplicity
 _atom_site_fract_x
 _atom_site_fract_y
 _atom_site_fract_z
 _atom_site_occupancy
  Li  Li0  1  0.29792936  0.29792936  0.50000000  1.0
  Li  Li1  1  -0.00000000  0.70207064  0.50000000  1.0
  Li  Li2  1  0.70207064  -0.00000000  0.50000000  1.0
  Zn  Zn3  1  0.64310144  0.64310144  -0.00000000  1.0
  Zn  Zn4  1  -0.00000000  0.35689856  -0.00000000  1.0
  Zn  Zn5  1  0.35689856  -0.00000000  0.00000000  1.0
  In  In6  1  0.33333333  0.66666667  0.49810363  1.0
  In  In7  1  0.66666667  0.33333333  0.50189637  1.0
  In  In8  1  -0.00000000  0.00000000  0.00000000  1.0
  F  F9  1  0.12495524  0.89709593  0.23414778  1.0
  F  F10  1  0.89709593  0.12495524  0.76585222  1.0
  F  F11  1  0.77214069  0.87504476  0.23414778  1.0
  F  F12  1  0.10290407  0.22785931  0.23414778  1.0
  F  F13  1  0.87504476  0.77214069  0.76585222  1.0
  F  F14  1  0.22785931  0.10290407  0.76585222  1.0
  F  F15  1  0.45723195  0.89175074  0.25483375  1.0
  F  F16  1  0.89175074  0.45723195  0.74516625  1.0
  F  F17  1  0.43451879  0.54276805  0.25483375  1.0
  F  F18  1  0.10824926  0.56548121  0.25483375  1.0
  F  F19  1  0.54276805  0.43451879  0.74516625  1.0
  F  F20  1  0.56548121  0.10824926  0.74516625  1.0
  F  F21  1  0.77262758  0.55996456  0.26341903  1.0
  F  F22  1  0.55996456  0.77262758  0.73658097  1.0
  F  F23  1  0.78733698  0.22737242  0.26341903  1.0
  F  F24  1  0.44003544  0.21266302  0.26341903  1.0
  F  F25  1  0.22737242  0.78733698  0.73658097  1.0
  F  F26  1  0.21266302  0.44003544  0.73658097  1.0
