# generated using pymatgen
data_Cs2Al2Si3O10
_symmetry_space_group_name_H-M   'P 1'
_cell_length_a   10.32156053
_cell_length_b   9.77493595
_cell_length_c   13.41685779
_cell_angle_alpha   49.87869605
_cell_angle_beta   46.40106559
_cell_angle_gamma   83.72023836
_symmetry_Int_Tables_number   1
_chemical_formula_structural   Cs2Al2Si3O10
_chemical_formula_sum   'Cs4 Al4 Si6 O20'
_cell_volume   596.89292695
_cell_formula_units_Z   2
loop_
 _symmetry_equiv_pos_site_id
 _symmetry_equiv_pos_as_xyz
  1  'x, y, z'
loop_
 _atom_site_type_symbol
 _atom_site_label
 _atom_site_symmetry_multiplicity
 _atom_site_fract_x
 _atom_site_fract_y
 _atom_site_fract_z
 _atom_site_occupancy
  Cs  Cs0  1  0.28284841  -0.03331067  0.60848983  1.0
  Cs  Cs1  1  0.64151017  0.10802758  -0.03284841  1.0
  Cs  Cs2  1  -0.03331067  0.28284841  0.14197242  1.0
  Cs  Cs3  1  0.10802758  0.64151017  0.28331067  1.0
  Al  Al4  1  0.68434157  0.59317613  -0.00688593  1.0
  Al  Al5  1  1.25688593  0.52063177  -0.43434157  1.0
  Al  Al6  1  0.59317613  0.68434157  -0.27063177  1.0
  Al  Al7  1  0.52063177  1.25688593  -0.34317613  1.0
  Si  Si8  1  0.68544307  0.57205787  0.23695501  1.0
  Si  Si9  1  1.01304499  0.74445595  -0.43544307  1.0
  Si  Si10  1  0.57205787  0.68544307  -0.49445595  1.0
  Si  Si11  1  0.74445595  1.01304499  -0.32205787  1.0
  Si  Si12  1  1.00429142  0.00429142  -0.00429142  1.0
  Si  Si13  1  0.25429142  0.25429142  0.24570858  1.0
  O  O14  1  0.48623482  0.59960831  0.33143502  1.0
  O  O15  1  0.91856498  0.66727814  -0.23623482  1.0
  O  O16  1  0.59960831  0.48623482  -0.41727814  1.0
  O  O17  1  0.66727814  0.91856498  -0.34960831  1.0
  O  O18  1  0.02422008  0.20098217  0.44295921  1.0
  O  O19  1  0.80704079  0.91816146  -0.77422008  1.0
  O  O20  1  0.20098217  0.02422008  0.33183854  1.0
  O  O21  1  0.91816146  0.80704079  0.04901783  1.0
  O  O22  1  0.74435564  0.54700593  0.10344771  1.0
  O  O23  1  1.14655229  0.64480928  -0.49435564  1.0
  O  O24  1  0.54700593  0.74435564  -0.39480928  1.0
  O  O25  1  0.64480928  1.14655229  -0.29700593  1.0
  O  O26  1  0.43615854  0.34065290  0.19824624  1.0
  O  O27  1  1.05175376  0.22505767  -0.18615854  1.0
  O  O28  1  0.34065290  0.43615854  0.02494233  1.0
  O  O29  1  0.22505767  1.05175376  -0.09065290  1.0
  O  O30  1  0.35450638  -0.37397257  0.58634026  1.0
  O  O31  1  0.66365974  0.81687407  -0.10450638  1.0
  O  O32  1  -0.37397257  0.35450638  0.43312593  1.0
  O  O33  1  0.81687407  0.66365974  -0.37602743  1.0
