# generated using pymatgen
data_LiLaO2
_symmetry_space_group_name_H-M   'P 1'
_cell_length_a   5.90704206
_cell_length_b   6.22062728
_cell_length_c   5.94686381
_cell_angle_alpha   90.00000000
_cell_angle_beta   102.15673866
_cell_angle_gamma   90.00000000
_symmetry_Int_Tables_number   1
_chemical_formula_structural   LiLaO2
_chemical_formula_sum   'Li4 La4 O8'
_cell_volume   213.62024159
_cell_formula_units_Z   4
loop_
 _symmetry_equiv_pos_site_id
 _symmetry_equiv_pos_as_xyz
  1  'x, y, z'
loop_
 _atom_site_type_symbol
 _atom_site_label
 _atom_site_symmetry_multiplicity
 _atom_site_fract_x
 _atom_site_fract_y
 _atom_site_fract_z
 _atom_site_occupancy
  Li  Li0  1  0.83314297  0.35885258  0.80251290  1.0
  Li  Li1  1  0.83314297  0.14114742  0.30251290  1.0
  Li  Li2  1  0.16685703  0.85885258  0.69748710  1.0
  Li  Li3  1  0.16685703  0.64114742  0.19748710  1.0
  La  La4  1  0.70213027  0.92851216  0.80209112  1.0
  La  La5  1  0.70213027  0.57148784  0.30209112  1.0
  La  La6  1  0.29786973  0.42851216  0.69790888  1.0
  La  La7  1  0.29786973  0.07148784  0.19790888  1.0
  O  O8  1  0.92645907  0.63155548  0.69936214  1.0
  O  O9  1  0.92645907  0.86844452  0.19936214  1.0
  O  O10  1  0.07354093  0.13155548  0.80063786  1.0
  O  O11  1  0.07354093  0.36844452  0.30063786  1.0
  O  O12  1  0.40934198  0.73973404  0.98606891  1.0
  O  O13  1  0.40934198  0.76026596  0.48606891  1.0
  O  O14  1  0.59065802  0.23973404  0.51393109  1.0
  O  O15  1  0.59065802  0.26026596  0.01393109  1.0
