# generated using pymatgen
data_KBaCrO4
_symmetry_space_group_name_H-M   'P 1'
_cell_length_a   7.83904957
_cell_length_b   5.91167785
_cell_length_c   10.44741378
_cell_angle_alpha   90.00000000
_cell_angle_beta   90.00000000
_cell_angle_gamma   90.00000000
_symmetry_Int_Tables_number   1
_chemical_formula_structural   KBaCrO4
_chemical_formula_sum   'K4 Ba4 Cr4 O16'
_cell_volume   484.15337746
_cell_formula_units_Z   4
loop_
 _symmetry_equiv_pos_site_id
 _symmetry_equiv_pos_as_xyz
  1  'x, y, z'
loop_
 _atom_site_type_symbol
 _atom_site_label
 _atom_site_symmetry_multiplicity
 _atom_site_fract_x
 _atom_site_fract_y
 _atom_site_fract_z
 _atom_site_occupancy
  K  K0  1  0.83882774  0.75000000  0.42397660  1.0
  K  K1  1  0.33882774  0.75000000  0.07602340  1.0
  K  K2  1  0.16117226  0.25000000  0.57602340  1.0
  K  K3  1  0.66117226  0.25000000  0.92397660  1.0
  Ba  Ba4  1  0.50383188  0.75000000  0.69453014  1.0
  Ba  Ba5  1  0.00383188  0.75000000  0.80546986  1.0
  Ba  Ba6  1  0.49616812  0.25000000  0.30546986  1.0
  Ba  Ba7  1  0.99616812  0.25000000  0.19453014  1.0
  Cr  Cr8  1  0.77102279  0.75000000  0.08281013  1.0
  Cr  Cr9  1  0.27102279  0.75000000  0.41718987  1.0
  Cr  Cr10  1  0.22897721  0.25000000  0.91718987  1.0
  Cr  Cr11  1  0.72897721  0.25000000  0.58281013  1.0
  O  O12  1  0.70384956  0.98772164  0.16111809  1.0
  O  O13  1  0.70384956  0.51227836  0.16111809  1.0
  O  O14  1  0.20384956  0.98772164  0.33888191  1.0
  O  O15  1  0.20384956  0.51227836  0.33888191  1.0
  O  O16  1  0.29615044  0.48772164  0.83888191  1.0
  O  O17  1  0.29615044  0.01227836  0.83888191  1.0
  O  O18  1  0.79615044  0.48772164  0.66111809  1.0
  O  O19  1  0.79615044  0.01227836  0.66111809  1.0
  O  O20  1  0.98794821  0.75000000  0.07475506  1.0
  O  O21  1  0.48794821  0.75000000  0.42524494  1.0
  O  O22  1  0.01205179  0.25000000  0.92524494  1.0
  O  O23  1  0.51205179  0.25000000  0.57475506  1.0
  O  O24  1  0.19150186  0.75000000  0.57066745  1.0
  O  O25  1  0.69150186  0.75000000  0.92933255  1.0
  O  O26  1  0.80849814  0.25000000  0.42933255  1.0
  O  O27  1  0.30849814  0.25000000  0.07066745  1.0
