# generated using pymatgen
data_GeSe2
_symmetry_space_group_name_H-M   'P 1'
_cell_length_a   6.04403935
_cell_length_b   6.04403935
_cell_length_c   9.65886031
_cell_angle_alpha   90.00000000
_cell_angle_beta   90.00000000
_cell_angle_gamma   90.00000000
_symmetry_Int_Tables_number   1
_chemical_formula_structural   GeSe2
_chemical_formula_sum   'Ge4 Se8'
_cell_volume   352.84214300
_cell_formula_units_Z   4
loop_
 _symmetry_equiv_pos_site_id
 _symmetry_equiv_pos_as_xyz
  1  'x, y, z'
loop_
 _atom_site_type_symbol
 _atom_site_label
 _atom_site_symmetry_multiplicity
 _atom_site_fract_x
 _atom_site_fract_y
 _atom_site_fract_z
 _atom_site_occupancy
  Ge  Ge0  1  0.50000000  0.00000000  0.24998619  1.0
  Ge  Ge1  1  0.00000000  0.50000000  0.75001381  1.0
  Ge  Ge2  1  0.50000000  0.50000000  0.50000000  1.0
  Ge  Ge3  1  0.00000000  0.00000000  0.00000000  1.0
  Se  Se4  1  0.24995570  0.76456706  0.12501572  1.0
  Se  Se5  1  0.76456706  0.75004430  0.87498428  1.0
  Se  Se6  1  0.75004430  0.23543294  0.12501572  1.0
  Se  Se7  1  0.23543294  0.24995570  0.87498428  1.0
  Se  Se8  1  0.24999386  0.73544237  0.62501398  1.0
  Se  Se9  1  0.73544237  0.75000614  0.37498602  1.0
  Se  Se10  1  0.75000614  0.26455763  0.62501398  1.0
  Se  Se11  1  0.26455763  0.24999386  0.37498602  1.0
