# generated using pymatgen
data_Al5C3N
_symmetry_space_group_name_H-M   'P 1'
_cell_length_a   3.34777579
_cell_length_b   3.34777579
_cell_length_c   20.97584462
_cell_angle_alpha   90.00000000
_cell_angle_beta   90.00000000
_cell_angle_gamma   120.00000000
_symmetry_Int_Tables_number   1
_chemical_formula_structural   Al5C3N
_chemical_formula_sum   'Al10 C6 N2'
_cell_volume   203.59298846
_cell_formula_units_Z   2
loop_
 _symmetry_equiv_pos_site_id
 _symmetry_equiv_pos_as_xyz
  1  'x, y, z'
loop_
 _atom_site_type_symbol
 _atom_site_label
 _atom_site_symmetry_multiplicity
 _atom_site_fract_x
 _atom_site_fract_y
 _atom_site_fract_z
 _atom_site_occupancy
  Al  Al0  1  0.33333333  0.66666667  0.04537337  1.0
  Al  Al1  1  0.66666667  0.33333333  0.54537337  1.0
  Al  Al2  1  0.33333333  0.66666667  0.24755985  1.0
  Al  Al3  1  0.66666667  0.33333333  0.74755985  1.0
  Al  Al4  1  0.33333333  0.66666667  0.44974095  1.0
  Al  Al5  1  0.66666667  0.33333333  0.94974095  1.0
  Al  Al6  1  0.00000000  0.00000000  0.15120168  1.0
  Al  Al7  1  0.00000000  0.00000000  0.65120168  1.0
  Al  Al8  1  0.00000000  0.00000000  0.34391309  1.0
  Al  Al9  1  0.00000000  0.00000000  0.84391309  1.0
  C  C10  1  0.33333333  0.66666667  0.13752615  1.0
  C  C11  1  0.66666667  0.33333333  0.63752615  1.0
  C  C12  1  0.33333333  0.66666667  0.35758843  1.0
  C  C13  1  0.66666667  0.33333333  0.85758843  1.0
  C  C14  1  0.00000000  0.00000000  -0.00245594  1.0
  C  C15  1  0.00000000  0.00000000  0.49754406  1.0
  N  N16  1  0.00000000  0.00000000  0.24755242  1.0
  N  N17  1  0.00000000  0.00000000  0.74755242  1.0
