# generated using pymatgen
data_Hf6Al16Pd7
_symmetry_space_group_name_H-M   'P 1'
_cell_length_a   8.76315836
_cell_length_b   8.76315836
_cell_length_c   8.76315836
_cell_angle_alpha   60.00000000
_cell_angle_beta   60.00000000
_cell_angle_gamma   60.00000000
_symmetry_Int_Tables_number   1
_chemical_formula_structural   Hf6Al16Pd7
_chemical_formula_sum   'Hf6 Al16 Pd7'
_cell_volume   475.84661263
_cell_formula_units_Z   1
loop_
 _symmetry_equiv_pos_site_id
 _symmetry_equiv_pos_as_xyz
  1  'x, y, z'
loop_
 _atom_site_type_symbol
 _atom_site_label
 _atom_site_symmetry_multiplicity
 _atom_site_fract_x
 _atom_site_fract_y
 _atom_site_fract_z
 _atom_site_occupancy
  Hf  Hf0  1  -0.68160699  0.68160699  0.68160699  1.0
  Hf  Hf1  1  -0.31839301  0.31839301  0.68160699  1.0
  Hf  Hf2  1  0.68160699  0.68160699  -0.68160699  1.0
  Hf  Hf3  1  0.31839301  1.31839301  -0.31839301  1.0
  Hf  Hf4  1  0.31839301  -0.31839301  1.31839301  1.0
  Hf  Hf5  1  -0.31839301  0.31839301  0.31839301  1.0
  Al  Al6  1  0.87973156  0.87973156  -0.12026844  1.0
  Al  Al7  1  1.12026844  0.12026844  0.63919467  1.0
  Al  Al8  1  1.12026844  0.63919467  0.12026844  1.0
  Al  Al9  1  0.36080533  0.87973156  -0.12026844  1.0
  Al  Al10  1  1.63919467  0.12026844  0.12026844  1.0
  Al  Al11  1  0.87973156  0.36080533  -0.12026844  1.0
  Al  Al12  1  0.87973156  0.87973156  -0.63919467  1.0
  Al  Al13  1  1.12026844  0.12026844  0.12026844  1.0
  Al  Al14  1  0.66554652  0.66554652  -0.33445348  1.0
  Al  Al15  1  1.33445348  0.33445348  -0.00336044  1.0
  Al  Al16  1  1.33445348  -0.00336044  0.33445348  1.0
  Al  Al17  1  1.00336044  0.66554652  -0.33445348  1.0
  Al  Al18  1  0.99663956  0.33445348  0.33445348  1.0
  Al  Al19  1  0.66554652  1.00336044  -0.33445348  1.0
  Al  Al20  1  0.66554652  0.66554652  0.00336044  1.0
  Al  Al21  1  1.33445348  0.33445348  0.33445348  1.0
  Pd  Pd22  1  1.50000000  0.00000000  -0.00000000  1.0
  Pd  Pd23  1  1.00000000  0.50000000  -0.50000000  1.0
  Pd  Pd24  1  0.00000000  1.50000000  -0.00000000  1.0
  Pd  Pd25  1  0.50000000  1.00000000  -0.50000000  1.0
  Pd  Pd26  1  0.00000000  0.00000000  0.50000000  1.0
  Pd  Pd27  1  0.50000000  -0.50000000  1.00000000  1.0
  Pd  Pd28  1  0.00000000  0.00000000  0.00000000  1.0
