# generated using pymatgen
data_Sr
_symmetry_space_group_name_H-M   'P 1'
_cell_length_a   5.63559990
_cell_length_b   5.63559990
_cell_length_c   5.63559990
_cell_angle_alpha   97.24237342
_cell_angle_beta   97.24237342
_cell_angle_gamma   138.40587407
_symmetry_Int_Tables_number   1
_chemical_formula_structural   Sr
_chemical_formula_sum   Sr2
_cell_volume   111.07829595
_cell_formula_units_Z   2
loop_
 _symmetry_equiv_pos_site_id
 _symmetry_equiv_pos_as_xyz
  1  'x, y, z'
loop_
 _atom_site_type_symbol
 _atom_site_label
 _atom_site_symmetry_multiplicity
 _atom_site_fract_x
 _atom_site_fract_y
 _atom_site_fract_z
 _atom_site_occupancy
  Sr  Sr0  1  0.50000000  0.50000000  1.00000000  1.0
  Sr  Sr1  1  0.25000000  0.75000000  0.50000000  1.0
