# generated using pymatgen
data_MgMnO3
_symmetry_space_group_name_H-M   'P 1'
_cell_length_a   5.42828567
_cell_length_b   5.42828567
_cell_length_c   5.42828567
_cell_angle_alpha   54.57835277
_cell_angle_beta   54.57835277
_cell_angle_gamma   54.57835277
_symmetry_Int_Tables_number   1
_chemical_formula_structural   MgMnO3
_chemical_formula_sum   'Mg2 Mn2 O6'
_cell_volume   98.81122819
_cell_formula_units_Z   2
loop_
 _symmetry_equiv_pos_site_id
 _symmetry_equiv_pos_as_xyz
  1  'x, y, z'
loop_
 _atom_site_type_symbol
 _atom_site_label
 _atom_site_symmetry_multiplicity
 _atom_site_fract_x
 _atom_site_fract_y
 _atom_site_fract_z
 _atom_site_occupancy
  Mg  Mg0  1  0.14048027  0.14048027  0.14048027  1.0
  Mg  Mg1  1  0.85951973  -0.14048027  -0.14048027  1.0
  Mn  Mn2  1  0.34226076  0.34226076  -0.65773924  1.0
  Mn  Mn3  1  0.65773924  0.65773924  -0.34226076  1.0
  O  O4  1  0.45333291  0.06047207  -0.28083462  1.0
  O  O5  1  1.28083462  -0.45333291  -0.06047207  1.0
  O  O6  1  0.93952793  0.28083462  -0.45333291  1.0
  O  O7  1  0.54666709  -0.06047207  0.28083462  1.0
  O  O8  1  0.71916538  -0.54666709  0.06047207  1.0
  O  O9  1  1.06047207  -0.28083462  -0.54666709  1.0
