# generated using pymatgen
data_Na3MgC2ClO6
_symmetry_space_group_name_H-M   'P 1'
_cell_length_a   10.11858119
_cell_length_b   10.11858119
_cell_length_c   10.11858119
_cell_angle_alpha   60.00000000
_cell_angle_beta   60.00000000
_cell_angle_gamma   60.00000000
_symmetry_Int_Tables_number   1
_chemical_formula_structural   Na3MgC2ClO6
_chemical_formula_sum   'Na12 Mg4 C8 Cl4 O24'
_cell_volume   732.56111861
_cell_formula_units_Z   4
loop_
 _symmetry_equiv_pos_site_id
 _symmetry_equiv_pos_as_xyz
  1  'x, y, z'
loop_
 _atom_site_type_symbol
 _atom_site_label
 _atom_site_symmetry_multiplicity
 _atom_site_fract_x
 _atom_site_fract_y
 _atom_site_fract_z
 _atom_site_occupancy
  Na  Na0  1  0.51522522  0.51522522  0.98477478  1.0
  Na  Na1  1  0.98477478  0.51522522  0.98477478  1.0
  Na  Na2  1  0.51522522  0.98477478  0.98477478  1.0
  Na  Na3  1  0.98477478  0.98477478  0.51522522  1.0
  Na  Na4  1  0.51522522  0.98477478  0.51522522  1.0
  Na  Na5  1  0.98477478  0.51522522  0.51522522  1.0
  Na  Na6  1  0.73477478  0.73477478  -0.73477478  1.0
  Na  Na7  1  1.26522522  -0.26522522  0.26522522  1.0
  Na  Na8  1  -0.26522522  0.26522522  0.26522522  1.0
  Na  Na9  1  0.26522522  0.26522522  -0.26522522  1.0
  Na  Na10  1  0.73477478  -0.73477478  0.73477478  1.0
  Na  Na11  1  -0.73477478  0.73477478  0.73477478  1.0
  Mg  Mg12  1  0.12500000  0.12500000  1.62500000  1.0
  Mg  Mg13  1  0.12500000  0.62500000  1.12500000  1.0
  Mg  Mg14  1  1.62500000  0.12500000  0.12500000  1.0
  Mg  Mg15  1  1.12500000  0.12500000  0.12500000  1.0
  C  C16  1  1.34238489  0.34238489  -0.02715466  1.0
  C  C17  1  1.34238489  -0.02715466  0.34238489  1.0
  C  C18  1  0.97284534  0.34238489  0.34238489  1.0
  C  C19  1  1.34238489  0.34238489  0.34238489  1.0
  C  C20  1  0.90761511  -0.09238489  0.27715466  1.0
  C  C21  1  0.90761511  -0.72284534  0.90761511  1.0
  C  C22  1  0.27715466  0.90761511  0.90761511  1.0
  C  C23  1  0.90761511  0.90761511  0.90761511  1.0
  Cl  Cl24  1  0.62500000  0.62500000  1.12500000  1.0
  Cl  Cl25  1  0.62500000  1.12500000  0.62500000  1.0
  Cl  Cl26  1  1.12500000  0.62500000  0.62500000  1.0
  Cl  Cl27  1  0.62500000  0.62500000  0.62500000  1.0
  O  O28  1  1.26926858  0.49059180  -0.02912895  1.0
  O  O29  1  1.26926858  0.26926858  -0.02912895  1.0
  O  O30  1  1.49059180  0.26926858  -0.02912895  1.0
  O  O31  1  1.26926858  -0.02912895  0.49059180  1.0
  O  O32  1  1.49059180  -0.02912895  0.26926858  1.0
  O  O33  1  1.26926858  -0.02912895  0.26926858  1.0
  O  O34  1  0.97087105  0.26926858  0.26926858  1.0
  O  O35  1  0.97087105  0.49059180  0.26926858  1.0
  O  O36  1  0.97087105  0.26926858  0.49059180  1.0
  O  O37  1  1.49059180  0.26926858  0.26926858  1.0
  O  O38  1  1.26926858  0.26926858  0.49059180  1.0
  O  O39  1  1.26926858  0.49059180  0.26926858  1.0
  O  O40  1  0.98073142  -0.24059180  0.27912895  1.0
  O  O41  1  0.98073142  -0.01926858  0.27912895  1.0
  O  O42  1  0.75940820  -0.01926858  0.27912895  1.0
  O  O43  1  0.98073142  -0.72087105  0.75940820  1.0
  O  O44  1  0.75940820  -0.72087105  0.98073142  1.0
  O  O45  1  0.98073142  -0.72087105  0.98073142  1.0
  O  O46  1  0.27912895  0.98073142  0.98073142  1.0
  O  O47  1  0.27912895  0.75940820  0.98073142  1.0
  O  O48  1  0.27912895  0.98073142  0.75940820  1.0
  O  O49  1  0.75940820  0.98073142  0.98073142  1.0
  O  O50  1  0.98073142  0.98073142  0.75940820  1.0
  O  O51  1  0.98073142  0.75940820  0.98073142  1.0
