# generated using pymatgen
data_La2C2Cl
_symmetry_space_group_name_H-M   'P 1'
_cell_length_a   7.81812046
_cell_length_b   7.81812046
_cell_length_c   6.82774049
_cell_angle_alpha   78.83080107
_cell_angle_beta   101.16919893
_cell_angle_gamma   148.68024725
_symmetry_Int_Tables_number   1
_chemical_formula_structural   La2C2Cl
_chemical_formula_sum   'La4 C4 Cl2'
_cell_volume   212.49975292
_cell_formula_units_Z   2
loop_
 _symmetry_equiv_pos_site_id
 _symmetry_equiv_pos_as_xyz
  1  'x, y, z'
loop_
 _atom_site_type_symbol
 _atom_site_label
 _atom_site_symmetry_multiplicity
 _atom_site_fract_x
 _atom_site_fract_y
 _atom_site_fract_z
 _atom_site_occupancy
  La  La0  1  1.45170001  0.15373621  0.15122230  1.0
  La  La1  1  0.84626379  -0.45170001  0.65122230  1.0
  La  La2  1  1.15373621  -0.54829999  0.34877770  1.0
  La  La3  1  1.54829999  -0.15373621  0.84877770  1.0
  C  C4  1  1.64107022  0.08652326  0.47303198  1.0
  C  C5  1  0.91347674  -0.64107022  0.97303198  1.0
  C  C6  1  1.08652326  -0.35892978  0.02696802  1.0
  C  C7  1  1.35892978  -0.08652326  0.52696802  1.0
  Cl  Cl8  1  0.78723624  0.78723624  0.25000000  1.0
  Cl  Cl9  1  0.21276376  0.21276376  0.75000000  1.0
