# generated using pymatgen
data_MgAlSi
_symmetry_space_group_name_H-M   'P 1'
_cell_length_a   6.58934100
_cell_length_b   4.02033444
_cell_length_c   8.09173067
_cell_angle_alpha   90.00000000
_cell_angle_beta   90.00000000
_cell_angle_gamma   90.00000000
_symmetry_Int_Tables_number   1
_chemical_formula_structural   MgAlSi
_chemical_formula_sum   'Mg4 Al4 Si4'
_cell_volume   214.36090598
_cell_formula_units_Z   4
loop_
 _symmetry_equiv_pos_site_id
 _symmetry_equiv_pos_as_xyz
  1  'x, y, z'
loop_
 _atom_site_type_symbol
 _atom_site_label
 _atom_site_symmetry_multiplicity
 _atom_site_fract_x
 _atom_site_fract_y
 _atom_site_fract_z
 _atom_site_occupancy
  Mg  Mg0  1  0.96431501  0.75000000  0.67285376  1.0
  Mg  Mg1  1  0.46431501  0.75000000  0.82714624  1.0
  Mg  Mg2  1  0.03568499  0.25000000  0.32714624  1.0
  Mg  Mg3  1  0.53568499  0.25000000  0.17285376  1.0
  Al  Al4  1  0.85763106  0.75000000  0.06839782  1.0
  Al  Al5  1  0.35763106  0.75000000  0.43160218  1.0
  Al  Al6  1  0.14236894  0.25000000  0.93160218  1.0
  Al  Al7  1  0.64236894  0.25000000  0.56839782  1.0
  Si  Si8  1  0.73989288  0.75000000  0.37869311  1.0
  Si  Si9  1  0.23989288  0.75000000  0.12130689  1.0
  Si  Si10  1  0.26010712  0.25000000  0.62130689  1.0
  Si  Si11  1  0.76010712  0.25000000  0.87869311  1.0
