# generated using pymatgen
data_GdNiSn
_symmetry_space_group_name_H-M   'P 1'
_cell_length_a   7.25211861
_cell_length_b   4.51064596
_cell_length_c   7.70951929
_cell_angle_alpha   90.00000000
_cell_angle_beta   90.00000000
_cell_angle_gamma   90.00000000
_symmetry_Int_Tables_number   1
_chemical_formula_structural   GdNiSn
_chemical_formula_sum   'Gd4 Ni4 Sn4'
_cell_volume   252.19178666
_cell_formula_units_Z   4
loop_
 _symmetry_equiv_pos_site_id
 _symmetry_equiv_pos_as_xyz
  1  'x, y, z'
loop_
 _atom_site_type_symbol
 _atom_site_label
 _atom_site_symmetry_multiplicity
 _atom_site_fract_x
 _atom_site_fract_y
 _atom_site_fract_z
 _atom_site_occupancy
  Gd  Gd0  1  1.01562912  0.75000000  0.69908157  1.0
  Gd  Gd1  1  0.51562912  0.75000000  0.80091843  1.0
  Gd  Gd2  1  -0.01562912  0.25000000  0.30091843  1.0
  Gd  Gd3  1  0.48437088  0.25000000  0.19908157  1.0
  Ni  Ni4  1  0.79919134  0.75000000  0.08645164  1.0
  Ni  Ni5  1  0.29919134  0.75000000  0.41354836  1.0
  Ni  Ni6  1  0.20080866  0.25000000  0.91354836  1.0
  Ni  Ni7  1  0.70080866  0.25000000  0.58645164  1.0
  Sn  Sn8  1  0.68539938  0.75000000  0.41374143  1.0
  Sn  Sn9  1  0.18539938  0.75000000  0.08625857  1.0
  Sn  Sn10  1  0.31460062  0.25000000  0.58625857  1.0
  Sn  Sn11  1  0.81460062  0.25000000  0.91374143  1.0
