# generated using pymatgen
data_SbAs
_symmetry_space_group_name_H-M   'P 1'
_cell_length_a   4.37200546
_cell_length_b   4.37200546
_cell_length_c   4.37200546
_cell_angle_alpha   55.98193293
_cell_angle_beta   55.98193293
_cell_angle_gamma   55.98193293
_symmetry_Int_Tables_number   1
_chemical_formula_structural   SbAs
_chemical_formula_sum   'Sb1 As1'
_cell_volume   53.59066766
_cell_formula_units_Z   1
loop_
 _symmetry_equiv_pos_site_id
 _symmetry_equiv_pos_as_xyz
  1  'x, y, z'
loop_
 _atom_site_type_symbol
 _atom_site_label
 _atom_site_symmetry_multiplicity
 _atom_site_fract_x
 _atom_site_fract_y
 _atom_site_fract_z
 _atom_site_occupancy
  Sb  Sb0  1  0.53189012  0.53189012  -0.46810988  1.0
  As  As1  1  -0.00709012  -0.00709012  -0.00709012  1.0
