# generated using pymatgen
data_BaAlGeF
_symmetry_space_group_name_H-M   'P 1'
_cell_length_a   4.26487649
_cell_length_b   4.26487649
_cell_length_c   9.94705175
_cell_angle_alpha   90.00000000
_cell_angle_beta   90.00000000
_cell_angle_gamma   90.00000000
_symmetry_Int_Tables_number   1
_chemical_formula_structural   BaAlGeF
_chemical_formula_sum   'Ba2 Al2 Ge2 F2'
_cell_volume   180.92863022
_cell_formula_units_Z   2
loop_
 _symmetry_equiv_pos_site_id
 _symmetry_equiv_pos_as_xyz
  1  'x, y, z'
loop_
 _atom_site_type_symbol
 _atom_site_label
 _atom_site_symmetry_multiplicity
 _atom_site_fract_x
 _atom_site_fract_y
 _atom_site_fract_z
 _atom_site_occupancy
  Ba  Ba0  1  0.50000000  0.00000000  0.15889564  1.0
  Ba  Ba1  1  0.00000000  0.50000000  0.84110436  1.0
  Al  Al2  1  0.00000000  0.00000000  0.50000000  1.0
  Al  Al3  1  0.50000000  0.50000000  0.50000000  1.0
  Ge  Ge4  1  0.50000000  0.00000000  0.65641013  1.0
  Ge  Ge5  1  0.00000000  0.50000000  0.34358987  1.0
  F  F6  1  0.00000000  0.00000000  0.00000000  1.0
  F  F7  1  0.50000000  0.50000000  0.00000000  1.0
