# generated using pymatgen
data_EuVO4
_symmetry_space_group_name_H-M   'P 1'
_cell_length_a   6.84059265
_cell_length_b   6.84059265
_cell_length_c   5.15391207
_cell_angle_alpha   67.86865222
_cell_angle_beta   112.13134778
_cell_angle_gamma   64.39033327
_symmetry_Int_Tables_number   1
_chemical_formula_structural   EuVO4
_chemical_formula_sum   'Eu2 V2 O8'
_cell_volume   153.78781996
_cell_formula_units_Z   2
loop_
 _symmetry_equiv_pos_site_id
 _symmetry_equiv_pos_as_xyz
  1  'x, y, z'
loop_
 _atom_site_type_symbol
 _atom_site_label
 _atom_site_symmetry_multiplicity
 _atom_site_fract_x
 _atom_site_fract_y
 _atom_site_fract_z
 _atom_site_occupancy
  Eu  Eu0  1  1.12500360  0.12500360  0.75000000  1.0
  Eu  Eu1  1  0.87499640  -0.12500360  0.25000000  1.0
  V  V2  1  0.62491972  0.62491972  0.75000000  1.0
  V  V3  1  0.37508028  0.37508028  0.25000000  1.0
  O  O4  1  0.79427598  0.29623863  0.13695545  1.0
  O  O5  1  0.70376137  0.20572402  0.63695545  1.0
  O  O6  1  1.29623863  -0.20572402  0.36304455  1.0
  O  O7  1  1.20572402  -0.29623863  0.86304455  1.0
  O  O8  1  0.43315517  0.15754893  0.13887889  1.0
  O  O9  1  0.84245107  0.56684483  0.63887890  1.0
  O  O10  1  1.15754893  -0.56684483  0.36112110  1.0
  O  O11  1  1.56684483  -0.15754893  0.86112110  1.0
