# generated using pymatgen
data_K2Na2Gd4Nb2O13
_symmetry_space_group_name_H-M   'P 1'
_cell_length_a   12.47643280
_cell_length_b   12.47643280
_cell_length_c   11.24459860
_cell_angle_alpha   64.58257812
_cell_angle_beta   115.41742188
_cell_angle_gamma   153.69418084
_symmetry_Int_Tables_number   1
_chemical_formula_structural   K2Na2Gd4Nb2O13
_chemical_formula_sum   'K4 Na4 Gd8 Nb4 O26'
_cell_volume   696.27280732
_cell_formula_units_Z   2
loop_
 _symmetry_equiv_pos_site_id
 _symmetry_equiv_pos_as_xyz
  1  'x, y, z'
loop_
 _atom_site_type_symbol
 _atom_site_label
 _atom_site_symmetry_multiplicity
 _atom_site_fract_x
 _atom_site_fract_y
 _atom_site_fract_z
 _atom_site_occupancy
  K  K0  1  1.69648446  0.19860782  0.63206024  1.0
  K  K1  1  0.80139218  -0.69648446  0.13206024  1.0
  K  K2  1  1.19860782  -0.30351554  0.86793976  1.0
  K  K3  1  1.30351554  -0.19860782  0.36793976  1.0
  Na  Na4  1  1.80199098  0.11979895  0.97751001  1.0
  Na  Na5  1  0.88020105  -0.80199098  0.47751001  1.0
  Na  Na6  1  1.11979895  -0.19800902  0.52248999  1.0
  Na  Na7  1  1.19800902  -0.11979895  0.02248999  1.0
  Gd  Gd8  1  1.90215500  0.02562707  0.82898328  1.0
  Gd  Gd9  1  0.97437293  -0.90215500  0.32898328  1.0
  Gd  Gd10  1  1.02562707  -0.09784500  0.67101672  1.0
  Gd  Gd11  1  1.09784500  -0.02562707  0.17101672  1.0
  Gd  Gd12  1  1.48416275  -0.39132399  0.55066664  1.0
  Gd  Gd13  1  1.39132399  -0.48416275  0.05066664  1.0
  Gd  Gd14  1  0.60867601  -0.51583725  0.94933336  1.0
  Gd  Gd15  1  1.51583725  0.39132399  0.44933336  1.0
  Nb  Nb16  1  1.61548552  0.31625460  0.78125330  1.0
  Nb  Nb17  1  0.68374540  -0.61548552  0.28125330  1.0
  Nb  Nb18  1  1.31625460  -0.38451448  0.71874670  1.0
  Nb  Nb19  1  1.38451448  -0.31625460  0.21874670  1.0
  O  O20  1  1.56190774  -0.18084465  0.86357119  1.0
  O  O21  1  1.18084465  -0.56190774  0.36357119  1.0
  O  O22  1  0.81915535  -0.43809226  0.63642881  1.0
  O  O23  1  1.43809226  0.18084465  0.13642881  1.0
  O  O24  1  1.59181865  -0.14043346  0.62370380  1.0
  O  O25  1  1.14043346  -0.59181865  0.12370380  1.0
  O  O26  1  0.85956654  -0.40818135  0.87629620  1.0
  O  O27  1  1.40818135  0.14043346  0.37629620  1.0
  O  O28  1  1.66910182  0.20125750  0.87369889  1.0
  O  O29  1  0.79874250  -0.66910182  0.37369889  1.0
  O  O30  1  1.20125750  -0.33089818  0.62630111  1.0
  O  O31  1  1.33089818  -0.20125750  0.12630111  1.0
  O  O32  1  1.35606187  0.09532823  0.63838537  1.0
  O  O33  1  0.90467177  -0.35606187  0.13838537  1.0
  O  O34  1  1.09532823  -0.64393813  0.86161463  1.0
  O  O35  1  1.64393813  -0.09532823  0.36161463  1.0
  O  O36  1  1.36901526  0.16996257  0.83890574  1.0
  O  O37  1  0.83003743  -0.36901526  0.33890574  1.0
  O  O38  1  1.16996257  -0.63098474  0.66109426  1.0
  O  O39  1  1.63098474  -0.16996257  0.16109426  1.0
  O  O40  1  1.24942998  0.24745242  0.97681420  1.0
  O  O41  1  0.75254758  -0.24942998  0.47681420  1.0
  O  O42  1  1.24745242  -0.75057002  0.52318580  1.0
  O  O43  1  1.75057002  -0.24745242  0.02318580  1.0
  O  O44  1  0.75885556  0.75885556  0.75000000  1.0
  O  O45  1  0.24114444  0.24114444  0.25000000  1.0
