# generated using pymatgen
data_Sr(Cu2Sn)2
_symmetry_space_group_name_H-M   'P 1'
_cell_length_a   7.03348752
_cell_length_b   7.03348752
_cell_length_c   7.03348752
_cell_angle_alpha   108.18413668
_cell_angle_beta   108.18413668
_cell_angle_gamma   112.07724228
_symmetry_Int_Tables_number   1
_chemical_formula_structural   Sr(Cu2Sn)2
_chemical_formula_sum   'Sr2 Cu8 Sn4'
_cell_volume   267.43148773
_cell_formula_units_Z   2
loop_
 _symmetry_equiv_pos_site_id
 _symmetry_equiv_pos_as_xyz
  1  'x, y, z'
loop_
 _atom_site_type_symbol
 _atom_site_label
 _atom_site_symmetry_multiplicity
 _atom_site_fract_x
 _atom_site_fract_y
 _atom_site_fract_z
 _atom_site_occupancy
  Sr  Sr0  1  0.25000000  0.25000000  -0.00000000  1.0
  Sr  Sr1  1  0.75000000  0.75000000  -0.00000000  1.0
  Cu  Cu2  1  1.20435870  0.70435870  1.23093029  1.0
  Cu  Cu3  1  0.52657159  1.02657159  1.23093029  1.0
  Cu  Cu4  1  0.97342841  1.20435870  1.50000000  1.0
  Cu  Cu5  1  0.29564130  0.52657159  0.50000000  1.0
  Cu  Cu6  1  0.70435870  0.47342841  0.50000000  1.0
  Cu  Cu7  1  1.02657159  0.79564130  1.50000000  1.0
  Cu  Cu8  1  0.47342841  0.97342841  0.76906971  1.0
  Cu  Cu9  1  0.79564130  0.29564130  0.76906971  1.0
  Sn  Sn10  1  0.83790174  0.33790174  1.17580348  1.0
  Sn  Sn11  1  0.66209826  0.83790174  0.50000000  1.0
  Sn  Sn12  1  0.33790174  0.16209826  0.50000000  1.0
  Sn  Sn13  1  1.16209826  0.66209826  0.82419652  1.0
