# generated using pymatgen
data_TaI5
_symmetry_space_group_name_H-M   'P 1'
_cell_length_a   14.80733445
_cell_length_b   21.02444752
_cell_length_c   7.03191674
_cell_angle_alpha   90.00000000
_cell_angle_beta   90.00000000
_cell_angle_gamma   90.00000000
_symmetry_Int_Tables_number   1
_chemical_formula_structural   TaI5
_chemical_formula_sum   'Ta8 I40'
_cell_volume   2189.14837638
_cell_formula_units_Z   8
loop_
 _symmetry_equiv_pos_site_id
 _symmetry_equiv_pos_as_xyz
  1  'x, y, z'
loop_
 _atom_site_type_symbol
 _atom_site_label
 _atom_site_symmetry_multiplicity
 _atom_site_fract_x
 _atom_site_fract_y
 _atom_site_fract_z
 _atom_site_occupancy
  Ta  Ta0  1  0.37449967  0.85758250  0.50184008  1.0
  Ta  Ta1  1  0.37449967  0.64241750  0.50184008  1.0
  Ta  Ta2  1  0.87449967  0.85758250  0.99815992  1.0
  Ta  Ta3  1  0.87449967  0.64241750  0.99815992  1.0
  Ta  Ta4  1  0.62550033  0.35758250  0.49815992  1.0
  Ta  Ta5  1  0.62550033  0.14241750  0.49815992  1.0
  Ta  Ta6  1  0.12550033  0.35758250  0.00184008  1.0
  Ta  Ta7  1  0.12550033  0.14241750  0.00184008  1.0
  I  I8  1  0.47842135  0.34826609  0.72948743  1.0
  I  I9  1  0.47842135  0.15173391  0.72948743  1.0
  I  I10  1  0.97842135  0.34826609  0.77051257  1.0
  I  I11  1  0.97842135  0.15173391  0.77051257  1.0
  I  I12  1  0.52157865  0.84826609  0.27051257  1.0
  I  I13  1  0.52157865  0.65173391  0.27051257  1.0
  I  I14  1  0.02157865  0.84826609  0.22948743  1.0
  I  I15  1  0.02157865  0.65173391  0.22948743  1.0
  I  I16  1  0.45860979  0.93603422  0.74098195  1.0
  I  I17  1  0.45860979  0.56396578  0.74098195  1.0
  I  I18  1  0.95860979  0.93603422  0.75901805  1.0
  I  I19  1  0.95860979  0.56396578  0.75901805  1.0
  I  I20  1  0.54139021  0.43603422  0.25901805  1.0
  I  I21  1  0.54139021  0.06396578  0.25901805  1.0
  I  I22  1  0.04139021  0.43603422  0.24098195  1.0
  I  I23  1  0.04139021  0.06396578  0.24098195  1.0
  I  I24  1  0.22723152  0.84799976  0.73325856  1.0
  I  I25  1  0.22723152  0.65200024  0.73325856  1.0
  I  I26  1  0.72723152  0.84799976  0.76674144  1.0
  I  I27  1  0.72723152  0.65200024  0.76674144  1.0
  I  I28  1  0.77276848  0.34799976  0.26674144  1.0
  I  I29  1  0.77276848  0.15200024  0.26674144  1.0
  I  I30  1  0.27276848  0.34799976  0.23325856  1.0
  I  I31  1  0.27276848  0.15200024  0.23325856  1.0
  I  I32  1  0.20982674  0.43632853  0.76357164  1.0
  I  I33  1  0.20982674  0.06367147  0.76357164  1.0
  I  I34  1  0.70982674  0.43632853  0.73642836  1.0
  I  I35  1  0.70982674  0.06367147  0.73642836  1.0
  I  I36  1  0.79017326  0.93632853  0.23642836  1.0
  I  I37  1  0.79017326  0.56367147  0.23642836  1.0
  I  I38  1  0.29017326  0.93632853  0.26357164  1.0
  I  I39  1  0.29017326  0.56367147  0.26357164  1.0
  I  I40  1  0.45021254  0.75000000  0.71430111  1.0
  I  I41  1  0.95021254  0.75000000  0.78569889  1.0
  I  I42  1  0.54978746  0.25000000  0.28569889  1.0
  I  I43  1  0.04978746  0.25000000  0.21430111  1.0
  I  I44  1  0.29869084  0.75000000  0.28945579  1.0
  I  I45  1  0.79869084  0.75000000  0.21054421  1.0
  I  I46  1  0.70130916  0.25000000  0.71054421  1.0
  I  I47  1  0.20130916  0.25000000  0.78945579  1.0
