# generated using pymatgen
data_LiN
_symmetry_space_group_name_H-M   'P 1'
_cell_length_a   5.52772587
_cell_length_b   5.52772587
_cell_length_c   5.52772587
_cell_angle_alpha   123.45722363
_cell_angle_beta   123.45722363
_cell_angle_gamma   84.10944720
_symmetry_Int_Tables_number   1
_chemical_formula_structural   LiN
_chemical_formula_sum   'Li4 N4'
_cell_volume   112.54115470
_cell_formula_units_Z   4
loop_
 _symmetry_equiv_pos_site_id
 _symmetry_equiv_pos_as_xyz
  1  'x, y, z'
loop_
 _atom_site_type_symbol
 _atom_site_label
 _atom_site_symmetry_multiplicity
 _atom_site_fract_x
 _atom_site_fract_y
 _atom_site_fract_z
 _atom_site_occupancy
  Li  Li0  1  0.31232669  0.31232669  -0.00000000  1.0
  Li  Li1  1  0.68767331  0.68767331  1.00000000  1.0
  Li  Li2  1  0.00000000  0.00000000  0.00000000  1.0
  Li  Li3  1  0.25000000  0.75000000  0.50000000  1.0
  N  N4  1  0.35886689  0.91154909  0.97685164  1.0
  N  N5  1  1.08845091  1.06530255  1.44731781  1.0
  N  N6  1  0.93469745  0.38201525  1.02314836  1.0
  N  N7  1  0.61798475  0.64113311  0.55268219  1.0
