# generated using pymatgen
data_BaTeO3
_symmetry_space_group_name_H-M   'P 1'
_cell_length_a   4.60312324
_cell_length_b   6.15812254
_cell_length_c   7.26676638
_cell_angle_alpha   90.00000000
_cell_angle_beta   106.61514623
_cell_angle_gamma   90.00000000
_symmetry_Int_Tables_number   1
_chemical_formula_structural   BaTeO3
_chemical_formula_sum   'Ba2 Te2 O6'
_cell_volume   197.38748059
_cell_formula_units_Z   2
loop_
 _symmetry_equiv_pos_site_id
 _symmetry_equiv_pos_as_xyz
  1  'x, y, z'
loop_
 _atom_site_type_symbol
 _atom_site_label
 _atom_site_symmetry_multiplicity
 _atom_site_fract_x
 _atom_site_fract_y
 _atom_site_fract_z
 _atom_site_occupancy
  Ba  Ba0  1  0.66147246  0.75000000  0.31766252  1.0
  Ba  Ba1  1  0.33852754  0.25000000  0.68233748  1.0
  Te  Te2  1  0.93312051  0.75000000  0.85427961  1.0
  Te  Te3  1  0.06687949  0.25000000  0.14572039  1.0
  O  O4  1  0.82575890  0.98940005  0.67256230  1.0
  O  O5  1  0.82575890  0.51059995  0.67256230  1.0
  O  O6  1  0.17424110  0.48940005  0.32743770  1.0
  O  O7  1  0.17424110  0.01059995  0.32743770  1.0
  O  O8  1  0.37183447  0.75000000  0.90301150  1.0
  O  O9  1  0.62816553  0.25000000  0.09698850  1.0
