# generated using pymatgen
data_Ba2(InAs)5
_symmetry_space_group_name_H-M   'P 1'
_cell_length_a   17.80787282
_cell_length_b   4.36792042
_cell_length_c   18.29485857
_cell_angle_alpha   90.00000000
_cell_angle_beta   90.00000000
_cell_angle_gamma   90.00000000
_symmetry_Int_Tables_number   1
_chemical_formula_structural   Ba2(InAs)5
_chemical_formula_sum   'Ba8 In20 As20'
_cell_volume   1423.03577829
_cell_formula_units_Z   4
loop_
 _symmetry_equiv_pos_site_id
 _symmetry_equiv_pos_as_xyz
  1  'x, y, z'
loop_
 _atom_site_type_symbol
 _atom_site_label
 _atom_site_symmetry_multiplicity
 _atom_site_fract_x
 _atom_site_fract_y
 _atom_site_fract_z
 _atom_site_occupancy
  Ba  Ba0  1  0.97990636  0.75000000  0.62034949  1.0
  Ba  Ba1  1  0.47990636  0.75000000  0.87965051  1.0
  Ba  Ba2  1  0.02009364  0.25000000  0.37965051  1.0
  Ba  Ba3  1  0.52009364  0.25000000  0.12034949  1.0
  Ba  Ba4  1  0.95663207  0.75000000  0.12908469  1.0
  Ba  Ba5  1  0.45663207  0.75000000  0.37091531  1.0
  Ba  Ba6  1  0.04336793  0.25000000  0.87091531  1.0
  Ba  Ba7  1  0.54336793  0.25000000  0.62908469  1.0
  In  In8  1  0.84341841  0.75000000  0.80993328  1.0
  In  In9  1  0.34341841  0.75000000  0.69006672  1.0
  In  In10  1  0.15658159  0.25000000  0.19006672  1.0
  In  In11  1  0.65658159  0.25000000  0.30993328  1.0
  In  In12  1  0.82803164  0.75000000  0.44116495  1.0
  In  In13  1  0.32803164  0.75000000  0.05883505  1.0
  In  In14  1  0.17196836  0.25000000  0.55883505  1.0
  In  In15  1  0.67196836  0.25000000  0.94116495  1.0
  In  In16  1  0.71172364  0.75000000  0.12646203  1.0
  In  In17  1  0.21172364  0.75000000  0.37353797  1.0
  In  In18  1  0.28827636  0.25000000  0.87353797  1.0
  In  In19  1  0.78827636  0.25000000  0.62646203  1.0
  In  In20  1  0.68837112  0.75000000  0.77863547  1.0
  In  In21  1  0.18837112  0.75000000  0.72136453  1.0
  In  In22  1  0.31162888  0.25000000  0.22136453  1.0
  In  In23  1  0.81162888  0.25000000  0.27863547  1.0
  In  In24  1  0.67098644  0.75000000  0.47046595  1.0
  In  In25  1  0.17098644  0.75000000  0.02953405  1.0
  In  In26  1  0.32901356  0.25000000  0.52953405  1.0
  In  In27  1  0.82901356  0.25000000  0.97046595  1.0
  As  As28  1  0.89740418  0.75000000  0.30864938  1.0
  As  As29  1  0.39740418  0.75000000  0.19135062  1.0
  As  As30  1  0.10259582  0.25000000  0.69135062  1.0
  As  As31  1  0.60259582  0.25000000  0.80864938  1.0
  As  As32  1  0.69454897  0.75000000  0.62506659  1.0
  As  As33  1  0.19454897  0.75000000  0.87493341  1.0
  As  As34  1  0.30545103  0.25000000  0.37493341  1.0
  As  As35  1  0.80545103  0.25000000  0.12506659  1.0
  As  As36  1  0.61385933  0.75000000  0.01184256  1.0
  As  As37  1  0.11385933  0.75000000  0.48815744  1.0
  As  As38  1  0.38614067  0.25000000  0.98815744  1.0
  As  As39  1  0.88614067  0.25000000  0.51184256  1.0
  As  As40  1  0.60559508  0.75000000  0.23462044  1.0
  As  As41  1  0.10559508  0.75000000  0.26537956  1.0
  As  As42  1  0.39440492  0.25000000  0.76537956  1.0
  As  As43  1  0.89440492  0.25000000  0.73462044  1.0
  As  As44  1  0.41839980  0.75000000  0.55873456  1.0
  As  As45  1  0.91839980  0.75000000  0.94126544  1.0
  As  As46  1  0.58160020  0.25000000  0.44126544  1.0
  As  As47  1  0.08160020  0.25000000  0.05873456  1.0
