# generated using pymatgen
data_YNb(TeO4)2
_symmetry_space_group_name_H-M   'P 1'
_cell_length_a   5.58017102
_cell_length_b   5.58017102
_cell_length_c   22.35284136
_cell_angle_alpha   89.99906508
_cell_angle_beta   90.00093492
_cell_angle_gamma   93.43905173
_symmetry_Int_Tables_number   1
_chemical_formula_structural   YNb(TeO4)2
_chemical_formula_sum   'Y4 Nb4 Te8 O32'
_cell_volume   694.77624383
_cell_formula_units_Z   4
loop_
 _symmetry_equiv_pos_site_id
 _symmetry_equiv_pos_as_xyz
  1  'x, y, z'
loop_
 _atom_site_type_symbol
 _atom_site_label
 _atom_site_symmetry_multiplicity
 _atom_site_fract_x
 _atom_site_fract_y
 _atom_site_fract_z
 _atom_site_occupancy
  Y  Y0  1  1.25242405  0.25242405  0.50000000  1.0
  Y  Y1  1  0.74757595  -0.25242405  0.50000000  1.0
  Y  Y2  1  1.24756711  0.24756711  0.00000000  1.0
  Y  Y3  1  0.75243289  -0.24756711  0.00000000  1.0
  Nb  Nb4  1  0.76886003  -0.26882377  0.74998934  1.0
  Nb  Nb5  1  1.26882377  0.23113997  0.74998934  1.0
  Nb  Nb6  1  0.73117623  -0.23113997  0.25001066  1.0
  Nb  Nb7  1  1.23113997  0.26882377  0.25001066  1.0
  Te  Te8  1  0.19015371  -0.19015371  0.87243295  1.0
  Te  Te9  1  0.80984629  -0.80984629  0.12756705  1.0
  Te  Te10  1  0.19309742  -0.19309742  0.60789747  1.0
  Te  Te11  1  0.80690258  -0.80690258  0.39210253  1.0
  Te  Te12  1  0.30987329  -0.30987329  0.37243021  1.0
  Te  Te13  1  0.69012671  -0.69012671  0.62756979  1.0
  Te  Te14  1  0.69306035  -0.69306035  0.89210102  1.0
  Te  Te15  1  0.30693965  -0.30693965  0.10789898  1.0
  O  O16  1  1.24618583  0.13985633  0.83908547  1.0
  O  O17  1  0.86014367  -0.24618583  0.83908547  1.0
  O  O18  1  1.13985633  0.24618583  0.16091453  1.0
  O  O19  1  0.75381417  -0.13985633  0.16091453  1.0
  O  O20  1  1.36007809  0.25400355  0.66090069  1.0
  O  O21  1  0.74599645  -0.36007809  0.66090069  1.0
  O  O22  1  1.25400355  0.36007809  0.33909931  1.0
  O  O23  1  0.63992191  -0.25400355  0.33909931  1.0
  O  O24  1  1.55975412  0.04285636  0.94264892  1.0
  O  O25  1  0.95714364  -0.55975412  0.94264892  1.0
  O  O26  1  1.04285636  0.55975412  0.05735108  1.0
  O  O27  1  0.44024588  -0.04285636  0.05735108  1.0
  O  O28  1  0.45717518  -0.05976323  0.55735611  1.0
  O  O29  1  1.05976323  0.54282482  0.55735611  1.0
  O  O30  1  0.94023677  -0.54282482  0.44264389  1.0
  O  O31  1  1.54282482  0.05976323  0.44264389  1.0
  O  O32  1  0.54650385  -0.04583371  0.74995610  1.0
  O  O33  1  1.04583371  0.45349615  0.74995610  1.0
  O  O34  1  0.95416629  -0.45349615  0.25004390  1.0
  O  O35  1  1.45349615  0.04583371  0.25004390  1.0
  O  O36  1  0.01746843  -0.01746843  0.43656843  1.0
  O  O37  1  0.98253157  -0.98253157  0.56343157  1.0
  O  O38  1  0.04612379  -0.04612379  0.73047611  1.0
  O  O39  1  0.95387621  -0.95387621  0.26952389  1.0
  O  O40  1  0.06605110  -0.06605110  0.94633152  1.0
  O  O41  1  0.93394890  -0.93394890  0.05366848  1.0
  O  O42  1  0.43391910  -0.43391910  0.44634314  1.0
  O  O43  1  0.56608090  -0.56608090  0.55365686  1.0
  O  O44  1  0.48250715  -0.48250715  0.93657036  1.0
  O  O45  1  0.51749285  -0.51749285  0.06342964  1.0
  O  O46  1  0.54553293  -0.54553293  0.76956790  1.0
  O  O47  1  0.45446707  -0.45446707  0.23043210  1.0
