# generated using pymatgen
data_CsLiH4S2(NO3)2
_symmetry_space_group_name_H-M   'P 1'
_cell_length_a   8.05021864
_cell_length_b   5.53152196
_cell_length_c   10.23892174
_cell_angle_alpha   103.60099884
_cell_angle_beta   101.58285962
_cell_angle_gamma   88.65174354
_symmetry_Int_Tables_number   1
_chemical_formula_structural   CsLiH4S2(NO3)2
_chemical_formula_sum   'Cs2 Li2 H8 S4 N4 O12'
_cell_volume   433.99384765
_cell_formula_units_Z   2
loop_
 _symmetry_equiv_pos_site_id
 _symmetry_equiv_pos_as_xyz
  1  'x, y, z'
loop_
 _atom_site_type_symbol
 _atom_site_label
 _atom_site_symmetry_multiplicity
 _atom_site_fract_x
 _atom_site_fract_y
 _atom_site_fract_z
 _atom_site_occupancy
  Cs  Cs0  1  0.25302751  0.80421984  -0.90729273  1.0
  Cs  Cs1  1  0.74697249  0.19578016  -0.09270727  1.0
  Li  Li2  1  0.60616780  0.35897908  -0.70972484  1.0
  Li  Li3  1  0.39383220  0.64102092  -0.29027516  1.0
  H  H4  1  0.73673005  0.88725441  -0.51009523  1.0
  H  H5  1  0.26326995  0.11274559  -0.48990477  1.0
  H  H6  1  0.54369554  0.82680210  -0.48248343  1.0
  H  H7  1  0.45630446  0.17319790  -0.51751657  1.0
  H  H8  1  0.96591754  0.72239948  -0.65088518  1.0
  H  H9  1  0.03408246  0.27760052  -0.34911482  1.0
  H  H10  1  0.95558490  0.03236280  -0.64554210  1.0
  H  H11  1  0.04441510  0.96763720  -0.35445790  1.0
  S  S12  1  0.75792743  0.80842751  -0.81265705  1.0
  S  S13  1  0.24207257  0.19157249  -0.18734295  1.0
  S  S14  1  0.73667570  0.59139580  -0.39357487  1.0
  S  S15  1  0.26332430  0.40860420  -0.60642513  1.0
  N  N16  1  0.88725188  0.87045961  -0.65864765  1.0
  N  N17  1  0.11274812  0.12954039  -0.34135235  1.0
  N  N18  1  0.67054630  0.85328587  -0.43910851  1.0
  N  N19  1  0.32945370  0.14671413  -0.56089149  1.0
  O  O20  1  0.35334153  0.97488421  -0.18889940  1.0
  O  O21  1  0.64665847  0.02511579  -0.81110060  1.0
  O  O22  1  0.85603806  0.77370441  -0.92246934  1.0
  O  O23  1  0.14396194  0.22629559  -0.07753066  1.0
  O  O24  1  0.91963491  0.63140326  -0.33824410  1.0
  O  O25  1  0.08036509  0.36859674  -0.66175590  1.0
  O  O26  1  0.66470216  0.57848553  -0.81760186  1.0
  O  O27  1  0.33529784  0.42151447  -0.18239814  1.0
  O  O28  1  0.36228207  0.42811057  -0.71113312  1.0
  O  O29  1  0.63771793  0.57188943  -0.28886688  1.0
  O  O30  1  0.69832131  0.37777484  -0.51492445  1.0
  O  O31  1  0.30167869  0.62222516  -0.48507555  1.0
