# generated using pymatgen
data_B
_symmetry_space_group_name_H-M   'P 1'
_cell_length_a   7.28962274
_cell_length_b   7.28962274
_cell_length_c   7.28962274
_cell_angle_alpha   90.00000000
_cell_angle_beta   90.00000000
_cell_angle_gamma   90.00000000
_symmetry_Int_Tables_number   1
_chemical_formula_structural   B
_chemical_formula_sum   B48
_cell_volume   387.36034420
_cell_formula_units_Z   48
loop_
 _symmetry_equiv_pos_site_id
 _symmetry_equiv_pos_as_xyz
  1  'x, y, z'
loop_
 _atom_site_type_symbol
 _atom_site_label
 _atom_site_symmetry_multiplicity
 _atom_site_fract_x
 _atom_site_fract_y
 _atom_site_fract_z
 _atom_site_occupancy
  B  B0  1  -0.00000362  0.85709600  0.64321505  1.0
  B  B1  1  0.35678495  -0.00000362  0.14290400  1.0
  B  B2  1  0.85709600  0.35678495  1.00000362  1.0
  B  B3  1  -0.00000362  0.14290400  0.35678495  1.0
  B  B4  1  0.35678495  1.00000362  0.85709600  1.0
  B  B5  1  0.85709600  0.64321505  -0.00000362  1.0
  B  B6  1  1.00000362  0.85709600  0.35678495  1.0
  B  B7  1  0.64321505  -0.00000362  0.85709600  1.0
  B  B8  1  0.14290400  0.35678495  -0.00000362  1.0
  B  B9  1  1.00000362  0.14290400  0.64321505  1.0
  B  B10  1  0.64321505  1.00000362  0.14290400  1.0
  B  B11  1  0.14290400  0.64321505  1.00000362  1.0
  B  B12  1  0.30196496  0.49998903  0.62467507  1.0
  B  B13  1  0.37532493  0.30196496  0.50001097  1.0
  B  B14  1  0.49998903  0.37532493  0.69803504  1.0
  B  B15  1  0.30196496  0.50001097  0.37532493  1.0
  B  B16  1  0.37532493  0.69803504  0.49998903  1.0
  B  B17  1  0.49998903  0.62467507  0.30196496  1.0
  B  B18  1  0.69803504  0.49998903  0.37532493  1.0
  B  B19  1  0.62467507  0.30196496  0.49998903  1.0
  B  B20  1  0.50001097  0.37532493  0.30196496  1.0
  B  B21  1  0.69803504  0.50001097  0.62467507  1.0
  B  B22  1  0.62467507  0.69803504  0.50001097  1.0
  B  B23  1  0.50001097  0.62467507  0.69803504  1.0
  B  B24  1  0.50000690  0.21579385  0.13162291  1.0
  B  B25  1  0.86837709  0.50000690  0.78420615  1.0
  B  B26  1  0.21579385  0.86837709  0.49999310  1.0
  B  B27  1  0.50000690  0.78420615  0.86837709  1.0
  B  B28  1  0.86837709  0.49999310  0.21579385  1.0
  B  B29  1  0.21579385  0.13162291  0.50000690  1.0
  B  B30  1  0.49999310  0.21579385  0.86837709  1.0
  B  B31  1  0.13162291  0.50000690  0.21579385  1.0
  B  B32  1  0.78420615  0.86837709  0.50000690  1.0
  B  B33  1  0.49999310  0.78420615  0.13162291  1.0
  B  B34  1  0.13162291  0.49999310  0.78420615  1.0
  B  B35  1  0.78420615  0.13162291  0.49999310  1.0
  B  B36  1  0.19315661  0.00000117  0.30765252  1.0
  B  B37  1  0.69234748  0.19315661  0.99999883  1.0
  B  B38  1  0.00000117  0.69234748  0.80684339  1.0
  B  B39  1  0.19315661  0.99999883  0.69234748  1.0
  B  B40  1  0.69234748  0.80684339  0.00000117  1.0
  B  B41  1  0.00000117  0.30765252  0.19315661  1.0
  B  B42  1  0.80684339  0.00000117  0.69234748  1.0
  B  B43  1  0.30765252  0.19315661  0.00000117  1.0
  B  B44  1  0.99999883  0.69234748  0.19315661  1.0
  B  B45  1  0.80684339  0.99999883  0.30765252  1.0
  B  B46  1  0.30765252  0.80684339  0.99999883  1.0
  B  B47  1  0.99999883  0.30765252  0.80684339  1.0
