# generated using pymatgen
data_SiS2
_symmetry_space_group_name_H-M   'P 1'
_cell_length_a   6.95016808
_cell_length_b   6.95016808
_cell_length_c   6.95016808
_cell_angle_alpha   126.21543761
_cell_angle_beta   74.50949250
_cell_angle_gamma   132.55173481
_symmetry_Int_Tables_number   1
_chemical_formula_structural   SiS2
_chemical_formula_sum   'Si2 S4'
_cell_volume   194.51781709
_cell_formula_units_Z   2
loop_
 _symmetry_equiv_pos_site_id
 _symmetry_equiv_pos_as_xyz
  1  'x, y, z'
loop_
 _atom_site_type_symbol
 _atom_site_label
 _atom_site_symmetry_multiplicity
 _atom_site_fract_x
 _atom_site_fract_y
 _atom_site_fract_z
 _atom_site_occupancy
  Si  Si0  1  0.25000000  0.25000000  0.00000000  1.0
  Si  Si1  1  0.75000000  0.75000000  0.00000000  1.0
  S  S2  1  0.39581090  0.31614396  0.71195486  1.0
  S  S3  1  0.10418910  0.81614396  0.92033306  1.0
  S  S4  1  0.89581090  1.18385604  1.07966694  1.0
  S  S5  1  0.60418910  0.68385604  0.28804514  1.0
