# generated using pymatgen
data_Bi(PdO2)2
_symmetry_space_group_name_H-M   'P 1'
_cell_length_a   6.15878194
_cell_length_b   5.78921393
_cell_length_c   6.83138284
_cell_angle_alpha   64.63000560
_cell_angle_beta   60.05113994
_cell_angle_gamma   68.33977365
_symmetry_Int_Tables_number   1
_chemical_formula_structural   Bi(PdO2)2
_chemical_formula_sum   'Bi2 Pd4 O8'
_cell_volume   186.90824726
_cell_formula_units_Z   2
loop_
 _symmetry_equiv_pos_site_id
 _symmetry_equiv_pos_as_xyz
  1  'x, y, z'
loop_
 _atom_site_type_symbol
 _atom_site_label
 _atom_site_symmetry_multiplicity
 _atom_site_fract_x
 _atom_site_fract_y
 _atom_site_fract_z
 _atom_site_occupancy
  Bi  Bi0  1  0.41095670  -0.64148551  0.35050671  1.0
  Bi  Bi1  1  -0.41095670  -0.35851449  0.64949329  1.0
  Pd  Pd2  1  -0.00000000  -0.50000000  -0.00000000  1.0
  Pd  Pd3  1  0.00000000  0.00000000  0.50000000  1.0
  Pd  Pd4  1  0.50000000  -0.00000000  -0.00000000  1.0
  Pd  Pd5  1  0.00000000  0.00000000  0.00000000  1.0
  O  O6  1  -0.62758154  -0.98178727  0.75439374  1.0
  O  O7  1  0.62758154  -0.01821273  0.24560626  1.0
  O  O8  1  -0.16853115  -0.85999656  0.77293730  1.0
  O  O9  1  0.16853115  -0.14000344  0.22706270  1.0
  O  O10  1  -0.34333087  -0.37533013  0.98965579  1.0
  O  O11  1  0.34333087  -0.62466987  0.01034421  1.0
  O  O12  1  0.21184322  -0.33942031  0.64633429  1.0
  O  O13  1  -0.21184322  -0.66057969  0.35366571  1.0
