# generated using pymatgen
data_HPb3ClO3
_symmetry_space_group_name_H-M   'P 1'
_cell_length_a   5.92608714
_cell_length_b   7.20431735
_cell_length_c   15.46306066
_cell_angle_alpha   90.00000000
_cell_angle_beta   90.00000000
_cell_angle_gamma   90.00000000
_symmetry_Int_Tables_number   1
_chemical_formula_structural   HPb3ClO3
_chemical_formula_sum   'H4 Pb12 Cl4 O12'
_cell_volume   660.17082592
_cell_formula_units_Z   4
loop_
 _symmetry_equiv_pos_site_id
 _symmetry_equiv_pos_as_xyz
  1  'x, y, z'
loop_
 _atom_site_type_symbol
 _atom_site_label
 _atom_site_symmetry_multiplicity
 _atom_site_fract_x
 _atom_site_fract_y
 _atom_site_fract_z
 _atom_site_occupancy
  H  H0  1  0.50000000  0.23607216  0.82550166  1.0
  H  H1  1  0.50000000  0.76392784  0.32550166  1.0
  H  H2  1  0.00000000  0.78542106  0.62090051  1.0
  H  H3  1  0.00000000  0.21457894  0.12090051  1.0
  Pb  Pb4  1  0.50000000  0.78683436  0.97328668  1.0
  Pb  Pb5  1  0.50000000  0.21316564  0.47328668  1.0
  Pb  Pb6  1  0.50000000  0.71049050  0.51250171  1.0
  Pb  Pb7  1  0.50000000  0.28950950  0.01250171  1.0
  Pb  Pb8  1  0.50000000  0.61205663  0.75767790  1.0
  Pb  Pb9  1  0.50000000  0.38794337  0.25767790  1.0
  Pb  Pb10  1  0.00000000  0.92907492  0.79106516  1.0
  Pb  Pb11  1  0.00000000  0.07092508  0.29106516  1.0
  Pb  Pb12  1  0.00000000  0.47610299  0.89641276  1.0
  Pb  Pb13  1  0.00000000  0.52389701  0.39641276  1.0
  Pb  Pb14  1  0.00000000  0.39966837  0.62333831  1.0
  Pb  Pb15  1  0.00000000  0.60033163  0.12333831  1.0
  Cl  Cl16  1  0.50000000  0.96591592  0.20355670  1.0
  Cl  Cl17  1  0.50000000  0.03408408  0.70355670  1.0
  Cl  Cl18  1  0.00000000  0.94719169  0.49507226  1.0
  Cl  Cl19  1  0.00000000  0.05280831  -0.00492774  1.0
  O  O20  1  0.75013082  0.46438473  0.51830014  1.0
  O  O21  1  0.75013082  0.53561527  0.01830014  1.0
  O  O22  1  0.24986918  0.46438473  0.51830014  1.0
  O  O23  1  0.24986918  0.53561527  0.01830014  1.0
  O  O24  1  0.74972918  0.72392128  0.85240624  1.0
  O  O25  1  0.74972918  0.27607872  0.35240624  1.0
  O  O26  1  0.25027082  0.72392128  0.85240624  1.0
  O  O27  1  0.25027082  0.27607872  0.35240624  1.0
  O  O28  1  0.50000000  0.34821939  0.86177542  1.0
  O  O29  1  0.50000000  0.65178061  0.36177542  1.0
  O  O30  1  0.00000000  0.70734828  0.67329816  1.0
  O  O31  1  0.00000000  0.29265172  0.17329816  1.0
