# generated using pymatgen
data_TlV3(SeO6)2
_symmetry_space_group_name_H-M   'P 1'
_cell_length_a   7.20969245
_cell_length_b   7.20969245
_cell_length_c   12.21221877
_cell_angle_alpha   90.00000000
_cell_angle_beta   90.00000000
_cell_angle_gamma   120.00000000
_symmetry_Int_Tables_number   1
_chemical_formula_structural   TlV3(SeO6)2
_chemical_formula_sum   'Tl2 V6 Se4 O24'
_cell_volume   549.74170624
_cell_formula_units_Z   2
loop_
 _symmetry_equiv_pos_site_id
 _symmetry_equiv_pos_as_xyz
  1  'x, y, z'
loop_
 _atom_site_type_symbol
 _atom_site_label
 _atom_site_symmetry_multiplicity
 _atom_site_fract_x
 _atom_site_fract_y
 _atom_site_fract_z
 _atom_site_occupancy
  Tl  Tl0  1  0.33333333  0.66666667  0.15074575  1.0
  Tl  Tl1  1  0.66666667  0.33333333  0.65074575  1.0
  V  V2  1  0.78953612  0.66608709  0.27511806  1.0
  V  V3  1  0.66608709  0.87655098  0.77511806  1.0
  V  V4  1  0.87655098  0.21046388  0.27511806  1.0
  V  V5  1  0.33391291  0.12344902  0.27511806  1.0
  V  V6  1  0.21046388  0.33391291  0.77511806  1.0
  V  V7  1  0.12344902  0.78953612  0.77511806  1.0
  Se  Se8  1  0.33333333  0.66666667  0.56254846  1.0
  Se  Se9  1  0.66666667  0.33333333  0.06254846  1.0
  Se  Se10  1  0.00000000  0.00000000  -0.01591657  1.0
  Se  Se11  1  0.00000000  0.00000000  0.48408343  1.0
  O  O12  1  0.13139169  0.87998302  0.24472486  1.0
  O  O13  1  0.87998302  0.74859133  0.74472486  1.0
  O  O14  1  0.74859133  0.86860831  0.24472486  1.0
  O  O15  1  0.12001698  0.25140867  0.24472486  1.0
  O  O16  1  0.86860831  0.12001698  0.74472486  1.0
  O  O17  1  0.25140867  0.13139169  0.74472486  1.0
  O  O18  1  0.88334190  0.74824296  0.42396966  1.0
  O  O19  1  0.74824296  0.86490106  0.92396966  1.0
  O  O20  1  0.86490106  0.11665810  0.42396966  1.0
  O  O21  1  0.25175704  0.13509894  0.42396966  1.0
  O  O22  1  0.11665810  0.25175704  0.92396966  1.0
  O  O23  1  0.13509894  0.88334190  0.92396966  1.0
  O  O24  1  0.80371643  0.58540643  0.12098710  1.0
  O  O25  1  0.58540643  0.78169000  0.62098710  1.0
  O  O26  1  0.78169000  0.19628357  0.12098710  1.0
  O  O27  1  0.41459357  0.21831000  0.12098710  1.0
  O  O28  1  0.19628357  0.41459357  0.62098710  1.0
  O  O29  1  0.21831000  0.80371643  0.62098710  1.0
  O  O30  1  0.54436053  0.46327252  0.29824110  1.0
  O  O31  1  0.46327252  0.91891199  0.79824110  1.0
  O  O32  1  0.91891199  0.45563947  0.29824110  1.0
  O  O33  1  0.53672748  0.08108801  0.29824110  1.0
  O  O34  1  0.45563947  0.53672748  0.79824110  1.0
  O  O35  1  0.08108801  0.54436053  0.79824110  1.0
