# generated using pymatgen
data_Zr5In3Ag
_symmetry_space_group_name_H-M   'P 1'
_cell_length_a   8.78876054
_cell_length_b   8.78876054
_cell_length_c   5.95991507
_cell_angle_alpha   90.00000000
_cell_angle_beta   90.00000000
_cell_angle_gamma   120.00000000
_symmetry_Int_Tables_number   1
_chemical_formula_structural   Zr5In3Ag
_chemical_formula_sum   'Zr10 In6 Ag2'
_cell_volume   398.68139174
_cell_formula_units_Z   2
loop_
 _symmetry_equiv_pos_site_id
 _symmetry_equiv_pos_as_xyz
  1  'x, y, z'
loop_
 _atom_site_type_symbol
 _atom_site_label
 _atom_site_symmetry_multiplicity
 _atom_site_fract_x
 _atom_site_fract_y
 _atom_site_fract_z
 _atom_site_occupancy
  Zr  Zr0  1  0.69831959  0.69831959  0.25000000  1.0
  Zr  Zr1  1  0.69831959  0.00000000  0.75000000  1.0
  Zr  Zr2  1  -0.00000000  0.69831959  0.75000000  1.0
  Zr  Zr3  1  0.00000000  0.30168041  0.25000000  1.0
  Zr  Zr4  1  0.30168041  0.30168041  0.75000000  1.0
  Zr  Zr5  1  0.30168041  0.00000000  0.25000000  1.0
  Zr  Zr6  1  0.33333333  0.66666667  0.50000000  1.0
  Zr  Zr7  1  0.33333333  0.66666667  0.00000000  1.0
  Zr  Zr8  1  0.66666667  0.33333333  0.50000000  1.0
  Zr  Zr9  1  0.66666667  0.33333333  0.00000000  1.0
  In  In10  1  0.36197289  0.36197289  0.25000000  1.0
  In  In11  1  0.36197289  0.00000000  0.75000000  1.0
  In  In12  1  -0.00000000  0.36197289  0.75000000  1.0
  In  In13  1  0.00000000  0.63802711  0.25000000  1.0
  In  In14  1  0.63802711  0.63802711  0.75000000  1.0
  In  In15  1  0.63802711  0.00000000  0.25000000  1.0
  Ag  Ag16  1  0.00000000  0.00000000  0.50000000  1.0
  Ag  Ag17  1  0.00000000  0.00000000  0.00000000  1.0
