# generated using pymatgen
data_K2SbCl5
_symmetry_space_group_name_H-M   'P 1'
_cell_length_a   9.65878353
_cell_length_b   12.82927906
_cell_length_c   8.67934290
_cell_angle_alpha   90.00000000
_cell_angle_beta   109.17608819
_cell_angle_gamma   90.00000000
_symmetry_Int_Tables_number   1
_chemical_formula_structural   K2SbCl5
_chemical_formula_sum   'K8 Sb4 Cl20'
_cell_volume   1015.82692141
_cell_formula_units_Z   4
loop_
 _symmetry_equiv_pos_site_id
 _symmetry_equiv_pos_as_xyz
  1  'x, y, z'
loop_
 _atom_site_type_symbol
 _atom_site_label
 _atom_site_symmetry_multiplicity
 _atom_site_fract_x
 _atom_site_fract_y
 _atom_site_fract_z
 _atom_site_occupancy
  K  K0  1  0.86989779  0.37058466  0.32212876  1.0
  K  K1  1  0.86989779  0.12941534  0.82212876  1.0
  K  K2  1  0.13010221  0.87058466  0.17787124  1.0
  K  K3  1  0.13010221  0.62941534  0.67787124  1.0
  K  K4  1  0.35058431  0.17001282  0.43717595  1.0
  K  K5  1  0.35058431  0.32998718  0.93717595  1.0
  K  K6  1  0.64941569  0.67001282  0.06282405  1.0
  K  K7  1  0.64941569  0.82998718  0.56282405  1.0
  Sb  Sb8  1  0.70038729  0.00551939  0.18156954  1.0
  Sb  Sb9  1  0.70038729  0.49448061  0.68156954  1.0
  Sb  Sb10  1  0.29961271  0.50551939  0.31843046  1.0
  Sb  Sb11  1  0.29961271  0.99448061  0.81843046  1.0
  Cl  Cl12  1  0.90953529  0.13673774  0.20267839  1.0
  Cl  Cl13  1  0.90953529  0.36326226  0.70267839  1.0
  Cl  Cl14  1  0.09046471  0.63673774  0.29732161  1.0
  Cl  Cl15  1  0.09046471  0.86326226  0.79732161  1.0
  Cl  Cl16  1  0.87305485  0.87987259  0.35612484  1.0
  Cl  Cl17  1  0.87305485  0.62012741  0.85612484  1.0
  Cl  Cl18  1  0.12694515  0.37987259  0.14387516  1.0
  Cl  Cl19  1  0.12694515  0.12012741  0.64387516  1.0
  Cl  Cl20  1  0.66615620  0.07500580  0.45444596  1.0
  Cl  Cl21  1  0.66615620  0.42499420  0.95444596  1.0
  Cl  Cl22  1  0.33384380  0.57500580  0.04555404  1.0
  Cl  Cl23  1  0.33384380  0.92499420  0.54555404  1.0
  Cl  Cl24  1  0.51545189  0.35913546  0.34273075  1.0
  Cl  Cl25  1  0.51545189  0.14086454  0.84273075  1.0
  Cl  Cl26  1  0.48454811  0.85913546  0.15726925  1.0
  Cl  Cl27  1  0.48454811  0.64086454  0.65726925  1.0
  Cl  Cl28  1  0.23164022  0.40681350  0.55714046  1.0
  Cl  Cl29  1  0.23164022  0.09318650  1.05714046  1.0
  Cl  Cl30  1  0.76835978  0.90681350  -0.05714046  1.0
  Cl  Cl31  1  0.76835978  0.59318650  0.44285954  1.0
