# generated using pymatgen
data_Rb6Te2O9
_symmetry_space_group_name_H-M   'P 1'
_cell_length_a   8.98663045
_cell_length_b   8.98663045
_cell_length_c   11.26391745
_cell_angle_alpha   67.88863920
_cell_angle_beta   112.11136080
_cell_angle_gamma   87.00222794
_symmetry_Int_Tables_number   1
_chemical_formula_structural   Rb6Te2O9
_chemical_formula_sum   'Rb12 Te4 O18'
_cell_volume   760.58301363
_cell_formula_units_Z   2
loop_
 _symmetry_equiv_pos_site_id
 _symmetry_equiv_pos_as_xyz
  1  'x, y, z'
loop_
 _atom_site_type_symbol
 _atom_site_label
 _atom_site_symmetry_multiplicity
 _atom_site_fract_x
 _atom_site_fract_y
 _atom_site_fract_z
 _atom_site_occupancy
  Rb  Rb0  1  0.40143812  -0.17527098  0.76355937  1.0
  Rb  Rb1  1  1.17527098  0.59856188  0.26355937  1.0
  Rb  Rb2  1  0.82472902  -0.59856188  0.73644063  1.0
  Rb  Rb3  1  1.59856188  0.17527098  0.23644063  1.0
  Rb  Rb4  1  1.50250825  0.20496568  0.52831061  1.0
  Rb  Rb5  1  0.79503432  -0.50250825  0.02831061  1.0
  Rb  Rb6  1  1.20496568  0.50250825  0.97168939  1.0
  Rb  Rb7  1  0.49749175  -0.20496568  0.47168939  1.0
  Rb  Rb8  1  1.19414800  0.00226981  0.97667816  1.0
  Rb  Rb9  1  0.99773019  -0.19414800  0.47667816  1.0
  Rb  Rb10  1  1.00226981  0.19414800  0.52332184  1.0
  Rb  Rb11  1  0.80585200  -0.00226981  0.02332184  1.0
  Te  Te12  1  0.87405215  -0.12594785  0.75000000  1.0
  Te  Te13  1  1.12594785  0.12594785  0.25000000  1.0
  Te  Te14  1  1.35323638  0.35323638  0.75000000  1.0
  Te  Te15  1  0.64676362  -0.35323638  0.25000000  1.0
  O  O16  1  0.75957315  -0.02029266  0.53796036  1.0
  O  O17  1  1.02029266  0.24042685  0.03796036  1.0
  O  O18  1  0.97970734  -0.24042685  0.96203964  1.0
  O  O19  1  1.24042685  0.02029266  0.46203964  1.0
  O  O20  1  1.83209074  0.08603086  0.75622608  1.0
  O  O21  1  0.91396914  -0.83209074  0.25622608  1.0
  O  O22  1  1.08603086  0.83209074  0.74377392  1.0
  O  O23  1  0.16790926  -0.08603086  0.24377392  1.0
  O  O24  1  1.40850332  0.12818588  0.78978467  1.0
  O  O25  1  0.87181412  -0.40850332  0.28978467  1.0
  O  O26  1  1.12818588  0.40850332  0.71021533  1.0
  O  O27  1  0.59149668  -0.12818588  0.21021533  1.0
  O  O28  1  1.48351496  0.38880386  0.90910176  1.0
  O  O29  1  0.61119614  -0.48351496  0.40910176  1.0
  O  O30  1  1.38880386  0.48351496  0.59089824  1.0
  O  O31  1  0.51648504  -0.38880386  0.09089824  1.0
  O  O32  1  0.72325992  -0.27674008  0.75000000  1.0
  O  O33  1  1.27674008  0.27674008  0.25000000  1.0
