# generated using pymatgen
data_Na4Ti4Si3O22
_symmetry_space_group_name_H-M   'P 1'
_cell_length_a   7.81889102
_cell_length_b   7.81889102
_cell_length_c   7.81889102
_cell_angle_alpha   87.99207569
_cell_angle_beta   87.99207569
_cell_angle_gamma   87.99207569
_symmetry_Int_Tables_number   1
_chemical_formula_structural   Na4Ti4Si3O22
_chemical_formula_sum   'Na4 Ti4 Si3 O22'
_cell_volume   477.14789868
_cell_formula_units_Z   1
loop_
 _symmetry_equiv_pos_site_id
 _symmetry_equiv_pos_as_xyz
  1  'x, y, z'
loop_
 _atom_site_type_symbol
 _atom_site_label
 _atom_site_symmetry_multiplicity
 _atom_site_fract_x
 _atom_site_fract_y
 _atom_site_fract_z
 _atom_site_occupancy
  Na  Na0  1  1.28296762  -0.28954320  -0.28954320  1.0
  Na  Na1  1  0.71045680  0.28296762  -0.28954320  1.0
  Na  Na2  1  0.71045680  -0.28954320  0.28296762  1.0
  Na  Na3  1  0.06262826  0.06262826  0.06262826  1.0
  Ti  Ti4  1  1.48341841  1.19187099  0.19187099  1.0
  Ti  Ti5  1  1.19187099  1.48341841  0.19187099  1.0
  Ti  Ti6  1  1.19187099  1.19187099  0.48341841  1.0
  Ti  Ti7  1  0.45719105  0.45719105  -0.54280895  1.0
  Si  Si8  1  0.83520802  0.32914828  -0.67085172  1.0
  Si  Si9  1  0.32914828  0.83520802  -0.67085172  1.0
  Si  Si10  1  0.32914828  0.32914828  -0.16479198  1.0
  O  O11  1  0.46493170  0.94843963  -0.78957956  1.0
  O  O12  1  0.46493170  0.21042044  -0.05156037  1.0
  O  O13  1  0.94843963  0.46493170  -0.78957956  1.0
  O  O14  1  0.94843963  0.21042044  -0.53506830  1.0
  O  O15  1  0.21042044  0.94843963  -0.53506830  1.0
  O  O16  1  0.21042044  0.46493170  -0.05156037  1.0
  O  O17  1  0.73124424  0.20454315  -0.79545685  1.0
  O  O18  1  0.20454315  0.73124424  -0.79545685  1.0
  O  O19  1  0.20454315  0.20454315  -0.26875576  1.0
  O  O20  1  0.70673288  0.44913356  -0.55086644  1.0
  O  O21  1  0.44913356  0.70673288  -0.55086644  1.0
  O  O22  1  0.44913356  0.44913356  -0.29326712  1.0
  O  O23  1  0.20878252  0.45004502  -0.54995498  1.0
  O  O24  1  0.45004502  0.20878252  -0.54995498  1.0
  O  O25  1  0.45004502  0.45004502  -0.79121748  1.0
  O  O26  1  0.92477131  0.71451169  -0.28548831  1.0
  O  O27  1  0.71451169  0.92477131  -0.28548831  1.0
  O  O28  1  0.71451169  0.71451169  -0.07522869  1.0
  O  O29  1  0.68658191  0.89752994  -0.10247006  1.0
  O  O30  1  0.89752994  0.68658191  -0.10247006  1.0
  O  O31  1  0.89752994  0.89752994  -0.31341809  1.0
  O  O32  1  1.22111138  1.22111138  0.22111138  1.0
