# generated using pymatgen
data_Ni3TeMo2O11
_symmetry_space_group_name_H-M   'P 1'
_cell_length_a   6.52998221
_cell_length_b   6.52998221
_cell_length_c   10.18668218
_cell_angle_alpha   80.43182652
_cell_angle_beta   99.56817348
_cell_angle_gamma   94.94578053
_symmetry_Int_Tables_number   1
_chemical_formula_structural   Ni3TeMo2O11
_chemical_formula_sum   'Ni6 Te2 Mo4 O22'
_cell_volume   421.59836169
_cell_formula_units_Z   2
loop_
 _symmetry_equiv_pos_site_id
 _symmetry_equiv_pos_as_xyz
  1  'x, y, z'
loop_
 _atom_site_type_symbol
 _atom_site_label
 _atom_site_symmetry_multiplicity
 _atom_site_fract_x
 _atom_site_fract_y
 _atom_site_fract_z
 _atom_site_occupancy
  O  O0  1  1.72320696  -0.04574513  0.55809704  1.0
  O  O1  1  1.04574513  -0.72320696  0.55809704  1.0
  O  O2  1  0.95425487  0.72320696  0.44190296  1.0
  O  O3  1  0.27679304  0.04574513  0.44190296  1.0
  O  O4  1  1.52829297  -0.21470218  0.80451391  1.0
  O  O5  1  1.21470218  -0.52829297  0.80451391  1.0
  O  O6  1  0.78529782  0.52829297  0.19548609  1.0
  O  O7  1  0.47170703  0.21470218  0.19548609  1.0
  O  O8  1  0.60642660  0.39357340  0.43503170  1.0
  O  O9  1  1.39357340  -0.39357340  0.56496830  1.0
  O  O10  1  0.87466727  0.12533273  0.80595934  1.0
  O  O11  1  1.12533273  -0.12533273  0.19404066  1.0
  O  O12  1  0.30815678  0.03649680  0.93719457  1.0
  O  O13  1  0.96350320  0.69184322  0.93719457  1.0
  O  O14  1  1.03649680  -0.69184322  0.06280543  1.0
  O  O15  1  1.69184322  -0.03649680  0.06280543  1.0
  O  O16  1  0.63267910  0.36732090  0.89269823  1.0
  O  O17  1  1.36732090  -0.36732090  0.10730177  1.0
  O  O18  1  0.46666158  0.22609605  0.66899612  1.0
  O  O19  1  0.77390395  0.53333842  0.66899612  1.0
  O  O20  1  1.22609605  -0.53333842  0.33100388  1.0
  O  O21  1  1.53333842  -0.22609605  0.33100388  1.0
  Mo  Mo22  1  1.46477333  -0.46477333  0.76150846  1.0
  Mo  Mo23  1  0.53522667  0.46477333  0.23849154  1.0
  Mo  Mo24  1  0.71524204  0.71524204  0.50000000  1.0
  Mo  Mo25  1  0.28475796  0.28475796  0.50000000  1.0
  Ni  Ni26  1  0.58474824  0.06469354  0.86590051  1.0
  Ni  Ni27  1  0.93530646  0.41525176  0.86590051  1.0
  Ni  Ni28  1  1.06469354  -0.41525176  0.13409949  1.0
  Ni  Ni29  1  1.41525176  -0.06469354  0.13409949  1.0
  Ni  Ni30  1  0.76153628  0.23846372  0.60780678  1.0
  Ni  Ni31  1  1.23846372  -0.23846372  0.39219322  1.0
  Te  Te32  1  0.91333286  0.08666714  0.18335656  1.0
  Te  Te33  1  1.08666714  -0.08666714  0.81664344  1.0
