# generated using pymatgen
data_ClF
_symmetry_space_group_name_H-M   'P 1'
_cell_length_a   6.88311937
_cell_length_b   3.69622919
_cell_length_c   7.98626323
_cell_angle_alpha   90.00000000
_cell_angle_beta   107.45569052
_cell_angle_gamma   90.00000000
_symmetry_Int_Tables_number   1
_chemical_formula_structural   ClF
_chemical_formula_sum   'Cl4 F4'
_cell_volume   193.82646224
_cell_formula_units_Z   4
loop_
 _symmetry_equiv_pos_site_id
 _symmetry_equiv_pos_as_xyz
  1  'x, y, z'
loop_
 _atom_site_type_symbol
 _atom_site_label
 _atom_site_symmetry_multiplicity
 _atom_site_fract_x
 _atom_site_fract_y
 _atom_site_fract_z
 _atom_site_occupancy
  Cl  Cl0  1  0.64758325  0.48480930  0.28844558  1.0
  Cl  Cl1  1  0.64758325  0.01519070  0.78844558  1.0
  Cl  Cl2  1  0.35241675  0.98480930  0.21155442  1.0
  Cl  Cl3  1  0.35241675  0.51519070  0.71155442  1.0
  F  F4  1  0.85766277  0.21772115  0.34316570  1.0
  F  F5  1  0.85766277  0.28227885  0.84316570  1.0
  F  F6  1  0.14233723  0.71772115  0.15683430  1.0
  F  F7  1  0.14233723  0.78227885  0.65683430  1.0
