# generated using pymatgen
data_TiCr(BIr)2
_symmetry_space_group_name_H-M   'P 1'
_cell_length_a   8.56152894
_cell_length_b   8.56152894
_cell_length_c   3.19622724
_cell_angle_alpha   90.00000000
_cell_angle_beta   90.00000000
_cell_angle_gamma   120.00000000
_symmetry_Int_Tables_number   1
_chemical_formula_structural   TiCr(BIr)2
_chemical_formula_sum   'Ti3 Cr3 B6 Ir6'
_cell_volume   202.89480998
_cell_formula_units_Z   3
loop_
 _symmetry_equiv_pos_site_id
 _symmetry_equiv_pos_as_xyz
  1  'x, y, z'
loop_
 _atom_site_type_symbol
 _atom_site_label
 _atom_site_symmetry_multiplicity
 _atom_site_fract_x
 _atom_site_fract_y
 _atom_site_fract_z
 _atom_site_occupancy
  B  B0  1  0.79748688  0.79748688  0.50000000  1.0
  B  B1  1  0.20251312  0.00000000  0.50000000  1.0
  B  B2  1  -0.00000000  0.20251312  0.50000000  1.0
  B  B3  1  0.33333333  0.66666667  0.00000000  1.0
  B  B4  1  0.66666667  0.33333333  0.00000000  1.0
  B  B5  1  0.00000000  0.00000000  0.50000000  1.0
  Ir  Ir6  1  0.53840249  0.81523636  0.50000000  1.0
  Ir  Ir7  1  0.18476364  0.72316612  0.50000000  1.0
  Ir  Ir8  1  0.27683388  0.46159751  0.50000000  1.0
  Ir  Ir9  1  0.81523636  0.53840249  0.50000000  1.0
  Ir  Ir10  1  0.72316612  0.18476364  0.50000000  1.0
  Ir  Ir11  1  0.46159751  0.27683388  0.50000000  1.0
  Ti  Ti12  1  0.59029968  0.59029968  0.00000000  1.0
  Ti  Ti13  1  0.40970032  0.00000000  0.00000000  1.0
  Ti  Ti14  1  0.00000000  0.40970032  0.00000000  1.0
  Cr  Cr15  1  0.83019944  0.00000000  0.00000000  1.0
  Cr  Cr16  1  0.00000000  0.83019944  0.00000000  1.0
  Cr  Cr17  1  0.16980056  0.16980056  0.00000000  1.0
