# generated using pymatgen
data_Na4Mg(SiSe3)2
_symmetry_space_group_name_H-M   'P 1'
_cell_length_a   7.12391304
_cell_length_b   7.12391304
_cell_length_c   7.13223053
_cell_angle_alpha   81.05338215
_cell_angle_beta   98.94661785
_cell_angle_gamma   65.78450601
_symmetry_Int_Tables_number   1
_chemical_formula_structural   Na4Mg(SiSe3)2
_chemical_formula_sum   'Na4 Mg1 Si2 Se6'
_cell_volume   316.28738475
_cell_formula_units_Z   1
loop_
 _symmetry_equiv_pos_site_id
 _symmetry_equiv_pos_as_xyz
  1  'x, y, z'
loop_
 _atom_site_type_symbol
 _atom_site_label
 _atom_site_symmetry_multiplicity
 _atom_site_fract_x
 _atom_site_fract_y
 _atom_site_fract_z
 _atom_site_occupancy
  Na  Na0  1  1.15346258  0.15346258  0.50000000  1.0
  Na  Na1  1  -0.00119494  -0.00119494  0.00000000  1.0
  Na  Na2  1  1.32409400  0.32409400  0.00000000  1.0
  Na  Na3  1  0.69129420  -0.30870580  0.00000000  1.0
  Mg  Mg4  1  0.51319972  -0.48680028  0.50000000  1.0
  Si  Si5  1  0.99605463  -0.31916824  0.55428395  1.0
  Si  Si6  1  0.68083176  -0.00394537  0.44571605  1.0
  Se  Se7  1  1.26089412  0.72156427  0.74423121  1.0
  Se  Se8  1  1.72156427  0.26089412  0.25576879  1.0
  Se  Se9  1  1.11409826  0.58357830  0.28621264  1.0
  Se  Se10  1  1.58357830  0.11409826  0.71378736  1.0
  Se  Se11  1  0.90051585  -0.55459275  0.72896494  1.0
  Se  Se12  1  0.44540725  -0.09948415  0.27103506  1.0
