# generated using pymatgen
data_P2PtO7
_symmetry_space_group_name_H-M   'P 1'
_cell_length_a   7.21345738
_cell_length_b   8.04097951
_cell_length_c   9.49326283
_cell_angle_alpha   90.00000000
_cell_angle_beta   112.79357416
_cell_angle_gamma   90.00000000
_symmetry_Int_Tables_number   1
_chemical_formula_structural   P2PtO7
_chemical_formula_sum   'P8 Pt4 O28'
_cell_volume   507.63885722
_cell_formula_units_Z   4
loop_
 _symmetry_equiv_pos_site_id
 _symmetry_equiv_pos_as_xyz
  1  'x, y, z'
loop_
 _atom_site_type_symbol
 _atom_site_label
 _atom_site_symmetry_multiplicity
 _atom_site_fract_x
 _atom_site_fract_y
 _atom_site_fract_z
 _atom_site_occupancy
  P  P0  1  0.84125568  0.24836730  0.20550627  1.0
  P  P1  1  0.84125568  0.25163270  0.70550627  1.0
  P  P2  1  0.15874432  0.74836730  0.29449373  1.0
  P  P3  1  0.15874432  0.75163270  0.79449373  1.0
  P  P4  1  0.43074858  0.18058051  0.17928113  1.0
  P  P5  1  0.43074858  0.31941949  0.67928113  1.0
  P  P6  1  0.56925142  0.68058051  0.32071887  1.0
  P  P7  1  0.56925142  0.81941949  0.82071887  1.0
  Pt  Pt8  1  0.50000000  0.50000000  -0.00000000  1.0
  Pt  Pt9  1  0.50000000  0.00000000  0.50000000  1.0
  Pt  Pt10  1  0.00000000  0.50000000  0.50000000  1.0
  Pt  Pt11  1  0.00000000  0.00000000  0.00000000  1.0
  O  O12  1  0.99620328  0.13819068  0.17509261  1.0
  O  O13  1  0.99620328  0.36180932  0.67509261  1.0
  O  O14  1  0.00379672  0.63819068  0.32490739  1.0
  O  O15  1  0.00379672  0.86180932  0.82490739  1.0
  O  O16  1  0.93857831  0.28878237  0.37763845  1.0
  O  O17  1  0.93857831  0.21121763  0.87763845  1.0
  O  O18  1  0.06142169  0.78878237  0.12236155  1.0
  O  O19  1  0.06142169  0.71121763  0.62236155  1.0
  O  O20  1  0.77603778  0.39989855  0.09792497  1.0
  O  O21  1  0.77603778  0.10010145  0.59792497  1.0
  O  O22  1  0.22396222  0.89989855  0.40207503  1.0
  O  O23  1  0.22396222  0.60010145  0.90207503  1.0
  O  O24  1  0.70117796  0.95842706  0.92375986  1.0
  O  O25  1  0.70117796  0.54157294  0.42375986  1.0
  O  O26  1  0.29882204  0.45842706  0.57624014  1.0
  O  O27  1  0.29882204  0.04157294  0.07624014  1.0
  O  O28  1  0.64785545  0.13214946  0.17909205  1.0
  O  O29  1  0.64785545  0.36785054  0.67909205  1.0
  O  O30  1  0.35214455  0.63214946  0.32090795  1.0
  O  O31  1  0.35214455  0.86785054  0.82090795  1.0
  O  O32  1  0.43985632  0.18510785  0.34473924  1.0
  O  O33  1  0.43985632  0.31489215  0.84473924  1.0
  O  O34  1  0.56014368  0.68510785  0.15526076  1.0
  O  O35  1  0.56014368  0.81489215  0.65526076  1.0
  O  O36  1  0.37817672  0.36083208  0.11971478  1.0
  O  O37  1  0.37817672  0.13916792  0.61971478  1.0
  O  O38  1  0.62182328  0.86083208  0.38028522  1.0
  O  O39  1  0.62182328  0.63916792  0.88028522  1.0
