# generated using pymatgen
data_ReHgO4
_symmetry_space_group_name_H-M   'P 1'
_cell_length_a   5.89425293
_cell_length_b   5.78911814
_cell_length_c   15.34104757
_cell_angle_alpha   90.00000000
_cell_angle_beta   110.49517562
_cell_angle_gamma   90.00000000
_symmetry_Int_Tables_number   1
_chemical_formula_structural   ReHgO4
_chemical_formula_sum   'Re4 Hg4 O16'
_cell_volume   490.34019275
_cell_formula_units_Z   4
loop_
 _symmetry_equiv_pos_site_id
 _symmetry_equiv_pos_as_xyz
  1  'x, y, z'
loop_
 _atom_site_type_symbol
 _atom_site_label
 _atom_site_symmetry_multiplicity
 _atom_site_fract_x
 _atom_site_fract_y
 _atom_site_fract_z
 _atom_site_occupancy
  Re  Re0  1  0.83702068  0.43316491  0.34467627  1.0
  Re  Re1  1  0.83702068  0.06683509  0.84467627  1.0
  Re  Re2  1  0.16297932  0.93316491  0.15532373  1.0
  Re  Re3  1  0.16297932  0.56683509  0.65532373  1.0
  Hg  Hg4  1  0.64712569  0.36416006  0.05902909  1.0
  Hg  Hg5  1  0.64712569  0.13583994  0.55902909  1.0
  Hg  Hg6  1  0.35287431  0.86416006  0.44097091  1.0
  Hg  Hg7  1  0.35287431  0.63583994  0.94097091  1.0
  O  O8  1  0.94449229  0.15393143  0.37180319  1.0
  O  O9  1  0.94449229  0.34606857  0.87180319  1.0
  O  O10  1  0.05550771  0.65393143  0.12819681  1.0
  O  O11  1  0.05550771  0.84606857  0.62819681  1.0
  O  O12  1  0.91710228  1.12202856  0.14347820  1.0
  O  O13  1  0.91710228  0.37797144  0.64347820  1.0
  O  O14  1  0.08289772  0.62202856  0.35652180  1.0
  O  O15  1  0.08289772  -0.12202856  0.85652180  1.0
  O  O16  1  0.68708176  0.51138313  0.41982317  1.0
  O  O17  1  0.68708176  -0.01138313  0.91982317  1.0
  O  O18  1  0.31291824  1.01138313  0.08017683  1.0
  O  O19  1  0.31291824  0.48861687  0.58017683  1.0
  O  O20  1  0.63685013  0.44408119  0.23049791  1.0
  O  O21  1  0.63685013  0.05591881  0.73049791  1.0
  O  O22  1  0.36314987  0.94408119  0.26950209  1.0
  O  O23  1  0.36314987  0.55591881  0.76950209  1.0
