# generated using pymatgen
data_CsSe4
_symmetry_space_group_name_H-M   'P 1'
_cell_length_a   10.46268051
_cell_length_b   14.18067709
_cell_length_c   19.59045039
_cell_angle_alpha   90.00000000
_cell_angle_beta   90.00000000
_cell_angle_gamma   90.00000000
_symmetry_Int_Tables_number   1
_chemical_formula_structural   CsSe4
_chemical_formula_sum   'Cs16 Se64'
_cell_volume   2906.59386372
_cell_formula_units_Z   16
loop_
 _symmetry_equiv_pos_site_id
 _symmetry_equiv_pos_as_xyz
  1  'x, y, z'
loop_
 _atom_site_type_symbol
 _atom_site_label
 _atom_site_symmetry_multiplicity
 _atom_site_fract_x
 _atom_site_fract_y
 _atom_site_fract_z
 _atom_site_occupancy
  Cs  Cs0  1  0.85303495  0.88214039  0.75000000  1.0
  Cs  Cs1  1  0.85303495  0.61785961  0.25000000  1.0
  Cs  Cs2  1  0.14696505  0.38214039  0.75000000  1.0
  Cs  Cs3  1  0.14696505  0.11785961  0.25000000  1.0
  Cs  Cs4  1  0.47803067  0.61108414  0.75000000  1.0
  Cs  Cs5  1  0.47803067  0.88891586  0.25000000  1.0
  Cs  Cs6  1  0.52196933  0.11108414  0.75000000  1.0
  Cs  Cs7  1  0.52196933  0.38891586  0.25000000  1.0
  Cs  Cs8  1  0.91027113  0.75000000  0.00000000  1.0
  Cs  Cs9  1  0.91027113  0.75000000  0.50000000  1.0
  Cs  Cs10  1  0.08972887  0.25000000  0.00000000  1.0
  Cs  Cs11  1  0.08972887  0.25000000  0.50000000  1.0
  Cs  Cs12  1  0.38952866  0.75000000  0.00000000  1.0
  Cs  Cs13  1  0.38952866  0.75000000  0.50000000  1.0
  Cs  Cs14  1  0.61047134  0.25000000  0.00000000  1.0
  Cs  Cs15  1  0.61047134  0.25000000  0.50000000  1.0
  Se  Se16  1  0.89114108  0.45387090  0.42565513  1.0
  Se  Se17  1  0.89114108  0.45387090  0.07434487  1.0
  Se  Se18  1  0.89114108  0.04612910  0.92565513  1.0
  Se  Se19  1  0.89114108  0.04612910  0.57434487  1.0
  Se  Se20  1  0.10885892  0.95387090  0.42565513  1.0
  Se  Se21  1  0.10885892  0.95387090  0.07434487  1.0
  Se  Se22  1  0.10885892  0.54612910  0.92565513  1.0
  Se  Se23  1  0.10885892  0.54612910  0.57434487  1.0
  Se  Se24  1  0.83651436  0.16975996  0.84919334  1.0
  Se  Se25  1  0.83651436  0.16975996  0.65080666  1.0
  Se  Se26  1  0.83651436  0.33024004  0.34919334  1.0
  Se  Se27  1  0.83651436  0.33024004  0.15080666  1.0
  Se  Se28  1  0.16348564  0.66975996  0.84919334  1.0
  Se  Se29  1  0.16348564  0.66975996  0.65080666  1.0
  Se  Se30  1  0.16348564  0.83024004  0.34919334  1.0
  Se  Se31  1  0.16348564  0.83024004  0.15080666  1.0
  Se  Se32  1  0.82497805  0.41084903  0.84663018  1.0
  Se  Se33  1  0.82497805  0.41084903  0.65336982  1.0
  Se  Se34  1  0.82497805  0.08915097  0.34663018  1.0
  Se  Se35  1  0.82497805  0.08915097  0.15336982  1.0
  Se  Se36  1  0.17502195  0.91084903  0.84663018  1.0
  Se  Se37  1  0.17502195  0.91084903  0.65336982  1.0
  Se  Se38  1  0.17502195  0.58915097  0.34663018  1.0
  Se  Se39  1  0.17502195  0.58915097  0.15336982  1.0
  Se  Se40  1  0.81466055  0.58120168  0.84500722  1.0
  Se  Se41  1  0.81466055  0.58120168  0.65499278  1.0
  Se  Se42  1  0.81466055  0.91879832  0.34500722  1.0
  Se  Se43  1  0.81466055  0.91879832  0.15499278  1.0
  Se  Se44  1  0.18533945  0.08120168  0.84500722  1.0
  Se  Se45  1  0.18533945  0.08120168  0.65499278  1.0
  Se  Se46  1  0.18533945  0.41879832  0.34500722  1.0
  Se  Se47  1  0.18533945  0.41879832  0.15499278  1.0
  Se  Se48  1  0.69352490  0.98941173  0.97308286  1.0
  Se  Se49  1  0.69352490  0.98941173  0.52691714  1.0
  Se  Se50  1  0.69352490  0.51058827  0.47308286  1.0
  Se  Se51  1  0.69352490  0.51058827  0.02691714  1.0
  Se  Se52  1  0.30647510  0.48941173  0.97308286  1.0
  Se  Se53  1  0.30647510  0.48941173  0.52691714  1.0
  Se  Se54  1  0.30647510  0.01058827  0.47308286  1.0
  Se  Se55  1  0.30647510  0.01058827  0.02691714  1.0
  Se  Se56  1  0.65204119  0.75212212  0.87460969  1.0
  Se  Se57  1  0.65204119  0.75212212  0.62539031  1.0
  Se  Se58  1  0.65204119  0.74787788  0.37460969  1.0
  Se  Se59  1  0.65204119  0.74787788  0.12539031  1.0
  Se  Se60  1  0.34795881  0.25212212  0.87460969  1.0
  Se  Se61  1  0.34795881  0.25212212  0.62539031  1.0
  Se  Se62  1  0.34795881  0.24787788  0.37460969  1.0
  Se  Se63  1  0.34795881  0.24787788  0.12539031  1.0
  Se  Se64  1  0.58017522  0.91104364  0.88404051  1.0
  Se  Se65  1  0.58017522  0.91104364  0.61595949  1.0
  Se  Se66  1  0.58017522  0.58895636  0.38404051  1.0
  Se  Se67  1  0.58017522  0.58895636  0.11595949  1.0
  Se  Se68  1  0.41982478  0.41104364  0.88404051  1.0
  Se  Se69  1  0.41982478  0.41104364  0.61595949  1.0
  Se  Se70  1  0.41982478  0.08895636  0.38404051  1.0
  Se  Se71  1  0.41982478  0.08895636  0.11595949  1.0
  Se  Se72  1  0.97047457  0.62031163  0.75000000  1.0
  Se  Se73  1  0.97047457  0.87968837  0.25000000  1.0
  Se  Se74  1  0.02952543  0.12031163  0.75000000  1.0
  Se  Se75  1  0.02952543  0.37968837  0.25000000  1.0
  Se  Se76  1  0.30057786  0.86636140  0.75000000  1.0
  Se  Se77  1  0.30057786  0.63363860  0.25000000  1.0
  Se  Se78  1  0.69942214  0.36636140  0.75000000  1.0
  Se  Se79  1  0.69942214  0.13363860  0.25000000  1.0
