# generated using pymatgen
data_CuSn2(PO4)3
_symmetry_space_group_name_H-M   'P 1'
_cell_length_a   8.91269535
_cell_length_b   8.91269535
_cell_length_c   8.91269535
_cell_angle_alpha   59.00729593
_cell_angle_beta   59.00729593
_cell_angle_gamma   59.00729593
_symmetry_Int_Tables_number   1
_chemical_formula_structural   CuSn2(PO4)3
_chemical_formula_sum   'Cu2 Sn4 P6 O24'
_cell_volume   489.28891778
_cell_formula_units_Z   2
loop_
 _symmetry_equiv_pos_site_id
 _symmetry_equiv_pos_as_xyz
  1  'x, y, z'
loop_
 _atom_site_type_symbol
 _atom_site_label
 _atom_site_symmetry_multiplicity
 _atom_site_fract_x
 _atom_site_fract_y
 _atom_site_fract_z
 _atom_site_occupancy
  Cu  Cu0  1  1.00000000  -0.00000000  -0.00000000  1.0
  Cu  Cu1  1  0.50000000  0.50000000  0.50000000  1.0
  Sn  Sn2  1  0.85615666  -0.14384334  -0.14384334  1.0
  Sn  Sn3  1  0.35615666  0.35615666  0.35615666  1.0
  Sn  Sn4  1  0.64384334  0.64384334  -0.35615666  1.0
  Sn  Sn5  1  1.14384334  0.14384334  0.14384334  1.0
  P  P6  1  0.45573514  0.75000000  0.04426486  1.0
  P  P7  1  0.95573514  -0.45573514  0.25000000  1.0
  P  P8  1  0.25000000  0.95573514  -0.45573514  1.0
  P  P9  1  0.75000000  1.04426486  -0.54426486  1.0
  P  P10  1  0.54426486  0.25000000  -0.04426486  1.0
  P  P11  1  1.04426486  0.45573514  -0.25000000  1.0
  O  O12  1  0.80253203  1.01048558  -0.38702545  1.0
  O  O13  1  1.30253203  0.11297455  -0.48951442  1.0
  O  O14  1  0.88702545  0.48951442  -0.30253203  1.0
  O  O15  1  0.38702545  0.19746797  -0.01048558  1.0
  O  O16  1  0.98951442  0.38702545  -0.80253203  1.0
  O  O17  1  0.48951442  0.69746797  -0.11297455  1.0
  O  O18  1  0.19746797  0.98951442  -0.61297455  1.0
  O  O19  1  0.69746797  0.88702545  -0.51048558  1.0
  O  O20  1  0.61297455  0.80253203  0.01048558  1.0
  O  O21  1  1.11297455  -0.48951442  0.30253203  1.0
  O  O22  1  0.51048558  0.30253203  0.11297455  1.0
  O  O23  1  1.01048558  0.61297455  -0.19746797  1.0
  O  O24  1  0.73293606  0.08475406  -0.06127612  1.0
  O  O25  1  1.23293606  0.43872388  -0.41524594  1.0
  O  O26  1  0.56127612  0.41524594  -0.23293606  1.0
  O  O27  1  1.06127612  0.26706394  -0.08475406  1.0
  O  O28  1  0.91524594  0.06127612  0.26706394  1.0
  O  O29  1  0.41524594  0.76706394  -0.43872388  1.0
  O  O30  1  1.26706394  -0.08475406  0.06127612  1.0
  O  O31  1  0.76706394  0.56127612  -0.58475406  1.0
  O  O32  1  0.93872388  -0.26706394  0.08475406  1.0
  O  O33  1  0.43872388  0.58475406  0.23293606  1.0
  O  O34  1  0.58475406  1.23293606  -0.56127612  1.0
  O  O35  1  1.08475406  -0.06127612  -0.26706394  1.0
