# generated using pymatgen
data_EuCrTeO6
_symmetry_space_group_name_H-M   'P 1'
_cell_length_a   5.48964192
_cell_length_b   5.48964192
_cell_length_c   8.59615362
_cell_angle_alpha   90.00000000
_cell_angle_beta   90.00000000
_cell_angle_gamma   120.00000000
_symmetry_Int_Tables_number   1
_chemical_formula_structural   EuCrTeO6
_chemical_formula_sum   'Eu2 Cr2 Te2 O12'
_cell_volume   224.34832644
_cell_formula_units_Z   2
loop_
 _symmetry_equiv_pos_site_id
 _symmetry_equiv_pos_as_xyz
  1  'x, y, z'
loop_
 _atom_site_type_symbol
 _atom_site_label
 _atom_site_symmetry_multiplicity
 _atom_site_fract_x
 _atom_site_fract_y
 _atom_site_fract_z
 _atom_site_occupancy
  Eu  Eu0  1  0.66666667  0.33333333  0.25000000  1.0
  Eu  Eu1  1  0.33333333  0.66666667  0.75000000  1.0
  Cr  Cr2  1  -0.00000000  -0.00000000  0.00000000  1.0
  Cr  Cr3  1  -0.00000000  -0.00000000  0.50000000  1.0
  Te  Te4  1  0.33333333  0.66666667  0.25000000  1.0
  Te  Te5  1  0.66666667  0.33333333  0.75000000  1.0
  O  O6  1  0.29715921  0.95610269  0.11773961  1.0
  O  O7  1  0.29715921  0.34105652  0.38226039  1.0
  O  O8  1  0.95610269  0.29715921  0.61773961  1.0
  O  O9  1  0.95610269  0.65894348  0.88226039  1.0
  O  O10  1  0.65894348  0.95610269  0.38226039  1.0
  O  O11  1  0.65894348  0.70284079  0.11773961  1.0
  O  O12  1  0.04389731  0.70284079  0.38226039  1.0
  O  O13  1  0.04389731  0.34105652  0.11773961  1.0
  O  O14  1  0.70284079  0.65894348  0.61773961  1.0
  O  O15  1  0.70284079  0.04389731  0.88226039  1.0
  O  O16  1  0.34105652  0.29715921  0.88226039  1.0
  O  O17  1  0.34105652  0.04389731  0.61773961  1.0
