# generated using pymatgen
data_CuTe2O5
_symmetry_space_group_name_H-M   'P 1'
_cell_length_a   7.13045827
_cell_length_b   9.75119539
_cell_length_c   7.60992286
_cell_angle_alpha   90.00000000
_cell_angle_beta   108.84982891
_cell_angle_gamma   90.00000000
_symmetry_Int_Tables_number   1
_chemical_formula_structural   CuTe2O5
_chemical_formula_sum   'Cu4 Te8 O20'
_cell_volume   500.74416061
_cell_formula_units_Z   4
loop_
 _symmetry_equiv_pos_site_id
 _symmetry_equiv_pos_as_xyz
  1  'x, y, z'
loop_
 _atom_site_type_symbol
 _atom_site_label
 _atom_site_symmetry_multiplicity
 _atom_site_fract_x
 _atom_site_fract_y
 _atom_site_fract_z
 _atom_site_occupancy
  Cu  Cu0  1  0.65274085  0.49005233  0.20696608  1.0
  Cu  Cu1  1  0.65274085  0.00994767  0.70696608  1.0
  Cu  Cu2  1  0.34725915  0.99005233  0.29303392  1.0
  Cu  Cu3  1  0.34725915  0.50994767  0.79303392  1.0
  Te  Te4  1  0.33332805  0.30820883  0.44611112  1.0
  Te  Te5  1  0.33332805  0.19179117  0.94611112  1.0
  Te  Te6  1  0.66667195  0.80820883  0.05388888  1.0
  Te  Te7  1  0.66667195  0.69179117  0.55388888  1.0
  Te  Te8  1  0.83490505  0.21579991  0.39709497  1.0
  Te  Te9  1  0.83490505  0.28420009  0.89709497  1.0
  Te  Te10  1  0.16509495  0.71579991  0.10290503  1.0
  Te  Te11  1  0.16509495  0.78420009  0.60290503  1.0
  O  O12  1  0.82823960  0.34745352  0.15855066  1.0
  O  O13  1  0.82823960  0.15254648  0.65855066  1.0
  O  O14  1  0.17176040  0.84745352  0.34144934  1.0
  O  O15  1  0.17176040  0.65254648  0.84144934  1.0
  O  O16  1  0.66327033  0.36901732  0.41822452  1.0
  O  O17  1  0.66327033  0.13098268  0.91822452  1.0
  O  O18  1  0.33672967  0.86901732  0.08177548  1.0
  O  O19  1  0.33672967  0.63098268  0.58177548  1.0
  O  O20  1  0.48243152  0.13331208  0.19966457  1.0
  O  O21  1  0.48243152  0.36668792  0.69966457  1.0
  O  O22  1  0.51756848  0.63331208  0.30033543  1.0
  O  O23  1  0.51756848  0.86668792  0.80033543  1.0
  O  O24  1  0.35561606  0.11202892  0.49741607  1.0
  O  O25  1  0.35561606  0.38797108  0.99741607  1.0
  O  O26  1  0.64438394  0.61202892  0.00258393  1.0
  O  O27  1  0.64438394  0.88797108  0.50258393  1.0
  O  O28  1  0.91229168  0.68577136  0.46137648  1.0
  O  O29  1  0.91229168  0.81422864  0.96137648  1.0
  O  O30  1  0.08770832  0.18577136  0.03862352  1.0
  O  O31  1  0.08770832  0.31422864  0.53862352  1.0
