# generated using pymatgen
data_CsVSeO5
_symmetry_space_group_name_H-M   'P 1'
_cell_length_a   8.14029034
_cell_length_b   7.98008325
_cell_length_c   9.61794217
_cell_angle_alpha   90.00000000
_cell_angle_beta   93.21043510
_cell_angle_gamma   90.00000000
_symmetry_Int_Tables_number   1
_chemical_formula_structural   CsVSeO5
_chemical_formula_sum   'Cs4 V4 Se4 O20'
_cell_volume   623.80284771
_cell_formula_units_Z   4
loop_
 _symmetry_equiv_pos_site_id
 _symmetry_equiv_pos_as_xyz
  1  'x, y, z'
loop_
 _atom_site_type_symbol
 _atom_site_label
 _atom_site_symmetry_multiplicity
 _atom_site_fract_x
 _atom_site_fract_y
 _atom_site_fract_z
 _atom_site_occupancy
  Cs  Cs0  1  0.90218639  0.00512200  0.86709534  1.0
  Cs  Cs1  1  0.09781361  0.50512200  0.13290466  1.0
  Cs  Cs2  1  0.62401249  0.23881550  0.39660006  1.0
  Cs  Cs3  1  0.37598751  0.73881550  0.60339994  1.0
  V  V4  1  0.91429185  0.54686010  0.72797996  1.0
  V  V5  1  0.08570815  0.04686010  0.27202004  1.0
  V  V6  1  0.42261323  0.18261083  0.76727504  1.0
  V  V7  1  0.57738677  0.68261083  0.23272496  1.0
  Se  Se8  1  0.88360954  0.74689523  0.44323373  1.0
  Se  Se9  1  0.11639046  0.24689523  0.55676627  1.0
  Se  Se10  1  0.61770814  0.47170705  0.92375824  1.0
  Se  Se11  1  0.38229186  0.97170705  0.07624176  1.0
  O  O12  1  0.99697662  0.10619343  0.45734959  1.0
  O  O13  1  0.00302338  0.60619343  0.54265041  1.0
  O  O14  1  0.96792197  0.31232732  0.66562497  1.0
  O  O15  1  0.03207803  0.81232732  0.33437503  1.0
  O  O16  1  0.94492431  0.13963870  0.17219032  1.0
  O  O17  1  0.05507569  0.63963870  0.82780968  1.0
  O  O18  1  0.80754088  0.40778444  0.86697217  1.0
  O  O19  1  0.19245912  0.90778444  0.13302783  1.0
  O  O20  1  0.75526955  0.67498895  0.70287030  1.0
  O  O21  1  0.24473045  0.17498895  0.29712970  1.0
  O  O22  1  0.56637968  0.07649962  0.69512055  1.0
  O  O23  1  0.43362032  0.57649962  0.30487945  1.0
  O  O24  1  0.52513950  0.27441212  0.94131761  1.0
  O  O25  1  0.47486050  0.77441212  0.05868239  1.0
  O  O26  1  0.41094778  0.36786939  0.68862548  1.0
  O  O27  1  0.58905222  0.86786939  0.31137452  1.0
  O  O28  1  0.32529961  0.01529436  0.90644715  1.0
  O  O29  1  0.67470039  0.51529436  0.09355285  1.0
  O  O30  1  0.21867696  0.10218096  0.66763839  1.0
  O  O31  1  0.78132304  0.60218096  0.33236161  1.0
