# generated using pymatgen
data_CoPbO3
_symmetry_space_group_name_H-M   'P 1'
_cell_length_a   7.70211892
_cell_length_b   7.70211892
_cell_length_c   7.70211892
_cell_angle_alpha   90.00000000
_cell_angle_beta   90.00000000
_cell_angle_gamma   90.00000000
_symmetry_Int_Tables_number   1
_chemical_formula_structural   CoPbO3
_chemical_formula_sum   'Co8 Pb8 O24'
_cell_volume   456.90999637
_cell_formula_units_Z   8
loop_
 _symmetry_equiv_pos_site_id
 _symmetry_equiv_pos_as_xyz
  1  'x, y, z'
loop_
 _atom_site_type_symbol
 _atom_site_label
 _atom_site_symmetry_multiplicity
 _atom_site_fract_x
 _atom_site_fract_y
 _atom_site_fract_z
 _atom_site_occupancy
  Co  Co0  1  0.75000000  0.25000000  0.25000000  1.0
  Co  Co1  1  0.25000000  0.25000000  0.75000000  1.0
  Co  Co2  1  0.25000000  0.75000000  0.25000000  1.0
  Co  Co3  1  0.75000000  0.75000000  0.75000000  1.0
  Co  Co4  1  0.25000000  0.75000000  0.75000000  1.0
  Co  Co5  1  0.75000000  0.75000000  0.25000000  1.0
  Co  Co6  1  0.75000000  0.25000000  0.75000000  1.0
  Co  Co7  1  0.25000000  0.25000000  0.25000000  1.0
  Pb  Pb8  1  0.00000000  0.00000000  0.00000000  1.0
  Pb  Pb9  1  0.50000000  0.50000000  0.50000000  1.0
  Pb  Pb10  1  0.50000000  0.00000000  0.50000000  1.0
  Pb  Pb11  1  0.50000000  0.50000000  0.00000000  1.0
  Pb  Pb12  1  0.00000000  0.50000000  0.50000000  1.0
  Pb  Pb13  1  0.00000000  0.50000000  0.00000000  1.0
  Pb  Pb14  1  0.00000000  0.00000000  0.50000000  1.0
  Pb  Pb15  1  0.50000000  0.00000000  0.00000000  1.0
  O  O16  1  0.28934752  0.00632209  0.78759977  1.0
  O  O17  1  0.71065248  0.00632209  0.21240023  1.0
  O  O18  1  0.71065248  0.99367791  0.78759977  1.0
  O  O19  1  0.28934752  0.99367791  0.21240023  1.0
  O  O20  1  0.78759977  0.28934752  0.00632209  1.0
  O  O21  1  0.21240023  0.71065248  0.00632209  1.0
  O  O22  1  0.78759977  0.71065248  0.99367791  1.0
  O  O23  1  0.21240023  0.28934752  0.99367791  1.0
  O  O24  1  0.00632209  0.78759977  0.28934752  1.0
  O  O25  1  0.00632209  0.21240023  0.71065248  1.0
  O  O26  1  0.99367791  0.78759977  0.71065248  1.0
  O  O27  1  0.99367791  0.21240023  0.28934752  1.0
  O  O28  1  0.21065248  0.49367791  0.71240023  1.0
  O  O29  1  0.78934752  0.49367791  0.28759977  1.0
  O  O30  1  0.78934752  0.50632209  0.71240023  1.0
  O  O31  1  0.21065248  0.50632209  0.28759977  1.0
  O  O32  1  0.71240023  0.21065248  0.49367791  1.0
  O  O33  1  0.28759977  0.78934752  0.49367791  1.0
  O  O34  1  0.71240023  0.78934752  0.50632209  1.0
  O  O35  1  0.28759977  0.21065248  0.50632209  1.0
  O  O36  1  0.49367791  0.71240023  0.21065248  1.0
  O  O37  1  0.49367791  0.28759977  0.78934752  1.0
  O  O38  1  0.50632209  0.71240023  0.78934752  1.0
  O  O39  1  0.50632209  0.28759977  0.21065248  1.0
