# generated using pymatgen
data_Mg8BRh4
_symmetry_space_group_name_H-M   'P 1'
_cell_length_a   8.63749246
_cell_length_b   8.63749246
_cell_length_c   8.63749246
_cell_angle_alpha   60.00000000
_cell_angle_beta   60.00000000
_cell_angle_gamma   60.00000000
_symmetry_Int_Tables_number   1
_chemical_formula_structural   Mg8BRh4
_chemical_formula_sum   'Mg16 B2 Rh8'
_cell_volume   455.66749209
_cell_formula_units_Z   2
loop_
 _symmetry_equiv_pos_site_id
 _symmetry_equiv_pos_as_xyz
  1  'x, y, z'
loop_
 _atom_site_type_symbol
 _atom_site_label
 _atom_site_symmetry_multiplicity
 _atom_site_fract_x
 _atom_site_fract_y
 _atom_site_fract_z
 _atom_site_occupancy
  Mg  Mg0  1  0.54990933  -0.45009067  0.95009067  1.0
  Mg  Mg1  1  0.95009067  -0.45009067  0.95009067  1.0
  Mg  Mg2  1  0.54990933  -0.04990933  0.95009067  1.0
  Mg  Mg3  1  0.95009067  -0.04990933  0.54990933  1.0
  Mg  Mg4  1  0.54990933  -0.04990933  0.54990933  1.0
  Mg  Mg5  1  0.95009067  -0.45009067  0.54990933  1.0
  Mg  Mg6  1  -0.29990933  0.70009067  0.29990933  1.0
  Mg  Mg7  1  0.29990933  0.70009067  0.29990933  1.0
  Mg  Mg8  1  -0.29990933  1.29990933  0.29990933  1.0
  Mg  Mg9  1  0.29990933  0.29990933  -0.29990933  1.0
  Mg  Mg10  1  0.70009067  0.29990933  0.70009067  1.0
  Mg  Mg11  1  0.29990933  0.70009067  -0.29990933  1.0
  Mg  Mg12  1  0.12500000  0.12500000  1.62500000  1.0
  Mg  Mg13  1  0.12500000  0.62500000  0.12500000  1.0
  Mg  Mg14  1  0.62500000  0.12500000  1.12500000  1.0
  Mg  Mg15  1  0.12500000  0.12500000  0.12500000  1.0
  B  B16  1  0.25000000  0.25000000  0.25000000  1.0
  B  B17  1  0.00000000  1.00000000  -0.00000000  1.0
  Rh  Rh18  1  0.34560025  0.34560025  -0.03680075  1.0
  Rh  Rh19  1  0.34560025  -0.03680075  0.34560025  1.0
  Rh  Rh20  1  -0.03680075  0.34560025  0.34560025  1.0
  Rh  Rh21  1  0.34560025  0.34560025  0.34560025  1.0
  Rh  Rh22  1  -0.09560025  0.90439975  0.28680075  1.0
  Rh  Rh23  1  0.90439975  -0.71319925  0.90439975  1.0
  Rh  Rh24  1  -0.71319925  0.90439975  0.90439975  1.0
  Rh  Rh25  1  0.90439975  -0.09560025  0.90439975  1.0
