# generated using pymatgen
data_Nb(SeBr)2
_symmetry_space_group_name_H-M   'P 1'
_cell_length_a   6.79580223
_cell_length_b   6.79580223
_cell_length_c   8.04959593
_cell_angle_alpha   78.89803647
_cell_angle_beta   101.10196353
_cell_angle_gamma   59.73633585
_symmetry_Int_Tables_number   1
_chemical_formula_structural   Nb(SeBr)2
_chemical_formula_sum   'Nb2 Se4 Br4'
_cell_volume   296.11688329
_cell_formula_units_Z   2
loop_
 _symmetry_equiv_pos_site_id
 _symmetry_equiv_pos_as_xyz
  1  'x, y, z'
loop_
 _atom_site_type_symbol
 _atom_site_label
 _atom_site_symmetry_multiplicity
 _atom_site_fract_x
 _atom_site_fract_y
 _atom_site_fract_z
 _atom_site_occupancy
  Nb  Nb0  1  0.87389424  -0.12610576  -0.00000000  1.0
  Nb  Nb1  1  0.12610576  0.12610576  0.00000000  1.0
  Se  Se2  1  0.85402959  -0.85402959  0.70542653  1.0
  Se  Se3  1  0.14597041  -0.14597041  0.29457347  1.0
  Se  Se4  1  0.65351485  -0.65351485  0.88084832  1.0
  Se  Se5  1  0.34648515  -0.34648515  0.11915168  1.0
  Br  Br6  1  0.42195051  -0.00521574  0.79240641  1.0
  Br  Br7  1  1.00521574  -0.42195051  0.79240641  1.0
  Br  Br8  1  0.99478426  -0.57804949  0.20759359  1.0
  Br  Br9  1  0.57804949  0.00521574  0.20759359  1.0
