# generated using pymatgen
data_K2HfF6
_symmetry_space_group_name_H-M   'P 1'
_cell_length_a   6.21429897
_cell_length_b   6.21429897
_cell_length_c   6.21429897
_cell_angle_alpha   60.00000000
_cell_angle_beta   60.00000000
_cell_angle_gamma   60.00000000
_symmetry_Int_Tables_number   1
_chemical_formula_structural   K2HfF6
_chemical_formula_sum   'K2 Hf1 F6'
_cell_volume   169.69202516
_cell_formula_units_Z   1
loop_
 _symmetry_equiv_pos_site_id
 _symmetry_equiv_pos_as_xyz
  1  'x, y, z'
loop_
 _atom_site_type_symbol
 _atom_site_label
 _atom_site_symmetry_multiplicity
 _atom_site_fract_x
 _atom_site_fract_y
 _atom_site_fract_z
 _atom_site_occupancy
  K  K0  1  0.75000000  0.75000000  -0.25000000  1.0
  K  K1  1  1.25000000  0.25000000  0.25000000  1.0
  Hf  Hf2  1  0.00000000  0.00000000  0.00000000  1.0
  F  F3  1  -0.77178075  0.77178075  0.77178075  1.0
  F  F4  1  -0.22821925  0.22821925  0.77178075  1.0
  F  F5  1  0.77178075  0.77178075  -0.77178075  1.0
  F  F6  1  0.22821925  1.22821925  -0.22821925  1.0
  F  F7  1  0.22821925  -0.22821925  1.22821925  1.0
  F  F8  1  -0.22821925  0.22821925  0.22821925  1.0
