# generated using pymatgen
data_NaYS2
_symmetry_space_group_name_H-M   'P 1'
_cell_length_a   7.07204525
_cell_length_b   7.07204525
_cell_length_c   7.07204525
_cell_angle_alpha   32.72360704
_cell_angle_beta   32.72360704
_cell_angle_gamma   32.72360704
_symmetry_Int_Tables_number   1
_chemical_formula_structural   NaYS2
_chemical_formula_sum   'Na1 Y1 S2'
_cell_volume   91.94340109
_cell_formula_units_Z   1
loop_
 _symmetry_equiv_pos_site_id
 _symmetry_equiv_pos_as_xyz
  1  'x, y, z'
loop_
 _atom_site_type_symbol
 _atom_site_label
 _atom_site_symmetry_multiplicity
 _atom_site_fract_x
 _atom_site_fract_y
 _atom_site_fract_z
 _atom_site_occupancy
  Na  Na0  1  0.00000000  0.00000000  0.00000000  1.0
  Y  Y1  1  1.50000000  0.50000000  0.50000000  1.0
  S  S2  1  0.75798866  0.75798866  0.75798866  1.0
  S  S3  1  1.24201134  1.24201134  0.24201134  1.0
