# generated using pymatgen
data_BaSn3Pt
_symmetry_space_group_name_H-M   'P 1'
_cell_length_a   6.64305806
_cell_length_b   6.64305806
_cell_length_c   6.64305806
_cell_angle_alpha   136.07167977
_cell_angle_beta   136.07167977
_cell_angle_gamma   63.86953664
_symmetry_Int_Tables_number   1
_chemical_formula_structural   BaSn3Pt
_chemical_formula_sum   'Ba1 Sn3 Pt1'
_cell_volume   139.21885030
_cell_formula_units_Z   1
loop_
 _symmetry_equiv_pos_site_id
 _symmetry_equiv_pos_as_xyz
  1  'x, y, z'
loop_
 _atom_site_type_symbol
 _atom_site_label
 _atom_site_symmetry_multiplicity
 _atom_site_fract_x
 _atom_site_fract_y
 _atom_site_fract_z
 _atom_site_occupancy
  Ba  Ba0  1  0.57954282  0.57954282  1.00000000  1.0
  Sn  Sn1  1  0.83089237  0.33089237  0.50000000  1.0
  Sn  Sn2  1  0.33089237  0.83089237  0.50000000  1.0
  Sn  Sn3  1  -0.00480608  -0.00480608  0.00000000  1.0
  Pt  Pt4  1  0.23157852  0.23157852  -0.00000000  1.0
