# generated using pymatgen
data_Y2O3
_symmetry_space_group_name_H-M   'P 1'
_cell_length_a   9.22704027
_cell_length_b   9.22704027
_cell_length_c   9.22704027
_cell_angle_alpha   109.47122063
_cell_angle_beta   109.47122063
_cell_angle_gamma   109.47122063
_symmetry_Int_Tables_number   1
_chemical_formula_structural   Y2O3
_chemical_formula_sum   'Y16 O24'
_cell_volume   604.73535256
_cell_formula_units_Z   8
loop_
 _symmetry_equiv_pos_site_id
 _symmetry_equiv_pos_as_xyz
  1  'x, y, z'
loop_
 _atom_site_type_symbol
 _atom_site_label
 _atom_site_symmetry_multiplicity
 _atom_site_fract_x
 _atom_site_fract_y
 _atom_site_fract_z
 _atom_site_occupancy
  Y  Y0  1  1.71736869  1.46736869  1.25000000  1.0
  Y  Y1  1  1.21736869  0.96736869  1.25000000  1.0
  Y  Y2  1  0.75000000  0.78263131  0.03263131  1.0
  Y  Y3  1  0.25000000  1.21736869  0.96736869  1.0
  Y  Y4  1  0.25000000  0.71736869  0.46736869  1.0
  Y  Y5  1  0.75000000  1.28263131  0.53263131  1.0
  Y  Y6  1  1.46736869  1.25000000  1.71736869  1.0
  Y  Y7  1  0.96736869  0.25000000  1.21736869  1.0
  Y  Y8  1  0.03263131  0.75000000  0.78263131  1.0
  Y  Y9  1  0.53263131  0.75000000  0.28263131  1.0
  Y  Y10  1  0.28263131  0.53263131  0.75000000  1.0
  Y  Y11  1  0.78263131  1.03263131  0.75000000  1.0
  Y  Y12  1  1.00000000  0.50000000  1.00000000  1.0
  Y  Y13  1  0.50000000  0.50000000  0.50000000  1.0
  Y  Y14  1  1.00000000  1.00000000  1.50000000  1.0
  Y  Y15  1  1.50000000  1.00000000  1.00000000  1.0
  O  O16  1  0.54249727  0.53149056  0.77073988  1.0
  O  O17  1  1.04249727  1.27175739  1.01100671  1.0
  O  O18  1  0.26075068  0.77175739  0.72926012  1.0
  O  O19  1  0.76075068  1.03149056  0.48899329  1.0
  O  O20  1  0.51100671  1.23924932  0.96850944  1.0
  O  O21  1  1.01100671  1.04249727  1.27175739  1.0
  O  O22  1  0.77073988  0.54249727  0.53149056  1.0
  O  O23  1  1.27073988  0.73924932  1.22824261  1.0
  O  O24  1  0.77175739  0.72926012  0.26075068  1.0
  O  O25  1  1.27175739  1.01100671  1.04249727  1.0
  O  O26  1  0.96850944  1.51100671  1.23924932  1.0
  O  O27  1  1.46850944  1.22926012  1.45750273  1.0
  O  O28  1  1.73924932  1.22824261  1.27073988  1.0
  O  O29  1  1.23924932  0.96850944  1.51100671  1.0
  O  O30  1  1.45750273  1.46850944  1.22926012  1.0
  O  O31  1  0.95750273  0.72824261  0.98899329  1.0
  O  O32  1  1.22926012  1.45750273  1.46850944  1.0
  O  O33  1  0.72926012  1.26075068  0.77175739  1.0
  O  O34  1  1.48899329  0.76075068  1.03149056  1.0
  O  O35  1  0.98899329  0.95750273  0.72824261  1.0
  O  O36  1  1.03149056  0.48899329  0.76075068  1.0
  O  O37  1  0.53149056  0.77073988  0.54249727  1.0
  O  O38  1  1.22824261  1.27073988  1.73924932  1.0
  O  O39  1  0.72824261  0.98899329  0.95750273  1.0
