# generated using pymatgen
data_NaCdPO4
_symmetry_space_group_name_H-M   'P 1'
_cell_length_a   9.49342596
_cell_length_b   7.14157524
_cell_length_c   5.26332791
_cell_angle_alpha   90.00000000
_cell_angle_beta   90.00000000
_cell_angle_gamma   90.00000000
_symmetry_Int_Tables_number   1
_chemical_formula_structural   NaCdPO4
_chemical_formula_sum   'Na4 Cd4 P4 O16'
_cell_volume   356.84318860
_cell_formula_units_Z   4
loop_
 _symmetry_equiv_pos_site_id
 _symmetry_equiv_pos_as_xyz
  1  'x, y, z'
loop_
 _atom_site_type_symbol
 _atom_site_label
 _atom_site_symmetry_multiplicity
 _atom_site_fract_x
 _atom_site_fract_y
 _atom_site_fract_z
 _atom_site_occupancy
  Na  Na0  1  0.15022878  0.75000000  0.47847940  1.0
  Na  Na1  1  0.65022878  0.75000000  0.02152060  1.0
  Na  Na2  1  0.84977122  0.25000000  0.52152060  1.0
  Na  Na3  1  0.34977122  0.25000000  0.97847940  1.0
  Cd  Cd4  1  0.00000000  0.50000000  0.00000000  1.0
  Cd  Cd5  1  0.50000000  0.00000000  0.50000000  1.0
  Cd  Cd6  1  0.00000000  0.00000000  0.00000000  1.0
  Cd  Cd7  1  0.50000000  0.50000000  0.50000000  1.0
  P  P8  1  0.32426438  0.75000000  0.97956782  1.0
  P  P9  1  0.82426438  0.75000000  0.52043218  1.0
  P  P10  1  0.67573562  0.25000000  0.02043218  1.0
  P  P11  1  0.17573562  0.25000000  0.47956782  1.0
  O  O12  1  0.15771960  0.75000000  0.95998977  1.0
  O  O13  1  0.65771960  0.75000000  0.54001023  1.0
  O  O14  1  0.84228040  0.25000000  0.04001023  1.0
  O  O15  1  0.34228040  0.25000000  0.45998977  1.0
  O  O16  1  0.37337017  0.75000000  0.26483021  1.0
  O  O17  1  0.87337017  0.75000000  0.23516979  1.0
  O  O18  1  0.62662983  0.25000000  0.73516979  1.0
  O  O19  1  0.12662983  0.25000000  0.76483021  1.0
  O  O20  1  0.37862413  0.57005959  0.84760754  1.0
  O  O21  1  0.87862413  0.92994041  0.65239246  1.0
  O  O22  1  0.62137587  0.07005959  0.15239246  1.0
  O  O23  1  0.12137587  0.42994041  0.34760754  1.0
  O  O24  1  0.62137587  0.42994041  0.15239246  1.0
  O  O25  1  0.12137587  0.07005959  0.34760754  1.0
  O  O26  1  0.37862413  0.92994041  0.84760754  1.0
  O  O27  1  0.87862413  0.57005959  0.65239246  1.0
