# generated using pymatgen
data_CaMg(SiN2)2
_symmetry_space_group_name_H-M   'P 1'
_cell_length_a   10.57619202
_cell_length_b   6.91558271
_cell_length_c   5.14766392
_cell_angle_alpha   90.00000000
_cell_angle_beta   90.00000000
_cell_angle_gamma   90.00000000
_symmetry_Int_Tables_number   1
_chemical_formula_structural   CaMg(SiN2)2
_chemical_formula_sum   'Ca4 Mg4 Si8 N16'
_cell_volume   376.50287065
_cell_formula_units_Z   4
loop_
 _symmetry_equiv_pos_site_id
 _symmetry_equiv_pos_as_xyz
  1  'x, y, z'
loop_
 _atom_site_type_symbol
 _atom_site_label
 _atom_site_symmetry_multiplicity
 _atom_site_fract_x
 _atom_site_fract_y
 _atom_site_fract_z
 _atom_site_occupancy
  Ca  Ca0  1  0.09049200  0.74652313  0.75887103  1.0
  Ca  Ca1  1  0.90950800  0.25347687  0.25887103  1.0
  Ca  Ca2  1  0.40950800  0.24652313  0.25887103  1.0
  Ca  Ca3  1  0.59049200  0.75347687  0.75887103  1.0
  Mg  Mg4  1  0.16283722  0.48768582  0.24252183  1.0
  Mg  Mg5  1  0.83716278  0.51231418  0.74252183  1.0
  Mg  Mg6  1  0.33716278  0.98768582  0.74252183  1.0
  Mg  Mg7  1  0.66283722  0.01231418  0.24252183  1.0
  Si  Si8  1  0.09711884  0.22183984  0.73544793  1.0
  Si  Si9  1  0.90288116  0.77816016  0.23544793  1.0
  Si  Si10  1  0.40288116  0.72183984  0.23544793  1.0
  Si  Si11  1  0.59711884  0.27816016  0.73544793  1.0
  Si  Si12  1  0.16820524  0.98247262  0.23616242  1.0
  Si  Si13  1  0.83179476  0.01752738  0.73616242  1.0
  Si  Si14  1  0.33179476  0.48247262  0.73616242  1.0
  Si  Si15  1  0.66820524  0.51752738  0.23616242  1.0
  N  N16  1  0.07034269  0.76796673  0.28504925  1.0
  N  N17  1  0.92965731  0.23203327  0.78504925  1.0
  N  N18  1  0.42965731  0.26796673  0.78504925  1.0
  N  N19  1  0.57034269  0.73203327  0.28504925  1.0
  N  N20  1  0.12356650  0.19694337  0.39803448  1.0
  N  N21  1  0.87643350  0.80305663  0.89803448  1.0
  N  N22  1  0.37643350  0.69694337  0.89803448  1.0
  N  N23  1  0.62356650  0.30305663  0.39803448  1.0
  N  N24  1  0.16528147  0.03276649  0.90530073  1.0
  N  N25  1  0.83471853  0.96723351  0.40530073  1.0
  N  N26  1  0.33471853  0.53276649  0.40530073  1.0
  N  N27  1  0.66528147  0.46723351  0.90530073  1.0
  N  N28  1  0.17331208  0.43486560  0.83581231  1.0
  N  N29  1  0.82668792  0.56513440  0.33581231  1.0
  N  N30  1  0.32668792  0.93486560  0.33581231  1.0
  N  N31  1  0.67331208  0.06513440  0.83581231  1.0
