# generated using pymatgen
data_KGa2NiP3(H2O7)2
_symmetry_space_group_name_H-M   'P 1'
_cell_length_a   8.44334664
_cell_length_b   8.44334664
_cell_length_c   8.93508327
_cell_angle_alpha   76.07196057
_cell_angle_beta   103.92803943
_cell_angle_gamma   105.32216825
_symmetry_Int_Tables_number   1
_chemical_formula_structural   KGa2NiP3(H2O7)2
_chemical_formula_sum   'K2 Ga4 Ni2 P6 H8 O28'
_cell_volume   585.51101291
_cell_formula_units_Z   2
loop_
 _symmetry_equiv_pos_site_id
 _symmetry_equiv_pos_as_xyz
  1  'x, y, z'
loop_
 _atom_site_type_symbol
 _atom_site_label
 _atom_site_symmetry_multiplicity
 _atom_site_fract_x
 _atom_site_fract_y
 _atom_site_fract_z
 _atom_site_occupancy
  K  K0  1  1.13372297  0.13372297  0.25000000  1.0
  K  K1  1  0.86627703  -0.13372297  0.75000000  1.0
  Ga  Ga2  1  0.74713638  -0.59790643  0.06758434  1.0
  Ga  Ga3  1  1.59790643  0.25286362  0.56758434  1.0
  Ga  Ga4  1  0.40209357  -0.25286362  0.43241566  1.0
  Ga  Ga5  1  1.25286362  0.59790643  0.93241566  1.0
  Ni  Ni6  1  0.77326763  -0.22673237  0.25000000  1.0
  Ni  Ni7  1  1.22673237  0.22673237  0.75000000  1.0
  P  P8  1  1.08083259  0.66354055  0.18139093  1.0
  P  P9  1  0.33645945  -0.08083259  0.68139093  1.0
  P  P10  1  1.66354055  0.08083259  0.31860907  1.0
  P  P11  1  0.91916741  -0.66354055  0.81860907  1.0
  P  P12  1  0.50065684  -0.49934316  0.25000000  1.0
  P  P13  1  1.49934316  0.49934316  0.75000000  1.0
  H  H14  1  0.86296491  -0.41669273  0.54484924  1.0
  H  H15  1  1.41669273  0.13703509  0.04484924  1.0
  H  H16  1  0.58330727  -0.13703509  0.95515076  1.0
  H  H17  1  1.13703509  0.41669273  0.45515076  1.0
  H  H18  1  1.01377368  -0.27107350  0.49642904  1.0
  H  H19  1  1.27107350  -0.01377368  0.99642904  1.0
  H  H20  1  0.72892650  0.01377368  0.00357096  1.0
  H  H21  1  0.98622632  0.27107350  0.50357096  1.0
  O  O22  1  0.67195373  -0.47492833  0.20003469  1.0
  O  O23  1  1.47492833  0.32804627  0.70003469  1.0
  O  O24  1  0.52507167  -0.32804627  0.29996531  1.0
  O  O25  1  1.32804627  0.47492833  0.79996531  1.0
  O  O26  1  0.99549028  -0.20022650  0.18982336  1.0
  O  O27  1  1.20022650  0.00450972  0.68982336  1.0
  O  O28  1  0.79977350  -0.00450972  0.31017664  1.0
  O  O29  1  1.00450972  0.20022650  0.81017664  1.0
  O  O30  1  0.89149649  -0.29942237  0.48846711  1.0
  O  O31  1  1.29942237  0.10850351  0.98846711  1.0
  O  O32  1  0.70057763  -0.10850351  0.01153289  1.0
  O  O33  1  1.10850351  0.29942237  0.51153289  1.0
  O  O34  1  1.17981915  0.73388939  0.04412363  1.0
  O  O35  1  0.26611061  -0.17981915  0.54412363  1.0
  O  O36  1  1.73388939  0.17981915  0.45587637  1.0
  O  O37  1  0.82018085  -0.73388939  0.95587637  1.0
  O  O38  1  0.96487700  -0.51035062  0.16092423  1.0
  O  O39  1  1.51035062  0.03512300  0.66092423  1.0
  O  O40  1  0.48964938  -0.03512300  0.33907577  1.0
  O  O41  1  1.03512300  0.51035062  0.83907577  1.0
  O  O42  1  1.20239312  0.61458389  0.34127861  1.0
  O  O43  1  0.38541611  -0.20239312  0.84127861  1.0
  O  O44  1  1.61458389  0.20239312  0.15872139  1.0
  O  O45  1  0.79760688  -0.61458389  0.65872139  1.0
  O  O46  1  1.34876334  0.46488091  0.11564177  1.0
  O  O47  1  0.53511909  -0.34876334  0.61564177  1.0
  O  O48  1  1.46488091  0.34876334  0.38435823  1.0
  O  O49  1  0.65123666  -0.46488091  0.88435823  1.0
