# generated using pymatgen
data_CuHO2
_symmetry_space_group_name_H-M   'P 1'
_cell_length_a   2.77368474
_cell_length_b   6.16425199
_cell_length_c   4.43146286
_cell_angle_alpha   90.00000000
_cell_angle_beta   90.00000000
_cell_angle_gamma   90.00000000
_symmetry_Int_Tables_number   1
_chemical_formula_structural   CuHO2
_chemical_formula_sum   'Cu2 H2 O4'
_cell_volume   75.76778563
_cell_formula_units_Z   2
loop_
 _symmetry_equiv_pos_site_id
 _symmetry_equiv_pos_as_xyz
  1  'x, y, z'
loop_
 _atom_site_type_symbol
 _atom_site_label
 _atom_site_symmetry_multiplicity
 _atom_site_fract_x
 _atom_site_fract_y
 _atom_site_fract_z
 _atom_site_occupancy
  Cu  Cu0  1  0.50000000  0.26678756  0.62037580  1.0
  Cu  Cu1  1  0.00000000  0.73321244  0.12037580  1.0
  H  H2  1  0.50000000  0.75453533  0.66397002  1.0
  H  H3  1  0.00000000  0.24546467  0.16397002  1.0
  O  O4  1  0.50000000  0.64752576  0.36722981  1.0
  O  O5  1  0.00000000  0.35247424  0.86722981  1.0
  O  O6  1  0.50000000  0.83388317  0.87488437  1.0
  O  O7  1  -0.00000000  0.16611683  0.37488437  1.0
