# generated using pymatgen
data_CoGe
_symmetry_space_group_name_H-M   'P 1'
_cell_length_a   6.14709603
_cell_length_b   6.14709603
_cell_length_c   4.92085785
_cell_angle_alpha   81.16885349
_cell_angle_beta   98.83114651
_cell_angle_gamma   144.44761717
_symmetry_Int_Tables_number   1
_chemical_formula_structural   CoGe
_chemical_formula_sum   'Co4 Ge4'
_cell_volume   106.70191953
_cell_formula_units_Z   4
loop_
 _symmetry_equiv_pos_site_id
 _symmetry_equiv_pos_as_xyz
  1  'x, y, z'
loop_
 _atom_site_type_symbol
 _atom_site_label
 _atom_site_symmetry_multiplicity
 _atom_site_fract_x
 _atom_site_fract_y
 _atom_site_fract_z
 _atom_site_occupancy
  Co  Co0  1  0.00000000  0.00000000  0.00000000  1.0
  Co  Co1  1  0.00000000  -0.00000000  0.50000000  1.0
  Co  Co2  1  1.19605808  -0.19605808  0.82566432  1.0
  Co  Co3  1  0.80394192  -0.80394192  0.17433568  1.0
  Ge  Ge4  1  0.56935966  -0.56935966  0.78049320  1.0
  Ge  Ge5  1  1.43064034  -0.43064034  0.21950680  1.0
  Ge  Ge6  1  0.81685183  -0.81685183  0.68239065  1.0
  Ge  Ge7  1  1.18314817  -0.18314817  0.31760935  1.0
