# generated using pymatgen
data_Rb3TeH6(ClO2)3
_symmetry_space_group_name_H-M   'P 1'
_cell_length_a   9.24001796
_cell_length_b   9.24001796
_cell_length_c   9.24001796
_cell_angle_alpha   104.41098347
_cell_angle_beta   104.41098347
_cell_angle_gamma   104.41098347
_symmetry_Int_Tables_number   1
_chemical_formula_structural   Rb3TeH6(ClO2)3
_chemical_formula_sum   'Rb6 Te2 H12 Cl6 O12'
_cell_volume   698.22774580
_cell_formula_units_Z   2
loop_
 _symmetry_equiv_pos_site_id
 _symmetry_equiv_pos_as_xyz
  1  'x, y, z'
loop_
 _atom_site_type_symbol
 _atom_site_label
 _atom_site_symmetry_multiplicity
 _atom_site_fract_x
 _atom_site_fract_y
 _atom_site_fract_z
 _atom_site_occupancy
  Rb  Rb0  1  0.79411157  1.25000000  -0.29411157  1.0
  Rb  Rb1  1  1.29411157  0.20588843  -0.25000000  1.0
  Rb  Rb2  1  0.75000000  0.29411157  0.20588843  1.0
  Rb  Rb3  1  1.25000000  0.70588843  -0.20588843  1.0
  Rb  Rb4  1  1.20588843  -0.25000000  0.29411157  1.0
  Rb  Rb5  1  0.70588843  0.79411157  0.25000000  1.0
  Te  Te6  1  0.50000000  0.50000000  0.50000000  1.0
  Te  Te7  1  -0.00000000  0.00000000  -0.00000000  1.0
  H  H8  1  1.20433118  0.40828042  -0.55615894  1.0
  H  H9  1  1.70433118  0.94384106  -0.09171958  1.0
  H  H10  1  1.05615894  0.09171958  -0.70433118  1.0
  H  H11  1  1.55615894  -0.20433118  0.59171958  1.0
  H  H12  1  1.59171958  0.55615894  -0.20433118  1.0
  H  H13  1  1.09171958  -0.70433118  0.05615894  1.0
  H  H14  1  0.79566882  0.59171958  0.55615894  1.0
  H  H15  1  0.29566882  0.05615894  0.09171958  1.0
  H  H16  1  0.44384106  1.20433118  -0.59171958  1.0
  H  H17  1  0.94384106  0.90828042  0.70433118  1.0
  H  H18  1  0.90828042  1.70433118  -0.05615894  1.0
  H  H19  1  0.40828042  0.44384106  0.20433118  1.0
  Cl  Cl20  1  1.01715206  0.25000000  -0.51715206  1.0
  Cl  Cl21  1  1.51715206  -0.01715206  0.75000000  1.0
  Cl  Cl22  1  0.75000000  1.51715206  -0.01715206  1.0
  Cl  Cl23  1  0.25000000  0.48284794  0.01715206  1.0
  Cl  Cl24  1  0.98284794  0.75000000  0.51715206  1.0
  Cl  Cl25  1  0.48284794  0.01715206  0.25000000  1.0
  O  O26  1  1.27710314  0.50173433  -0.56708017  1.0
  O  O27  1  1.77710314  0.93291983  0.00173433  1.0
  O  O28  1  1.06708017  -0.00173433  -0.77710314  1.0
  O  O29  1  1.56708017  -0.27710314  0.49826567  1.0
  O  O30  1  1.49826567  0.56708017  -0.27710314  1.0
  O  O31  1  0.99826567  -0.77710314  0.06708017  1.0
  O  O32  1  0.72289686  0.49826567  0.56708017  1.0
  O  O33  1  0.22289686  0.06708017  -0.00173433  1.0
  O  O34  1  0.43291983  1.27710314  -0.49826567  1.0
  O  O35  1  0.93291983  1.00173433  0.77710314  1.0
  O  O36  1  1.00173433  1.77710314  -0.06708017  1.0
  O  O37  1  0.50173433  0.43291983  0.27710314  1.0
