# generated using pymatgen
data_La4Mg3Au10
_symmetry_space_group_name_H-M   'P 1'
_cell_length_a   8.80069236
_cell_length_b   8.80069236
_cell_length_c   10.35051243
_cell_angle_alpha   90.00000000
_cell_angle_beta   90.00000000
_cell_angle_gamma   71.74463192
_symmetry_Int_Tables_number   1
_chemical_formula_structural   La4Mg3Au10
_chemical_formula_sum   'La8 Mg6 Au20'
_cell_volume   761.32159787
_cell_formula_units_Z   2
loop_
 _symmetry_equiv_pos_site_id
 _symmetry_equiv_pos_as_xyz
  1  'x, y, z'
loop_
 _atom_site_type_symbol
 _atom_site_label
 _atom_site_symmetry_multiplicity
 _atom_site_fract_x
 _atom_site_fract_y
 _atom_site_fract_z
 _atom_site_occupancy
  La  La0  1  -0.20022568  1.20022568  0.29826534  1.0
  La  La1  1  0.29977432  0.70022568  0.20173466  1.0
  La  La2  1  0.20022568  0.79977432  0.70173466  1.0
  La  La3  1  -0.29977432  1.29977432  0.79826534  1.0
  La  La4  1  0.20013497  1.20013497  0.50000000  1.0
  La  La5  1  -0.29986503  0.70013497  0.00000000  1.0
  La  La6  1  -0.20013497  0.79986503  0.50000000  1.0
  La  La7  1  0.29986503  1.29986503  0.00000000  1.0
  Mg  Mg8  1  -0.49207316  0.99207316  0.25000000  1.0
  Mg  Mg9  1  0.00792684  1.49207316  0.25000000  1.0
  Mg  Mg10  1  -0.00792684  0.50792684  0.75000000  1.0
  Mg  Mg11  1  0.49207316  1.00792684  0.75000000  1.0
  Mg  Mg12  1  -0.50000000  0.50000000  0.50000000  1.0
  Mg  Mg13  1  0.00000000  1.00000000  0.00000000  1.0
  Au  Au14  1  0.38505473  1.33690281  0.29620438  1.0
  Au  Au15  1  -0.11494527  0.83690281  0.20379562  1.0
  Au  Au16  1  0.33690281  1.38505473  0.70379562  1.0
  Au  Au17  1  -0.16309719  0.88505473  0.79620438  1.0
  Au  Au18  1  -0.33690281  0.61494527  0.29620438  1.0
  Au  Au19  1  0.16309719  1.11494527  0.20379562  1.0
  Au  Au20  1  -0.38505473  0.66309719  0.70379562  1.0
  Au  Au21  1  0.11494527  1.16309719  0.79620438  1.0
  Au  Au22  1  0.43572150  0.84198408  0.47735723  1.0
  Au  Au23  1  -0.06427850  1.34198408  0.02264277  1.0
  Au  Au24  1  -0.15801592  1.43572150  0.52264277  1.0
  Au  Au25  1  0.34198408  0.93572150  0.97735723  1.0
  Au  Au26  1  0.15801592  0.56427850  0.47735723  1.0
  Au  Au27  1  -0.34198408  1.06427850  0.02264277  1.0
  Au  Au28  1  -0.43572150  1.15801592  0.52264277  1.0
  Au  Au29  1  0.06427850  0.65801592  0.97735723  1.0
  Au  Au30  1  -0.40345386  1.40345386  0.09579814  1.0
  Au  Au31  1  0.09654614  0.90345386  0.40420186  1.0
  Au  Au32  1  0.40345386  0.59654614  0.90420186  1.0
  Au  Au33  1  -0.09654614  1.09654614  0.59579814  1.0
