# generated using pymatgen
data_AsI5F6
_symmetry_space_group_name_H-M   'P 1'
_cell_length_a   10.57080225
_cell_length_b   10.57080225
_cell_length_c   10.37569670
_cell_angle_alpha   73.66887635
_cell_angle_beta   106.33112365
_cell_angle_gamma   59.59464258
_symmetry_Int_Tables_number   1
_chemical_formula_structural   AsI5F6
_chemical_formula_sum   'As2 I10 F12'
_cell_volume   824.46372750
_cell_formula_units_Z   2
loop_
 _symmetry_equiv_pos_site_id
 _symmetry_equiv_pos_as_xyz
  1  'x, y, z'
loop_
 _atom_site_type_symbol
 _atom_site_label
 _atom_site_symmetry_multiplicity
 _atom_site_fract_x
 _atom_site_fract_y
 _atom_site_fract_z
 _atom_site_occupancy
  As  As0  1  0.66806309  0.66806309  0.75000000  1.0
  As  As1  1  1.33193691  0.33193691  0.25000000  1.0
  I  I2  1  1.75832122  -0.03937841  0.92139891  1.0
  I  I3  1  1.03937841  0.24167878  0.42139891  1.0
  I  I4  1  0.96062159  0.75832122  0.57860109  1.0
  I  I5  1  1.24167878  0.03937841  0.07860109  1.0
  I  I6  1  1.72761609  0.23348599  0.91471080  1.0
  I  I7  1  0.76651401  0.27238391  0.41471080  1.0
  I  I8  1  1.23348599  0.72761609  0.58528920  1.0
  I  I9  1  1.27238391  -0.23348599  0.08528920  1.0
  I  I10  1  1.50000000  -0.00000000  0.00000000  1.0
  I  I11  1  1.00000000  0.50000000  0.50000000  1.0
  F  F12  1  1.67183757  -0.19754955  0.60200181  1.0
  F  F13  1  1.19754955  0.32816243  0.10200181  1.0
  F  F14  1  0.80245045  0.67183757  0.89799819  1.0
  F  F15  1  1.32816243  0.19754955  0.39799819  1.0
  F  F16  1  1.52772331  -0.33281951  0.60160678  1.0
  F  F17  1  1.33281951  0.47227669  0.10160678  1.0
  F  F18  1  0.66718049  0.52772331  0.89839322  1.0
  F  F19  1  1.47227669  0.33281951  0.39839322  1.0
  F  F20  1  1.48366261  -0.14991800  0.72364265  1.0
  F  F21  1  1.14991800  0.51633739  0.22364265  1.0
  F  F22  1  0.85008200  0.48366261  0.77635735  1.0
  F  F23  1  1.51633739  0.14991800  0.27635735  1.0
