# generated using pymatgen
data_V3B4
_symmetry_space_group_name_H-M   'P 1'
_cell_length_a   6.92660362
_cell_length_b   6.92660362
_cell_length_c   6.92660362
_cell_angle_alpha   155.21529701
_cell_angle_beta   154.69727157
_cell_angle_gamma   35.71294838
_symmetry_Int_Tables_number   1
_chemical_formula_structural   V3B4
_chemical_formula_sum   'V3 B4'
_cell_volume   59.47013382
_cell_formula_units_Z   1
loop_
 _symmetry_equiv_pos_site_id
 _symmetry_equiv_pos_as_xyz
  1  'x, y, z'
loop_
 _atom_site_type_symbol
 _atom_site_label
 _atom_site_symmetry_multiplicity
 _atom_site_fract_x
 _atom_site_fract_y
 _atom_site_fract_z
 _atom_site_occupancy
  V  V0  1  0.81254235  0.31254235  0.50000000  1.0
  V  V1  1  0.18745765  0.68745765  0.50000000  1.0
  V  V2  1  0.00000000  0.00000000  0.00000000  1.0
  B  B3  1  0.63647953  0.13647953  0.50000000  1.0
  B  B4  1  0.36352047  0.86352047  0.50000000  1.0
  B  B5  1  0.56558912  0.56558912  1.00000000  1.0
  B  B6  1  0.43441088  0.43441088  -0.00000000  1.0
