# generated using pymatgen
data_TiS3
_symmetry_space_group_name_H-M   'P 1'
_cell_length_a   5.03061527
_cell_length_b   3.41831437
_cell_length_c   9.60876436
_cell_angle_alpha   90.00000000
_cell_angle_beta   96.10316722
_cell_angle_gamma   90.00000000
_symmetry_Int_Tables_number   1
_chemical_formula_structural   TiS3
_chemical_formula_sum   'Ti2 S6'
_cell_volume   164.29793138
_cell_formula_units_Z   2
loop_
 _symmetry_equiv_pos_site_id
 _symmetry_equiv_pos_as_xyz
  1  'x, y, z'
loop_
 _atom_site_type_symbol
 _atom_site_label
 _atom_site_symmetry_multiplicity
 _atom_site_fract_x
 _atom_site_fract_y
 _atom_site_fract_z
 _atom_site_occupancy
  Ti  Ti0  1  0.22142272  0.25000000  0.35993260  1.0
  Ti  Ti1  1  0.77857728  0.75000000  0.64006740  1.0
  S  S2  1  1.01427597  0.25000000  0.79754083  1.0
  S  S3  1  -0.01427597  0.75000000  0.20245917  1.0
  S  S4  1  0.74070405  0.25000000  0.45417766  1.0
  S  S5  1  0.25929595  0.75000000  0.54582234  1.0
  S  S6  1  0.60646950  0.25000000  0.79719499  1.0
  S  S7  1  0.39353050  0.75000000  0.20280501  1.0
