# generated using pymatgen
data_CaSiP2
_symmetry_space_group_name_H-M   'P 1'
_cell_length_a   7.20130635
_cell_length_b   7.20130635
_cell_length_c   26.33734473
_cell_angle_alpha   90.00000000
_cell_angle_beta   90.00000000
_cell_angle_gamma   90.00000000
_symmetry_Int_Tables_number   1
_chemical_formula_structural   CaSiP2
_chemical_formula_sum   'Ca16 Si16 P32'
_cell_volume   1365.82343855
_cell_formula_units_Z   16
loop_
 _symmetry_equiv_pos_site_id
 _symmetry_equiv_pos_as_xyz
  1  'x, y, z'
loop_
 _atom_site_type_symbol
 _atom_site_label
 _atom_site_symmetry_multiplicity
 _atom_site_fract_x
 _atom_site_fract_y
 _atom_site_fract_z
 _atom_site_occupancy
  Ca  Ca0  1  0.65521364  0.37666293  0.31941289  1.0
  Ca  Ca1  1  0.34478636  0.62333707  0.81941289  1.0
  Ca  Ca2  1  0.87666293  0.84478636  0.06941289  1.0
  Ca  Ca3  1  0.12333707  0.15521364  0.56941289  1.0
  Ca  Ca4  1  0.62333707  0.34478636  0.18058711  1.0
  Ca  Ca5  1  0.37666293  0.65521364  0.68058711  1.0
  Ca  Ca6  1  0.84478636  0.87666293  0.93058711  1.0
  Ca  Ca7  1  0.15521364  0.12333707  0.43058711  1.0
  Ca  Ca8  1  0.62862261  0.15726240  0.56423091  1.0
  Ca  Ca9  1  0.37137739  0.84273760  0.06423091  1.0
  Ca  Ca10  1  0.65726240  0.87137739  0.31423091  1.0
  Ca  Ca11  1  0.34273760  0.12862261  0.81423091  1.0
  Ca  Ca12  1  0.84273760  0.37137739  0.93576909  1.0
  Ca  Ca13  1  0.15726240  0.62862261  0.43576909  1.0
  Ca  Ca14  1  0.87137739  0.65726240  0.68576909  1.0
  Ca  Ca15  1  0.12862261  0.34273760  0.18576909  1.0
  Si  Si16  1  0.62675741  0.11397721  0.70577961  1.0
  Si  Si17  1  0.37324259  0.88602279  0.20577961  1.0
  Si  Si18  1  0.61397721  0.87324259  0.45577961  1.0
  Si  Si19  1  0.38602279  0.12675741  0.95577961  1.0
  Si  Si20  1  0.88602279  0.37324259  0.79422039  1.0
  Si  Si21  1  0.11397721  0.62675741  0.29422039  1.0
  Si  Si22  1  0.87324259  0.61397721  0.54422039  1.0
  Si  Si23  1  0.12675741  0.38602279  0.04422039  1.0
  Si  Si24  1  0.61535493  0.37565275  0.44980641  1.0
  Si  Si25  1  0.38464507  0.62434725  0.94980641  1.0
  Si  Si26  1  0.87565275  0.88464507  0.19980641  1.0
  Si  Si27  1  0.12434725  0.11535493  0.69980641  1.0
  Si  Si28  1  0.62434725  0.38464507  0.05019359  1.0
  Si  Si29  1  0.37565275  0.61535493  0.55019359  1.0
  Si  Si30  1  0.88464507  0.87565275  0.80019359  1.0
  Si  Si31  1  0.11535493  0.12434725  0.30019359  1.0
  P  P32  1  0.88856734  0.36615694  0.49114586  1.0
  P  P33  1  0.11143266  0.63384306  0.99114586  1.0
  P  P34  1  0.86615694  0.61143266  0.24114586  1.0
  P  P35  1  0.13384306  0.38856734  0.74114586  1.0
  P  P36  1  0.63384306  0.11143266  0.00885414  1.0
  P  P37  1  0.36615694  0.88856734  0.50885414  1.0
  P  P38  1  0.61143266  0.86615694  0.75885414  1.0
  P  P39  1  0.38856734  0.13384306  0.25885414  1.0
  P  P40  1  0.13594603  0.86405397  0.75000000  1.0
  P  P41  1  0.86405397  0.13594603  0.25000000  1.0
  P  P42  1  0.36405397  0.36405397  0.50000000  1.0
  P  P43  1  0.63594603  0.63594603  0.00000000  1.0
  P  P44  1  0.56760789  0.11723362  0.40231325  1.0
  P  P45  1  0.43239211  0.88276638  0.90231325  1.0
  P  P46  1  0.61723362  0.93239211  0.15231325  1.0
  P  P47  1  0.38276638  0.06760789  0.65231325  1.0
  P  P48  1  0.88276638  0.43239211  0.09768675  1.0
  P  P49  1  0.11723362  0.56760789  0.59768675  1.0
  P  P50  1  0.93239211  0.61723362  0.84768675  1.0
  P  P51  1  0.06760789  0.38276638  0.34768675  1.0
  P  P52  1  0.61545387  0.38454613  0.75000000  1.0
  P  P53  1  0.38454613  0.61545387  0.25000000  1.0
  P  P54  1  0.88454613  0.88454613  0.50000000  1.0
  P  P55  1  0.11545387  0.11545387  0.00000000  1.0
  P  P56  1  0.86817592  0.06313416  0.65156732  1.0
  P  P57  1  0.13182408  0.93686584  0.15156732  1.0
  P  P58  1  0.56313416  0.63182408  0.40156732  1.0
  P  P59  1  0.43686584  0.36817592  0.90156732  1.0
  P  P60  1  0.93686584  0.13182408  0.84843268  1.0
  P  P61  1  0.06313416  0.86817592  0.34843268  1.0
  P  P62  1  0.63182408  0.56313416  0.59843268  1.0
  P  P63  1  0.36817592  0.43686584  0.09843268  1.0
