# generated using pymatgen
data_LiAgO
_symmetry_space_group_name_H-M   'P 1'
_cell_length_a   6.83527068
_cell_length_b   6.83527068
_cell_length_c   6.83527068
_cell_angle_alpha   94.44931661
_cell_angle_beta   94.44931661
_cell_angle_gamma   147.65539696
_symmetry_Int_Tables_number   1
_chemical_formula_structural   LiAgO
_chemical_formula_sum   'Li4 Ag4 O4'
_cell_volume   164.09457638
_cell_formula_units_Z   4
loop_
 _symmetry_equiv_pos_site_id
 _symmetry_equiv_pos_as_xyz
  1  'x, y, z'
loop_
 _atom_site_type_symbol
 _atom_site_label
 _atom_site_symmetry_multiplicity
 _atom_site_fract_x
 _atom_site_fract_y
 _atom_site_fract_z
 _atom_site_occupancy
  Li  Li0  1  0.50000000  0.86257271  0.36257271  1.0
  Li  Li1  1  0.86257271  0.50000000  1.36257271  1.0
  Li  Li2  1  0.13742729  0.50000000  0.63742729  1.0
  Li  Li3  1  0.50000000  1.13742729  0.63742729  1.0
  Ag  Ag4  1  0.83840598  0.83840598  0.67681195  1.0
  Ag  Ag5  1  1.16159402  0.83840598  1.00000000  1.0
  Ag  Ag6  1  0.83840598  0.16159402  1.00000000  1.0
  Ag  Ag7  1  0.16159402  0.16159402  0.32318805  1.0
  O  O8  1  -0.00000000  0.67832783  0.67832783  1.0
  O  O9  1  0.67832783  1.00000000  0.67832783  1.0
  O  O10  1  1.32167217  1.00000000  1.32167217  1.0
  O  O11  1  0.00000000  0.32167217  0.32167217  1.0
