# generated using pymatgen
data_PRuSe
_symmetry_space_group_name_H-M   'P 1'
_cell_length_a   5.95904515
_cell_length_b   5.97327540
_cell_length_c   6.04451734
_cell_angle_alpha   90.00000000
_cell_angle_beta   112.14576503
_cell_angle_gamma   90.00000000
_symmetry_Int_Tables_number   1
_chemical_formula_structural   PRuSe
_chemical_formula_sum   'P4 Ru4 Se4'
_cell_volume   199.28227222
_cell_formula_units_Z   4
loop_
 _symmetry_equiv_pos_site_id
 _symmetry_equiv_pos_as_xyz
  1  'x, y, z'
loop_
 _atom_site_type_symbol
 _atom_site_label
 _atom_site_symmetry_multiplicity
 _atom_site_fract_x
 _atom_site_fract_y
 _atom_site_fract_z
 _atom_site_occupancy
  P  P0  1  0.64362832  0.87019233  0.38151404  1.0
  P  P1  1  0.64362832  0.62980767  0.88151404  1.0
  P  P2  1  0.35637168  0.37019233  0.11848596  1.0
  P  P3  1  0.35637168  0.12980767  0.61848596  1.0
  Ru  Ru4  1  0.76425443  0.51027006  0.29057970  1.0
  Ru  Ru5  1  0.76425443  -0.01027006  0.79057970  1.0
  Ru  Ru6  1  0.23574557  1.01027006  0.20942030  1.0
  Ru  Ru7  1  0.23574557  0.48972994  0.70942030  1.0
  Se  Se8  1  0.83437161  0.12401257  0.19292566  1.0
  Se  Se9  1  0.83437161  0.37598743  0.69292566  1.0
  Se  Se10  1  0.16562839  0.62401257  0.30707434  1.0
  Se  Se11  1  0.16562839  0.87598743  0.80707434  1.0
