# generated using pymatgen
data_NiPS
_symmetry_space_group_name_H-M   'P 1'
_cell_length_a   5.55342220
_cell_length_b   5.55342220
_cell_length_c   5.55342220
_cell_angle_alpha   90.00000000
_cell_angle_beta   90.00000000
_cell_angle_gamma   90.00000000
_symmetry_Int_Tables_number   1
_chemical_formula_structural   NiPS
_chemical_formula_sum   'Ni4 P4 S4'
_cell_volume   171.27030730
_cell_formula_units_Z   4
loop_
 _symmetry_equiv_pos_site_id
 _symmetry_equiv_pos_as_xyz
  1  'x, y, z'
loop_
 _atom_site_type_symbol
 _atom_site_label
 _atom_site_symmetry_multiplicity
 _atom_site_fract_x
 _atom_site_fract_y
 _atom_site_fract_z
 _atom_site_occupancy
  Ni  Ni0  1  0.49496901  -0.00503099  0.50503099  1.0
  Ni  Ni1  1  -0.00503099  0.50503099  0.49496901  1.0
  Ni  Ni2  1  0.50503099  0.49496901  -0.00503099  1.0
  Ni  Ni3  1  0.00503099  0.00503099  0.00503099  1.0
  P  P4  1  0.88736927  0.38736927  0.11263073  1.0
  P  P5  1  0.38736927  0.11263073  0.88736927  1.0
  P  P6  1  0.11263073  0.88736927  0.38736927  1.0
  P  P7  1  0.61263073  0.61263073  0.61263073  1.0
  S  S8  1  0.11186564  0.61186564  0.88813436  1.0
  S  S9  1  0.61186564  0.88813436  0.11186564  1.0
  S  S10  1  0.88813436  0.11186564  0.61186564  1.0
  S  S11  1  0.38813436  0.38813436  0.38813436  1.0
