# generated using pymatgen
data_CdH8C2NCl3
_symmetry_space_group_name_H-M   'P 1'
_cell_length_a   9.45377196
_cell_length_b   13.28283385
_cell_length_c   6.86496582
_cell_angle_alpha   90.00000000
_cell_angle_beta   103.15025706
_cell_angle_gamma   90.00000000
_symmetry_Int_Tables_number   1
_chemical_formula_structural   CdH8C2NCl3
_chemical_formula_sum   'Cd4 H32 C8 N4 Cl12'
_cell_volume   839.44772882
_cell_formula_units_Z   4
loop_
 _symmetry_equiv_pos_site_id
 _symmetry_equiv_pos_as_xyz
  1  'x, y, z'
loop_
 _atom_site_type_symbol
 _atom_site_label
 _atom_site_symmetry_multiplicity
 _atom_site_fract_x
 _atom_site_fract_y
 _atom_site_fract_z
 _atom_site_occupancy
  Cd  Cd0  1  0.69915172  0.24662630  0.48180271  1.0
  Cd  Cd1  1  0.30084828  0.74662630  1.01819729  1.0
  Cd  Cd2  1  0.30084828  0.75337370  0.51819729  1.0
  Cd  Cd3  1  0.69915172  0.25337370  -0.01819729  1.0
  H  H4  1  0.34473790  0.06322633  0.93984041  1.0
  H  H5  1  0.65526210  0.56322633  0.56015959  1.0
  H  H6  1  0.65526210  0.93677367  0.06015959  1.0
  H  H7  1  0.34473790  0.43677367  0.43984041  1.0
  H  H8  1  0.22888966  0.97830606  0.80627472  1.0
  H  H9  1  0.77111034  0.47830606  0.69372528  1.0
  H  H10  1  0.77111034  0.02169394  0.19372528  1.0
  H  H11  1  0.22888966  0.52169394  0.30627472  1.0
  H  H12  1  0.02955408  0.09325203  0.77101757  1.0
  H  H13  1  0.97044592  0.59325203  0.72898243  1.0
  H  H14  1  0.97044592  0.90674797  0.22898243  1.0
  H  H15  1  0.02955408  0.40674797  0.27101757  1.0
  H  H16  1  0.11772402  0.07450179  0.02923883  1.0
  H  H17  1  0.88227598  0.57450179  0.47076117  1.0
  H  H18  1  0.88227598  0.92549821  0.97076117  1.0
  H  H19  1  0.11772402  0.42549821  0.52923883  1.0
  H  H20  1  0.15107222  0.18665812  0.90133281  1.0
  H  H21  1  0.84892778  0.68665812  0.59866719  1.0
  H  H22  1  0.84892778  0.81334188  0.09866719  1.0
  H  H23  1  0.15107222  0.31334188  0.40133281  1.0
  H  H24  1  0.32028660  0.17363370  0.66236209  1.0
  H  H25  1  0.67971340  0.67363370  0.83763791  1.0
  H  H26  1  0.67971340  0.82636630  0.33763791  1.0
  H  H27  1  0.32028660  0.32636630  0.16236209  1.0
  H  H28  1  0.36907954  0.05017700  0.59697651  1.0
  H  H29  1  0.63092046  0.55017700  0.90302349  1.0
  H  H30  1  0.63092046  0.94982300  0.40302349  1.0
  H  H31  1  0.36907954  0.44982300  0.09697651  1.0
  H  H32  1  0.18370944  0.09148987  0.51911741  1.0
  H  H33  1  0.81629056  0.59148987  0.98088259  1.0
  H  H34  1  0.81629056  0.90851013  0.48088259  1.0
  H  H35  1  0.18370944  0.40851013  0.01911741  1.0
  C  C36  1  0.12893239  0.10588422  0.88614307  1.0
  C  C37  1  0.87106761  0.60588422  0.61385693  1.0
  C  C38  1  0.87106761  0.89411578  0.11385693  1.0
  C  C39  1  0.12893239  0.39411578  0.38614307  1.0
  C  C40  1  0.28341189  0.09555763  0.63695822  1.0
  C  C41  1  0.71658811  0.59555763  0.86304178  1.0
  C  C42  1  0.71658811  0.90444237  0.36304178  1.0
  C  C43  1  0.28341189  0.40444237  0.13695822  1.0
  N  N44  1  0.25248821  0.05498801  0.82533798  1.0
  N  N45  1  0.74751179  0.55498801  0.67466202  1.0
  N  N46  1  0.74751179  0.94501199  0.17466202  1.0
  N  N47  1  0.25248821  0.44501199  0.32533798  1.0
  Cl  Cl48  1  0.88980771  0.16308173  0.29943801  1.0
  Cl  Cl49  1  0.11019229  0.66308173  0.20056199  1.0
  Cl  Cl50  1  0.11019229  0.83691827  0.70056199  1.0
  Cl  Cl51  1  0.88980771  0.33691827  0.79943801  1.0
  Cl  Cl52  1  0.70011657  0.39870159  0.23828692  1.0
  Cl  Cl53  1  0.29988343  0.89870159  0.26171308  1.0
  Cl  Cl54  1  0.29988343  0.60129841  0.76171308  1.0
  Cl  Cl55  1  0.70011657  0.10129841  0.73828692  1.0
  Cl  Cl56  1  0.50797341  0.16277401  0.15745903  1.0
  Cl  Cl57  1  0.49202659  0.66277401  0.34254097  1.0
  Cl  Cl58  1  0.49202659  0.83722599  0.84254097  1.0
  Cl  Cl59  1  0.50797341  0.33722599  0.65745903  1.0
