# generated using pymatgen
data_CdGa(AgS2)2
_symmetry_space_group_name_H-M   'P 1'
_cell_length_a   7.82643277
_cell_length_b   7.12838298
_cell_length_c   6.70766175
_cell_angle_alpha   90.00000000
_cell_angle_beta   90.00000000
_cell_angle_gamma   90.00000000
_symmetry_Int_Tables_number   1
_chemical_formula_structural   CdGa(AgS2)2
_chemical_formula_sum   'Cd2 Ga2 Ag4 S8'
_cell_volume   374.21917565
_cell_formula_units_Z   2
loop_
 _symmetry_equiv_pos_site_id
 _symmetry_equiv_pos_as_xyz
  1  'x, y, z'
loop_
 _atom_site_type_symbol
 _atom_site_label
 _atom_site_symmetry_multiplicity
 _atom_site_fract_x
 _atom_site_fract_y
 _atom_site_fract_z
 _atom_site_occupancy
  Cd  Cd0  1  0.50000000  0.64944996  0.00439241  1.0
  Cd  Cd1  1  0.00000000  0.35055004  0.50439241  1.0
  Ga  Ga2  1  0.50000000  0.32336532  0.50416757  1.0
  Ga  Ga3  1  0.00000000  0.67663468  0.00416757  1.0
  Ag  Ag4  1  0.24329073  0.17298433  0.01151069  1.0
  Ag  Ag5  1  0.74329073  0.82701567  0.51151069  1.0
  Ag  Ag6  1  0.75670927  0.17298433  0.01151069  1.0
  Ag  Ag7  1  0.25670927  0.82701567  0.51151069  1.0
  S  S8  1  0.26249044  0.16724148  0.39054796  1.0
  S  S9  1  0.76249044  0.83275852  0.89054796  1.0
  S  S10  1  0.73750956  0.16724148  0.39054796  1.0
  S  S11  1  0.23750956  0.83275852  0.89054796  1.0
  S  S12  1  0.50000000  0.32030953  0.85089753  1.0
  S  S13  1  0.00000000  0.67969047  0.35089753  1.0
  S  S14  1  0.50000000  0.63049669  0.38892518  1.0
  S  S15  1  0.00000000  0.36950331  0.88892518  1.0
