# generated using pymatgen
data_Ga3Ni5
_symmetry_space_group_name_H-M   'P 1'
_cell_length_a   5.07062169
_cell_length_b   5.07062169
_cell_length_c   3.74597985
_cell_angle_alpha   90.00000000
_cell_angle_beta   90.00000000
_cell_angle_gamma   96.02769992
_symmetry_Int_Tables_number   1
_chemical_formula_structural   Ga3Ni5
_chemical_formula_sum   'Ga3 Ni5'
_cell_volume   95.78115888
_cell_formula_units_Z   1
loop_
 _symmetry_equiv_pos_site_id
 _symmetry_equiv_pos_as_xyz
  1  'x, y, z'
loop_
 _atom_site_type_symbol
 _atom_site_label
 _atom_site_symmetry_multiplicity
 _atom_site_fract_x
 _atom_site_fract_y
 _atom_site_fract_z
 _atom_site_occupancy
  Ga  Ga0  1  0.28175117  0.71824883  0.50000000  1.0
  Ga  Ga1  1  -0.28175117  1.28175117  0.50000000  1.0
  Ga  Ga2  1  0.00000000  0.00000000  0.00000000  1.0
  Ni  Ni3  1  0.77520140  0.77520140  0.50000000  1.0
  Ni  Ni4  1  0.22479860  0.22479860  0.50000000  1.0
  Ni  Ni5  1  -0.00000000  1.50000000  0.00000000  1.0
  Ni  Ni6  1  0.50000000  1.00000000  0.00000000  1.0
  Ni  Ni7  1  0.50000000  0.50000000  0.00000000  1.0
