# generated using pymatgen
data_Zr2HBr2
_symmetry_space_group_name_H-M   'P 1'
_cell_length_a   10.89512504
_cell_length_b   10.89512504
_cell_length_c   5.95788750
_cell_angle_alpha   80.31906557
_cell_angle_beta   99.68093443
_cell_angle_gamma   161.25694473
_symmetry_Int_Tables_number   1
_chemical_formula_structural   Zr2HBr2
_chemical_formula_sum   'Zr4 H2 Br4'
_cell_volume   223.92346309
_cell_formula_units_Z   2
loop_
 _symmetry_equiv_pos_site_id
 _symmetry_equiv_pos_as_xyz
  1  'x, y, z'
loop_
 _atom_site_type_symbol
 _atom_site_label
 _atom_site_symmetry_multiplicity
 _atom_site_fract_x
 _atom_site_fract_y
 _atom_site_fract_z
 _atom_site_occupancy
  Zr  Zr0  1  0.80982726  -0.80982726  0.54670650  1.0
  Zr  Zr1  1  1.19017274  -0.19017274  0.45329350  1.0
  Zr  Zr2  1  0.68874716  -0.68874716  0.95514445  1.0
  Zr  Zr3  1  1.31125284  -0.31125284  0.04485555  1.0
  H  H4  1  0.78068162  -0.78068162  0.87845757  1.0
  H  H5  1  1.21931838  -0.21931838  0.12154243  1.0
  Br  Br6  1  0.89808866  -0.89808866  0.26659975  1.0
  Br  Br7  1  1.10191134  -0.10191134  0.73340025  1.0
  Br  Br8  1  1.40068788  -0.40068788  0.76813507  1.0
  Br  Br9  1  0.59931212  -0.59931212  0.23186493  1.0
