# generated using pymatgen
data_SrH6(CO3)2
_symmetry_space_group_name_H-M   'P 1'
_cell_length_a   7.21903676
_cell_length_b   7.43482934
_cell_length_c   12.15284010
_cell_angle_alpha   90.00000000
_cell_angle_beta   90.00000000
_cell_angle_gamma   90.00000000
_symmetry_Int_Tables_number   1
_chemical_formula_structural   SrH6(CO3)2
_chemical_formula_sum   'Sr4 H24 C8 O24'
_cell_volume   652.27095633
_cell_formula_units_Z   4
loop_
 _symmetry_equiv_pos_site_id
 _symmetry_equiv_pos_as_xyz
  1  'x, y, z'
loop_
 _atom_site_type_symbol
 _atom_site_label
 _atom_site_symmetry_multiplicity
 _atom_site_fract_x
 _atom_site_fract_y
 _atom_site_fract_z
 _atom_site_occupancy
  Sr  Sr0  1  0.29921434  0.24395686  0.57143839  1.0
  Sr  Sr1  1  0.79921434  0.25604314  0.42856161  1.0
  Sr  Sr2  1  0.70078566  0.74395686  0.92856161  1.0
  Sr  Sr3  1  0.20078566  0.75604314  0.07143839  1.0
  H  H4  1  0.38972710  0.06433148  0.33641976  1.0
  H  H5  1  0.88972710  0.43566852  0.66358024  1.0
  H  H6  1  0.61027290  0.56433148  0.16358024  1.0
  H  H7  1  0.11027290  0.93566852  0.83641976  1.0
  H  H8  1  0.51622204  0.95489698  0.41780437  1.0
  H  H9  1  0.01622204  0.54510302  0.58219563  1.0
  H  H10  1  0.48377796  0.45489698  0.08219563  1.0
  H  H11  1  0.98377796  0.04510302  0.91780437  1.0
  H  H12  1  0.20311806  0.88701767  0.66867014  1.0
  H  H13  1  0.70311806  0.61298233  0.33132986  1.0
  H  H14  1  0.79688194  0.38701767  0.83132986  1.0
  H  H15  1  0.29688194  0.11298233  0.16867014  1.0
  H  H16  1  0.38044658  0.95392491  0.73892186  1.0
  H  H17  1  0.88044658  0.54607509  0.26107814  1.0
  H  H18  1  0.61955342  0.45392491  0.76107814  1.0
  H  H19  1  0.11955342  0.04607509  0.23892186  1.0
  H  H20  1  0.94704088  0.79648928  0.43272437  1.0
  H  H21  1  0.44704088  0.70351072  0.56727563  1.0
  H  H22  1  0.05295912  0.29648928  0.06727563  1.0
  H  H23  1  0.55295912  0.20351072  0.93272437  1.0
  H  H24  1  0.85801496  0.02126376  0.69366058  1.0
  H  H25  1  0.35801496  0.47873624  0.30633942  1.0
  H  H26  1  0.14198504  0.52126376  0.80633942  1.0
  H  H27  1  0.64198504  0.97873624  0.19366058  1.0
  C  C28  1  0.70465730  0.02480589  0.68749196  1.0
  C  C29  1  0.20465730  0.47519411  0.31250804  1.0
  C  C30  1  0.29534270  0.52480589  0.81250804  1.0
  C  C31  1  0.79534270  0.97519411  0.18749196  1.0
  C  C32  1  0.02878365  0.85941632  0.49960136  1.0
  C  C33  1  0.52878365  0.64058368  0.50039864  1.0
  C  C34  1  0.97121635  0.35941632  0.00039864  1.0
  C  C35  1  0.47121635  0.14058368  0.99960136  1.0
  O  O36  1  0.63524147  0.11739215  0.61049027  1.0
  O  O37  1  0.13524147  0.38260785  0.38950973  1.0
  O  O38  1  0.36475853  0.61739215  0.88950973  1.0
  O  O39  1  0.86475853  0.88260785  0.11049027  1.0
  O  O40  1  0.61480390  0.93517793  0.75856983  1.0
  O  O41  1  0.11480390  0.56482207  0.24143017  1.0
  O  O42  1  0.38519610  0.43517793  0.74143017  1.0
  O  O43  1  0.88519610  0.06482207  0.25856983  1.0
  O  O44  1  0.04164969  0.02945847  0.49955055  1.0
  O  O45  1  0.54164969  0.47054153  0.50044945  1.0
  O  O46  1  0.95835031  0.52945847  0.00044945  1.0
  O  O47  1  0.45835031  0.97054153  0.99955055  1.0
  O  O48  1  0.10084782  0.75605932  0.57060339  1.0
  O  O49  1  0.60084782  0.74394068  0.42939661  1.0
  O  O50  1  0.89915218  0.25605932  0.92939661  1.0
  O  O51  1  0.39915218  0.24394068  0.07060339  1.0
  O  O52  1  0.47201326  0.08007810  0.40172108  1.0
  O  O53  1  0.97201326  0.41992190  0.59827892  1.0
  O  O54  1  0.52798674  0.58007810  0.09827892  1.0
  O  O55  1  0.02798674  0.91992190  0.90172108  1.0
  O  O56  1  0.24830691  0.98261058  0.72025348  1.0
  O  O57  1  0.74830691  0.51738942  0.27974652  1.0
  O  O58  1  0.75169309  0.48261058  0.77974652  1.0
  O  O59  1  0.25169309  0.01738942  0.22025348  1.0
