# generated using pymatgen
data_SrH10Pb2Br6O5
_symmetry_space_group_name_H-M   'P 1'
_cell_length_a   10.02044453
_cell_length_b   10.02044453
_cell_length_c   9.43801031
_cell_angle_alpha   70.70777913
_cell_angle_beta   109.29222087
_cell_angle_gamma   102.62253525
_symmetry_Int_Tables_number   1
_chemical_formula_structural   SrH10Pb2Br6O5
_chemical_formula_sum   'Sr2 H20 Pb4 Br12 O10'
_cell_volume   837.83498851
_cell_formula_units_Z   2
loop_
 _symmetry_equiv_pos_site_id
 _symmetry_equiv_pos_as_xyz
  1  'x, y, z'
loop_
 _atom_site_type_symbol
 _atom_site_label
 _atom_site_symmetry_multiplicity
 _atom_site_fract_x
 _atom_site_fract_y
 _atom_site_fract_z
 _atom_site_occupancy
  Sr  Sr0  1  0.01785932  0.01785932  0.25000000  1.0
  Sr  Sr1  1  0.98214068  0.98214068  0.75000000  1.0
  H  H2  1  0.90712309  0.32719088  0.09232643  1.0
  H  H3  1  1.32719088  -0.09287691  0.40767357  1.0
  H  H4  1  1.09287691  -0.32719088  0.90767357  1.0
  H  H5  1  0.67280912  0.09287691  0.59232643  1.0
  H  H6  1  0.94057829  0.29554378  0.27446762  1.0
  H  H7  1  1.29554378  -0.05942171  0.22553238  1.0
  H  H8  1  1.05942171  -0.29554378  0.72553238  1.0
  H  H9  1  0.70445622  0.05942171  0.77446762  1.0
  H  H10  1  1.77758197  -0.11176534  0.44235861  1.0
  H  H11  1  0.88823466  0.77758197  0.05764139  1.0
  H  H12  1  0.22241803  0.11176534  0.55764139  1.0
  H  H13  1  1.11176534  -0.77758197  0.94235861  1.0
  H  H14  1  0.77028550  0.05029990  0.38432148  1.0
  H  H15  1  1.05029990  -0.22971450  0.11567852  1.0
  H  H16  1  1.22971450  -0.05029990  0.61567852  1.0
  H  H17  1  0.94970010  0.22971450  0.88432148  1.0
  H  H18  1  1.21409141  -0.67704284  0.22612625  1.0
  H  H19  1  0.32295716  0.21409141  0.27387375  1.0
  H  H20  1  0.78590859  0.67704284  0.77387375  1.0
  H  H21  1  1.67704284  -0.21409141  0.72612625  1.0
  Pb  Pb22  1  0.54777449  0.26531377  0.96436318  1.0
  Pb  Pb23  1  1.26531377  -0.45222551  0.53563682  1.0
  Pb  Pb24  1  1.45222551  -0.26531377  0.03563682  1.0
  Pb  Pb25  1  0.73468623  0.45222551  0.46436318  1.0
  Br  Br26  1  0.56893540  0.18505139  0.31827922  1.0
  Br  Br27  1  1.18505139  -0.43106460  0.18172078  1.0
  Br  Br28  1  1.43106460  -0.18505139  0.68172078  1.0
  Br  Br29  1  0.81494861  0.43106460  0.81827922  1.0
  Br  Br30  1  1.30363585  -0.56755138  0.89045658  1.0
  Br  Br31  1  0.43244862  0.30363585  0.60954342  1.0
  Br  Br32  1  0.69636415  0.56755138  0.10954342  1.0
  Br  Br33  1  1.56755138  -0.30363585  0.39045658  1.0
  Br  Br34  1  0.31327110  0.01353554  0.97113576  1.0
  Br  Br35  1  1.01353554  -0.68672890  0.52886424  1.0
  Br  Br36  1  1.68672890  -0.01353554  0.02886424  1.0
  Br  Br37  1  0.98646446  0.68672890  0.47113576  1.0
  O  O38  1  0.91040663  0.24970799  0.18932801  1.0
  O  O39  1  1.24970799  -0.08959337  0.31067199  1.0
  O  O40  1  1.08959337  -0.24970799  0.81067199  1.0
  O  O41  1  0.75029201  0.08959337  0.68932801  1.0
  O  O42  1  1.83901129  -0.01999095  0.43635358  1.0
  O  O43  1  0.98000905  0.83901129  0.06364642  1.0
  O  O44  1  0.16098871  0.01999095  0.56364642  1.0
  O  O45  1  1.01999095  -0.83901129  0.93635358  1.0
  O  O46  1  0.22129566  0.22129566  0.25000000  1.0
  O  O47  1  0.77870434  0.77870434  0.75000000  1.0
