# generated using pymatgen
data_K3LiIrO4
_symmetry_space_group_name_H-M   'P 1'
_cell_length_a   7.28408467
_cell_length_b   7.28408467
_cell_length_c   5.97517510
_cell_angle_alpha   79.52626918
_cell_angle_beta   100.47373082
_cell_angle_gamma   95.50800082
_symmetry_Int_Tables_number   1
_chemical_formula_structural   K3LiIrO4
_chemical_formula_sum   'K6 Li2 Ir2 O8'
_cell_volume   305.90362419
_cell_formula_units_Z   2
loop_
 _symmetry_equiv_pos_site_id
 _symmetry_equiv_pos_as_xyz
  1  'x, y, z'
loop_
 _atom_site_type_symbol
 _atom_site_label
 _atom_site_symmetry_multiplicity
 _atom_site_fract_x
 _atom_site_fract_y
 _atom_site_fract_z
 _atom_site_occupancy
  K  K0  1  0.75654264  0.06566023  0.52824996  1.0
  K  K1  1  0.93433977  0.24345736  0.02824996  1.0
  K  K2  1  1.06566023  -0.24345736  0.97175004  1.0
  K  K3  1  1.24345736  -0.06566023  0.47175004  1.0
  K  K4  1  0.59487836  0.59487836  0.75000000  1.0
  K  K5  1  0.40512164  0.40512164  0.25000000  1.0
  Li  Li6  1  0.26751044  0.26751044  0.75000000  1.0
  Li  Li7  1  0.73248956  0.73248956  0.25000000  1.0
  Ir  Ir8  1  1.50000000  -0.00000000  -0.00000000  1.0
  Ir  Ir9  1  1.00000000  0.50000000  0.50000000  1.0
  O  O10  1  1.73477667  -0.08739867  0.97010428  1.0
  O  O11  1  1.08739867  -0.73477667  0.47010428  1.0
  O  O12  1  0.91260133  0.73477667  0.52989572  1.0
  O  O13  1  0.26522333  0.08739867  0.02989572  1.0
  O  O14  1  0.51765331  0.20282346  0.74408898  1.0
  O  O15  1  0.79717654  0.48234669  0.24408898  1.0
  O  O16  1  1.20282346  -0.48234669  0.75591102  1.0
  O  O17  1  1.48234669  -0.20282346  0.25591102  1.0
