# generated using pymatgen
data_NaSnPHO4F
_symmetry_space_group_name_H-M   'P 1'
_cell_length_a   4.92394989
_cell_length_b   5.30157096
_cell_length_c   19.22794450
_cell_angle_alpha   90.00000000
_cell_angle_beta   90.00000000
_cell_angle_gamma   90.00000000
_symmetry_Int_Tables_number   1
_chemical_formula_structural   NaSnPHO4F
_chemical_formula_sum   'Na4 Sn4 P4 H4 O16 F4'
_cell_volume   501.93914144
_cell_formula_units_Z   4
loop_
 _symmetry_equiv_pos_site_id
 _symmetry_equiv_pos_as_xyz
  1  'x, y, z'
loop_
 _atom_site_type_symbol
 _atom_site_label
 _atom_site_symmetry_multiplicity
 _atom_site_fract_x
 _atom_site_fract_y
 _atom_site_fract_z
 _atom_site_occupancy
  Na  Na0  1  0.23561140  0.75000000  0.50794785  1.0
  Na  Na1  1  0.73561140  0.75000000  0.99205215  1.0
  Na  Na2  1  0.76438860  0.25000000  0.49205215  1.0
  Na  Na3  1  0.26438860  0.25000000  0.00794785  1.0
  Sn  Sn4  1  0.28814055  0.75000000  0.13922319  1.0
  Sn  Sn5  1  0.78814055  0.75000000  0.36077681  1.0
  Sn  Sn6  1  0.71185945  0.25000000  0.86077681  1.0
  Sn  Sn7  1  0.21185945  0.25000000  0.63922319  1.0
  P  P8  1  0.26921271  0.75000000  0.87124019  1.0
  P  P9  1  0.76921271  0.75000000  0.62875981  1.0
  P  P10  1  0.73078729  0.25000000  0.12875981  1.0
  P  P11  1  0.23078729  0.25000000  0.37124019  1.0
  H  H12  1  0.18292350  0.75000000  0.75894853  1.0
  H  H13  1  0.68292350  0.75000000  0.74105147  1.0
  H  H14  1  0.81707650  0.25000000  0.24105147  1.0
  H  H15  1  0.31707650  0.25000000  0.25894853  1.0
  O  O16  1  0.40525342  0.98835169  0.90268712  1.0
  O  O17  1  0.40525342  0.51164831  0.90268712  1.0
  O  O18  1  0.90525342  0.98835169  0.59731288  1.0
  O  O19  1  0.90525342  0.51164831  0.59731288  1.0
  O  O20  1  0.59474658  0.48835169  0.09731288  1.0
  O  O21  1  0.59474658  0.01164831  0.09731288  1.0
  O  O22  1  0.09474658  0.48835169  0.40268712  1.0
  O  O23  1  0.09474658  0.01164831  0.40268712  1.0
  O  O24  1  0.46122724  0.75000000  0.62249689  1.0
  O  O25  1  0.96122724  0.75000000  0.87750311  1.0
  O  O26  1  0.53877276  0.25000000  0.37750311  1.0
  O  O27  1  0.03877276  0.25000000  0.12249689  1.0
  O  O28  1  0.34852642  0.75000000  0.78822620  1.0
  O  O29  1  0.84852641  0.75000000  0.71177380  1.0
  O  O30  1  0.65147358  0.25000000  0.21177380  1.0
  O  O31  1  0.15147359  0.25000000  0.28822620  1.0
  F  F32  1  0.16835567  0.75000000  0.03594349  1.0
  F  F33  1  0.66835567  0.75000000  0.46405651  1.0
  F  F34  1  0.83164433  0.25000000  0.96405651  1.0
  F  F35  1  0.33164433  0.25000000  0.53594349  1.0
