# generated using pymatgen
data_MnSb2Pb5O11
_symmetry_space_group_name_H-M   'P 1'
_cell_length_a   7.48967298
_cell_length_b   7.48967298
_cell_length_c   11.08483956
_cell_angle_alpha   90.00000000
_cell_angle_beta   90.00000000
_cell_angle_gamma   103.63063336
_symmetry_Int_Tables_number   1
_chemical_formula_structural   MnSb2Pb5O11
_chemical_formula_sum   'Mn2 Sb4 Pb10 O22'
_cell_volume   604.29322051
_cell_formula_units_Z   2
loop_
 _symmetry_equiv_pos_site_id
 _symmetry_equiv_pos_as_xyz
  1  'x, y, z'
loop_
 _atom_site_type_symbol
 _atom_site_label
 _atom_site_symmetry_multiplicity
 _atom_site_fract_x
 _atom_site_fract_y
 _atom_site_fract_z
 _atom_site_occupancy
  Mn  Mn0  1  0.41938026  0.58061974  0.25000000  1.0
  Mn  Mn1  1  -0.41938026  1.41938026  0.75000000  1.0
  Sb  Sb2  1  0.67472049  0.67472049  0.50000000  1.0
  Sb  Sb3  1  0.67472049  0.67472049  0.00000000  1.0
  Sb  Sb4  1  0.32527951  0.32527951  0.50000000  1.0
  Sb  Sb5  1  0.32527951  0.32527951  0.00000000  1.0
  Pb  Pb6  1  -0.05475092  1.50946035  0.25000000  1.0
  Pb  Pb7  1  0.50946035  0.94524908  0.75000000  1.0
  Pb  Pb8  1  -0.50946035  1.05475092  0.25000000  1.0
  Pb  Pb9  1  0.05475092  0.49053965  0.75000000  1.0
  Pb  Pb10  1  0.22379330  0.77620670  0.47482041  1.0
  Pb  Pb11  1  0.22379330  0.77620670  0.02517959  1.0
  Pb  Pb12  1  -0.22379330  1.22379330  0.97482041  1.0
  Pb  Pb13  1  -0.22379330  1.22379330  0.52517959  1.0
  Pb  Pb14  1  0.00330815  0.99669185  0.25000000  1.0
  Pb  Pb15  1  -0.00330815  1.00330815  0.75000000  1.0
  O  O16  1  0.20526971  0.47640892  0.38830182  1.0
  O  O17  1  0.20526971  0.47640892  0.11169818  1.0
  O  O18  1  -0.52359108  1.20526971  0.88830182  1.0
  O  O19  1  -0.52359108  1.20526971  0.61169818  1.0
  O  O20  1  0.52359108  0.79473029  0.38830182  1.0
  O  O21  1  0.52359108  0.79473029  0.11169818  1.0
  O  O22  1  -0.20526971  1.52359108  0.88830182  1.0
  O  O23  1  -0.20526971  1.52359108  0.61169818  1.0
  O  O24  1  -0.10507149  1.73707374  0.39386764  1.0
  O  O25  1  -0.10507149  1.73707374  0.10613236  1.0
  O  O26  1  0.73707374  0.89492851  0.89386764  1.0
  O  O27  1  0.73707374  0.89492851  0.60613236  1.0
  O  O28  1  -0.73707374  1.10507149  0.39386764  1.0
  O  O29  1  -0.73707374  1.10507149  0.10613236  1.0
  O  O30  1  0.10507149  0.26292626  0.89386764  1.0
  O  O31  1  0.10507149  0.26292626  0.60613236  1.0
  O  O32  1  -0.43746220  1.43746220  0.39758257  1.0
  O  O33  1  -0.43746220  1.43746220  0.10241743  1.0
  O  O34  1  0.43746220  0.56253780  0.89758257  1.0
  O  O35  1  0.43746220  0.56253780  0.60241743  1.0
  O  O36  1  0.20089819  0.79910181  0.25000000  1.0
  O  O37  1  -0.20089819  1.20089819  0.75000000  1.0
