# generated using pymatgen
data_EuZnAsF
_symmetry_space_group_name_H-M   'P 1'
_cell_length_a   4.10383153
_cell_length_b   4.10383153
_cell_length_c   8.94434574
_cell_angle_alpha   90.00000000
_cell_angle_beta   90.00000000
_cell_angle_gamma   90.00000000
_symmetry_Int_Tables_number   1
_chemical_formula_structural   EuZnAsF
_chemical_formula_sum   'Eu2 Zn2 As2 F2'
_cell_volume   150.63560126
_cell_formula_units_Z   2
loop_
 _symmetry_equiv_pos_site_id
 _symmetry_equiv_pos_as_xyz
  1  'x, y, z'
loop_
 _atom_site_type_symbol
 _atom_site_label
 _atom_site_symmetry_multiplicity
 _atom_site_fract_x
 _atom_site_fract_y
 _atom_site_fract_z
 _atom_site_occupancy
  Eu  Eu0  1  0.00000000  0.50000000  0.16405453  1.0
  Eu  Eu1  1  0.50000000  0.00000000  0.83594547  1.0
  Zn  Zn2  1  0.50000000  0.50000000  0.50000000  1.0
  Zn  Zn3  1  0.00000000  0.00000000  0.50000000  1.0
  As  As4  1  0.50000000  0.00000000  0.32326617  1.0
  As  As5  1  0.00000000  0.50000000  0.67673383  1.0
  F  F6  1  0.00000000  0.00000000  0.00000000  1.0
  F  F7  1  0.50000000  0.50000000  0.00000000  1.0
