# generated using pymatgen
data_GdCO4
_symmetry_space_group_name_H-M   'P 1'
_cell_length_a   4.88836099
_cell_length_b   7.31799209
_cell_length_c   9.07232449
_cell_angle_alpha   90.00000000
_cell_angle_beta   90.00000000
_cell_angle_gamma   90.00000000
_symmetry_Int_Tables_number   1
_chemical_formula_structural   GdCO4
_chemical_formula_sum   'Gd4 C4 O16'
_cell_volume   324.54414666
_cell_formula_units_Z   4
loop_
 _symmetry_equiv_pos_site_id
 _symmetry_equiv_pos_as_xyz
  1  'x, y, z'
loop_
 _atom_site_type_symbol
 _atom_site_label
 _atom_site_symmetry_multiplicity
 _atom_site_fract_x
 _atom_site_fract_y
 _atom_site_fract_z
 _atom_site_occupancy
  C  C0  1  0.48465825  0.95957920  0.66135485  1.0
  C  C1  1  0.98465825  0.54042080  0.33864515  1.0
  C  C2  1  0.51534175  0.45957920  0.83864515  1.0
  C  C3  1  0.01534175  0.04042080  0.16135485  1.0
  Gd  Gd4  1  0.96870548  0.63363145  0.66768588  1.0
  Gd  Gd5  1  0.46870548  0.86636855  0.33231412  1.0
  Gd  Gd6  1  0.03129452  0.13363145  0.83231412  1.0
  Gd  Gd7  1  0.53129452  0.36636855  0.16768588  1.0
  O  O8  1  0.45898447  0.56327158  0.72958911  1.0
  O  O9  1  0.95898447  0.93672842  0.27041089  1.0
  O  O10  1  0.54101553  0.06327158  0.77041089  1.0
  O  O11  1  0.04101553  0.43672842  0.22958911  1.0
  O  O12  1  0.33274400  0.38294188  0.92148777  1.0
  O  O13  1  0.83274400  0.11705812  0.07851223  1.0
  O  O14  1  0.66725600  0.88294188  0.57851223  1.0
  O  O15  1  0.16725600  0.61705812  0.42148777  1.0
  O  O16  1  0.22692716  0.93202861  0.62775716  1.0
  O  O17  1  0.72692716  0.56797139  0.37224284  1.0
  O  O18  1  0.77307284  0.43202861  0.87224284  1.0
  O  O19  1  0.27307284  0.06797139  0.12775716  1.0
  O  O20  1  0.02750185  0.82822276  0.85249912  1.0
  O  O21  1  0.52750185  0.67177724  0.14750088  1.0
  O  O22  1  0.97249815  0.32822276  0.64750088  1.0
  O  O23  1  0.47249815  0.17177724  0.35249912  1.0
