# generated using pymatgen
data_Ge3W5
_symmetry_space_group_name_H-M   'P 1'
_cell_length_a   7.40831862
_cell_length_b   7.40831862
_cell_length_c   7.40831862
_cell_angle_alpha   96.65043764
_cell_angle_beta   96.65043764
_cell_angle_gamma   140.20835436
_symmetry_Int_Tables_number   1
_chemical_formula_structural   Ge3W5
_chemical_formula_sum   'Ge6 W10'
_cell_volume   244.68636079
_cell_formula_units_Z   2
loop_
 _symmetry_equiv_pos_site_id
 _symmetry_equiv_pos_as_xyz
  1  'x, y, z'
loop_
 _atom_site_type_symbol
 _atom_site_label
 _atom_site_symmetry_multiplicity
 _atom_site_fract_x
 _atom_site_fract_y
 _atom_site_fract_z
 _atom_site_occupancy
  Ge  Ge0  1  0.82990877  0.32990877  1.15981754  1.0
  Ge  Ge1  1  0.67009123  0.82990877  0.50000000  1.0
  Ge  Ge2  1  1.32990877  1.17009123  1.50000000  1.0
  Ge  Ge3  1  0.17009123  0.67009123  0.84018246  1.0
  Ge  Ge4  1  0.25000000  0.25000000  0.00000000  1.0
  Ge  Ge5  1  0.75000000  0.75000000  0.00000000  1.0
  W  W6  1  0.26946665  0.42577207  0.69523872  1.0
  W  W7  1  1.23053335  0.92577207  1.15630542  1.0
  W  W8  1  0.92577207  0.76946665  1.69523872  1.0
  W  W9  1  0.57422793  1.26946665  0.84369458  1.0
  W  W10  1  0.76946665  1.07422793  0.84369458  1.0
  W  W11  1  0.73053335  0.57422793  1.30476128  1.0
  W  W12  1  1.42577207  0.73053335  1.15630542  1.0
  W  W13  1  0.07422793  0.23053335  0.30476128  1.0
  W  W14  1  0.75000000  1.25000000  0.50000000  1.0
  W  W15  1  0.25000000  0.75000000  0.50000000  1.0
