# generated using pymatgen
data_Rb5(CoO2)2
_symmetry_space_group_name_H-M   'P 1'
_cell_length_a   7.03422139
_cell_length_b   9.80552978
_cell_length_c   9.32934675
_cell_angle_alpha   61.10561100
_cell_angle_beta   71.38429353
_cell_angle_gamma   73.23585369
_symmetry_Int_Tables_number   1
_chemical_formula_structural   Rb5(CoO2)2
_chemical_formula_sum   'Rb10 Co4 O8'
_cell_volume   526.87449787
_cell_formula_units_Z   2
loop_
 _symmetry_equiv_pos_site_id
 _symmetry_equiv_pos_as_xyz
  1  'x, y, z'
loop_
 _atom_site_type_symbol
 _atom_site_label
 _atom_site_symmetry_multiplicity
 _atom_site_fract_x
 _atom_site_fract_y
 _atom_site_fract_z
 _atom_site_occupancy
  Rb  Rb0  1  0.87873729  -0.63717817  1.49412665  1.0
  Rb  Rb1  1  0.12126271  -0.36282183  0.50587335  1.0
  Rb  Rb2  1  0.87818056  -0.61848768  0.95022673  1.0
  Rb  Rb3  1  0.12181944  -0.38151232  1.04977327  1.0
  Rb  Rb4  1  0.77357953  -0.97670714  1.42311418  1.0
  Rb  Rb5  1  0.22642047  -0.02329286  0.57688582  1.0
  Rb  Rb6  1  0.39985877  -0.77880038  1.71720471  1.0
  Rb  Rb7  1  0.60014123  -0.22119962  0.28279529  1.0
  Rb  Rb8  1  0.40700911  -0.78070482  1.10676335  1.0
  Rb  Rb9  1  0.59299089  -0.21929518  0.89323665  1.0
  Co  Co10  1  0.88943716  -0.96992139  1.89301539  1.0
  Co  Co11  1  0.11056284  -0.03007861  0.10698461  1.0
  Co  Co12  1  0.51362626  -0.57844940  1.28616640  1.0
  Co  Co13  1  0.48637374  -0.42155060  0.71383360  1.0
  O  O14  1  0.82122422  -0.95200433  1.09377772  1.0
  O  O15  1  0.17877578  -0.04799567  0.90622228  1.0
  O  O16  1  0.81193446  -0.95307957  1.72108802  1.0
  O  O17  1  0.18806554  -0.04692043  0.27891198  1.0
  O  O18  1  0.72534798  -0.48144609  1.18877665  1.0
  O  O19  1  0.27465202  -0.51855391  0.81122335  1.0
  O  O20  1  0.31137536  -0.68556237  1.38589003  1.0
  O  O21  1  0.68862464  -0.31443763  0.61410997  1.0
