# generated using pymatgen
data_NaAg3O2
_symmetry_space_group_name_H-M   'P 1'
_cell_length_a   6.84044887
_cell_length_b   6.84044887
_cell_length_c   6.84044887
_cell_angle_alpha   125.66080742
_cell_angle_beta   78.85763527
_cell_angle_gamma   127.60844303
_symmetry_Int_Tables_number   1
_chemical_formula_structural   NaAg3O2
_chemical_formula_sum   'Na2 Ag6 O4'
_cell_volume   199.34072318
_cell_formula_units_Z   2
loop_
 _symmetry_equiv_pos_site_id
 _symmetry_equiv_pos_as_xyz
  1  'x, y, z'
loop_
 _atom_site_type_symbol
 _atom_site_label
 _atom_site_symmetry_multiplicity
 _atom_site_fract_x
 _atom_site_fract_y
 _atom_site_fract_z
 _atom_site_occupancy
  Na  Na0  1  0.25000000  0.75000000  0.50000000  1.0
  Na  Na1  1  0.75000000  1.25000000  0.50000000  1.0
  Ag  Ag2  1  1.00000000  1.00000000  0.50000000  1.0
  Ag  Ag3  1  0.50000000  0.50000000  0.50000000  1.0
  Ag  Ag4  1  1.00000000  1.50000000  1.00000000  1.0
  Ag  Ag5  1  0.50000000  1.00000000  1.00000000  1.0
  Ag  Ag6  1  0.50000000  0.50000000  0.00000000  1.0
  Ag  Ag7  1  0.00000000  0.00000000  0.00000000  1.0
  O  O8  1  0.38901006  0.21402947  0.60303953  1.0
  O  O9  1  0.11098994  0.71402947  0.82501941  1.0
  O  O10  1  0.88901006  1.28597053  1.17498059  1.0
  O  O11  1  0.61098994  0.78597053  0.39696047  1.0
