# generated using pymatgen
data_MnCrO4
_symmetry_space_group_name_H-M   'P 1'
_cell_length_a   4.99976260
_cell_length_b   4.99976260
_cell_length_c   6.46067126
_cell_angle_alpha   90.00000000
_cell_angle_beta   90.00000000
_cell_angle_gamma   111.97432553
_symmetry_Int_Tables_number   1
_chemical_formula_structural   MnCrO4
_chemical_formula_sum   'Mn2 Cr2 O8'
_cell_volume   149.76862637
_cell_formula_units_Z   2
loop_
 _symmetry_equiv_pos_site_id
 _symmetry_equiv_pos_as_xyz
  1  'x, y, z'
loop_
 _atom_site_type_symbol
 _atom_site_label
 _atom_site_symmetry_multiplicity
 _atom_site_fract_x
 _atom_site_fract_y
 _atom_site_fract_z
 _atom_site_occupancy
  Mn  Mn0  1  0.00000000  0.00000000  0.50000000  1.0
  Mn  Mn1  1  0.00000000  0.00000000  0.00000000  1.0
  Cr  Cr2  1  0.35513723  0.64486277  0.25000000  1.0
  Cr  Cr3  1  -0.35513723  1.35513723  0.75000000  1.0
  O  O4  1  0.21396427  0.27576195  0.25000000  1.0
  O  O5  1  -0.72423805  1.21396427  0.75000000  1.0
  O  O6  1  0.72423805  0.78603573  0.25000000  1.0
  O  O7  1  -0.21396427  1.72423805  0.75000000  1.0
  O  O8  1  0.23671988  0.76328012  0.45609165  1.0
  O  O9  1  0.23671988  0.76328012  0.04390835  1.0
  O  O10  1  -0.23671988  1.23671988  0.95609165  1.0
  O  O11  1  -0.23671988  1.23671988  0.54390835  1.0
