# generated using pymatgen
data_ZnSn2H12(OF)6
_symmetry_space_group_name_H-M   'P 1'
_cell_length_a   6.93783074
_cell_length_b   7.17098061
_cell_length_c   7.12958743
_cell_angle_alpha   74.88076146
_cell_angle_beta   72.75470885
_cell_angle_gamma   78.07283890
_symmetry_Int_Tables_number   1
_chemical_formula_structural   ZnSn2H12(OF)6
_chemical_formula_sum   'Zn1 Sn2 H12 O6 F6'
_cell_volume   323.79835664
_cell_formula_units_Z   1
loop_
 _symmetry_equiv_pos_site_id
 _symmetry_equiv_pos_as_xyz
  1  'x, y, z'
loop_
 _atom_site_type_symbol
 _atom_site_label
 _atom_site_symmetry_multiplicity
 _atom_site_fract_x
 _atom_site_fract_y
 _atom_site_fract_z
 _atom_site_occupancy
  Zn  Zn0  1  0.00000000  0.00000000  0.00000000  1.0
  Sn  Sn1  1  0.66417700  0.65086898  0.68285560  1.0
  Sn  Sn2  1  0.33582300  0.34913102  0.31714440  1.0
  H  H3  1  0.91701242  0.64090308  0.19880950  1.0
  H  H4  1  0.08298758  0.35909692  0.80119050  1.0
  H  H5  1  0.73671491  0.73946218  0.09604655  1.0
  H  H6  1  0.26328509  0.26053782  0.90395345  1.0
  H  H7  1  0.75796764  0.06440427  0.74662744  1.0
  H  H8  1  0.24203237  0.93559573  0.25337256  1.0
  H  H9  1  0.64951037  0.18737739  0.91549314  1.0
  H  H10  1  0.35048963  0.81262261  0.08450686  1.0
  H  H11  1  0.20887202  0.92692021  0.63882458  1.0
  H  H12  1  0.79112798  0.07307979  0.36117542  1.0
  H  H13  1  0.09449687  0.74436763  0.75426451  1.0
  H  H14  1  0.90550313  0.25563237  0.24573549  1.0
  O  O15  1  0.82952700  0.76646660  0.16494906  1.0
  O  O16  1  0.17047300  0.23353340  0.83505094  1.0
  O  O17  1  0.78427130  0.13801522  0.83450727  1.0
  O  O18  1  0.21572870  0.86198478  0.16549273  1.0
  O  O19  1  0.17114343  0.83796301  0.77244179  1.0
  O  O20  1  0.82885657  0.16203699  0.22755821  1.0
  F  F21  1  0.96266346  0.58211072  0.72387681  1.0
  F  F22  1  0.03733654  0.41788928  0.27612319  1.0
  F  F23  1  0.71710062  0.94399413  0.59449749  1.0
  F  F24  1  0.28289938  0.05600587  0.40550251  1.0
  F  F25  1  0.57487981  0.69754808  0.98005394  1.0
  F  F26  1  0.42512019  0.30245192  0.01994606  1.0
