# generated using pymatgen
data_PH6(NO)2
_symmetry_space_group_name_H-M   'P 1'
_cell_length_a   7.88323576
_cell_length_b   8.21146499
_cell_length_c   7.11709569
_cell_angle_alpha   90.00000000
_cell_angle_beta   116.72023887
_cell_angle_gamma   90.00000000
_symmetry_Int_Tables_number   1
_chemical_formula_structural   PH6(NO)2
_chemical_formula_sum   'P4 H24 N8 O8'
_cell_volume   411.51229435
_cell_formula_units_Z   4
loop_
 _symmetry_equiv_pos_site_id
 _symmetry_equiv_pos_as_xyz
  1  'x, y, z'
loop_
 _atom_site_type_symbol
 _atom_site_label
 _atom_site_symmetry_multiplicity
 _atom_site_fract_x
 _atom_site_fract_y
 _atom_site_fract_z
 _atom_site_occupancy
  P  P0  1  0.86650117  0.46789746  0.35900488  1.0
  P  P1  1  0.86650117  0.03210254  0.85900488  1.0
  P  P2  1  0.13349883  0.96789746  0.14099512  1.0
  P  P3  1  0.13349883  0.53210254  0.64099512  1.0
  H  H4  1  0.93563874  0.30447229  0.83194723  1.0
  H  H5  1  0.93563874  0.19552771  0.33194723  1.0
  H  H6  1  0.06436126  0.80447229  0.66805277  1.0
  H  H7  1  0.06436126  0.69552771  0.16805277  1.0
  H  H8  1  0.81242740  0.28246484  0.96900365  1.0
  H  H9  1  0.81242740  0.21753516  0.46900365  1.0
  H  H10  1  0.18757260  0.78246484  0.53099635  1.0
  H  H11  1  0.18757260  0.71753516  0.03099635  1.0
  H  H12  1  0.74341402  0.56987938  0.90644259  1.0
  H  H13  1  0.74341402  0.93012062  0.40644259  1.0
  H  H14  1  0.25658598  0.06987938  0.59355741  1.0
  H  H15  1  0.25658598  0.43012062  0.09355741  1.0
  H  H16  1  0.65054909  0.74484761  0.78027041  1.0
  H  H17  1  0.65054909  0.75515239  0.28027041  1.0
  H  H18  1  0.34945091  0.24484761  0.71972959  1.0
  H  H19  1  0.34945091  0.25515239  0.21972959  1.0
  H  H20  1  0.69639823  0.59179554  0.64627244  1.0
  H  H21  1  0.69639823  0.90820446  0.14627244  1.0
  H  H22  1  0.30360177  0.09179554  0.85372756  1.0
  H  H23  1  0.30360177  0.40820446  0.35372756  1.0
  H  H24  1  0.51558577  0.56900384  0.71052745  1.0
  H  H25  1  0.51558577  0.93099616  0.21052745  1.0
  H  H26  1  0.48441423  0.06900384  0.78947255  1.0
  H  H27  1  0.48441423  0.43099616  0.28947255  1.0
  N  N28  1  0.83534650  0.23440956  0.84979905  1.0
  N  N29  1  0.83534650  0.26559044  0.34979905  1.0
  N  N30  1  0.16465350  0.73440956  0.65020095  1.0
  N  N31  1  0.16465350  0.76559044  0.15020095  1.0
  N  N32  1  0.65119755  0.61910476  0.75935565  1.0
  N  N33  1  0.65119755  0.88089524  0.25935565  1.0
  N  N34  1  0.34880245  0.11910476  0.74064435  1.0
  N  N35  1  0.34880245  0.38089524  0.24064435  1.0
  O  O36  1  0.89105789  0.98033178  0.66649858  1.0
  O  O37  1  0.89105789  0.51966822  0.16649858  1.0
  O  O38  1  0.10894211  0.48033178  0.83350142  1.0
  O  O39  1  0.10894211  0.01966822  0.33350142  1.0
  O  O40  1  0.70084467  0.95483398  0.88740186  1.0
  O  O41  1  0.70084467  0.54516602  0.38740186  1.0
  O  O42  1  0.29915533  0.45483398  0.61259814  1.0
  O  O43  1  0.29915533  0.04516602  0.11259814  1.0
