# generated using pymatgen
data_Na3GdV2O8
_symmetry_space_group_name_H-M   'P 1'
_cell_length_a   5.94299372
_cell_length_b   5.94299372
_cell_length_c   7.08299703
_cell_angle_alpha   90.00000000
_cell_angle_beta   90.00000000
_cell_angle_gamma   120.00000000
_symmetry_Int_Tables_number   1
_chemical_formula_structural   Na3GdV2O8
_chemical_formula_sum   'Na3 Gd1 V2 O8'
_cell_volume   216.64977107
_cell_formula_units_Z   1
loop_
 _symmetry_equiv_pos_site_id
 _symmetry_equiv_pos_as_xyz
  1  'x, y, z'
loop_
 _atom_site_type_symbol
 _atom_site_label
 _atom_site_symmetry_multiplicity
 _atom_site_fract_x
 _atom_site_fract_y
 _atom_site_fract_z
 _atom_site_occupancy
  Na  Na0  1  0.00000000  -0.00000000  0.00000000  1.0
  Na  Na1  1  0.33333333  0.66666667  0.67082092  1.0
  Na  Na2  1  0.66666667  0.33333333  0.32917908  1.0
  Gd  Gd3  1  0.00000000  -0.00000000  0.50000000  1.0
  V  V4  1  0.33333333  0.66666667  0.21485353  1.0
  V  V5  1  0.66666667  0.33333333  0.78514647  1.0
  O  O6  1  0.33333333  0.66666667  -0.01896933  1.0
  O  O7  1  0.66666667  0.33333333  1.01896933  1.0
  O  O8  1  0.64906389  0.82453195  0.30441096  1.0
  O  O9  1  0.82453195  0.64906389  0.69558904  1.0
  O  O10  1  0.82453195  0.17546805  0.69558904  1.0
  O  O11  1  0.17546805  0.82453195  0.30441096  1.0
  O  O12  1  0.17546805  0.35093611  0.30441096  1.0
  O  O13  1  0.35093611  0.17546805  0.69558904  1.0
