# generated using pymatgen
data_Mn2Tl2O7
_symmetry_space_group_name_H-M   'P 1'
_cell_length_a   7.08070960
_cell_length_b   7.08070960
_cell_length_c   7.08070960
_cell_angle_alpha   60.00000000
_cell_angle_beta   60.00000000
_cell_angle_gamma   60.00000000
_symmetry_Int_Tables_number   1
_chemical_formula_structural   Mn2Tl2O7
_chemical_formula_sum   'Mn4 Tl4 O14'
_cell_volume   251.02406142
_cell_formula_units_Z   2
loop_
 _symmetry_equiv_pos_site_id
 _symmetry_equiv_pos_as_xyz
  1  'x, y, z'
loop_
 _atom_site_type_symbol
 _atom_site_label
 _atom_site_symmetry_multiplicity
 _atom_site_fract_x
 _atom_site_fract_y
 _atom_site_fract_z
 _atom_site_occupancy
  Mn  Mn0  1  1.12500000  0.62500000  0.62500000  1.0
  Mn  Mn1  1  0.62500000  1.12500000  -0.37500000  1.0
  Mn  Mn2  1  -0.37500000  0.62500000  1.12500000  1.0
  Mn  Mn3  1  -0.37500000  0.62500000  0.62500000  1.0
  O  O4  1  0.69771207  0.69771207  -0.69771207  1.0
  O  O5  1  0.30228793  1.30228793  -0.30228793  1.0
  O  O6  1  0.69771207  -0.69771207  0.69771207  1.0
  O  O7  1  0.30228793  -0.30228793  0.30228793  1.0
  O  O8  1  -0.69771207  0.69771207  0.69771207  1.0
  O  O9  1  -0.30228793  0.30228793  0.30228793  1.0
  O  O10  1  -0.44771207  0.55228793  0.94771207  1.0
  O  O11  1  0.94771207  0.94771207  -0.44771207  1.0
  O  O12  1  0.55228793  0.94771207  0.55228793  1.0
  O  O13  1  0.94771207  0.55228793  0.94771207  1.0
  O  O14  1  0.94771207  0.55228793  -0.44771207  1.0
  O  O15  1  0.55228793  0.94771207  -0.05228793  1.0
  O  O16  1  0.25000000  1.25000000  0.25000000  1.0
  O  O17  1  0.00000000  0.00000000  0.00000000  1.0
  Tl  Tl18  1  0.62500000  1.12500000  0.12500000  1.0
  Tl  Tl19  1  0.12500000  1.62500000  0.12500000  1.0
  Tl  Tl20  1  0.12500000  0.12500000  1.62500000  1.0
  Tl  Tl21  1  0.12500000  0.12500000  0.12500000  1.0
