# generated using pymatgen
data_LaSi2Ag
_symmetry_space_group_name_H-M   'P 1'
_cell_length_a   9.08193431
_cell_length_b   9.08193431
_cell_length_c   4.29610129
_cell_angle_alpha   90.00000000
_cell_angle_beta   90.00000000
_cell_angle_gamma   152.32749145
_symmetry_Int_Tables_number   1
_chemical_formula_structural   LaSi2Ag
_chemical_formula_sum   'La2 Si4 Ag2'
_cell_volume   164.56576321
_cell_formula_units_Z   2
loop_
 _symmetry_equiv_pos_site_id
 _symmetry_equiv_pos_as_xyz
  1  'x, y, z'
loop_
 _atom_site_type_symbol
 _atom_site_label
 _atom_site_symmetry_multiplicity
 _atom_site_fract_x
 _atom_site_fract_y
 _atom_site_fract_z
 _atom_site_occupancy
  La  La0  1  0.40187493  0.59812507  0.75000000  1.0
  La  La1  1  -0.40187493  0.40187493  0.25000000  1.0
  Si  Si2  1  0.03240452  0.96759548  0.75000000  1.0
  Si  Si3  1  -0.03240452  0.03240452  0.25000000  1.0
  Si  Si4  1  0.16564413  0.83435587  0.75000000  1.0
  Si  Si5  1  -0.16564413  0.16564413  0.25000000  1.0
  Ag  Ag6  1  -0.25202656  0.25202656  0.75000000  1.0
  Ag  Ag7  1  0.25202656  0.74797344  0.25000000  1.0
