# generated using pymatgen
data_Hf6Be15Cu8
_symmetry_space_group_name_H-M   'P 1'
_cell_length_a   7.83982952
_cell_length_b   7.83982952
_cell_length_c   7.83982952
_cell_angle_alpha   60.00000000
_cell_angle_beta   60.00000000
_cell_angle_gamma   60.00000000
_symmetry_Int_Tables_number   1
_chemical_formula_structural   Hf6Be15Cu8
_chemical_formula_sum   'Hf6 Be15 Cu8'
_cell_volume   340.72567305
_cell_formula_units_Z   1
loop_
 _symmetry_equiv_pos_site_id
 _symmetry_equiv_pos_as_xyz
  1  'x, y, z'
loop_
 _atom_site_type_symbol
 _atom_site_label
 _atom_site_symmetry_multiplicity
 _atom_site_fract_x
 _atom_site_fract_y
 _atom_site_fract_z
 _atom_site_occupancy
  Hf  Hf0  1  -0.70206789  0.70206789  0.70206789  1.0
  Hf  Hf1  1  -0.29793211  0.29793211  0.70206789  1.0
  Hf  Hf2  1  0.70206789  0.70206789  -0.70206789  1.0
  Hf  Hf3  1  0.29793211  1.29793211  -0.29793211  1.0
  Hf  Hf4  1  0.29793211  -0.29793211  1.29793211  1.0
  Hf  Hf5  1  -0.29793211  0.29793211  0.29793211  1.0
  Be  Be6  1  0.00000000  -0.00000000  -0.00000000  1.0
  Be  Be7  1  0.67583008  0.67583008  -0.32416992  1.0
  Be  Be8  1  1.32416992  0.32416992  0.02749024  1.0
  Be  Be9  1  1.32416992  0.02749024  0.32416992  1.0
  Be  Be10  1  0.97250976  0.67583008  -0.32416992  1.0
  Be  Be11  1  1.02749024  0.32416992  0.32416992  1.0
  Be  Be12  1  0.67583008  0.97250976  -0.32416992  1.0
  Be  Be13  1  0.67583008  0.67583008  -0.02749024  1.0
  Be  Be14  1  1.32416992  0.32416992  0.32416992  1.0
  Be  Be15  1  1.50000000  0.00000000  -0.00000000  1.0
  Be  Be16  1  1.00000000  0.50000000  -0.50000000  1.0
  Be  Be17  1  0.00000000  1.50000000  -0.00000000  1.0
  Be  Be18  1  0.50000000  1.00000000  -0.50000000  1.0
  Be  Be19  1  -0.00000000  0.00000000  0.50000000  1.0
  Be  Be20  1  0.50000000  -0.50000000  1.00000000  1.0
  Cu  Cu21  1  0.87690508  0.87690508  -0.12309492  1.0
  Cu  Cu22  1  1.12309492  0.12309492  0.63071524  1.0
  Cu  Cu23  1  1.12309492  0.63071524  0.12309492  1.0
  Cu  Cu24  1  0.36928476  0.87690508  -0.12309492  1.0
  Cu  Cu25  1  1.63071524  0.12309492  0.12309492  1.0
  Cu  Cu26  1  0.87690508  0.36928476  -0.12309492  1.0
  Cu  Cu27  1  0.87690508  0.87690508  -0.63071524  1.0
  Cu  Cu28  1  1.12309492  0.12309492  0.12309492  1.0
