# generated using pymatgen
data_LiScF4
_symmetry_space_group_name_H-M   'P 1'
_cell_length_a   6.22551281
_cell_length_b   6.22551281
_cell_length_c   6.22551281
_cell_angle_alpha   132.20437377
_cell_angle_beta   132.20437377
_cell_angle_gamma   69.90643164
_symmetry_Int_Tables_number   1
_chemical_formula_structural   LiScF4
_chemical_formula_sum   'Li2 Sc2 F8'
_cell_volume   129.81857199
_cell_formula_units_Z   2
loop_
 _symmetry_equiv_pos_site_id
 _symmetry_equiv_pos_as_xyz
  1  'x, y, z'
loop_
 _atom_site_type_symbol
 _atom_site_label
 _atom_site_symmetry_multiplicity
 _atom_site_fract_x
 _atom_site_fract_y
 _atom_site_fract_z
 _atom_site_occupancy
  Li  Li0  1  0.75000000  0.25000000  0.50000000  1.0
  Li  Li1  1  1.00000000  1.00000000  1.00000000  1.0
  Sc  Sc2  1  0.25000000  0.75000000  0.50000000  1.0
  Sc  Sc3  1  0.50000000  0.50000000  -0.00000000  1.0
  F  F4  1  1.11800026  0.50761757  0.96825722  1.0
  F  F5  1  0.53936035  1.14974304  1.03174278  1.0
  F  F6  1  0.89974304  1.36800026  1.11038269  1.0
  F  F7  1  1.25761757  0.78936035  0.88961731  1.0
  F  F8  1  0.63199974  0.74238243  0.53174278  1.0
  F  F9  1  1.21063965  1.10025696  1.46825722  1.0
  F  F10  1  0.85025696  0.88199974  1.38961731  1.0
  F  F11  1  0.49238243  0.46063965  0.61038269  1.0
