# generated using pymatgen
data_C3N4
_symmetry_space_group_name_H-M   'P 1'
_cell_length_a   6.44215984
_cell_length_b   6.44215984
_cell_length_c   2.42030486
_cell_angle_alpha   90.00000000
_cell_angle_beta   90.00000000
_cell_angle_gamma   120.00000000
_symmetry_Int_Tables_number   1
_chemical_formula_structural   C3N4
_chemical_formula_sum   'C6 N8'
_cell_volume   86.98887143
_cell_formula_units_Z   2
loop_
 _symmetry_equiv_pos_site_id
 _symmetry_equiv_pos_as_xyz
  1  'x, y, z'
loop_
 _atom_site_type_symbol
 _atom_site_label
 _atom_site_symmetry_multiplicity
 _atom_site_fract_x
 _atom_site_fract_y
 _atom_site_fract_z
 _atom_site_occupancy
  C  C0  1  0.17840815  0.77330592  0.25000000  1.0
  C  C1  1  0.77330592  0.59489776  0.75000000  1.0
  C  C2  1  0.59489776  0.82159185  0.25000000  1.0
  C  C3  1  0.22669408  0.40510224  0.25000000  1.0
  C  C4  1  0.82159185  0.22669408  0.75000000  1.0
  C  C5  1  0.40510224  0.17840815  0.75000000  1.0
  N  N6  1  0.70349120  0.67011693  0.25000000  1.0
  N  N7  1  0.67011693  0.96662573  0.75000000  1.0
  N  N8  1  0.96662573  0.29650880  0.25000000  1.0
  N  N9  1  0.32988307  0.03337427  0.25000000  1.0
  N  N10  1  0.29650880  0.32988307  0.75000000  1.0
  N  N11  1  0.03337427  0.70349120  0.75000000  1.0
  N  N12  1  0.33333333  0.66666667  0.25000000  1.0
  N  N13  1  0.66666667  0.33333333  0.75000000  1.0
