# generated using pymatgen
data_Ge2H
_symmetry_space_group_name_H-M   'P 1'
_cell_length_a   5.63928064
_cell_length_b   5.07503889
_cell_length_c   6.38238193
_cell_angle_alpha   90.00000000
_cell_angle_beta   90.00000000
_cell_angle_gamma   90.00000000
_symmetry_Int_Tables_number   1
_chemical_formula_structural   Ge2H
_chemical_formula_sum   'Ge8 H4'
_cell_volume   182.66101722
_cell_formula_units_Z   4
loop_
 _symmetry_equiv_pos_site_id
 _symmetry_equiv_pos_as_xyz
  1  'x, y, z'
loop_
 _atom_site_type_symbol
 _atom_site_label
 _atom_site_symmetry_multiplicity
 _atom_site_fract_x
 _atom_site_fract_y
 _atom_site_fract_z
 _atom_site_occupancy
  Ge  Ge0  1  0.15886766  0.75000000  -0.02788160  1.0
  Ge  Ge1  1  0.65886766  0.75000000  0.52788160  1.0
  Ge  Ge2  1  0.84113234  0.25000000  1.02788160  1.0
  Ge  Ge3  1  0.34113234  0.25000000  0.47211840  1.0
  Ge  Ge4  1  0.15888983  0.75000000  0.52764391  1.0
  Ge  Ge5  1  0.65888983  0.75000000  0.97235609  1.0
  Ge  Ge6  1  0.84111017  0.25000000  0.47235609  1.0
  Ge  Ge7  1  0.34111017  0.25000000  0.02764391  1.0
  H  H8  1  0.13889096  0.75000000  0.24990323  1.0
  H  H9  1  0.63889096  0.75000000  0.25009677  1.0
  H  H10  1  0.86110904  0.25000000  0.75009677  1.0
  H  H11  1  0.36110904  0.25000000  0.74990323  1.0
