# generated using pymatgen
data_La(TiAl10)2
_symmetry_space_group_name_H-M   'P 1'
_cell_length_a   10.43615115
_cell_length_b   10.43615115
_cell_length_c   10.43615115
_cell_angle_alpha   60.00000000
_cell_angle_beta   60.00000000
_cell_angle_gamma   60.00000000
_symmetry_Int_Tables_number   1
_chemical_formula_structural   La(TiAl10)2
_chemical_formula_sum   'La2 Ti4 Al40'
_cell_volume   803.72242152
_cell_formula_units_Z   2
loop_
 _symmetry_equiv_pos_site_id
 _symmetry_equiv_pos_as_xyz
  1  'x, y, z'
loop_
 _atom_site_type_symbol
 _atom_site_label
 _atom_site_symmetry_multiplicity
 _atom_site_fract_x
 _atom_site_fract_y
 _atom_site_fract_z
 _atom_site_occupancy
  La  La0  1  0.50000000  -0.50000000  0.50000000  1.0
  La  La1  1  0.75000000  0.75000000  0.75000000  1.0
  Ti  Ti2  1  0.62500000  1.12500000  0.12500000  1.0
  Ti  Ti3  1  0.12500000  1.62500000  0.12500000  1.0
  Ti  Ti4  1  0.12500000  0.12500000  1.62500000  1.0
  Ti  Ti5  1  0.12500000  0.12500000  0.12500000  1.0
  Al  Al6  1  0.86204048  0.86204048  -0.86204048  1.0
  Al  Al7  1  0.13795952  1.13795952  -0.13795952  1.0
  Al  Al8  1  0.86204048  -0.86204048  0.86204048  1.0
  Al  Al9  1  0.13795952  -0.13795952  0.13795952  1.0
  Al  Al10  1  -0.86204048  0.86204048  0.86204048  1.0
  Al  Al11  1  -0.13795952  0.13795952  0.13795952  1.0
  Al  Al12  1  0.38795952  1.38795952  0.11204048  1.0
  Al  Al13  1  0.11204048  0.11204048  0.38795952  1.0
  Al  Al14  1  0.38795952  1.11204048  0.38795952  1.0
  Al  Al15  1  0.11204048  1.38795952  0.11204048  1.0
  Al  Al16  1  0.11204048  1.38795952  0.38795952  1.0
  Al  Al17  1  0.38795952  1.11204048  0.11204048  1.0
  Al  Al18  1  0.56852407  1.29954560  0.29954560  1.0
  Al  Al19  1  0.29954560  1.56852407  -0.16761527  1.0
  Al  Al20  1  0.29954560  -0.16761527  0.56852407  1.0
  Al  Al21  1  -0.16761527  0.29954560  0.29954560  1.0
  Al  Al22  1  0.29954560  1.29954560  0.56852407  1.0
  Al  Al23  1  0.56852407  0.83238473  0.29954560  1.0
  Al  Al24  1  -0.16761527  1.56852407  0.29954560  1.0
  Al  Al25  1  0.29954560  1.29954560  -0.16761527  1.0
  Al  Al26  1  0.29954560  1.56852407  0.29954560  1.0
  Al  Al27  1  -0.16761527  0.29954560  0.56852407  1.0
  Al  Al28  1  0.56852407  1.29954560  -0.16761527  1.0
  Al  Al29  1  0.29954560  -0.16761527  0.29954560  1.0
  Al  Al30  1  0.68147593  0.95045440  0.95045440  1.0
  Al  Al31  1  0.95045440  0.68147593  -0.58238473  1.0
  Al  Al32  1  0.95045440  0.41761527  0.68147593  1.0
  Al  Al33  1  0.41761527  0.95045440  -0.04954560  1.0
  Al  Al34  1  0.95045440  0.95045440  0.68147593  1.0
  Al  Al35  1  0.68147593  -0.58238473  0.95045440  1.0
  Al  Al36  1  -0.58238473  0.68147593  0.95045440  1.0
  Al  Al37  1  0.95045440  0.95045440  -0.58238473  1.0
  Al  Al38  1  0.95045440  0.68147593  0.95045440  1.0
  Al  Al39  1  0.41761527  0.95045440  -0.31852407  1.0
  Al  Al40  1  0.68147593  0.95045440  -0.58238473  1.0
  Al  Al41  1  0.95045440  0.41761527  0.95045440  1.0
  Al  Al42  1  1.12500000  0.62500000  0.62500000  1.0
  Al  Al43  1  0.62500000  1.12500000  -0.37500000  1.0
  Al  Al44  1  -0.37500000  0.62500000  1.12500000  1.0
  Al  Al45  1  -0.37500000  0.62500000  0.62500000  1.0
