# generated using pymatgen
data_BH3
_symmetry_space_group_name_H-M   'P 1'
_cell_length_a   4.73587751
_cell_length_b   6.93740978
_cell_length_c   6.69510111
_cell_angle_alpha   90.00000000
_cell_angle_beta   118.77845880
_cell_angle_gamma   90.00000000
_symmetry_Int_Tables_number   1
_chemical_formula_structural   BH3
_chemical_formula_sum   'B4 H12'
_cell_volume   192.79723251
_cell_formula_units_Z   4
loop_
 _symmetry_equiv_pos_site_id
 _symmetry_equiv_pos_as_xyz
  1  'x, y, z'
loop_
 _atom_site_type_symbol
 _atom_site_label
 _atom_site_symmetry_multiplicity
 _atom_site_fract_x
 _atom_site_fract_y
 _atom_site_fract_z
 _atom_site_occupancy
  B  B0  1  0.86446471  0.96056485  0.86260339  1.0
  B  B1  1  0.86446471  0.53943515  0.36260339  1.0
  B  B2  1  0.13553529  0.46056485  0.63739661  1.0
  B  B3  1  0.13553529  0.03943515  0.13739661  1.0
  H  H4  1  0.90614611  0.49396899  0.20659354  1.0
  H  H5  1  0.90614611  0.00603101  0.70659354  1.0
  H  H6  1  0.09385389  0.99396899  0.29340646  1.0
  H  H7  1  0.09385389  0.50603101  0.79340646  1.0
  H  H8  1  0.86780775  0.38326373  0.47626286  1.0
  H  H9  1  0.86780775  0.11673627  0.97626286  1.0
  H  H10  1  0.13219225  0.88326373  0.02373714  1.0
  H  H11  1  0.13219225  0.61673627  0.52373714  1.0
  H  H12  1  0.35846823  0.13785390  0.16492382  1.0
  H  H13  1  0.35846823  0.36214610  0.66492382  1.0
  H  H14  1  0.64153177  0.63785390  0.33507618  1.0
  H  H15  1  0.64153177  0.86214610  0.83507618  1.0
