# generated using pymatgen
data_Zr2Cu(PO4)3
_symmetry_space_group_name_H-M   'P 1'
_cell_length_a   8.98812450
_cell_length_b   8.98812450
_cell_length_c   8.98812450
_cell_angle_alpha   59.79954395
_cell_angle_beta   59.79954395
_cell_angle_gamma   59.79954395
_symmetry_Int_Tables_number   1
_chemical_formula_structural   Zr2Cu(PO4)3
_chemical_formula_sum   'Zr4 Cu2 P6 O24'
_cell_volume   511.10656247
_cell_formula_units_Z   2
loop_
 _symmetry_equiv_pos_site_id
 _symmetry_equiv_pos_as_xyz
  1  'x, y, z'
loop_
 _atom_site_type_symbol
 _atom_site_label
 _atom_site_symmetry_multiplicity
 _atom_site_fract_x
 _atom_site_fract_y
 _atom_site_fract_z
 _atom_site_occupancy
  Zr  Zr0  1  0.85841161  -0.14158839  -0.14158839  1.0
  Zr  Zr1  1  0.35841161  0.35841161  0.35841161  1.0
  Zr  Zr2  1  0.64158839  0.64158839  -0.35841161  1.0
  Zr  Zr3  1  1.14158839  0.14158839  0.14158839  1.0
  Cu  Cu4  1  1.00000000  -0.00000000  0.00000000  1.0
  Cu  Cu5  1  0.50000000  0.50000000  0.50000000  1.0
  P  P6  1  0.45908993  0.75000000  0.04091007  1.0
  P  P7  1  0.95908993  -0.45908993  0.25000000  1.0
  P  P8  1  0.25000000  0.95908993  -0.45908993  1.0
  P  P9  1  0.75000000  1.04091007  -0.54091007  1.0
  P  P10  1  0.54091007  0.25000000  -0.04091007  1.0
  P  P11  1  1.04091007  0.45908993  -0.25000000  1.0
  O  O12  1  0.80712081  0.99905693  -0.38429552  1.0
  O  O13  1  1.30712081  0.11570448  -0.50094307  1.0
  O  O14  1  0.88429552  0.50094307  -0.30712081  1.0
  O  O15  1  0.38429552  0.19287919  0.00094307  1.0
  O  O16  1  1.00094307  0.38429552  -0.80712081  1.0
  O  O17  1  0.50094307  0.69287919  -0.11570448  1.0
  O  O18  1  0.19287919  1.00094307  -0.61570448  1.0
  O  O19  1  0.69287919  0.88429552  -0.49905693  1.0
  O  O20  1  0.61570448  0.80712081  -0.00094307  1.0
  O  O21  1  1.11570448  -0.50094307  0.30712081  1.0
  O  O22  1  0.49905693  0.30712081  0.11570448  1.0
  O  O23  1  0.99905693  0.61570448  -0.19287919  1.0
  O  O24  1  0.72598053  0.08933193  -0.05802714  1.0
  O  O25  1  1.22598053  0.44197286  -0.41066807  1.0
  O  O26  1  0.55802714  0.41066807  -0.22598053  1.0
  O  O27  1  1.05802714  0.27401947  -0.08933193  1.0
  O  O28  1  0.91066807  0.05802714  0.27401947  1.0
  O  O29  1  0.41066807  0.77401947  -0.44197286  1.0
  O  O30  1  1.27401947  -0.08933193  0.05802714  1.0
  O  O31  1  0.77401947  0.55802714  -0.58933193  1.0
  O  O32  1  0.94197286  -0.27401947  0.08933193  1.0
  O  O33  1  0.44197286  0.58933193  0.22598053  1.0
  O  O34  1  0.58933193  1.22598053  -0.55802714  1.0
  O  O35  1  1.08933193  -0.05802714  -0.27401947  1.0
