# generated using pymatgen
data_GdCo5P3
_symmetry_space_group_name_H-M   'P 1'
_cell_length_a   11.74797537
_cell_length_b   3.65675003
_cell_length_c   10.30157906
_cell_angle_alpha   90.00000000
_cell_angle_beta   90.00000000
_cell_angle_gamma   90.00000000
_symmetry_Int_Tables_number   1
_chemical_formula_structural   GdCo5P3
_chemical_formula_sum   'Gd4 Co20 P12'
_cell_volume   442.54975103
_cell_formula_units_Z   4
loop_
 _symmetry_equiv_pos_site_id
 _symmetry_equiv_pos_as_xyz
  1  'x, y, z'
loop_
 _atom_site_type_symbol
 _atom_site_label
 _atom_site_symmetry_multiplicity
 _atom_site_fract_x
 _atom_site_fract_y
 _atom_site_fract_z
 _atom_site_occupancy
  P  P0  1  0.39174679  0.75000000  0.10267585  1.0
  P  P1  1  0.89174679  0.75000000  0.39732415  1.0
  P  P2  1  0.60825321  0.25000000  0.89732415  1.0
  P  P3  1  0.10825321  0.25000000  0.60267585  1.0
  P  P4  1  0.36964463  0.75000000  0.72832276  1.0
  P  P5  1  0.86964463  0.75000000  0.77167724  1.0
  P  P6  1  0.63035537  0.25000000  0.27167724  1.0
  P  P7  1  0.13035537  0.25000000  0.22832276  1.0
  P  P8  1  0.11206513  0.75000000  0.91867111  1.0
  P  P9  1  0.61206513  0.75000000  0.58132889  1.0
  P  P10  1  0.88793487  0.25000000  0.08132889  1.0
  P  P11  1  0.38793487  0.25000000  0.41867111  1.0
  Co  Co12  1  0.43247651  0.75000000  0.53247575  1.0
  Co  Co13  1  0.93247651  0.75000000  0.96752425  1.0
  Co  Co14  1  0.56752349  0.25000000  0.46752425  1.0
  Co  Co15  1  0.06752349  0.25000000  0.03247575  1.0
  Co  Co16  1  0.19806979  0.75000000  0.11748023  1.0
  Co  Co17  1  0.69806979  0.75000000  0.38251977  1.0
  Co  Co18  1  0.80193021  0.25000000  0.88251977  1.0
  Co  Co19  1  0.30193021  0.25000000  0.61748023  1.0
  Co  Co20  1  0.17592079  0.75000000  0.72125218  1.0
  Co  Co21  1  0.67592079  0.75000000  0.77874782  1.0
  Co  Co22  1  0.82407921  0.25000000  0.27874782  1.0
  Co  Co23  1  0.32407921  0.25000000  0.22125218  1.0
  Co  Co24  1  0.49078836  0.75000000  0.28498670  1.0
  Co  Co25  1  0.99078836  0.75000000  0.21501330  1.0
  Co  Co26  1  0.50921164  0.25000000  0.71501330  1.0
  Co  Co27  1  0.00921164  0.25000000  0.78498670  1.0
  Co  Co28  1  0.48836151  0.75000000  0.90622525  1.0
  Co  Co29  1  0.98836151  0.75000000  0.59377475  1.0
  Co  Co30  1  0.51163849  0.25000000  0.09377475  1.0
  Co  Co31  1  0.01163849  0.25000000  0.40622525  1.0
  Gd  Gd32  1  0.20239939  0.75000000  0.41702311  1.0
  Gd  Gd33  1  0.70239939  0.75000000  0.08297689  1.0
  Gd  Gd34  1  0.79760061  0.25000000  0.58297689  1.0
  Gd  Gd35  1  0.29760061  0.25000000  0.91702311  1.0
