# generated using pymatgen
data_Zr5AlSb3
_symmetry_space_group_name_H-M   'P 1'
_cell_length_a   8.70256953
_cell_length_b   8.70256953
_cell_length_c   5.85970001
_cell_angle_alpha   90.00000000
_cell_angle_beta   90.00000000
_cell_angle_gamma   120.00000000
_symmetry_Int_Tables_number   1
_chemical_formula_structural   Zr5AlSb3
_chemical_formula_sum   'Zr10 Al2 Sb6'
_cell_volume   384.32710772
_cell_formula_units_Z   2
loop_
 _symmetry_equiv_pos_site_id
 _symmetry_equiv_pos_as_xyz
  1  'x, y, z'
loop_
 _atom_site_type_symbol
 _atom_site_label
 _atom_site_symmetry_multiplicity
 _atom_site_fract_x
 _atom_site_fract_y
 _atom_site_fract_z
 _atom_site_occupancy
  Zr  Zr0  1  0.72924548  0.72924548  0.25000000  1.0
  Zr  Zr1  1  0.72924548  0.00000000  0.75000000  1.0
  Zr  Zr2  1  0.00000000  0.72924548  0.75000000  1.0
  Zr  Zr3  1  0.00000000  0.27075452  0.25000000  1.0
  Zr  Zr4  1  0.27075452  0.27075452  0.75000000  1.0
  Zr  Zr5  1  0.27075452  0.00000000  0.25000000  1.0
  Zr  Zr6  1  0.33333333  0.66666667  0.50000000  1.0
  Zr  Zr7  1  0.33333333  0.66666667  0.00000000  1.0
  Zr  Zr8  1  0.66666667  0.33333333  0.50000000  1.0
  Zr  Zr9  1  0.66666667  0.33333333  0.00000000  1.0
  Al  Al10  1  0.00000000  0.00000000  0.50000000  1.0
  Al  Al11  1  0.00000000  0.00000000  0.00000000  1.0
  Sb  Sb12  1  0.38733300  0.38733300  0.25000000  1.0
  Sb  Sb13  1  0.38733300  0.00000000  0.75000000  1.0
  Sb  Sb14  1  0.00000000  0.38733300  0.75000000  1.0
  Sb  Sb15  1  0.00000000  0.61266700  0.25000000  1.0
  Sb  Sb16  1  0.61266700  0.61266700  0.75000000  1.0
  Sb  Sb17  1  0.61266700  0.00000000  0.25000000  1.0
