# generated using pymatgen
data_Cu4Si2NiS7
_symmetry_space_group_name_H-M   'P 1'
_cell_length_a   6.36175883
_cell_length_b   6.36175883
_cell_length_c   8.18622997
_cell_angle_alpha   82.14540897
_cell_angle_beta   97.85459103
_cell_angle_gamma   130.83200379
_symmetry_Int_Tables_number   1
_chemical_formula_structural   Cu4Si2NiS7
_chemical_formula_sum   'Cu4 Si2 Ni1 S7'
_cell_volume   247.83431090
_cell_formula_units_Z   1
loop_
 _symmetry_equiv_pos_site_id
 _symmetry_equiv_pos_as_xyz
  1  'x, y, z'
loop_
 _atom_site_type_symbol
 _atom_site_label
 _atom_site_symmetry_multiplicity
 _atom_site_fract_x
 _atom_site_fract_y
 _atom_site_fract_z
 _atom_site_occupancy
  Cu  Cu0  1  0.99433020  0.57372966  0.63968266  1.0
  Cu  Cu1  1  0.57372966  -0.00566980  0.36031734  1.0
  Cu  Cu2  1  0.43789327  0.15857955  0.93221828  1.0
  Cu  Cu3  1  1.15857955  0.43789327  0.06778172  1.0
  Si  Si4  1  0.69620210  -0.15483280  0.78229861  1.0
  Si  Si5  1  0.84516720  0.69620210  0.21770139  1.0
  Ni  Ni6  1  0.27802384  0.27802384  0.50000000  1.0
  S  S7  1  0.89058883  0.16751151  0.58525220  1.0
  S  S8  1  0.16751151  -0.10941117  0.41474780  1.0
  S  S9  1  0.33641307  -0.23477067  0.85179002  1.0
  S  S10  1  0.76522933  0.33641307  0.14820998  1.0
  S  S11  1  0.60101315  0.47495500  0.71210051  1.0
  S  S12  1  0.47495500  -0.39898685  0.28789949  1.0
  S  S13  1  0.01136330  0.01136330  0.00000000  1.0
