# generated using pymatgen
data_NaMgSO4F
_symmetry_space_group_name_H-M   'P 1'
_cell_length_a   5.51225283
_cell_length_b   5.51225283
_cell_length_c   7.16695702
_cell_angle_alpha   75.38659466
_cell_angle_beta   104.61340534
_cell_angle_gamma   75.98404951
_symmetry_Int_Tables_number   1
_chemical_formula_structural   NaMgSO4F
_chemical_formula_sum   'Na2 Mg2 S2 O8 F2'
_cell_volume   192.72167053
_cell_formula_units_Z   2
loop_
 _symmetry_equiv_pos_site_id
 _symmetry_equiv_pos_as_xyz
  1  'x, y, z'
loop_
 _atom_site_type_symbol
 _atom_site_label
 _atom_site_symmetry_multiplicity
 _atom_site_fract_x
 _atom_site_fract_y
 _atom_site_fract_z
 _atom_site_occupancy
  Na  Na0  1  0.67045404  -0.32954596  0.25000000  1.0
  Na  Na1  1  1.32954596  0.32954596  0.75000000  1.0
  Mg  Mg2  1  -0.00000000  0.00000000  0.50000000  1.0
  Mg  Mg3  1  0.00000000  0.00000000  0.00000000  1.0
  S  S4  1  1.32375661  0.32375661  0.25000000  1.0
  S  S5  1  0.67624339  -0.32375661  0.75000000  1.0
  O  O6  1  1.59604713  0.25572533  0.39741506  1.0
  O  O7  1  0.74427467  -0.59604713  0.89741506  1.0
  O  O8  1  1.25572533  0.59604713  0.10258494  1.0
  O  O9  1  0.40395287  -0.25572533  0.60258494  1.0
  O  O10  1  1.31894532  0.13060924  0.13520196  1.0
  O  O11  1  0.86939076  -0.31894532  0.63520196  1.0
  O  O12  1  1.13060924  0.31894532  0.36479804  1.0
  O  O13  1  0.68105468  -0.13060924  0.86479804  1.0
  F  F14  1  0.92304525  -0.07695475  0.25000000  1.0
  F  F15  1  1.07695475  0.07695475  0.75000000  1.0
