# generated using pymatgen
data_Na3La(AsO4)2
_symmetry_space_group_name_H-M   'P 1'
_cell_length_a   6.01890814
_cell_length_b   6.01890814
_cell_length_c   7.26183460
_cell_angle_alpha   90.00000000
_cell_angle_beta   90.00000000
_cell_angle_gamma   120.00000000
_symmetry_Int_Tables_number   1
_chemical_formula_structural   Na3La(AsO4)2
_chemical_formula_sum   'Na3 La1 As2 O8'
_cell_volume   227.83078929
_cell_formula_units_Z   1
loop_
 _symmetry_equiv_pos_site_id
 _symmetry_equiv_pos_as_xyz
  1  'x, y, z'
loop_
 _atom_site_type_symbol
 _atom_site_label
 _atom_site_symmetry_multiplicity
 _atom_site_fract_x
 _atom_site_fract_y
 _atom_site_fract_z
 _atom_site_occupancy
  Na  Na0  1  0.33333333  0.66666667  0.67695787  1.0
  Na  Na1  1  0.66666667  0.33333333  0.32304213  1.0
  Na  Na2  1  0.00000000  0.00000000  0.00000000  1.0
  La  La3  1  0.00000000  0.00000000  0.50000000  1.0
  As  As4  1  0.33333333  0.66666667  0.20538474  1.0
  As  As5  1  0.66666667  0.33333333  0.79461526  1.0
  O  O6  1  0.64154198  0.82077099  0.30179482  1.0
  O  O7  1  0.82077099  0.64154198  0.69820518  1.0
  O  O8  1  0.82077099  0.17922901  0.69820518  1.0
  O  O9  1  0.17922901  0.82077099  0.30179482  1.0
  O  O10  1  0.17922901  0.35845802  0.30179482  1.0
  O  O11  1  0.35845802  0.17922901  0.69820518  1.0
  O  O12  1  0.33333333  0.66666667  -0.02635103  1.0
  O  O13  1  0.66666667  0.33333333  1.02635103  1.0
