# generated using pymatgen
data_CsAgTeS3
_symmetry_space_group_name_H-M   'P 1'
_cell_length_a   8.07486872
_cell_length_b   11.02151088
_cell_length_c   8.73473321
_cell_angle_alpha   90.00000000
_cell_angle_beta   105.43800030
_cell_angle_gamma   90.00000000
_symmetry_Int_Tables_number   1
_chemical_formula_structural   CsAgTeS3
_chemical_formula_sum   'Cs4 Ag4 Te4 S12'
_cell_volume   749.31913016
_cell_formula_units_Z   4
loop_
 _symmetry_equiv_pos_site_id
 _symmetry_equiv_pos_as_xyz
  1  'x, y, z'
loop_
 _atom_site_type_symbol
 _atom_site_label
 _atom_site_symmetry_multiplicity
 _atom_site_fract_x
 _atom_site_fract_y
 _atom_site_fract_z
 _atom_site_occupancy
  Cs  Cs0  1  0.48155642  0.24165195  0.11695231  1.0
  Cs  Cs1  1  0.48155642  0.25834805  0.61695231  1.0
  Cs  Cs2  1  0.51844358  0.74165195  0.38304769  1.0
  Cs  Cs3  1  0.51844358  0.75834805  0.88304769  1.0
  Ag  Ag4  1  0.92922694  0.24994302  0.48260020  1.0
  Ag  Ag5  1  0.92922694  0.25005698  0.98260020  1.0
  Ag  Ag6  1  0.07077306  0.74994302  0.01739980  1.0
  Ag  Ag7  1  0.07077306  0.75005698  0.51739980  1.0
  Te  Te8  1  0.92298428  0.50399126  0.22971384  1.0
  Te  Te9  1  0.92298428  -0.00399126  0.72971384  1.0
  Te  Te10  1  0.07701572  1.00399126  0.27028616  1.0
  Te  Te11  1  0.07701572  0.49600874  0.77028616  1.0
  S  S12  1  0.88088997  0.72301132  0.22129114  1.0
  S  S13  1  0.88088997  0.77698868  0.72129114  1.0
  S  S14  1  0.11911003  0.22301132  0.27870886  1.0
  S  S15  1  0.11911003  0.27698868  0.77870886  1.0
  S  S16  1  0.75251752  0.05250729  0.47012728  1.0
  S  S17  1  0.75251752  0.44749271  0.97012728  1.0
  S  S18  1  0.24748248  0.55250729  0.02987272  1.0
  S  S19  1  0.24748248  0.94749271  0.52987272  1.0
  S  S20  1  0.74851706  0.44519755  0.40244699  1.0
  S  S21  1  0.74851706  0.05480245  0.90244699  1.0
  S  S22  1  0.25148294  0.94519755  0.09755301  1.0
  S  S23  1  0.25148294  0.55480245  0.59755301  1.0
