# generated using pymatgen
data_Rb2Te2Pd
_symmetry_space_group_name_H-M   'P 1'
_cell_length_a   7.10336525
_cell_length_b   7.10336525
_cell_length_c   7.10336525
_cell_angle_alpha   146.23633423
_cell_angle_beta   110.11799275
_cell_angle_gamma   79.90436852
_symmetry_Int_Tables_number   1
_chemical_formula_structural   Rb2Te2Pd
_chemical_formula_sum   'Rb2 Te2 Pd1'
_cell_volume   182.79193325
_cell_formula_units_Z   1
loop_
 _symmetry_equiv_pos_site_id
 _symmetry_equiv_pos_as_xyz
  1  'x, y, z'
loop_
 _atom_site_type_symbol
 _atom_site_label
 _atom_site_symmetry_multiplicity
 _atom_site_fract_x
 _atom_site_fract_y
 _atom_site_fract_z
 _atom_site_occupancy
  Rb  Rb0  1  0.69991398  0.19991398  0.50000000  1.0
  Rb  Rb1  1  1.30008602  0.80008602  0.50000000  1.0
  Te  Te2  1  0.21374227  0.50000000  0.71374227  1.0
  Te  Te3  1  0.78625773  0.50000000  1.28625773  1.0
  Pd  Pd4  1  0.00000000  0.00000000  0.00000000  1.0
