# generated using pymatgen
data_NaNbO3
_symmetry_space_group_name_H-M   'P 1'
_cell_length_a   6.14607140
_cell_length_b   6.14607140
_cell_length_c   6.14607140
_cell_angle_alpha   52.00520794
_cell_angle_beta   52.00520794
_cell_angle_gamma   52.00520794
_symmetry_Int_Tables_number   1
_chemical_formula_structural   NaNbO3
_chemical_formula_sum   'Na2 Nb2 O6'
_cell_volume   133.30760591
_cell_formula_units_Z   2
loop_
 _symmetry_equiv_pos_site_id
 _symmetry_equiv_pos_as_xyz
  1  'x, y, z'
loop_
 _atom_site_type_symbol
 _atom_site_label
 _atom_site_symmetry_multiplicity
 _atom_site_fract_x
 _atom_site_fract_y
 _atom_site_fract_z
 _atom_site_occupancy
  Na  Na0  1  0.35839290  0.35839290  -0.64160710  1.0
  Na  Na1  1  0.64160710  0.64160710  -0.35839290  1.0
  Nb  Nb2  1  0.14863783  0.14863783  0.14863783  1.0
  Nb  Nb3  1  0.85136217  -0.14863783  -0.14863783  1.0
  O  O4  1  0.43845497  0.03068572  -0.18314024  1.0
  O  O5  1  1.18314024  -0.43845497  -0.03068572  1.0
  O  O6  1  0.96931428  0.18314024  -0.43845497  1.0
  O  O7  1  0.56154503  -0.03068572  0.18314024  1.0
  O  O8  1  0.81685976  -0.56154503  0.03068572  1.0
  O  O9  1  1.03068572  -0.18314024  -0.56154503  1.0
