# generated using pymatgen
data_EuCu3Se2ClO8
_symmetry_space_group_name_H-M   'P 1'
_cell_length_a   6.42290325
_cell_length_b   9.73908411
_cell_length_c   7.16965981
_cell_angle_alpha   90.00000000
_cell_angle_beta   90.00000000
_cell_angle_gamma   90.00000000
_symmetry_Int_Tables_number   1
_chemical_formula_structural   EuCu3Se2ClO8
_chemical_formula_sum   'Eu2 Cu6 Se4 Cl2 O16'
_cell_volume   448.48512821
_cell_formula_units_Z   2
loop_
 _symmetry_equiv_pos_site_id
 _symmetry_equiv_pos_as_xyz
  1  'x, y, z'
loop_
 _atom_site_type_symbol
 _atom_site_label
 _atom_site_symmetry_multiplicity
 _atom_site_fract_x
 _atom_site_fract_y
 _atom_site_fract_z
 _atom_site_occupancy
  Cl  Cl0  1  0.00000000  0.50000000  0.84635939  1.0
  Cl  Cl1  1  0.50000000  0.00000000  0.15364061  1.0
  Eu  Eu2  1  0.00000000  0.00000000  0.72845644  1.0
  Eu  Eu3  1  0.50000000  0.50000000  0.27154356  1.0
  Cu  Cu4  1  0.75000000  0.75000000  0.00000000  1.0
  Cu  Cu5  1  0.25000000  0.75000000  0.00000000  1.0
  Cu  Cu6  1  0.75000000  0.25000000  0.00000000  1.0
  Cu  Cu7  1  0.25000000  0.25000000  0.00000000  1.0
  Cu  Cu8  1  0.00000000  0.00000000  0.20119827  1.0
  Cu  Cu9  1  0.50000000  0.50000000  0.79880173  1.0
  O  O10  1  0.78889330  0.33281543  0.25465028  1.0
  O  O11  1  0.21110670  0.33281543  0.25465028  1.0
  O  O12  1  0.78889330  0.66718457  0.25465028  1.0
  O  O13  1  0.21110670  0.66718457  0.25465028  1.0
  O  O14  1  0.71110670  0.16718457  0.74534972  1.0
  O  O15  1  0.28889330  0.16718457  0.74534972  1.0
  O  O16  1  0.71110670  0.83281543  0.74534972  1.0
  O  O17  1  0.28889330  0.83281543  0.74534972  1.0
  O  O18  1  0.00000000  0.87248695  0.41653745  1.0
  O  O19  1  0.00000000  0.12751305  0.41653745  1.0
  O  O20  1  0.50000000  0.62751305  0.58346255  1.0
  O  O21  1  0.50000000  0.37248695  0.58346255  1.0
  O  O22  1  0.00000000  0.86108215  0.00845352  1.0
  O  O23  1  0.00000000  0.13891785  0.00845352  1.0
  O  O24  1  0.50000000  0.63891785  0.99154648  1.0
  O  O25  1  0.50000000  0.36108215  0.99154648  1.0
  Se  Se26  1  0.00000000  0.30458228  0.39904185  1.0
  Se  Se27  1  0.00000000  0.69541772  0.39904185  1.0
  Se  Se28  1  0.50000000  0.19541772  0.60095815  1.0
  Se  Se29  1  0.50000000  0.80458228  0.60095815  1.0
