# generated using pymatgen
data_MgPHO9
_symmetry_space_group_name_H-M   'P 1'
_cell_length_a   5.32067073
_cell_length_b   5.32067073
_cell_length_c   5.32067073
_cell_angle_alpha   92.92300382
_cell_angle_beta   92.92300382
_cell_angle_gamma   92.92300382
_symmetry_Int_Tables_number   1
_chemical_formula_structural   MgPHO9
_chemical_formula_sum   'Mg1 P1 H1 O9'
_cell_volume   150.01699503
_cell_formula_units_Z   1
loop_
 _symmetry_equiv_pos_site_id
 _symmetry_equiv_pos_as_xyz
  1  'x, y, z'
loop_
 _atom_site_type_symbol
 _atom_site_label
 _atom_site_symmetry_multiplicity
 _atom_site_fract_x
 _atom_site_fract_y
 _atom_site_fract_z
 _atom_site_occupancy
  Mg  Mg0  1  0.56362533  0.56362533  0.56362533  1.0
  H  H1  1  0.78921773  0.78921773  0.78921773  1.0
  O  O2  1  1.45959239  0.14938748  -0.44965407  1.0
  O  O3  1  1.14938748  -0.44965407  0.45959239  1.0
  O  O4  1  0.55034593  0.45959239  0.14938748  1.0
  O  O5  1  1.49764043  -0.04283646  0.41846399  1.0
  O  O6  1  0.95716354  0.41846399  0.49764043  1.0
  O  O7  1  1.41846399  0.49764043  -0.04283646  1.0
  O  O8  1  0.90394168  -0.12449827  0.22257384  1.0
  O  O9  1  0.87550173  0.22257384  -0.09605832  1.0
  O  O10  1  1.22257384  -0.09605832  -0.12449827  1.0
  P  P11  1  -0.04035409  -0.04035409  -0.04035409  1.0
