# generated using pymatgen
data_Se(OF)2
_symmetry_space_group_name_H-M   'P 1'
_cell_length_a   6.16168308
_cell_length_b   16.34800034
_cell_length_c   8.51381031
_cell_angle_alpha   90.00000000
_cell_angle_beta   101.80839842
_cell_angle_gamma   90.00000000
_symmetry_Int_Tables_number   1
_chemical_formula_structural   Se(OF)2
_chemical_formula_sum   'Se8 O16 F16'
_cell_volume   839.45712790
_cell_formula_units_Z   8
loop_
 _symmetry_equiv_pos_site_id
 _symmetry_equiv_pos_as_xyz
  1  'x, y, z'
loop_
 _atom_site_type_symbol
 _atom_site_label
 _atom_site_symmetry_multiplicity
 _atom_site_fract_x
 _atom_site_fract_y
 _atom_site_fract_z
 _atom_site_occupancy
  Se  Se0  1  0.96197818  0.35898437  0.31776213  1.0
  Se  Se1  1  0.96197818  0.14101563  0.81776213  1.0
  Se  Se2  1  0.03802182  0.85898437  0.18223787  1.0
  Se  Se3  1  0.03802182  0.64101563  0.68223787  1.0
  Se  Se4  1  0.65915343  0.09412309  0.28474570  1.0
  Se  Se5  1  0.65915343  0.40587691  0.78474570  1.0
  Se  Se6  1  0.34084657  0.59412309  0.21525430  1.0
  Se  Se7  1  0.34084657  0.90587691  0.71525430  1.0
  O  O8  1  0.97332713  0.45673145  0.30867645  1.0
  O  O9  1  0.97332713  0.04326855  0.80867645  1.0
  O  O10  1  0.02667287  0.95673145  0.19132355  1.0
  O  O11  1  0.02667287  0.54326855  0.69132355  1.0
  O  O12  1  0.88392741  0.11346091  0.41124040  1.0
  O  O13  1  0.88392741  0.38653909  0.91124040  1.0
  O  O14  1  0.11607259  0.61346091  0.08875960  1.0
  O  O15  1  0.11607259  0.88653909  0.58875960  1.0
  O  O16  1  0.74773244  0.30350499  0.25421898  1.0
  O  O17  1  0.74773244  0.19649501  0.75421898  1.0
  O  O18  1  0.25226756  0.80350499  0.24578102  1.0
  O  O19  1  0.25226756  0.69649501  0.74578102  1.0
  O  O20  1  0.61682823  0.10448913  0.09385296  1.0
  O  O21  1  0.61682823  0.39551087  0.59385296  1.0
  O  O22  1  0.38317177  0.60448913  0.40614704  1.0
  O  O23  1  0.38317177  0.89551087  0.90614704  1.0
  F  F24  1  0.92470276  0.67021581  0.48554148  1.0
  F  F25  1  0.92470276  0.82978419  0.98554148  1.0
  F  F26  1  0.07529724  0.17021581  0.01445852  1.0
  F  F27  1  0.07529724  0.32978419  0.51445852  1.0
  F  F28  1  0.81804135  0.81923175  0.25804642  1.0
  F  F29  1  0.81804135  0.68076825  0.75804642  1.0
  F  F30  1  0.18195865  0.31923175  0.24195358  1.0
  F  F31  1  0.18195865  0.18076825  0.74195358  1.0
  F  F32  1  0.57295511  0.99606771  0.32539733  1.0
  F  F33  1  0.57295511  0.50393229  0.82539733  1.0
  F  F34  1  0.42704489  0.49606771  0.17460267  1.0
  F  F35  1  0.42704489  0.00393229  0.67460267  1.0
  F  F36  1  0.44237835  0.14233993  0.35122709  1.0
  F  F37  1  0.44237835  0.35766007  0.85122709  1.0
  F  F38  1  0.55762165  0.64233993  0.14877291  1.0
  F  F39  1  0.55762165  0.85766007  0.64877291  1.0
