# generated using pymatgen
data_EuBN2
_symmetry_space_group_name_H-M   'P 1'
_cell_length_a   7.30717185
_cell_length_b   7.30717185
_cell_length_c   7.30717185
_cell_angle_alpha   110.42305396
_cell_angle_beta   110.42305396
_cell_angle_gamma   110.42305396
_symmetry_Int_Tables_number   1
_chemical_formula_structural   EuBN2
_chemical_formula_sum   'Eu6 B6 N12'
_cell_volume   289.28114390
_cell_formula_units_Z   6
loop_
 _symmetry_equiv_pos_site_id
 _symmetry_equiv_pos_as_xyz
  1  'x, y, z'
loop_
 _atom_site_type_symbol
 _atom_site_label
 _atom_site_symmetry_multiplicity
 _atom_site_fract_x
 _atom_site_fract_y
 _atom_site_fract_z
 _atom_site_occupancy
  Eu  Eu0  1  0.20044621  0.29955379  -0.25000000  1.0
  Eu  Eu1  1  1.29955379  -0.25000000  0.20044621  1.0
  Eu  Eu2  1  0.75000000  1.20044621  0.29955379  1.0
  Eu  Eu3  1  0.70044621  0.25000000  -0.20044621  1.0
  Eu  Eu4  1  1.25000000  0.79955379  0.70044621  1.0
  Eu  Eu5  1  0.79955379  0.70044621  0.25000000  1.0
  B  B6  1  0.87117172  -0.37117172  -0.25000000  1.0
  B  B7  1  0.62882828  0.75000000  -0.12882828  1.0
  B  B8  1  0.75000000  0.87117172  0.62882828  1.0
  B  B9  1  0.37117172  0.25000000  0.12882828  1.0
  B  B10  1  1.25000000  1.12882828  0.37117172  1.0
  B  B11  1  1.12882828  0.37117172  0.25000000  1.0
  N  N12  1  0.62666669  -0.12666669  -0.25000000  1.0
  N  N13  1  0.87333331  0.75000000  0.62666669  1.0
  N  N14  1  0.75000000  0.62666669  -0.12666669  1.0
  N  N15  1  1.12666669  1.25000000  0.37333331  1.0
  N  N16  1  0.25000000  0.37333331  0.12666669  1.0
  N  N17  1  1.37333331  0.12666669  0.25000000  1.0
  N  N18  1  0.99333255  -0.49333255  -0.25000000  1.0
  N  N19  1  0.50666745  0.75000000  -0.00666745  1.0
  N  N20  1  0.75000000  0.99333255  0.50666745  1.0
  N  N21  1  0.49333255  0.25000000  0.00666745  1.0
  N  N22  1  1.25000000  1.00666745  0.49333255  1.0
  N  N23  1  1.00666745  0.49333255  0.25000000  1.0
