# generated using pymatgen
data_ZnH8C2(SN3)2
_symmetry_space_group_name_H-M   'P 1'
_cell_length_a   4.22326894
_cell_length_b   15.40122046
_cell_length_c   7.20539975
_cell_angle_alpha   90.00000000
_cell_angle_beta   94.23220194
_cell_angle_gamma   90.00000000
_symmetry_Int_Tables_number   1
_chemical_formula_structural   ZnH8C2(SN3)2
_chemical_formula_sum   'Zn2 H16 C4 S4 N12'
_cell_volume   467.38641525
_cell_formula_units_Z   2
loop_
 _symmetry_equiv_pos_site_id
 _symmetry_equiv_pos_as_xyz
  1  'x, y, z'
loop_
 _atom_site_type_symbol
 _atom_site_label
 _atom_site_symmetry_multiplicity
 _atom_site_fract_x
 _atom_site_fract_y
 _atom_site_fract_z
 _atom_site_occupancy
  Zn  Zn0  1  -0.00000000  0.50000000  0.50000000  1.0
  Zn  Zn1  1  0.00000000  0.00000000  0.00000000  1.0
  H  H2  1  0.75510067  0.85341849  0.16291001  1.0
  H  H3  1  0.75510067  0.64658151  0.66291001  1.0
  H  H4  1  0.24489933  0.35341849  0.33708999  1.0
  H  H5  1  0.24489933  0.14658151  0.83708999  1.0
  H  H6  1  0.50562832  0.48909042  0.24334986  1.0
  H  H7  1  0.50562832  0.01090958  0.74334986  1.0
  H  H8  1  0.49437168  0.98909042  0.25665014  1.0
  H  H9  1  0.49437168  0.51090958  0.75665014  1.0
  H  H10  1  0.46001458  0.12858717  0.03473879  1.0
  H  H11  1  0.46001458  0.37141283  0.53473879  1.0
  H  H12  1  0.53998542  0.62858717  0.46526121  1.0
  H  H13  1  0.53998542  0.87141283  0.96526121  1.0
  H  H14  1  0.69568795  0.39470881  0.23088796  1.0
  H  H15  1  0.69568795  0.10529119  0.73088796  1.0
  H  H16  1  0.30431205  0.89470881  0.26911204  1.0
  H  H17  1  0.30431205  0.60529119  0.76911204  1.0
  C  C18  1  0.92136850  0.12907883  0.35452549  1.0
  C  C19  1  0.92136850  0.37092117  0.85452549  1.0
  C  C20  1  0.07863150  0.62907883  0.14547451  1.0
  C  C21  1  0.07863150  0.87092117  0.64547451  1.0
  S  S22  1  0.96091405  0.29898791  0.01953452  1.0
  S  S23  1  0.96091405  0.20101209  0.51953452  1.0
  S  S24  1  0.03908595  0.79898791  0.48046548  1.0
  S  S25  1  0.03908595  0.70101209  0.98046548  1.0
  N  N26  1  0.88539574  0.07688017  0.23311303  1.0
  N  N27  1  0.88539574  0.42311983  0.73311303  1.0
  N  N28  1  0.11460426  0.57688017  0.26688697  1.0
  N  N29  1  0.11460426  0.92311983  0.76688697  1.0
  N  N30  1  0.60816750  0.43929810  0.32129088  1.0
  N  N31  1  0.60816750  0.06070190  0.82129088  1.0
  N  N32  1  0.39183250  0.93929810  0.17870912  1.0
  N  N33  1  0.39183250  0.56070190  0.67870912  1.0
  N  N34  1  0.35581037  0.40100462  0.41834720  1.0
  N  N35  1  0.35581037  0.09899538  0.91834720  1.0
  N  N36  1  0.64418963  0.90100462  0.08165280  1.0
  N  N37  1  0.64418963  0.59899538  0.58165280  1.0
