# generated using pymatgen
data_BaSr(SnO3)2
_symmetry_space_group_name_H-M   'P 1'
_cell_length_a   8.26294216
_cell_length_b   5.86358620
_cell_length_c   5.87304974
_cell_angle_alpha   90.00000000
_cell_angle_beta   90.00000000
_cell_angle_gamma   90.00000000
_symmetry_Int_Tables_number   1
_chemical_formula_structural   BaSr(SnO3)2
_chemical_formula_sum   'Ba2 Sr2 Sn4 O12'
_cell_volume   284.55204133
_cell_formula_units_Z   2
loop_
 _symmetry_equiv_pos_site_id
 _symmetry_equiv_pos_as_xyz
  1  'x, y, z'
loop_
 _atom_site_type_symbol
 _atom_site_label
 _atom_site_symmetry_multiplicity
 _atom_site_fract_x
 _atom_site_fract_y
 _atom_site_fract_z
 _atom_site_occupancy
  Ba  Ba0  1  0.50000000  0.75605289  -0.00004116  1.0
  Ba  Ba1  1  0.00000000  0.24394711  0.49995884  1.0
  Sr  Sr2  1  0.50000000  0.27436203  0.50951435  1.0
  Sr  Sr3  1  0.00000000  0.72563797  0.00951435  1.0
  Sn  Sn4  1  0.24967904  0.75247284  0.50147941  1.0
  Sn  Sn5  1  0.75032096  0.75247284  0.50147941  1.0
  Sn  Sn6  1  0.25032096  0.24752716  0.00147941  1.0
  Sn  Sn7  1  0.74967904  0.24752716  0.00147941  1.0
  O  O8  1  0.27778670  0.50940002  0.76056334  1.0
  O  O9  1  0.72221330  0.50940002  0.76056334  1.0
  O  O10  1  0.22221330  0.49059998  0.26056334  1.0
  O  O11  1  0.77778670  0.49059998  0.26056334  1.0
  O  O12  1  0.21465052  0.97457217  0.22515581  1.0
  O  O13  1  0.78534948  0.97457217  0.22515581  1.0
  O  O14  1  0.28534948  0.02542783  0.72515581  1.0
  O  O15  1  0.71465052  0.02542783  0.72515581  1.0
  O  O16  1  0.50000000  0.73594071  0.45445898  1.0
  O  O17  1  0.00000000  0.26405929  0.95445898  1.0
  O  O18  1  0.50000000  0.24531559  0.07114070  1.0
  O  O19  1  0.00000000  0.75468441  0.57114070  1.0
