# generated using pymatgen
data_H(CO)2
_symmetry_space_group_name_H-M   'P 1'
_cell_length_a   6.17583895
_cell_length_b   5.96613941
_cell_length_c   6.18428186
_cell_angle_alpha   90.00000000
_cell_angle_beta   90.03330544
_cell_angle_gamma   90.00000000
_symmetry_Int_Tables_number   1
_chemical_formula_structural   H(CO)2
_chemical_formula_sum   'H4 C8 O8'
_cell_volume   227.86549239
_cell_formula_units_Z   4
loop_
 _symmetry_equiv_pos_site_id
 _symmetry_equiv_pos_as_xyz
  1  'x, y, z'
loop_
 _atom_site_type_symbol
 _atom_site_label
 _atom_site_symmetry_multiplicity
 _atom_site_fract_x
 _atom_site_fract_y
 _atom_site_fract_z
 _atom_site_occupancy
  H  H0  1  0.76032308  0.75000000  0.77735143  1.0
  H  H1  1  0.23967692  0.25000000  0.22264857  1.0
  H  H2  1  0.21202178  0.75000000  0.26795438  1.0
  H  H3  1  0.78797822  0.25000000  0.73204562  1.0
  C  C4  1  0.79474123  0.75000000  0.09560986  1.0
  C  C5  1  0.20525877  0.25000000  0.90439014  1.0
  C  C6  1  0.89250081  0.75000000  0.30545757  1.0
  C  C7  1  0.10749919  0.25000000  0.69454243  1.0
  C  C8  1  0.68003601  0.75000000  0.41035526  1.0
  C  C9  1  0.31996399  0.25000000  0.58964474  1.0
  C  C10  1  0.57714839  0.75000000  0.19111791  1.0
  C  C11  1  0.42285161  0.25000000  0.80888209  1.0
  O  O12  1  0.87687168  0.75000000  0.90421342  1.0
  O  O13  1  0.12312832  0.25000000  0.09578658  1.0
  O  O14  1  0.08538463  0.75000000  0.38474341  1.0
  O  O15  1  0.91461537  0.25000000  0.61525659  1.0
  O  O16  1  0.60994644  0.75000000  0.59889157  1.0
  O  O17  1  0.39005356  0.25000000  0.40110843  1.0
  O  O18  1  0.38984060  0.75000000  0.11707618  1.0
  O  O19  1  0.61015940  0.25000000  0.88292382  1.0
