# generated using pymatgen
data_Cr5As3
_symmetry_space_group_name_H-M   'P 1'
_cell_length_a   9.31146684
_cell_length_b   7.36823682
_cell_length_c   6.37913715
_cell_angle_alpha   90.00000000
_cell_angle_beta   90.00000000
_cell_angle_gamma   90.00000000
_symmetry_Int_Tables_number   1
_chemical_formula_structural   Cr5As3
_chemical_formula_sum   'Cr20 As12'
_cell_volume   437.66681235
_cell_formula_units_Z   4
loop_
 _symmetry_equiv_pos_site_id
 _symmetry_equiv_pos_as_xyz
  1  'x, y, z'
loop_
 _atom_site_type_symbol
 _atom_site_label
 _atom_site_symmetry_multiplicity
 _atom_site_fract_x
 _atom_site_fract_y
 _atom_site_fract_z
 _atom_site_occupancy
  Cr  Cr0  1  0.74793080  0.25000000  0.80194450  1.0
  Cr  Cr1  1  0.24793080  0.25000000  0.69805550  1.0
  Cr  Cr2  1  0.25206920  0.75000000  0.19805550  1.0
  Cr  Cr3  1  0.75206920  0.75000000  0.30194450  1.0
  Cr  Cr4  1  0.70353058  0.25000000  0.34812250  1.0
  Cr  Cr5  1  0.20353058  0.25000000  0.15187750  1.0
  Cr  Cr6  1  0.29646942  0.75000000  0.65187750  1.0
  Cr  Cr7  1  0.79646942  0.75000000  0.84812250  1.0
  Cr  Cr8  1  0.92208208  0.44473442  0.19847747  1.0
  Cr  Cr9  1  0.92208208  0.05526558  0.19847747  1.0
  Cr  Cr10  1  0.42208208  0.44473442  0.30152253  1.0
  Cr  Cr11  1  0.42208208  0.05526558  0.30152253  1.0
  Cr  Cr12  1  0.07791792  0.94473442  0.80152253  1.0
  Cr  Cr13  1  0.07791792  0.55526558  0.80152253  1.0
  Cr  Cr14  1  0.57791792  0.94473442  0.69847747  1.0
  Cr  Cr15  1  0.57791792  0.55526558  0.69847747  1.0
  Cr  Cr16  1  0.98349972  0.25000000  0.52124300  1.0
  Cr  Cr17  1  0.48349972  0.25000000  0.97875700  1.0
  Cr  Cr18  1  0.01650028  0.75000000  0.47875700  1.0
  Cr  Cr19  1  0.51650028  0.75000000  0.02124300  1.0
  As  As20  1  0.67207099  0.48411610  0.06817014  1.0
  As  As21  1  0.67207099  0.01588390  0.06817014  1.0
  As  As22  1  0.17207099  0.48411610  0.43182986  1.0
  As  As23  1  0.17207099  0.01588390  0.43182986  1.0
  As  As24  1  0.32792901  0.98411610  0.93182986  1.0
  As  As25  1  0.32792901  0.51588390  0.93182986  1.0
  As  As26  1  0.82792901  0.98411610  0.56817014  1.0
  As  As27  1  0.82792901  0.51588390  0.56817014  1.0
  As  As28  1  0.50252270  0.25000000  0.58746844  1.0
  As  As29  1  0.00252270  0.25000000  0.91253156  1.0
  As  As30  1  0.49747730  0.75000000  0.41253156  1.0
  As  As31  1  0.99747730  0.75000000  0.08746844  1.0
