# generated using pymatgen
data_MnSiIr
_symmetry_space_group_name_H-M   'P 1'
_cell_length_a   6.04008809
_cell_length_b   3.85534569
_cell_length_c   7.24386687
_cell_angle_alpha   90.00000000
_cell_angle_beta   90.00000000
_cell_angle_gamma   90.00000000
_symmetry_Int_Tables_number   1
_chemical_formula_structural   MnSiIr
_chemical_formula_sum   'Mn4 Si4 Ir4'
_cell_volume   168.68523001
_cell_formula_units_Z   4
loop_
 _symmetry_equiv_pos_site_id
 _symmetry_equiv_pos_as_xyz
  1  'x, y, z'
loop_
 _atom_site_type_symbol
 _atom_site_label
 _atom_site_symmetry_multiplicity
 _atom_site_fract_x
 _atom_site_fract_y
 _atom_site_fract_z
 _atom_site_occupancy
  Mn  Mn0  1  0.96857093  0.75000000  0.68102777  1.0
  Mn  Mn1  1  0.46857093  0.75000000  0.81897223  1.0
  Mn  Mn2  1  0.03142907  0.25000000  0.31897223  1.0
  Mn  Mn3  1  0.53142907  0.25000000  0.18102777  1.0
  Si  Si4  1  0.73326695  0.75000000  0.37717813  1.0
  Si  Si5  1  0.23326695  0.75000000  0.12282187  1.0
  Si  Si6  1  0.26673305  0.25000000  0.62282187  1.0
  Si  Si7  1  0.76673305  0.25000000  0.87717813  1.0
  Ir  Ir8  1  0.83636135  0.75000000  0.06349939  1.0
  Ir  Ir9  1  0.33636135  0.75000000  0.43650061  1.0
  Ir  Ir10  1  0.16363865  0.25000000  0.93650061  1.0
  Ir  Ir11  1  0.66363865  0.25000000  0.56349939  1.0
