# generated using pymatgen
data_Tl2Sn(SO4)2
_symmetry_space_group_name_H-M   'P 1'
_cell_length_a   8.30600727
_cell_length_b   8.30600727
_cell_length_c   8.30600727
_cell_angle_alpha   39.74638968
_cell_angle_beta   39.74638968
_cell_angle_gamma   39.74638968
_symmetry_Int_Tables_number   1
_chemical_formula_structural   Tl2Sn(SO4)2
_chemical_formula_sum   'Tl2 Sn1 S2 O8'
_cell_volume   210.97747889
_cell_formula_units_Z   1
loop_
 _symmetry_equiv_pos_site_id
 _symmetry_equiv_pos_as_xyz
  1  'x, y, z'
loop_
 _atom_site_type_symbol
 _atom_site_label
 _atom_site_symmetry_multiplicity
 _atom_site_fract_x
 _atom_site_fract_y
 _atom_site_fract_z
 _atom_site_occupancy
  Tl  Tl0  1  0.79112639  0.79112639  0.79112639  1.0
  Tl  Tl1  1  1.20887361  1.20887361  0.20887361  1.0
  Sn  Sn2  1  -0.00000000  0.00000000  -0.00000000  1.0
  S  S3  1  1.60861626  0.60861626  0.60861626  1.0
  S  S4  1  1.39138374  0.39138374  0.39138374  1.0
  O  O5  1  1.26910810  0.26910810  0.70400502  1.0
  O  O6  1  1.26910810  0.70400502  0.26910810  1.0
  O  O7  1  1.29599498  0.73089190  0.73089190  1.0
  O  O8  1  1.73089190  0.29599498  0.73089190  1.0
  O  O9  1  1.73089190  0.73089190  0.29599498  1.0
  O  O10  1  1.70400502  0.26910810  0.26910810  1.0
  O  O11  1  0.67334284  0.67334284  0.67334284  1.0
  O  O12  1  1.32665716  1.32665716  0.32665716  1.0
