# generated using pymatgen
data_Ca8Mo7O20
_symmetry_space_group_name_H-M   'P 1'
_cell_length_a   8.52668938
_cell_length_b   8.52668938
_cell_length_c   8.52668938
_cell_angle_alpha   119.36281976
_cell_angle_beta   119.36281976
_cell_angle_gamma   91.10721768
_symmetry_Int_Tables_number   1
_chemical_formula_structural   Ca8Mo7O20
_chemical_formula_sum   'Ca8 Mo7 O20'
_cell_volume   442.48772563
_cell_formula_units_Z   1
loop_
 _symmetry_equiv_pos_site_id
 _symmetry_equiv_pos_as_xyz
  1  'x, y, z'
loop_
 _atom_site_type_symbol
 _atom_site_label
 _atom_site_symmetry_multiplicity
 _atom_site_fract_x
 _atom_site_fract_y
 _atom_site_fract_z
 _atom_site_occupancy
  O  O0  1  0.16892903  0.16892903  -0.00000000  1.0
  O  O1  1  0.83107097  0.83107097  -0.00000000  1.0
  O  O2  1  1.15461303  1.48793344  0.97427578  1.0
  O  O3  1  0.48634234  0.81966275  0.97427578  1.0
  O  O4  1  1.48793344  1.51365766  1.33332040  1.0
  O  O5  1  0.81966275  0.84538697  1.33332040  1.0
  O  O6  1  0.51365766  1.18033725  1.02572422  1.0
  O  O7  1  0.84538697  1.51206656  1.02572422  1.0
  O  O8  1  1.18033725  1.15461303  1.66667960  1.0
  O  O9  1  1.51206656  1.48634234  1.66667960  1.0
  O  O10  1  0.55571309  1.17053321  0.72624630  1.0
  O  O11  1  0.17053321  0.44428691  0.61482012  1.0
  O  O12  1  0.44428691  0.82946679  1.27375370  1.0
  O  O13  1  0.82946679  0.55571309  0.38517988  1.0
  O  O14  1  0.88635485  1.21333203  1.09968689  1.0
  O  O15  1  1.21333203  1.11364515  1.32697718  1.0
  O  O16  1  0.11364515  0.78666797  0.90031311  1.0
  O  O17  1  0.78666797  0.88635485  1.67302282  1.0
  O  O18  1  0.75000000  0.25000000  0.50000000  1.0
  O  O19  1  0.25000000  0.75000000  0.50000000  1.0
  Mo  Mo20  1  0.69623489  1.38170417  1.07793906  1.0
  Mo  Mo21  1  1.38170417  1.30376511  1.68546929  1.0
  Mo  Mo22  1  0.30376511  0.61829583  0.92206094  1.0
  Mo  Mo23  1  0.61829583  0.69623489  1.31453071  1.0
  Mo  Mo24  1  0.34708888  0.34708888  -0.00000000  1.0
  Mo  Mo25  1  0.65291112  0.65291112  0.00000000  1.0
  Mo  Mo26  1  0.00000000  0.00000000  0.00000000  1.0
  Ca  Ca27  1  0.85987184  0.22249170  0.77583767  1.0
  Ca  Ca28  1  0.55334596  0.91596583  0.77583767  1.0
  Ca  Ca29  1  0.22249170  0.44665404  0.36261986  1.0
  Ca  Ca30  1  0.91596583  1.14012816  1.36261986  1.0
  Ca  Ca31  1  0.44665404  1.08403417  1.22416233  1.0
  Ca  Ca32  1  1.14012816  0.77750830  1.22416233  1.0
  Ca  Ca33  1  1.08403417  0.85987184  1.63738014  1.0
  Ca  Ca34  1  0.77750830  0.55334596  0.63738014  1.0
