# generated using pymatgen
data_ZnS
_symmetry_space_group_name_H-M   'P 1'
_cell_length_a   3.84979975
_cell_length_b   3.84979975
_cell_length_c   88.07533160
_cell_angle_alpha   90.00000000
_cell_angle_beta   90.00000000
_cell_angle_gamma   120.00000000
_symmetry_Int_Tables_number   1
_chemical_formula_structural   ZnS
_chemical_formula_sum   'Zn28 S28'
_cell_volume   1130.47561643
_cell_formula_units_Z   28
loop_
 _symmetry_equiv_pos_site_id
 _symmetry_equiv_pos_as_xyz
  1  'x, y, z'
loop_
 _atom_site_type_symbol
 _atom_site_label
 _atom_site_symmetry_multiplicity
 _atom_site_fract_x
 _atom_site_fract_y
 _atom_site_fract_z
 _atom_site_occupancy
  Zn  Zn0  1  0.00000000  0.00000000  0.03571805  1.0
  Zn  Zn1  1  0.00000000  0.00000000  0.14284082  1.0
  Zn  Zn2  1  0.00000000  0.00000000  0.28573264  1.0
  Zn  Zn3  1  0.00000000  0.00000000  0.39285983  1.0
  Zn  Zn4  1  0.00000000  0.00000000  0.49999716  1.0
  Zn  Zn5  1  0.00000000  0.00000000  0.60713930  1.0
  Zn  Zn6  1  0.00000000  0.00000000  0.71428291  1.0
  Zn  Zn7  1  0.00000000  0.00000000  0.82142162  1.0
  Zn  Zn8  1  0.00000000  0.00000000  0.92856114  1.0
  Zn  Zn9  1  0.66666667  0.33333333  0.10715648  1.0
  Zn  Zn10  1  0.66666667  0.33333333  0.21426433  1.0
  Zn  Zn11  1  0.66666667  0.33333333  0.35716179  1.0
  Zn  Zn12  1  0.66666667  0.33333333  0.46428316  1.0
  Zn  Zn13  1  0.66666667  0.33333333  0.57142719  1.0
  Zn  Zn14  1  0.66666667  0.33333333  0.67856726  1.0
  Zn  Zn15  1  0.66666667  0.33333333  0.78571027  1.0
  Zn  Zn16  1  0.66666667  0.33333333  0.89281140  1.0
  Zn  Zn17  1  0.66666667  0.33333333  0.96429990  1.0
  Zn  Zn18  1  0.33333333  0.66666667  -0.00002192  1.0
  Zn  Zn19  1  0.33333333  0.66666667  0.07146387  1.0
  Zn  Zn20  1  0.33333333  0.66666667  0.17852201  1.0
  Zn  Zn21  1  0.33333333  0.66666667  0.24999230  1.0
  Zn  Zn22  1  0.33333333  0.66666667  0.32146946  1.0
  Zn  Zn23  1  0.33333333  0.66666667  0.42856841  1.0
  Zn  Zn24  1  0.33333333  0.66666667  0.53571159  1.0
  Zn  Zn25  1  0.33333333  0.66666667  0.64285301  1.0
  Zn  Zn26  1  0.33333333  0.66666667  0.74999662  1.0
  Zn  Zn27  1  0.33333333  0.66666667  0.85712087  1.0
  S  S28  1  0.00000000  0.00000000  0.00890355  1.0
  S  S29  1  0.00000000  0.00000000  0.11607343  1.0
  S  S30  1  0.00000000  0.00000000  0.25891794  1.0
  S  S31  1  0.00000000  0.00000000  0.36608601  1.0
  S  S32  1  0.00000000  0.00000000  0.47321762  1.0
  S  S33  1  0.00000000  0.00000000  0.58035985  1.0
  S  S34  1  0.00000000  0.00000000  0.68750266  1.0
  S  S35  1  0.00000000  0.00000000  0.79464413  1.0
  S  S36  1  0.00000000  0.00000000  0.90174373  1.0
  S  S37  1  0.66666667  0.33333333  0.08038555  1.0
  S  S38  1  0.66666667  0.33333333  0.18744960  1.0
  S  S39  1  0.66666667  0.33333333  0.33038968  1.0
  S  S40  1  0.66666667  0.33333333  0.43750334  1.0
  S  S41  1  0.66666667  0.33333333  0.54464725  1.0
  S  S42  1  0.66666667  0.33333333  0.65178759  1.0
  S  S43  1  0.66666667  0.33333333  0.75893088  1.0
  S  S44  1  0.66666667  0.33333333  0.86604555  1.0
  S  S45  1  0.66666667  0.33333333  0.93753295  1.0
  S  S46  1  0.33333333  0.66666667  0.04469358  1.0
  S  S47  1  0.33333333  0.66666667  0.15176033  1.0
  S  S48  1  0.33333333  0.66666667  0.22323340  1.0
  S  S49  1  0.33333333  0.66666667  0.29470265  1.0
  S  S50  1  0.33333333  0.66666667  0.40179070  1.0
  S  S51  1  0.33333333  0.66666667  0.50893180  1.0
  S  S52  1  0.33333333  0.66666667  0.61607322  1.0
  S  S53  1  0.33333333  0.66666667  0.72321707  1.0
  S  S54  1  0.33333333  0.66666667  0.83034719  1.0
  S  S55  1  0.33333333  0.66666667  0.97321728  1.0
