# generated using pymatgen
data_Cs2MgCl4
_symmetry_space_group_name_H-M   'P 1'
_cell_length_a   9.91834210
_cell_length_b   7.56354830
_cell_length_c   13.80404632
_cell_angle_alpha   90.00000000
_cell_angle_beta   90.00000000
_cell_angle_gamma   90.00000000
_symmetry_Int_Tables_number   1
_chemical_formula_structural   Cs2MgCl4
_chemical_formula_sum   'Cs8 Mg4 Cl16'
_cell_volume   1035.55000832
_cell_formula_units_Z   4
loop_
 _symmetry_equiv_pos_site_id
 _symmetry_equiv_pos_as_xyz
  1  'x, y, z'
loop_
 _atom_site_type_symbol
 _atom_site_label
 _atom_site_symmetry_multiplicity
 _atom_site_fract_x
 _atom_site_fract_y
 _atom_site_fract_z
 _atom_site_occupancy
  Cs  Cs0  1  0.86275327  0.75000000  0.42113554  1.0
  Cs  Cs1  1  0.36275327  0.75000000  0.07886446  1.0
  Cs  Cs2  1  0.13724673  0.25000000  0.57886446  1.0
  Cs  Cs3  1  0.63724673  0.25000000  0.92113554  1.0
  Cs  Cs4  1  0.51705483  0.75000000  0.68257375  1.0
  Cs  Cs5  1  0.01705483  0.75000000  0.81742625  1.0
  Cs  Cs6  1  0.48294517  0.25000000  0.31742625  1.0
  Cs  Cs7  1  0.98294517  0.25000000  0.18257375  1.0
  Mg  Mg8  1  0.77211308  0.75000000  0.07318890  1.0
  Mg  Mg9  1  0.27211308  0.75000000  0.42681110  1.0
  Mg  Mg10  1  0.22788692  0.25000000  0.92681110  1.0
  Mg  Mg11  1  0.72788692  0.25000000  0.57318890  1.0
  Cl  Cl12  1  0.67806863  0.99837791  0.14897798  1.0
  Cl  Cl13  1  0.67806863  0.50162209  0.14897798  1.0
  Cl  Cl14  1  0.17806863  0.99837791  0.35102202  1.0
  Cl  Cl15  1  0.17806863  0.50162209  0.35102202  1.0
  Cl  Cl16  1  0.32193137  0.49837791  0.85102202  1.0
  Cl  Cl17  1  0.32193137  0.00162209  0.85102202  1.0
  Cl  Cl18  1  0.82193137  0.49837791  0.64897798  1.0
  Cl  Cl19  1  0.82193137  0.00162209  0.64897798  1.0
  Cl  Cl20  1  0.00646339  0.75000000  0.08207705  1.0
  Cl  Cl21  1  0.50646339  0.75000000  0.41792295  1.0
  Cl  Cl22  1  0.99353661  0.25000000  0.91792295  1.0
  Cl  Cl23  1  0.49353661  0.25000000  0.58207705  1.0
  Cl  Cl24  1  0.18751886  0.75000000  0.58593819  1.0
  Cl  Cl25  1  0.68751886  0.75000000  0.91406181  1.0
  Cl  Cl26  1  0.81248114  0.25000000  0.41406181  1.0
  Cl  Cl27  1  0.31248114  0.25000000  0.08593819  1.0
