# generated using pymatgen
data_Nb5GaSn2
_symmetry_space_group_name_H-M   'P 1'
_cell_length_a   8.00248870
_cell_length_b   8.00248870
_cell_length_c   8.00248870
_cell_angle_alpha   96.02386502
_cell_angle_beta   96.02386502
_cell_angle_gamma   142.19622316
_symmetry_Int_Tables_number   1
_chemical_formula_structural   Nb5GaSn2
_chemical_formula_sum   'Nb10 Ga2 Sn4'
_cell_volume   297.18860430
_cell_formula_units_Z   2
loop_
 _symmetry_equiv_pos_site_id
 _symmetry_equiv_pos_as_xyz
  1  'x, y, z'
loop_
 _atom_site_type_symbol
 _atom_site_label
 _atom_site_symmetry_multiplicity
 _atom_site_fract_x
 _atom_site_fract_y
 _atom_site_fract_z
 _atom_site_occupancy
  Nb  Nb0  1  0.75000000  1.25000000  0.50000000  1.0
  Nb  Nb1  1  0.25000000  0.75000000  0.50000000  1.0
  Nb  Nb2  1  0.28252484  0.42903215  0.71155700  1.0
  Nb  Nb3  1  1.21747516  0.92903215  1.14650731  1.0
  Nb  Nb4  1  0.92903215  0.78252484  1.71155700  1.0
  Nb  Nb5  1  0.57096785  1.28252484  0.85349269  1.0
  Nb  Nb6  1  0.78252484  1.07096785  0.85349269  1.0
  Nb  Nb7  1  0.71747516  0.57096785  1.28844300  1.0
  Nb  Nb8  1  1.42903215  0.71747516  1.14650731  1.0
  Nb  Nb9  1  0.07096785  0.21747516  0.28844300  1.0
  Ga  Ga10  1  0.25000000  0.25000000  0.00000000  1.0
  Ga  Ga11  1  0.75000000  0.75000000  0.00000000  1.0
  Sn  Sn12  1  0.83135446  0.33135446  1.16270892  1.0
  Sn  Sn13  1  0.66864554  0.83135446  0.50000000  1.0
  Sn  Sn14  1  1.33135446  1.16864554  1.50000000  1.0
  Sn  Sn15  1  0.16864554  0.66864554  0.83729108  1.0
