# generated using pymatgen
data_SrC2
_symmetry_space_group_name_H-M   'P 1'
_cell_length_a   4.17413233
_cell_length_b   4.17413233
_cell_length_c   7.87316191
_cell_angle_alpha   74.45180951
_cell_angle_beta   105.54819049
_cell_angle_gamma   115.80296313
_symmetry_Int_Tables_number   1
_chemical_formula_structural   SrC2
_chemical_formula_sum   'Sr2 C4'
_cell_volume   117.15458977
_cell_formula_units_Z   2
loop_
 _symmetry_equiv_pos_site_id
 _symmetry_equiv_pos_as_xyz
  1  'x, y, z'
loop_
 _atom_site_type_symbol
 _atom_site_label
 _atom_site_symmetry_multiplicity
 _atom_site_fract_x
 _atom_site_fract_y
 _atom_site_fract_z
 _atom_site_occupancy
  Sr  Sr0  1  0.81994915  0.81994915  0.75000000  1.0
  Sr  Sr1  1  0.18005085  0.18005085  0.25000000  1.0
  C  C2  1  0.57890086  0.12399234  0.94099011  1.0
  C  C3  1  0.87600766  0.42109914  0.44099011  1.0
  C  C4  1  1.12399234  -0.42109914  0.55900989  1.0
  C  C5  1  1.42109914  -0.12399234  0.05900989  1.0
