# generated using pymatgen
data_Ba3NiRu2O9
_symmetry_space_group_name_H-M   'P 1'
_cell_length_a   5.79287459
_cell_length_b   5.79287459
_cell_length_c   14.25510825
_cell_angle_alpha   90.00000000
_cell_angle_beta   90.00000000
_cell_angle_gamma   120.00000000
_symmetry_Int_Tables_number   1
_chemical_formula_structural   Ba3NiRu2O9
_chemical_formula_sum   'Ba6 Ni2 Ru4 O18'
_cell_volume   414.27564775
_cell_formula_units_Z   2
loop_
 _symmetry_equiv_pos_site_id
 _symmetry_equiv_pos_as_xyz
  1  'x, y, z'
loop_
 _atom_site_type_symbol
 _atom_site_label
 _atom_site_symmetry_multiplicity
 _atom_site_fract_x
 _atom_site_fract_y
 _atom_site_fract_z
 _atom_site_occupancy
  Ba  Ba0  1  0.33333333  0.66666667  0.41174331  1.0
  Ba  Ba1  1  0.33333333  0.66666667  0.08825669  1.0
  Ba  Ba2  1  0.66666667  0.33333333  0.91174331  1.0
  Ba  Ba3  1  0.66666667  0.33333333  0.58825669  1.0
  Ba  Ba4  1  0.00000000  0.00000000  0.25000000  1.0
  Ba  Ba5  1  0.00000000  0.00000000  0.75000000  1.0
  Ni  Ni6  1  0.00000000  0.00000000  0.50000000  1.0
  Ni  Ni7  1  0.00000000  0.00000000  0.00000000  1.0
  Ru  Ru8  1  0.33333333  0.66666667  0.84665776  1.0
  Ru  Ru9  1  0.33333333  0.66666667  0.65334224  1.0
  Ru  Ru10  1  0.66666667  0.33333333  0.34665776  1.0
  Ru  Ru11  1  0.66666667  0.33333333  0.15334224  1.0
  O  O12  1  0.16935799  0.83064201  0.91817487  1.0
  O  O13  1  0.16935799  0.83064201  0.58182513  1.0
  O  O14  1  0.16935799  0.33871599  0.91817487  1.0
  O  O15  1  0.16935799  0.33871599  0.58182513  1.0
  O  O16  1  0.83064201  0.16935799  0.41817487  1.0
  O  O17  1  0.83064201  0.16935799  0.08182513  1.0
  O  O18  1  0.83064201  0.66128401  0.41817487  1.0
  O  O19  1  0.83064201  0.66128401  0.08182513  1.0
  O  O20  1  0.66128401  0.83064201  0.91817487  1.0
  O  O21  1  0.66128401  0.83064201  0.58182513  1.0
  O  O22  1  0.33871599  0.16935799  0.41817487  1.0
  O  O23  1  0.33871599  0.16935799  0.08182513  1.0
  O  O24  1  0.51564550  0.48435450  0.25000000  1.0
  O  O25  1  0.51564550  0.03129101  0.25000000  1.0
  O  O26  1  0.48435450  0.51564550  0.75000000  1.0
  O  O27  1  0.48435449  0.96870899  0.75000000  1.0
  O  O28  1  0.96870899  0.48435450  0.25000000  1.0
  O  O29  1  0.03129101  0.51564550  0.75000000  1.0
