# generated using pymatgen
data_BaReH7
_symmetry_space_group_name_H-M   'P 1'
_cell_length_a   3.56505704
_cell_length_b   9.73129829
_cell_length_c   5.11042624
_cell_angle_alpha   90.00000000
_cell_angle_beta   88.89121604
_cell_angle_gamma   90.00000000
_symmetry_Int_Tables_number   1
_chemical_formula_structural   BaReH7
_chemical_formula_sum   'Ba2 Re2 H14'
_cell_volume   177.26094726
_cell_formula_units_Z   2
loop_
 _symmetry_equiv_pos_site_id
 _symmetry_equiv_pos_as_xyz
  1  'x, y, z'
loop_
 _atom_site_type_symbol
 _atom_site_label
 _atom_site_symmetry_multiplicity
 _atom_site_fract_x
 _atom_site_fract_y
 _atom_site_fract_z
 _atom_site_occupancy
  Ba  Ba0  1  0.00000000  0.00000000  0.00000000  1.0
  Ba  Ba1  1  0.00000000  0.50000000  0.00000000  1.0
  Re  Re2  1  0.44759599  0.75000000  0.52424973  1.0
  Re  Re3  1  0.55240401  0.25000000  0.47575027  1.0
  H  H4  1  0.39679347  0.75000000  0.85574656  1.0
  H  H5  1  0.60320653  0.25000000  0.14425344  1.0
  H  H6  1  0.51410359  0.58876691  0.64271968  1.0
  H  H7  1  0.48589641  0.08876691  0.35728032  1.0
  H  H8  1  0.48589641  0.41123309  0.35728032  1.0
  H  H9  1  0.51410359  0.91123309  0.64271968  1.0
  H  H10  1  1.03829131  0.65840971  0.52775744  1.0
  H  H11  1  -0.03829131  0.15840971  0.47224256  1.0
  H  H12  1  -0.03829131  0.34159029  0.47224256  1.0
  H  H13  1  1.03829131  0.84159029  0.52775744  1.0
  H  H14  1  0.49665093  0.64443762  0.25415601  1.0
  H  H15  1  0.50334907  0.14443762  0.74584399  1.0
  H  H16  1  0.50334907  0.35556238  0.74584399  1.0
  H  H17  1  0.49665093  0.85556238  0.25415601  1.0
