# generated using pymatgen
data_La3Rh2
_symmetry_space_group_name_H-M   'P 1'
_cell_length_a   7.71964849
_cell_length_b   7.71964849
_cell_length_c   7.71964849
_cell_angle_alpha   71.45482575
_cell_angle_beta   71.45482575
_cell_angle_gamma   71.45482575
_symmetry_Int_Tables_number   1
_chemical_formula_structural   La3Rh2
_chemical_formula_sum   'La9 Rh6'
_cell_volume   401.28155292
_cell_formula_units_Z   3
loop_
 _symmetry_equiv_pos_site_id
 _symmetry_equiv_pos_as_xyz
  1  'x, y, z'
loop_
 _atom_site_type_symbol
 _atom_site_label
 _atom_site_symmetry_multiplicity
 _atom_site_fract_x
 _atom_site_fract_y
 _atom_site_fract_z
 _atom_site_occupancy
  La  La0  1  0.83684212  0.61048200  -0.66965425  1.0
  La  La1  1  0.38951800  0.66965425  -0.83684212  1.0
  La  La2  1  0.66965425  0.16315788  -0.61048200  1.0
  La  La3  1  0.16315788  0.38951800  -0.33034575  1.0
  La  La4  1  0.61048200  0.33034575  -0.16315788  1.0
  La  La5  1  0.33034575  0.83684212  -0.38951800  1.0
  La  La6  1  0.79691885  0.79691885  -0.20308115  1.0
  La  La7  1  1.20308115  1.20308115  0.20308115  1.0
  La  La8  1  0.00000000  0.00000000  0.00000000  1.0
  Rh  Rh9  1  0.59111254  -0.04343560  0.16501518  1.0
  Rh  Rh10  1  1.04343560  -0.16501518  -0.59111254  1.0
  Rh  Rh11  1  0.83498482  -0.59111254  0.04343560  1.0
  Rh  Rh12  1  0.40888746  0.04343560  -0.16501518  1.0
  Rh  Rh13  1  0.95656440  0.16501518  -0.40888746  1.0
  Rh  Rh14  1  1.16501518  -0.40888746  -0.04343560  1.0
