# generated using pymatgen
data_Ba5In4Bi5
_symmetry_space_group_name_H-M   'P 1'
_cell_length_a   10.76853091
_cell_length_b   10.76853091
_cell_length_c   9.13131923
_cell_angle_alpha   90.00000000
_cell_angle_beta   90.00000000
_cell_angle_gamma   90.00000000
_symmetry_Int_Tables_number   1
_chemical_formula_structural   Ba5In4Bi5
_chemical_formula_sum   'Ba10 In8 Bi10'
_cell_volume   1058.87926409
_cell_formula_units_Z   2
loop_
 _symmetry_equiv_pos_site_id
 _symmetry_equiv_pos_as_xyz
  1  'x, y, z'
loop_
 _atom_site_type_symbol
 _atom_site_label
 _atom_site_symmetry_multiplicity
 _atom_site_fract_x
 _atom_site_fract_y
 _atom_site_fract_z
 _atom_site_occupancy
  Ba  Ba0  1  0.19074326  0.60478840  0.82501162  1.0
  Ba  Ba1  1  0.69074326  0.89521160  0.32501162  1.0
  Ba  Ba2  1  0.39521160  0.19074326  0.82501162  1.0
  Ba  Ba3  1  0.89521160  0.30925674  0.32501162  1.0
  Ba  Ba4  1  0.80925674  0.39521160  0.82501162  1.0
  Ba  Ba5  1  0.30925674  0.10478840  0.32501162  1.0
  Ba  Ba6  1  0.60478840  0.80925674  0.82501162  1.0
  Ba  Ba7  1  0.10478840  0.69074326  0.32501162  1.0
  Ba  Ba8  1  0.50000000  0.50000000  0.50294535  1.0
  Ba  Ba9  1  0.00000000  0.00000000  0.00294535  1.0
  In  In10  1  0.18524383  0.92795421  0.67069032  1.0
  In  In11  1  0.68524383  0.57204579  0.17069032  1.0
  In  In12  1  0.07204579  0.18524383  0.67069032  1.0
  In  In13  1  0.57204579  0.31475617  0.17069032  1.0
  In  In14  1  0.81475617  0.07204579  0.67069032  1.0
  In  In15  1  0.31475617  0.42795421  0.17069032  1.0
  In  In16  1  0.92795421  0.81475617  0.67069032  1.0
  In  In17  1  0.42795421  0.68524383  0.17069032  1.0
  Bi  Bi18  1  0.39041819  0.81023616  0.50620021  1.0
  Bi  Bi19  1  0.89041819  0.68976384  0.00620021  1.0
  Bi  Bi20  1  0.18976384  0.39041819  0.50620021  1.0
  Bi  Bi21  1  0.68976384  0.10958181  0.00620021  1.0
  Bi  Bi22  1  0.60958181  0.18976384  0.50620021  1.0
  Bi  Bi23  1  0.10958181  0.31023616  0.00620021  1.0
  Bi  Bi24  1  0.81023616  0.60958181  0.50620021  1.0
  Bi  Bi25  1  0.31023616  0.89041819  0.00620021  1.0
  Bi  Bi26  1  0.50000000  0.50000000  0.88914606  1.0
  Bi  Bi27  1  0.00000000  0.00000000  0.38914606  1.0
