# generated using pymatgen
data_CaP3NO9
_symmetry_space_group_name_H-M   'P 1'
_cell_length_a   7.23116637
_cell_length_b   7.23116637
_cell_length_c   10.91341255
_cell_angle_alpha   90.00000000
_cell_angle_beta   90.00000000
_cell_angle_gamma   120.00000000
_symmetry_Int_Tables_number   1
_chemical_formula_structural   CaP3NO9
_chemical_formula_sum   'Ca2 P6 N2 O18'
_cell_volume   494.20588413
_cell_formula_units_Z   2
loop_
 _symmetry_equiv_pos_site_id
 _symmetry_equiv_pos_as_xyz
  1  'x, y, z'
loop_
 _atom_site_type_symbol
 _atom_site_label
 _atom_site_symmetry_multiplicity
 _atom_site_fract_x
 _atom_site_fract_y
 _atom_site_fract_z
 _atom_site_occupancy
  N  N0  1  0.66666667  0.33333333  0.50000000  1.0
  N  N1  1  0.66666667  0.33333333  0.00000000  1.0
  O  O2  1  0.49517343  0.89411121  0.25000000  1.0
  O  O3  1  0.49517343  0.60106222  0.75000000  1.0
  O  O4  1  0.39893778  0.89411121  0.75000000  1.0
  O  O5  1  0.39893778  0.50482657  0.25000000  1.0
  O  O6  1  0.10588879  0.50482657  0.75000000  1.0
  O  O7  1  0.10588879  0.60106222  0.25000000  1.0
  O  O8  1  0.72355547  0.77791455  0.36744137  1.0
  O  O9  1  0.72355547  0.77791455  0.13255863  1.0
  O  O10  1  0.72355547  -0.05435908  0.86744137  1.0
  O  O11  1  0.72355547  -0.05435908  0.63255863  1.0
  O  O12  1  1.05435908  0.77791455  0.86744137  1.0
  O  O13  1  1.05435908  0.77791455  0.63255863  1.0
  O  O14  1  1.05435908  0.27644453  0.36744137  1.0
  O  O15  1  1.05435908  0.27644453  0.13255863  1.0
  O  O16  1  0.22208545  0.27644453  0.86744137  1.0
  O  O17  1  0.22208545  0.27644453  0.63255863  1.0
  O  O18  1  0.22208545  -0.05435908  0.36744137  1.0
  O  O19  1  0.22208545  -0.05435908  0.13255863  1.0
  P  P20  1  0.25630444  0.85852362  0.25000000  1.0
  P  P21  1  0.25630444  0.39778082  0.75000000  1.0
  P  P22  1  0.60221918  0.85852362  0.75000000  1.0
  P  P23  1  0.60221918  0.74369556  0.25000000  1.0
  P  P24  1  0.14147638  0.74369556  0.75000000  1.0
  P  P25  1  0.14147638  0.39778082  0.25000000  1.0
  Ca  Ca26  1  -0.00000000  -0.00000000  0.50000000  1.0
  Ca  Ca27  1  -0.00000000  -0.00000000  0.00000000  1.0
