# generated using pymatgen
data_Al8Fe5
_symmetry_space_group_name_H-M   'P 1'
_cell_length_a   7.62978234
_cell_length_b   7.62978234
_cell_length_c   7.62978234
_cell_angle_alpha   109.47122063
_cell_angle_beta   109.47122063
_cell_angle_gamma   109.47122063
_symmetry_Int_Tables_number   1
_chemical_formula_structural   Al8Fe5
_chemical_formula_sum   'Al16 Fe10'
_cell_volume   341.91216652
_cell_formula_units_Z   2
loop_
 _symmetry_equiv_pos_site_id
 _symmetry_equiv_pos_as_xyz
  1  'x, y, z'
loop_
 _atom_site_type_symbol
 _atom_site_label
 _atom_site_symmetry_multiplicity
 _atom_site_fract_x
 _atom_site_fract_y
 _atom_site_fract_z
 _atom_site_occupancy
  Al  Al0  1  0.37833171  0.64998215  0.64998215  1.0
  Al  Al1  1  0.64998215  0.37833171  0.64998215  1.0
  Al  Al2  1  1.00000000  0.72834957  1.35001785  1.0
  Al  Al3  1  0.72834957  1.00000000  1.35001785  1.0
  Al  Al4  1  0.64998215  0.64998215  0.37833171  1.0
  Al  Al5  1  1.27165043  1.27165043  0.62166829  1.0
  Al  Al6  1  1.00000000  1.35001785  0.72834957  1.0
  Al  Al7  1  1.27165043  0.62166829  1.27165043  1.0
  Al  Al8  1  0.62166829  1.27165043  1.27165043  1.0
  Al  Al9  1  1.35001785  1.00000000  0.72834957  1.0
  Al  Al10  1  0.72834957  1.35001785  1.00000000  1.0
  Al  Al11  1  1.35001785  0.72834957  1.00000000  1.0
  Al  Al12  1  0.78879271  0.78879271  0.78879271  1.0
  Al  Al13  1  1.00000000  1.00000000  0.21120729  1.0
  Al  Al14  1  1.00000000  0.21120729  1.00000000  1.0
  Al  Al15  1  0.21120729  1.00000000  1.00000000  1.0
  Fe  Fe16  1  0.64011864  0.64011864  -0.00000000  1.0
  Fe  Fe17  1  0.64011864  -0.00000000  0.64011864  1.0
  Fe  Fe18  1  0.00000000  0.64011864  0.64011864  1.0
  Fe  Fe19  1  0.35988136  -0.00000000  0.35988136  1.0
  Fe  Fe20  1  0.00000000  0.35988136  0.35988136  1.0
  Fe  Fe21  1  0.35988136  0.35988136  0.00000000  1.0
  Fe  Fe22  1  0.33682304  0.33682304  0.33682304  1.0
  Fe  Fe23  1  1.00000000  1.00000000  0.66317696  1.0
  Fe  Fe24  1  1.00000000  0.66317696  1.00000000  1.0
  Fe  Fe25  1  0.66317696  1.00000000  1.00000000  1.0
