# generated using pymatgen
data_LiAl(SiO3)2
_symmetry_space_group_name_H-M   'P 1'
_cell_length_a   9.20863643
_cell_length_b   8.47831936
_cell_length_c   5.27753434
_cell_angle_alpha   90.00000000
_cell_angle_beta   101.73149202
_cell_angle_gamma   90.00000000
_symmetry_Int_Tables_number   1
_chemical_formula_structural   LiAl(SiO3)2
_chemical_formula_sum   'Li4 Al4 Si8 O24'
_cell_volume   403.42999598
_cell_formula_units_Z   4
loop_
 _symmetry_equiv_pos_site_id
 _symmetry_equiv_pos_as_xyz
  1  'x, y, z'
loop_
 _atom_site_type_symbol
 _atom_site_label
 _atom_site_symmetry_multiplicity
 _atom_site_fract_x
 _atom_site_fract_y
 _atom_site_fract_z
 _atom_site_occupancy
  Li  Li0  1  0.75008493  0.97963774  0.50004506  1.0
  Li  Li1  1  0.75008493  0.52036226  1.00004506  1.0
  Li  Li2  1  0.24991507  0.47963774  -0.00004506  1.0
  Li  Li3  1  0.24991507  0.02036226  0.49995494  1.0
  Al  Al4  1  0.75000034  0.34464715  0.50006640  1.0
  Al  Al5  1  0.75000034  0.15535285  1.00006640  1.0
  Al  Al6  1  0.24999966  0.84464715  -0.00006640  1.0
  Al  Al7  1  0.24999966  0.65535285  0.49993360  1.0
  Si  Si8  1  0.95684354  0.84331974  0.21516055  1.0
  Si  Si9  1  0.95684354  0.65668026  0.71516055  1.0
  Si  Si10  1  0.04315646  0.34331974  0.28483945  1.0
  Si  Si11  1  0.04315646  0.15668026  0.78483945  1.0
  Si  Si12  1  0.45686457  0.15670422  0.21532686  1.0
  Si  Si13  1  0.45686457  0.34329578  0.71532686  1.0
  Si  Si14  1  0.54313543  0.65670422  0.28467314  1.0
  Si  Si15  1  0.54313543  0.84329578  0.78467314  1.0
  O  O16  1  0.89521909  0.76821888  0.46121997  1.0
  O  O17  1  0.89521909  0.73178112  0.96121997  1.0
  O  O18  1  0.10478091  0.26821888  0.03878003  1.0
  O  O19  1  0.10478091  0.23178112  0.53878003  1.0
  O  O20  1  0.88419906  0.01604845  0.18393092  1.0
  O  O21  1  0.88419906  0.48395155  0.68393092  1.0
  O  O22  1  0.11580094  0.51604845  0.31606908  1.0
  O  O23  1  0.11580094  0.98395155  0.81606908  1.0
  O  O24  1  0.85906276  0.33298817  0.21805316  1.0
  O  O25  1  0.85906276  0.16701183  0.71805316  1.0
  O  O26  1  0.14093724  0.83298817  0.28194684  1.0
  O  O27  1  0.14093724  0.66701183  0.78194684  1.0
  O  O28  1  0.64096435  0.16707590  0.28212361  1.0
  O  O29  1  0.64096435  0.33292410  0.78212361  1.0
  O  O30  1  0.35903565  0.66707590  0.21787639  1.0
  O  O31  1  0.35903565  0.83292410  0.71787639  1.0
  O  O32  1  0.61577484  0.48398351  0.31634531  1.0
  O  O33  1  0.61577484  0.01601649  0.81634531  1.0
  O  O34  1  0.38422516  0.98398351  0.18365469  1.0
  O  O35  1  0.38422516  0.51601649  0.68365469  1.0
  O  O36  1  0.39525171  0.23155698  0.46159325  1.0
  O  O37  1  0.39525171  0.26844302  0.96159325  1.0
  O  O38  1  0.60474829  0.73155698  0.03840675  1.0
  O  O39  1  0.60474829  0.76844302  0.53840675  1.0
