# generated using pymatgen
data_Ca3Ti2O7
_symmetry_space_group_name_H-M   'P 1'
_cell_length_a   10.08234148
_cell_length_b   10.08234148
_cell_length_c   5.53380477
_cell_angle_alpha   90.00000000
_cell_angle_beta   90.00000000
_cell_angle_gamma   31.40983475
_symmetry_Int_Tables_number   1
_chemical_formula_structural   Ca3Ti2O7
_chemical_formula_sum   'Ca6 Ti4 O14'
_cell_volume   293.16660161
_cell_formula_units_Z   2
loop_
 _symmetry_equiv_pos_site_id
 _symmetry_equiv_pos_as_xyz
  1  'x, y, z'
loop_
 _atom_site_type_symbol
 _atom_site_label
 _atom_site_symmetry_multiplicity
 _atom_site_fract_x
 _atom_site_fract_y
 _atom_site_fract_z
 _atom_site_occupancy
  Ca  Ca0  1  0.44620299  0.92918729  0.92643743  1.0
  Ca  Ca1  1  -0.07081271  1.44620299  0.42643743  1.0
  Ca  Ca2  1  0.07081271  1.55379701  0.92643743  1.0
  Ca  Ca3  1  0.55379701  1.07081271  0.42643743  1.0
  Ca  Ca4  1  -0.74714375  0.74714375  0.00798177  1.0
  Ca  Ca5  1  -0.25285625  0.25285625  0.50798177  1.0
  Ti  Ti6  1  0.64795495  1.15158198  0.95757195  1.0
  Ti  Ti7  1  0.15158198  1.64795495  0.45757195  1.0
  Ti  Ti8  1  -0.15158198  1.35204505  0.95757195  1.0
  Ti  Ti9  1  0.35204505  0.84841802  0.45757195  1.0
  O  O10  1  0.84460091  0.92872025  0.68677720  1.0
  O  O11  1  -0.07127975  1.84460091  0.18677720  1.0
  O  O12  1  0.07127975  1.15539909  0.68677720  1.0
  O  O13  1  0.15539909  1.07127975  0.18677720  1.0
  O  O14  1  0.48338124  1.12123042  0.99823421  1.0
  O  O15  1  0.12123042  1.48338124  0.49823421  1.0
  O  O16  1  -0.12123042  1.51661876  0.99823421  1.0
  O  O17  1  0.51661876  0.87876958  0.49823421  1.0
  O  O18  1  0.54531780  0.62254018  0.76906932  1.0
  O  O19  1  -0.37745982  1.54531780  0.26906932  1.0
  O  O20  1  0.37745982  1.45468220  0.76906932  1.0
  O  O21  1  0.45468220  1.37745982  0.26906932  1.0
  O  O22  1  -0.17705732  0.17705732  0.95943800  1.0
  O  O23  1  -0.82294268  0.82294268  0.45943800  1.0
