# generated using pymatgen
data_NaPrO2
_symmetry_space_group_name_H-M   'P 1'
_cell_length_a   6.43144590
_cell_length_b   6.43144590
_cell_length_c   6.43144590
_cell_angle_alpha   136.44935860
_cell_angle_beta   136.44935860
_cell_angle_gamma   63.28637963
_symmetry_Int_Tables_number   1
_chemical_formula_structural   NaPrO2
_chemical_formula_sum   'Na2 Pr2 O4'
_cell_volume   124.66864973
_cell_formula_units_Z   2
loop_
 _symmetry_equiv_pos_site_id
 _symmetry_equiv_pos_as_xyz
  1  'x, y, z'
loop_
 _atom_site_type_symbol
 _atom_site_label
 _atom_site_symmetry_multiplicity
 _atom_site_fract_x
 _atom_site_fract_y
 _atom_site_fract_z
 _atom_site_occupancy
  Na  Na0  1  0.25000000  0.75000000  0.50000000  1.0
  Na  Na1  1  0.50000000  0.50000000  1.00000000  1.0
  Pr  Pr2  1  0.75000000  0.25000000  0.50000000  1.0
  Pr  Pr3  1  0.00000000  0.00000000  0.00000000  1.0
  O  O4  1  0.96857384  0.46857384  0.50000000  1.0
  O  O5  1  0.78142616  0.78142616  1.00000000  1.0
  O  O6  1  0.53142616  0.03142616  0.50000000  1.0
  O  O7  1  0.21857384  0.21857384  0.00000000  1.0
