# generated using pymatgen
data_Na2CaV4O12
_symmetry_space_group_name_H-M   'P 1'
_cell_length_a   10.52465891
_cell_length_b   10.52465891
_cell_length_c   5.03199075
_cell_angle_alpha   90.00000000
_cell_angle_beta   90.00000000
_cell_angle_gamma   90.00000000
_symmetry_Int_Tables_number   1
_chemical_formula_structural   Na2CaV4O12
_chemical_formula_sum   'Na4 Ca2 V8 O24'
_cell_volume   557.38579234
_cell_formula_units_Z   2
loop_
 _symmetry_equiv_pos_site_id
 _symmetry_equiv_pos_as_xyz
  1  'x, y, z'
loop_
 _atom_site_type_symbol
 _atom_site_label
 _atom_site_symmetry_multiplicity
 _atom_site_fract_x
 _atom_site_fract_y
 _atom_site_fract_z
 _atom_site_occupancy
  Na  Na0  1  0.25000000  0.25000000  0.50000000  1.0
  Na  Na1  1  0.75000000  0.25000000  0.50000000  1.0
  Na  Na2  1  0.25000000  0.75000000  0.50000000  1.0
  Na  Na3  1  0.75000000  0.75000000  0.50000000  1.0
  Ca  Ca4  1  0.50000000  0.50000000  0.50000000  1.0
  Ca  Ca5  1  0.00000000  0.00000000  0.50000000  1.0
  V  V6  1  0.50000000  0.77785806  0.00000000  1.0
  V  V7  1  0.00000000  0.72214194  0.00000000  1.0
  V  V8  1  0.00000000  0.27785806  0.00000000  1.0
  V  V9  1  0.50000000  0.22214194  0.00000000  1.0
  V  V10  1  0.77785806  0.50000000  0.00000000  1.0
  V  V11  1  0.72214194  0.00000000  0.00000000  1.0
  V  V12  1  0.27785806  0.00000000  0.00000000  1.0
  V  V13  1  0.22214194  0.50000000  0.00000000  1.0
  O  O14  1  0.62166876  0.87833124  0.14246455  1.0
  O  O15  1  0.12166876  0.62166876  0.14246455  1.0
  O  O16  1  0.87833124  0.37833124  0.14246455  1.0
  O  O17  1  0.37833124  0.12166876  0.14246455  1.0
  O  O18  1  0.87833124  0.62166876  0.85753545  1.0
  O  O19  1  0.37833124  0.87833124  0.85753545  1.0
  O  O20  1  0.62166876  0.12166876  0.85753545  1.0
  O  O21  1  0.12166876  0.37833124  0.85753545  1.0
  O  O22  1  0.30932075  0.43713755  0.24091428  1.0
  O  O23  1  0.80932075  0.06286245  0.24091428  1.0
  O  O24  1  0.19067925  0.93713755  0.24091428  1.0
  O  O25  1  0.69067925  0.56286245  0.24091428  1.0
  O  O26  1  0.19067925  0.06286245  0.75908572  1.0
  O  O27  1  0.69067925  0.43713755  0.75908572  1.0
  O  O28  1  0.30932075  0.56286245  0.75908572  1.0
  O  O29  1  0.80932075  0.93713755  0.75908572  1.0
  O  O30  1  0.43713755  0.30932075  0.75908572  1.0
  O  O31  1  0.06286245  0.80932075  0.75908572  1.0
  O  O32  1  0.93713755  0.19067925  0.75908572  1.0
  O  O33  1  0.56286245  0.69067925  0.75908572  1.0
  O  O34  1  0.06286245  0.19067925  0.24091428  1.0
  O  O35  1  0.43713755  0.69067925  0.24091428  1.0
  O  O36  1  0.56286245  0.30932075  0.24091428  1.0
  O  O37  1  0.93713755  0.80932075  0.24091428  1.0
