# generated using pymatgen
data_SiC
_symmetry_space_group_name_H-M   'P 1'
_cell_length_a   3.09595779
_cell_length_b   3.09595779
_cell_length_c   35.44345018
_cell_angle_alpha   90.00000000
_cell_angle_beta   90.00000000
_cell_angle_gamma   120.00000000
_symmetry_Int_Tables_number   1
_chemical_formula_structural   SiC
_chemical_formula_sum   'Si14 C14'
_cell_volume   294.20949420
_cell_formula_units_Z   14
loop_
 _symmetry_equiv_pos_site_id
 _symmetry_equiv_pos_as_xyz
  1  'x, y, z'
loop_
 _atom_site_type_symbol
 _atom_site_label
 _atom_site_symmetry_multiplicity
 _atom_site_fract_x
 _atom_site_fract_y
 _atom_site_fract_z
 _atom_site_occupancy
  Si  Si0  1  0.00000000  0.00000000  -0.00000589  1.0
  Si  Si1  1  0.33333333  0.66666667  0.07145688  1.0
  Si  Si2  1  0.66666667  0.33333333  0.14282002  1.0
  Si  Si3  1  0.00000000  0.00000000  0.21417520  1.0
  Si  Si4  1  0.33333333  0.66666667  0.28565146  1.0
  Si  Si5  1  0.00000000  0.00000000  0.35712553  1.0
  Si  Si6  1  0.66666667  0.33333333  0.42849307  1.0
  Si  Si7  1  0.33333333  0.66666667  0.49998414  1.0
  Si  Si8  1  0.66666667  0.33333333  0.57146133  1.0
  Si  Si9  1  0.00000000  0.00000000  0.64283127  1.0
  Si  Si10  1  0.33333333  0.66666667  0.71432549  1.0
  Si  Si11  1  0.00000000  0.00000000  0.78579316  1.0
  Si  Si12  1  0.66666667  0.33333333  0.85715620  1.0
  Si  Si13  1  0.33333333  0.66666667  0.92851668  1.0
  C  C14  1  0.00000000  0.00000000  0.05369858  1.0
  C  C15  1  0.33333333  0.66666667  0.12500356  1.0
  C  C16  1  0.66666667  0.33333333  0.19638775  1.0
  C  C17  1  0.00000000  0.00000000  0.26772783  1.0
  C  C18  1  0.33333333  0.66666667  0.33937229  1.0
  C  C19  1  0.00000000  0.00000000  0.41069337  1.0
  C  C20  1  0.66666667  0.33333333  0.48205740  1.0
  C  C21  1  0.33333333  0.66666667  0.55370654  1.0
  C  C22  1  0.66666667  0.33333333  0.62502472  1.0
  C  C23  1  0.00000000  0.00000000  0.69639044  1.0
  C  C24  1  0.33333333  0.66666667  0.76803336  1.0
  C  C25  1  0.00000000  0.00000000  0.83933567  1.0
  C  C26  1  0.66666667  0.33333333  0.91072074  1.0
  C  C27  1  0.33333333  0.66666667  0.98206323  1.0
