# generated using pymatgen
data_Li2Mg2Si4O11
_symmetry_space_group_name_H-M   'P 1'
_cell_length_a   8.73386995
_cell_length_b   7.54613609
_cell_length_c   6.99210792
_cell_angle_alpha   105.46875888
_cell_angle_beta   101.22605195
_cell_angle_gamma   99.28485195
_symmetry_Int_Tables_number   1
_chemical_formula_structural   Li2Mg2Si4O11
_chemical_formula_sum   'Li4 Mg4 Si8 O22'
_cell_volume   424.40722636
_cell_formula_units_Z   2
loop_
 _symmetry_equiv_pos_site_id
 _symmetry_equiv_pos_as_xyz
  1  'x, y, z'
loop_
 _atom_site_type_symbol
 _atom_site_label
 _atom_site_symmetry_multiplicity
 _atom_site_fract_x
 _atom_site_fract_y
 _atom_site_fract_z
 _atom_site_occupancy
  Li  Li0  1  -0.84857516  -0.24744119  -0.85629808  1.0
  Li  Li1  1  -0.15142484  -0.75255881  -0.14370192  1.0
  Li  Li2  1  -0.19532950  -0.78002059  -0.61112471  1.0
  Li  Li3  1  -0.80467050  -0.21997941  -0.38887529  1.0
  Mg  Mg4  1  -0.38916844  -0.61728656  -0.88226874  1.0
  Mg  Mg5  1  -0.61083156  -0.38271344  -0.11773126  1.0
  Mg  Mg6  1  -0.59902766  -0.37340059  -0.63696566  1.0
  Mg  Mg7  1  -0.40097234  -0.62659941  -0.36303434  1.0
  Si  Si8  1  -0.59543150  -0.97243673  -0.76960821  1.0
  Si  Si9  1  -0.40456850  -0.02756327  -0.23039179  1.0
  Si  Si10  1  -0.96720334  -0.60777240  -0.76016150  1.0
  Si  Si11  1  -0.03279666  -0.39222760  -0.23983850  1.0
  Si  Si12  1  -0.77528481  -0.77529876  -0.47819907  1.0
  Si  Si13  1  -0.22471519  -0.22470124  -0.52180093  1.0
  Si  Si14  1  -0.76692983  -0.77402759  -0.04325934  1.0
  Si  Si15  1  -0.23307017  -0.22597241  -0.95674066  1.0
  O  O16  1  -0.70277629  -0.94926510  -0.98258398  1.0
  O  O17  1  -0.29722371  -0.05073490  -0.01741602  1.0
  O  O18  1  -0.93391555  -0.74060247  -0.97682993  1.0
  O  O19  1  -0.06608445  -0.25939753  -0.02317007  1.0
  O  O20  1  -0.62701355  -0.58270638  -0.93923653  1.0
  O  O21  1  -0.37298645  -0.41729362  -0.06076347  1.0
  O  O22  1  -0.58561606  -0.19241339  -0.82072304  1.0
  O  O23  1  -0.41438394  -0.80758661  -0.17927696  1.0
  O  O24  1  -0.15553079  -0.61708441  -0.81546872  1.0
  O  O25  1  -0.84446921  -0.38291559  -0.18453128  1.0
  O  O26  1  -0.83968624  -0.40558305  -0.67757440  1.0
  O  O27  1  -0.16031376  -0.59441695  -0.32242560  1.0
  O  O28  1  -0.43528342  -0.80407047  -0.67115433  1.0
  O  O29  1  -0.56471658  -0.19592953  -0.32884567  1.0
  O  O30  1  -0.72748105  -0.95898957  -0.62340092  1.0
  O  O31  1  -0.27251895  -0.04101043  -0.37659908  1.0
  O  O32  1  -0.94102199  -0.73564949  -0.60004833  1.0
  O  O33  1  -0.05897801  -0.26435051  -0.39995167  1.0
  O  O34  1  -0.62860216  -0.59137446  -0.40602003  1.0
  O  O35  1  -0.37139784  -0.40862554  -0.59397997  1.0
  O  O36  1  -0.82169200  -0.84951164  -0.29336390  1.0
  O  O37  1  -0.17830800  -0.15048836  -0.70663610  1.0
