# generated using pymatgen
data_V2HgO6
_symmetry_space_group_name_H-M   'P 1'
_cell_length_a   4.95497728
_cell_length_b   14.49696450
_cell_length_c   6.15737444
_cell_angle_alpha   90.00000000
_cell_angle_beta   90.00000000
_cell_angle_gamma   90.00000000
_symmetry_Int_Tables_number   1
_chemical_formula_structural   V2HgO6
_chemical_formula_sum   'V8 Hg4 O24'
_cell_volume   442.29731939
_cell_formula_units_Z   4
loop_
 _symmetry_equiv_pos_site_id
 _symmetry_equiv_pos_as_xyz
  1  'x, y, z'
loop_
 _atom_site_type_symbol
 _atom_site_label
 _atom_site_symmetry_multiplicity
 _atom_site_fract_x
 _atom_site_fract_y
 _atom_site_fract_z
 _atom_site_occupancy
  V  V0  1  0.04838077  0.32936428  0.06006954  1.0
  V  V1  1  0.04838077  0.17063572  0.56006954  1.0
  V  V2  1  0.54838077  0.32936428  0.43993046  1.0
  V  V3  1  0.54838077  0.17063572  0.93993046  1.0
  V  V4  1  0.95161923  0.82936428  0.43993046  1.0
  V  V5  1  0.95161923  0.67063572  0.93993046  1.0
  V  V6  1  0.45161923  0.82936428  0.06006954  1.0
  V  V7  1  0.45161923  0.67063572  0.56006954  1.0
  Hg  Hg8  1  0.50000000  0.50000000  0.00000000  1.0
  Hg  Hg9  1  0.50000000  0.00000000  0.50000000  1.0
  Hg  Hg10  1  0.00000000  0.50000000  0.50000000  1.0
  Hg  Hg11  1  0.00000000  0.00000000  0.00000000  1.0
  O  O12  1  0.45001743  0.09714048  0.11968523  1.0
  O  O13  1  0.45001743  0.40285952  0.61968523  1.0
  O  O14  1  0.95001743  0.09714048  0.38031477  1.0
  O  O15  1  0.95001743  0.40285952  0.88031477  1.0
  O  O16  1  0.54998257  0.59714048  0.38031477  1.0
  O  O17  1  0.54998257  0.90285952  0.88031477  1.0
  O  O18  1  0.04998257  0.59714048  0.11968523  1.0
  O  O19  1  0.04998257  0.90285952  0.61968523  1.0
  O  O20  1  0.34677261  0.39089562  0.17865685  1.0
  O  O21  1  0.34677261  0.10910438  0.67865685  1.0
  O  O22  1  0.84677261  0.39089562  0.32134315  1.0
  O  O23  1  0.84677261  0.10910438  0.82134315  1.0
  O  O24  1  0.65322739  0.89089562  0.32134315  1.0
  O  O25  1  0.65322739  0.60910438  0.82134315  1.0
  O  O26  1  0.15322739  0.89089562  0.17865685  1.0
  O  O27  1  0.15322739  0.60910438  0.67865685  1.0
  O  O28  1  0.24307808  0.25152188  0.40740778  1.0
  O  O29  1  0.24307808  0.24847812  0.90740778  1.0
  O  O30  1  0.74307808  0.25152188  0.09259222  1.0
  O  O31  1  0.74307808  0.24847812  0.59259222  1.0
  O  O32  1  0.75692192  0.75152188  0.09259222  1.0
  O  O33  1  0.75692192  0.74847812  0.59259222  1.0
  O  O34  1  0.25692192  0.75152188  0.40740778  1.0
  O  O35  1  0.25692192  0.74847812  0.90740778  1.0
