# generated using pymatgen
data_Na3YCl6
_symmetry_space_group_name_H-M   'P 1'
_cell_length_a   6.94545799
_cell_length_b   7.32700787
_cell_length_c   12.37289750
_cell_angle_alpha   90.00000000
_cell_angle_beta   123.26918706
_cell_angle_gamma   90.00000000
_symmetry_Int_Tables_number   1
_chemical_formula_structural   Na3YCl6
_chemical_formula_sum   'Na6 Y2 Cl12'
_cell_volume   526.45164030
_cell_formula_units_Z   2
loop_
 _symmetry_equiv_pos_site_id
 _symmetry_equiv_pos_as_xyz
  1  'x, y, z'
loop_
 _atom_site_type_symbol
 _atom_site_label
 _atom_site_symmetry_multiplicity
 _atom_site_fract_x
 _atom_site_fract_y
 _atom_site_fract_z
 _atom_site_occupancy
  Na  Na0  1  0.71060941  0.07090058  0.23299610  1.0
  Na  Na1  1  0.71060941  0.42909942  0.73299610  1.0
  Na  Na2  1  0.28939059  0.57090058  0.26700390  1.0
  Na  Na3  1  0.28939059  0.92909942  0.76700390  1.0
  Na  Na4  1  0.50000000  0.50000000  0.00000000  1.0
  Na  Na5  1  0.50000000  0.00000000  0.50000000  1.0
  Y  Y6  1  0.00000000  0.50000000  0.50000000  1.0
  Y  Y7  1  0.00000000  0.00000000  0.00000000  1.0
  Cl  Cl8  1  0.90284995  0.42776198  0.26424995  1.0
  Cl  Cl9  1  0.90284995  0.07223802  0.76424995  1.0
  Cl  Cl10  1  0.09715005  0.92776198  0.23575005  1.0
  Cl  Cl11  1  0.09715005  0.57223802  0.73575005  1.0
  Cl  Cl12  1  0.74305820  0.79995155  0.41449049  1.0
  Cl  Cl13  1  0.74305820  0.70004845  0.91449049  1.0
  Cl  Cl14  1  0.25694180  0.29995155  0.08550951  1.0
  Cl  Cl15  1  0.25694180  0.20004845  0.58550951  1.0
  Cl  Cl16  1  0.62683321  0.31969855  0.44084985  1.0
  Cl  Cl17  1  0.62683321  0.18030145  0.94084985  1.0
  Cl  Cl18  1  0.37316679  0.81969855  0.05915015  1.0
  Cl  Cl19  1  0.37316679  0.68030145  0.55915015  1.0
