# generated using pymatgen
data_CaB4O7
_symmetry_space_group_name_H-M   'P 1'
_cell_length_a   10.70933732
_cell_length_b   4.41134324
_cell_length_c   4.23230476
_cell_angle_alpha   90.00000000
_cell_angle_beta   90.00000000
_cell_angle_gamma   90.00000000
_symmetry_Int_Tables_number   1
_chemical_formula_structural   CaB4O7
_chemical_formula_sum   'Ca2 B8 O14'
_cell_volume   199.94492350
_cell_formula_units_Z   2
loop_
 _symmetry_equiv_pos_site_id
 _symmetry_equiv_pos_as_xyz
  1  'x, y, z'
loop_
 _atom_site_type_symbol
 _atom_site_label
 _atom_site_symmetry_multiplicity
 _atom_site_fract_x
 _atom_site_fract_y
 _atom_site_fract_z
 _atom_site_occupancy
  Ca  Ca0  1  0.50000000  0.31235788  0.48181304  1.0
  Ca  Ca1  1  0.00000000  0.68764212  -0.01818696  1.0
  B  B2  1  0.24921847  0.32247078  0.01299411  1.0
  B  B3  1  0.74921847  0.67752922  0.51299411  1.0
  B  B4  1  0.75078153  0.32247078  0.01299411  1.0
  B  B5  1  0.25078153  0.67752922  0.51299411  1.0
  B  B6  1  0.12072787  0.17273739  0.48800892  1.0
  B  B7  1  0.62072787  0.82726261  0.98800892  1.0
  B  B8  1  0.87927213  0.17273739  0.48800892  1.0
  B  B9  1  0.37927213  0.82726261  0.98800892  1.0
  O  O10  1  0.36107192  0.14664237  0.06414940  1.0
  O  O11  1  0.86107192  0.85335763  0.56414940  1.0
  O  O12  1  0.63892808  0.14664237  0.06414940  1.0
  O  O13  1  0.13892808  0.85335763  0.56414940  1.0
  O  O14  1  0.27658848  0.63521064  0.15468744  1.0
  O  O15  1  0.77658848  0.36478936  0.65468744  1.0
  O  O16  1  0.72341152  0.63521064  0.15468744  1.0
  O  O17  1  0.22341152  0.36478936  0.65468744  1.0
  O  O18  1  0.13402945  0.22648426  0.15003279  1.0
  O  O19  1  0.63402945  0.77351574  0.65003279  1.0
  O  O20  1  0.86597055  0.22648426  0.15003279  1.0
  O  O21  1  0.36597055  0.77351574  0.65003279  1.0
  O  O22  1  0.50000000  0.72190585  0.09784164  1.0
  O  O23  1  0.00000000  0.27809415  0.59784164  1.0
