# generated using pymatgen
data_Ba2LaOsO6
_symmetry_space_group_name_H-M   'P 1'
_cell_length_a   6.12627255
_cell_length_b   6.12627255
_cell_length_c   6.12627255
_cell_angle_alpha   60.02573770
_cell_angle_beta   60.02573770
_cell_angle_gamma   60.02573769
_symmetry_Int_Tables_number   1
_chemical_formula_structural   Ba2LaOsO6
_chemical_formula_sum   'Ba2 La1 Os1 O6'
_cell_volume   162.67741311
_cell_formula_units_Z   1
loop_
 _symmetry_equiv_pos_site_id
 _symmetry_equiv_pos_as_xyz
  1  'x, y, z'
loop_
 _atom_site_type_symbol
 _atom_site_label
 _atom_site_symmetry_multiplicity
 _atom_site_fract_x
 _atom_site_fract_y
 _atom_site_fract_z
 _atom_site_occupancy
  Ba  Ba0  1  0.74984938  0.74984938  -0.25015062  1.0
  Ba  Ba1  1  1.25015062  1.25015062  0.25015062  1.0
  La  La2  1  0.00000000  0.00000000  0.00000000  1.0
  Os  Os3  1  0.50000000  0.50000000  -0.50000000  1.0
  O  O4  1  0.27189542  0.27189542  -0.27206033  1.0
  O  O5  1  0.27189542  0.72793967  -0.72810458  1.0
  O  O6  1  0.27206033  0.72810458  -0.27189542  1.0
  O  O7  1  0.72810458  0.27206033  -0.27189542  1.0
  O  O8  1  0.72810458  -0.27189542  0.27206033  1.0
  O  O9  1  0.72793967  0.27189542  -0.72810458  1.0
