# generated using pymatgen
data_K3Ta2Ag3Se8
_symmetry_space_group_name_H-M   'P 1'
_cell_length_a   13.28565769
_cell_length_b   13.28565769
_cell_length_c   14.67773544
_cell_angle_alpha   62.10945081
_cell_angle_beta   117.89054919
_cell_angle_gamma   153.17597845
_symmetry_Int_Tables_number   1
_chemical_formula_structural   K3Ta2Ag3Se8
_chemical_formula_sum   'K6 Ta4 Ag6 Se16'
_cell_volume   1025.02054293
_cell_formula_units_Z   2
loop_
 _symmetry_equiv_pos_site_id
 _symmetry_equiv_pos_as_xyz
  1  'x, y, z'
loop_
 _atom_site_type_symbol
 _atom_site_label
 _atom_site_symmetry_multiplicity
 _atom_site_fract_x
 _atom_site_fract_y
 _atom_site_fract_z
 _atom_site_occupancy
  K  K0  1  0.60583671  0.20676463  0.10865725  1.0
  K  K1  1  0.79323537  -0.60583671  0.60865725  1.0
  K  K2  1  1.20676463  0.60583671  0.39134275  1.0
  K  K3  1  1.39416329  -0.20676463  0.89134275  1.0
  K  K4  1  -0.00000000  0.00000000  0.50000000  1.0
  K  K5  1  0.00000000  0.00000000  0.00000000  1.0
  Ta  Ta6  1  1.56126303  -0.18675229  0.22227945  1.0
  Ta  Ta7  1  1.18675229  -0.56126303  0.72227945  1.0
  Ta  Ta8  1  0.81324771  0.56126303  0.27772055  1.0
  Ta  Ta9  1  0.43873697  0.18675229  0.77772055  1.0
  Ag  Ag10  1  0.31338037  0.06059865  0.28387849  1.0
  Ag  Ag11  1  0.93940135  0.68661963  0.78387849  1.0
  Ag  Ag12  1  1.06059865  -0.68661963  0.21612151  1.0
  Ag  Ag13  1  1.68661963  -0.06059865  0.71612151  1.0
  Ag  Ag14  1  0.68841357  0.68841357  0.25000000  1.0
  Ag  Ag15  1  0.31158643  0.31158643  0.75000000  1.0
  Se  Se16  1  1.42019462  -0.48962595  0.35083213  1.0
  Se  Se17  1  1.48962595  -0.42019462  0.85083213  1.0
  Se  Se18  1  0.51037405  0.42019462  0.14916787  1.0
  Se  Se19  1  0.57980538  0.48962595  0.64916787  1.0
  Se  Se20  1  1.80466772  -0.00229194  0.11328424  1.0
  Se  Se21  1  1.00229194  -0.80466772  0.61328424  1.0
  Se  Se22  1  0.99770806  0.80466772  0.38671576  1.0
  Se  Se23  1  0.19533228  0.00229194  0.88671576  1.0
  Se  Se24  1  0.75459478  0.06956170  0.32279048  1.0
  Se  Se25  1  0.93043830  -0.75459478  0.82279048  1.0
  Se  Se26  1  1.06956170  0.75459478  0.17720952  1.0
  Se  Se27  1  1.24540522  -0.06956170  0.67720952  1.0
  Se  Se28  1  0.68308094  0.26181221  0.39286676  1.0
  Se  Se29  1  0.73818779  -0.68308094  0.89286676  1.0
  Se  Se30  1  1.26181221  0.68308094  0.10713324  1.0
  Se  Se31  1  1.31691906  -0.26181221  0.60713324  1.0
