# generated using pymatgen
data_VAs2H4O9
_symmetry_space_group_name_H-M   'P 1'
_cell_length_a   9.24380423
_cell_length_b   9.24380423
_cell_length_c   8.43109332
_cell_angle_alpha   90.00000000
_cell_angle_beta   90.00000000
_cell_angle_gamma   90.00000000
_symmetry_Int_Tables_number   1
_chemical_formula_structural   VAs2H4O9
_chemical_formula_sum   'V4 As8 H16 O36'
_cell_volume   720.41935840
_cell_formula_units_Z   4
loop_
 _symmetry_equiv_pos_site_id
 _symmetry_equiv_pos_as_xyz
  1  'x, y, z'
loop_
 _atom_site_type_symbol
 _atom_site_label
 _atom_site_symmetry_multiplicity
 _atom_site_fract_x
 _atom_site_fract_y
 _atom_site_fract_z
 _atom_site_occupancy
  V  V0  1  0.50000000  0.00000000  0.19305468  1.0
  V  V1  1  0.50000000  0.00000000  0.69305468  1.0
  V  V2  1  0.00000000  0.50000000  0.80694532  1.0
  V  V3  1  0.00000000  0.50000000  0.30694532  1.0
  As  As4  1  0.78509936  0.21490064  0.25000000  1.0
  As  As5  1  0.21490064  0.21490064  0.75000000  1.0
  As  As6  1  0.78509936  0.78509936  0.75000000  1.0
  As  As7  1  0.21490064  0.78509936  0.25000000  1.0
  As  As8  1  0.71490064  0.28509936  0.75000000  1.0
  As  As9  1  0.28509936  0.28509936  0.25000000  1.0
  As  As10  1  0.71490064  0.71490064  0.25000000  1.0
  As  As11  1  0.28509936  0.71490064  0.75000000  1.0
  H  H12  1  0.82804486  0.03948084  0.44291962  1.0
  H  H13  1  0.17195514  0.03948084  0.94291962  1.0
  H  H14  1  0.82804486  0.96051916  0.94291962  1.0
  H  H15  1  0.17195514  0.96051916  0.44291962  1.0
  H  H16  1  0.53948084  0.32804486  0.94291962  1.0
  H  H17  1  0.46051916  0.32804486  0.44291962  1.0
  H  H18  1  0.53948084  0.67195514  0.44291962  1.0
  H  H19  1  0.46051916  0.67195514  0.94291962  1.0
  H  H20  1  0.67195514  0.46051916  0.55708038  1.0
  H  H21  1  0.32804486  0.46051916  0.05708038  1.0
  H  H22  1  0.67195514  0.53948084  0.05708038  1.0
  H  H23  1  0.32804486  0.53948084  0.55708038  1.0
  H  H24  1  0.96051916  0.17195514  0.05708038  1.0
  H  H25  1  0.03948084  0.17195514  0.55708038  1.0
  H  H26  1  0.96051916  0.82804486  0.55708038  1.0
  H  H27  1  0.03948084  0.82804486  0.05708038  1.0
  O  O28  1  0.86667592  0.13744145  0.42214268  1.0
  O  O29  1  0.13332408  0.13744145  0.92214268  1.0
  O  O30  1  0.86667592  0.86255855  0.92214268  1.0
  O  O31  1  0.13332408  0.86255855  0.42214268  1.0
  O  O32  1  0.63744145  0.36667592  0.92214268  1.0
  O  O33  1  0.36255855  0.36667592  0.42214268  1.0
  O  O34  1  0.63744145  0.63332408  0.42214268  1.0
  O  O35  1  0.36255855  0.63332408  0.92214268  1.0
  O  O36  1  0.63332408  0.36255855  0.57785732  1.0
  O  O37  1  0.36667592  0.36255855  0.07785732  1.0
  O  O38  1  0.63332408  0.63744145  0.07785732  1.0
  O  O39  1  0.36667592  0.63744145  0.57785732  1.0
  O  O40  1  0.86255855  0.13332408  0.07785732  1.0
  O  O41  1  0.13744145  0.13332408  0.57785732  1.0
  O  O42  1  0.86255855  0.86667592  0.57785732  1.0
  O  O43  1  0.13744145  0.86667592  0.07785732  1.0
  O  O44  1  0.60261851  0.18235483  0.24375145  1.0
  O  O45  1  0.39738149  0.18235483  0.74375145  1.0
  O  O46  1  0.60261851  0.81764517  0.74375145  1.0
  O  O47  1  0.39738149  0.81764517  0.24375145  1.0
  O  O48  1  0.68235483  0.10261851  0.74375145  1.0
  O  O49  1  0.31764517  0.10261851  0.24375145  1.0
  O  O50  1  0.68235483  0.89738149  0.24375145  1.0
  O  O51  1  0.31764517  0.89738149  0.74375145  1.0
  O  O52  1  0.89738149  0.31764517  0.75624855  1.0
  O  O53  1  0.10261851  0.31764517  0.25624855  1.0
  O  O54  1  0.89738149  0.68235483  0.25624855  1.0
  O  O55  1  0.10261851  0.68235483  0.75624855  1.0
  O  O56  1  0.81764517  0.39738149  0.25624855  1.0
  O  O57  1  0.18235483  0.39738149  0.75624855  1.0
  O  O58  1  0.81764517  0.60261851  0.75624855  1.0
  O  O59  1  0.18235483  0.60261851  0.25624855  1.0
  O  O60  1  0.50000000  0.00000000  1.00293400  1.0
  O  O61  1  0.50000000  0.00000000  0.50293400  1.0
  O  O62  1  0.00000000  0.50000000  -0.00293400  1.0
  O  O63  1  0.00000000  0.50000000  0.49706600  1.0
