# generated using pymatgen
data_Rb4V5CdClO15
_symmetry_space_group_name_H-M   'P 1'
_cell_length_a   9.19931407
_cell_length_b   9.19931407
_cell_length_c   5.80888894
_cell_angle_alpha   90.00000000
_cell_angle_beta   90.00000000
_cell_angle_gamma   90.00000000
_symmetry_Int_Tables_number   1
_chemical_formula_structural   Rb4V5CdClO15
_chemical_formula_sum   'Rb4 V5 Cd1 Cl1 O15'
_cell_volume   491.59104783
_cell_formula_units_Z   1
loop_
 _symmetry_equiv_pos_site_id
 _symmetry_equiv_pos_as_xyz
  1  'x, y, z'
loop_
 _atom_site_type_symbol
 _atom_site_label
 _atom_site_symmetry_multiplicity
 _atom_site_fract_x
 _atom_site_fract_y
 _atom_site_fract_z
 _atom_site_occupancy
  Rb  Rb0  1  0.66416668  0.82412565  0.44424202  1.0
  Rb  Rb1  1  0.82412565  0.33583332  0.44424202  1.0
  Rb  Rb2  1  0.33583332  0.17587435  0.44424202  1.0
  Rb  Rb3  1  0.17587435  0.66416668  0.44424202  1.0
  V  V4  1  0.88200717  0.64248553  0.96915164  1.0
  V  V5  1  0.64248553  0.11799283  0.96915164  1.0
  V  V6  1  0.11799283  0.35751447  0.96915164  1.0
  V  V7  1  0.35751447  0.88200717  0.96915164  1.0
  V  V8  1  0.00000000  0.00000000  -0.00636072  1.0
  Cd  Cd9  1  0.50000000  0.50000000  -0.00656504  1.0
  Cl  Cl10  1  0.50000000  0.50000000  0.55334047  1.0
  O  O11  1  0.94592616  0.80985065  0.07967400  1.0
  O  O12  1  0.80985065  0.05407384  0.07967400  1.0
  O  O13  1  0.05407384  0.19014935  0.07967400  1.0
  O  O14  1  0.19014935  0.94592616  0.07967400  1.0
  O  O15  1  0.88259616  0.64215705  0.68585845  1.0
  O  O16  1  0.64215705  0.11740384  0.68585845  1.0
  O  O17  1  0.11740384  0.35784295  0.68585845  1.0
  O  O18  1  0.35784295  0.88259616  0.68585845  1.0
  O  O19  1  0.71366396  0.61231216  0.07169766  1.0
  O  O20  1  0.61231216  0.28633604  0.07169766  1.0
  O  O21  1  0.28633604  0.38768784  0.07169766  1.0
  O  O22  1  0.38768784  0.71366396  0.07169766  1.0
  O  O23  1  -0.00000000  0.50000000  0.07724731  1.0
  O  O24  1  0.50000000  -0.00000000  0.07724731  1.0
  O  O25  1  0.00000000  0.00000000  0.71889566  1.0
