# generated using pymatgen
data_P
_symmetry_space_group_name_H-M   'P 1'
_cell_length_a   11.93356864
_cell_length_b   11.79871133
_cell_length_c   6.02637072
_cell_angle_alpha   100.14840648
_cell_angle_beta   97.75476131
_cell_angle_gamma   93.87153752
_symmetry_Int_Tables_number   1
_chemical_formula_structural   P
_chemical_formula_sum   P24
_cell_volume   823.97010890
_cell_formula_units_Z   24
loop_
 _symmetry_equiv_pos_site_id
 _symmetry_equiv_pos_as_xyz
  1  'x, y, z'
loop_
 _atom_site_type_symbol
 _atom_site_label
 _atom_site_symmetry_multiplicity
 _atom_site_fract_x
 _atom_site_fract_y
 _atom_site_fract_z
 _atom_site_occupancy
  P  P0  1  -0.69687434  -0.86390969  -0.99342884  1.0
  P  P1  1  -0.30312566  -0.13609031  -0.00657116  1.0
  P  P2  1  -0.36944869  -0.62874637  -0.94011869  1.0
  P  P3  1  -0.63055131  -0.37125363  -0.05988131  1.0
  P  P4  1  -0.81280882  -1.00022444  -0.91306565  1.0
  P  P5  1  -0.18719118  0.00022444  -0.08693435  1.0
  P  P6  1  -0.31328746  -0.95270879  -0.85780231  1.0
  P  P7  1  -0.68671254  -0.04729121  -0.14219769  1.0
  P  P8  1  -0.64002879  -0.48260375  -0.80290385  1.0
  P  P9  1  -0.35997121  -0.51739625  -0.19709615  1.0
  P  P10  1  -0.63019850  -0.98299235  -0.77376608  1.0
  P  P11  1  -0.36980150  -0.01700765  -0.22623392  1.0
  P  P12  1  -0.72463828  -0.32072943  -0.77164378  1.0
  P  P13  1  -0.27536172  -0.67927057  -0.22835622  1.0
  P  P14  1  -0.53727690  -0.31355648  -0.71113876  1.0
  P  P15  1  -0.46272310  -0.68644352  -0.28886124  1.0
  P  P16  1  -0.83162991  -0.69007218  -0.49434226  1.0
  P  P17  1  -0.16837009  -0.30992782  -0.50565774  1.0
  P  P18  1  -0.95870588  -0.81109091  -0.39992679  1.0
  P  P19  1  -0.04129412  -0.18890909  -0.60007321  1.0
  P  P20  1  -0.98577695  -0.31511079  -0.38684148  1.0
  P  P21  1  -0.01422305  -0.68488921  -0.61315852  1.0
  P  P22  1  -0.94494466  -0.62507293  -0.24888009  1.0
  P  P23  1  -0.05505534  -0.37492707  -0.75111991  1.0
