# generated using pymatgen
data_Ta4NiTe4
_symmetry_space_group_name_H-M   'P 1'
_cell_length_a   10.93503178
_cell_length_b   18.85157057
_cell_length_c   4.76876280
_cell_angle_alpha   90.00000000
_cell_angle_beta   90.00000000
_cell_angle_gamma   90.00000000
_symmetry_Int_Tables_number   1
_chemical_formula_structural   Ta4NiTe4
_chemical_formula_sum   'Ta16 Ni4 Te16'
_cell_volume   983.04479608
_cell_formula_units_Z   4
loop_
 _symmetry_equiv_pos_site_id
 _symmetry_equiv_pos_as_xyz
  1  'x, y, z'
loop_
 _atom_site_type_symbol
 _atom_site_label
 _atom_site_symmetry_multiplicity
 _atom_site_fract_x
 _atom_site_fract_y
 _atom_site_fract_z
 _atom_site_occupancy
  Ta  Ta0  1  0.56196074  0.38196352  0.50000000  1.0
  Ta  Ta1  1  0.43803926  0.61803648  0.50000000  1.0
  Ta  Ta2  1  0.06196074  0.11803648  0.50000000  1.0
  Ta  Ta3  1  0.93803926  0.88196352  0.50000000  1.0
  Ta  Ta4  1  0.70456565  0.53546221  0.50000000  1.0
  Ta  Ta5  1  0.29543435  0.46453779  0.50000000  1.0
  Ta  Ta6  1  0.20456565  0.96453779  0.50000000  1.0
  Ta  Ta7  1  0.79543435  0.03546221  0.50000000  1.0
  Ta  Ta8  1  0.68820818  0.44140417  0.00000000  1.0
  Ta  Ta9  1  0.31179182  0.55859583  0.00000000  1.0
  Ta  Ta10  1  0.18820818  0.05859583  0.00000000  1.0
  Ta  Ta11  1  0.81179182  0.94140417  0.00000000  1.0
  Ta  Ta12  1  0.39899802  0.39143945  0.00000000  1.0
  Ta  Ta13  1  0.60100198  0.60856055  0.00000000  1.0
  Ta  Ta14  1  0.89899802  0.10856055  0.00000000  1.0
  Ta  Ta15  1  0.10100198  0.89143945  0.00000000  1.0
  Ni  Ni16  1  0.50000000  0.50000000  0.24997223  1.0
  Ni  Ni17  1  0.00000000  0.00000000  0.75002777  1.0
  Ni  Ni18  1  0.50000000  0.50000000  0.75002777  1.0
  Ni  Ni19  1  0.00000000  0.00000000  0.24997223  1.0
  Te  Te20  1  0.85131774  0.56149226  0.00000000  1.0
  Te  Te21  1  0.14868226  0.43850774  0.00000000  1.0
  Te  Te22  1  0.35131774  0.93850774  0.00000000  1.0
  Te  Te23  1  0.64868226  0.06149226  0.00000000  1.0
  Te  Te24  1  0.32765301  0.31343203  0.50000000  1.0
  Te  Te25  1  0.67234699  0.68656797  0.50000000  1.0
  Te  Te26  1  0.82765301  0.18656797  0.50000000  1.0
  Te  Te27  1  0.17234699  0.81343203  0.50000000  1.0
  Te  Te28  1  0.82362813  0.39911620  0.50000000  1.0
  Te  Te29  1  0.17637187  0.60088380  0.50000000  1.0
  Te  Te30  1  0.32362813  0.10088380  0.50000000  1.0
  Te  Te31  1  0.67637187  0.89911620  0.50000000  1.0
  Te  Te32  1  0.60511184  0.29687818  0.00000000  1.0
  Te  Te33  1  0.39488816  0.70312182  0.00000000  1.0
  Te  Te34  1  0.10511184  0.20312182  0.00000000  1.0
  Te  Te35  1  0.89488816  0.79687818  0.00000000  1.0
