# generated using pymatgen
data_V5As3
_symmetry_space_group_name_H-M   'P 1'
_cell_length_a   7.12402372
_cell_length_b   7.12402372
_cell_length_c   7.12402372
_cell_angle_alpha   96.88767026
_cell_angle_beta   96.88767026
_cell_angle_gamma   139.47774079
_symmetry_Int_Tables_number   1
_chemical_formula_structural   V5As3
_chemical_formula_sum   'V10 As6'
_cell_volume   220.38307705
_cell_formula_units_Z   2
loop_
 _symmetry_equiv_pos_site_id
 _symmetry_equiv_pos_as_xyz
  1  'x, y, z'
loop_
 _atom_site_type_symbol
 _atom_site_label
 _atom_site_symmetry_multiplicity
 _atom_site_fract_x
 _atom_site_fract_y
 _atom_site_fract_z
 _atom_site_occupancy
  V  V0  1  0.27306526  0.42251624  0.69558150  1.0
  V  V1  1  1.22693474  0.92251624  1.14945098  1.0
  V  V2  1  0.92251624  0.77306526  1.69558150  1.0
  V  V3  1  0.57748376  1.27306526  0.85054902  1.0
  V  V4  1  0.77306526  1.07748376  0.85054902  1.0
  V  V5  1  0.72693474  0.57748376  1.30441850  1.0
  V  V6  1  1.42251624  0.72693474  1.14945098  1.0
  V  V7  1  0.07748376  0.22693474  0.30441850  1.0
  V  V8  1  0.75000000  1.25000000  0.50000000  1.0
  V  V9  1  0.25000000  0.75000000  0.50000000  1.0
  As  As10  1  0.83568935  0.33568935  1.17137870  1.0
  As  As11  1  0.66431065  0.83568935  0.50000000  1.0
  As  As12  1  1.33568935  1.16431065  1.50000000  1.0
  As  As13  1  0.16431065  0.66431065  0.82862130  1.0
  As  As14  1  0.25000000  0.25000000  -0.00000000  1.0
  As  As15  1  0.75000000  0.75000000  -0.00000000  1.0
