# generated using pymatgen
data_Ca4(PPd)5
_symmetry_space_group_name_H-M   'P 1'
_cell_length_a   15.76168797
_cell_length_b   15.76168797
_cell_length_c   8.23940243
_cell_angle_alpha   90.00000000
_cell_angle_beta   90.00000000
_cell_angle_gamma   165.01052863
_symmetry_Int_Tables_number   1
_chemical_formula_structural   Ca4(PPd)5
_chemical_formula_sum   'Ca8 P10 Pd10'
_cell_volume   529.41890952
_cell_formula_units_Z   2
loop_
 _symmetry_equiv_pos_site_id
 _symmetry_equiv_pos_as_xyz
  1  'x, y, z'
loop_
 _atom_site_type_symbol
 _atom_site_label
 _atom_site_symmetry_multiplicity
 _atom_site_fract_x
 _atom_site_fract_y
 _atom_site_fract_z
 _atom_site_occupancy
  Ca  Ca0  1  -0.80613600  0.80613600  0.49460165  1.0
  Ca  Ca1  1  -0.80613600  0.80613600  0.00539835  1.0
  Ca  Ca2  1  -0.19386400  1.19386400  0.99460165  1.0
  Ca  Ca3  1  -0.19386400  1.19386400  0.50539835  1.0
  Ca  Ca4  1  -0.57935478  0.57935478  0.50159752  1.0
  Ca  Ca5  1  -0.57935478  0.57935478  0.99840248  1.0
  Ca  Ca6  1  -0.42064522  1.42064522  0.00159752  1.0
  Ca  Ca7  1  -0.42064522  1.42064522  0.49840248  1.0
  P  P8  1  -0.95538474  0.95538474  0.25000000  1.0
  P  P9  1  -0.04461526  1.04461526  0.75000000  1.0
  P  P10  1  -0.72911592  0.72911592  0.25000000  1.0
  P  P11  1  -0.27088408  1.27088408  0.75000000  1.0
  P  P12  1  -0.65773084  0.65773084  0.25000000  1.0
  P  P13  1  -0.34226916  1.34226916  0.75000000  1.0
  P  P14  1  -0.34233009  1.34233009  0.25000000  1.0
  P  P15  1  -0.65766991  0.65766991  0.75000000  1.0
  P  P16  1  -0.04571149  1.04571149  0.25000000  1.0
  P  P17  1  -0.95428851  0.95428851  0.75000000  1.0
  Pd  Pd18  1  -0.88051040  0.88051040  0.25000000  1.0
  Pd  Pd19  1  -0.11948960  1.11948960  0.75000000  1.0
  Pd  Pd20  1  -0.50025644  0.50025644  0.25000000  1.0
  Pd  Pd21  1  -0.49974356  1.49974356  0.75000000  1.0
  Pd  Pd22  1  -0.26548611  1.26548611  0.25000000  1.0
  Pd  Pd23  1  -0.73451389  0.73451389  0.75000000  1.0
  Pd  Pd24  1  -0.12113784  1.12113784  0.25000000  1.0
  Pd  Pd25  1  -0.87886216  0.87886216  0.75000000  1.0
  Pd  Pd26  1  0.00000000  0.00000000  0.50000000  1.0
  Pd  Pd27  1  0.00000000  0.00000000  -0.00000000  1.0
