# generated using pymatgen
data_ZrF4
_symmetry_space_group_name_H-M   'P 1'
_cell_length_a   7.79497454
_cell_length_b   7.79497454
_cell_length_c   7.79250424
_cell_angle_alpha   63.38284220
_cell_angle_beta   116.61715780
_cell_angle_gamma   99.85080056
_symmetry_Int_Tables_number   1
_chemical_formula_structural   ZrF4
_chemical_formula_sum   'Zr6 F24'
_cell_volume   378.18308457
_cell_formula_units_Z   6
loop_
 _symmetry_equiv_pos_site_id
 _symmetry_equiv_pos_as_xyz
  1  'x, y, z'
loop_
 _atom_site_type_symbol
 _atom_site_label
 _atom_site_symmetry_multiplicity
 _atom_site_fract_x
 _atom_site_fract_y
 _atom_site_fract_z
 _atom_site_occupancy
  Zr  Zr0  1  0.63374055  0.22398730  0.33246079  1.0
  Zr  Zr1  1  0.77601270  0.36625945  0.83246079  1.0
  Zr  Zr2  1  1.22398730  -0.36625945  0.16753921  1.0
  Zr  Zr3  1  1.36625945  -0.22398730  0.66753921  1.0
  Zr  Zr4  1  0.78628423  0.78628423  0.25000000  1.0
  Zr  Zr5  1  0.21371577  0.21371577  0.75000000  1.0
  F  F6  1  1.50296942  -0.25947594  0.21603679  1.0
  F  F7  1  1.25947594  -0.50296942  0.71603679  1.0
  F  F8  1  0.74052406  0.50296942  0.28396321  1.0
  F  F9  1  0.49703058  0.25947594  0.78396321  1.0
  F  F10  1  0.82571570  0.06185293  0.04389101  1.0
  F  F11  1  0.93814707  0.17428430  0.54389101  1.0
  F  F12  1  1.06185293  -0.17428430  0.45610899  1.0
  F  F13  1  1.17428430  -0.06185293  0.95610899  1.0
  F  F14  1  1.72456254  -0.02937355  0.35053246  1.0
  F  F15  1  1.02937355  -0.72456254  0.85053246  1.0
  F  F16  1  0.97062645  0.72456254  0.14946754  1.0
  F  F17  1  0.27543746  0.02937355  0.64946754  1.0
  F  F18  1  1.31757736  -0.25874594  0.39356373  1.0
  F  F19  1  1.25874594  -0.31757736  0.89356373  1.0
  F  F20  1  0.74125406  0.31757736  0.10643627  1.0
  F  F21  1  0.68242264  0.25874595  0.60643627  1.0
  F  F22  1  0.40263395  0.18586784  0.07676601  1.0
  F  F23  1  0.81413216  0.59736605  0.57676601  1.0
  F  F24  1  1.18586784  -0.59736605  0.42323399  1.0
  F  F25  1  1.59736605  -0.18586784  0.92323399  1.0
  F  F26  1  0.39537822  0.39537822  0.25000000  1.0
  F  F27  1  0.60462178  0.60462178  0.75000000  1.0
  F  F28  1  1.50000000  -0.00000000  0.50000000  1.0
  F  F29  1  1.00000000  0.50000000  0.00000000  1.0
