# generated using pymatgen
data_H6C4XeN2O3
_symmetry_space_group_name_H-M   'P 1'
_cell_length_a   8.76629454
_cell_length_b   13.28676067
_cell_length_c   8.70842300
_cell_angle_alpha   90.00000000
_cell_angle_beta   115.35311769
_cell_angle_gamma   90.00000000
_symmetry_Int_Tables_number   1
_chemical_formula_structural   H6C4XeN2O3
_chemical_formula_sum   'H24 C16 Xe4 N8 O12'
_cell_volume   916.62611289
_cell_formula_units_Z   4
loop_
 _symmetry_equiv_pos_site_id
 _symmetry_equiv_pos_as_xyz
  1  'x, y, z'
loop_
 _atom_site_type_symbol
 _atom_site_label
 _atom_site_symmetry_multiplicity
 _atom_site_fract_x
 _atom_site_fract_y
 _atom_site_fract_z
 _atom_site_occupancy
  H  H0  1  0.35308418  0.56486118  0.06592992  1.0
  H  H1  1  0.64691582  0.06486118  0.43407008  1.0
  H  H2  1  0.64691582  0.43513882  0.93407008  1.0
  H  H3  1  0.35308418  0.93513882  0.56592992  1.0
  H  H4  1  0.17001726  0.63781325  0.03476619  1.0
  H  H5  1  0.82998274  0.13781325  0.46523381  1.0
  H  H6  1  0.82998274  0.36218675  0.96523381  1.0
  H  H7  1  0.17001726  0.86218675  0.53476619  1.0
  H  H8  1  0.35069814  0.63835981  0.23656941  1.0
  H  H9  1  0.64930186  0.13835981  0.26343059  1.0
  H  H10  1  0.64930186  0.36164019  0.76343059  1.0
  H  H11  1  0.35069814  0.86164019  0.73656941  1.0
  H  H12  1  0.84267322  0.35935228  0.30194302  1.0
  H  H13  1  0.15732678  0.85935228  0.19805698  1.0
  H  H14  1  0.15732678  0.64064772  0.69805698  1.0
  H  H15  1  0.84267322  0.14064772  0.80194302  1.0
  H  H16  1  0.75513468  0.48215234  0.29817270  1.0
  H  H17  1  0.24486532  0.98215234  0.20182730  1.0
  H  H18  1  0.24486532  0.51784766  0.70182730  1.0
  H  H19  1  0.75513468  0.01784766  0.79817270  1.0
  H  H20  1  0.90383230  0.42834021  0.49455307  1.0
  H  H21  1  0.09616770  0.92834021  0.00544693  1.0
  H  H22  1  0.09616770  0.57165979  0.50544693  1.0
  H  H23  1  0.90383230  0.07165979  0.99455307  1.0
  C  C24  1  0.20492568  0.50750086  0.17988802  1.0
  C  C25  1  0.79507432  0.00750086  0.32011198  1.0
  C  C26  1  0.79507432  0.49249914  0.82011198  1.0
  C  C27  1  0.20492568  0.99249914  0.67988802  1.0
  C  C28  1  0.66286476  0.36696443  0.40014466  1.0
  C  C29  1  0.33713524  0.86696443  0.09985534  1.0
  C  C30  1  0.33713524  0.63303557  0.59985534  1.0
  C  C31  1  0.66286476  0.13303557  0.90014466  1.0
  C  C32  1  0.27342653  0.59210745  0.12601889  1.0
  C  C33  1  0.72657347  0.09210745  0.37398111  1.0
  C  C34  1  0.72657347  0.40789255  0.87398111  1.0
  C  C35  1  0.27342653  0.90789255  0.62601889  1.0
  C  C36  1  0.79833447  0.41209900  0.37127800  1.0
  C  C37  1  0.20166553  0.91209900  0.12872200  1.0
  C  C38  1  0.20166553  0.58790100  0.62872200  1.0
  C  C39  1  0.79833447  0.08790100  0.87127800  1.0
  Xe  Xe40  1  0.23453688  0.24248744  0.36142070  1.0
  Xe  Xe41  1  0.76546312  0.74248744  0.13857930  1.0
  Xe  Xe42  1  0.76546312  0.75751256  0.63857930  1.0
  Xe  Xe43  1  0.23453688  0.25751256  0.86142070  1.0
  N  N44  1  0.15042889  0.43942819  0.22400672  1.0
  N  N45  1  0.84957111  0.93942819  0.27599328  1.0
  N  N46  1  0.84957111  0.56057181  0.77599328  1.0
  N  N47  1  0.15042889  0.06057181  0.72400672  1.0
  N  N48  1  0.55537099  0.33002453  0.42494224  1.0
  N  N49  1  0.44462901  0.83002453  0.07505776  1.0
  N  N50  1  0.44462901  0.66997547  0.57505776  1.0
  N  N51  1  0.55537099  0.16997547  0.92494224  1.0
  O  O52  1  0.33778090  0.11980228  0.42312486  1.0
  O  O53  1  0.66221910  0.61980228  0.07687514  1.0
  O  O54  1  0.66221910  0.88019772  0.57687514  1.0
  O  O55  1  0.33778090  0.38019772  0.92312486  1.0
  O  O56  1  0.25750346  0.29916251  0.56529037  1.0
  O  O57  1  0.74249654  0.79916251  0.93470963  1.0
  O  O58  1  0.74249654  0.70083749  0.43470963  1.0
  O  O59  1  0.25750346  0.20083749  0.06529037  1.0
  O  O60  1  0.00863858  0.21244540  0.25471173  1.0
  O  O61  1  0.99136142  0.71244540  0.24528827  1.0
  O  O62  1  0.99136142  0.78755460  0.74528827  1.0
  O  O63  1  0.00863858  0.28755460  0.75471173  1.0
