# generated using pymatgen
data_Hf6Ga16Rh7
_symmetry_space_group_name_H-M   'P 1'
_cell_length_a   8.73583179
_cell_length_b   8.73583179
_cell_length_c   8.73583179
_cell_angle_alpha   60.00000000
_cell_angle_beta   60.00000000
_cell_angle_gamma   60.00000000
_symmetry_Int_Tables_number   1
_chemical_formula_structural   Hf6Ga16Rh7
_chemical_formula_sum   'Hf6 Ga16 Rh7'
_cell_volume   471.40891537
_cell_formula_units_Z   1
loop_
 _symmetry_equiv_pos_site_id
 _symmetry_equiv_pos_as_xyz
  1  'x, y, z'
loop_
 _atom_site_type_symbol
 _atom_site_label
 _atom_site_symmetry_multiplicity
 _atom_site_fract_x
 _atom_site_fract_y
 _atom_site_fract_z
 _atom_site_occupancy
  Hf  Hf0  1  -0.69004625  0.69004625  0.69004625  1.0
  Hf  Hf1  1  -0.30995375  0.30995375  0.69004625  1.0
  Hf  Hf2  1  0.69004625  0.69004625  -0.69004625  1.0
  Hf  Hf3  1  0.30995375  1.30995375  -0.30995375  1.0
  Hf  Hf4  1  0.30995375  -0.30995375  1.30995375  1.0
  Hf  Hf5  1  -0.30995375  0.30995375  0.30995375  1.0
  Ga  Ga6  1  0.87803533  0.87803533  -0.12196467  1.0
  Ga  Ga7  1  1.12196467  0.12196467  0.63410599  1.0
  Ga  Ga8  1  1.12196467  0.63410599  0.12196467  1.0
  Ga  Ga9  1  0.36589401  0.87803533  -0.12196467  1.0
  Ga  Ga10  1  1.63410599  0.12196467  0.12196467  1.0
  Ga  Ga11  1  0.87803533  0.36589401  -0.12196467  1.0
  Ga  Ga12  1  0.87803533  0.87803533  -0.63410599  1.0
  Ga  Ga13  1  1.12196467  0.12196467  0.12196467  1.0
  Ga  Ga14  1  0.65643167  0.65643167  -0.34356833  1.0
  Ga  Ga15  1  1.34356833  0.34356833  -0.03070500  1.0
  Ga  Ga16  1  1.34356833  -0.03070500  0.34356833  1.0
  Ga  Ga17  1  1.03070500  0.65643167  -0.34356833  1.0
  Ga  Ga18  1  0.96929500  0.34356833  0.34356833  1.0
  Ga  Ga19  1  0.65643167  1.03070500  -0.34356833  1.0
  Ga  Ga20  1  0.65643167  0.65643167  0.03070500  1.0
  Ga  Ga21  1  1.34356833  0.34356833  0.34356833  1.0
  Rh  Rh22  1  0.00000000  0.00000000  0.00000000  1.0
  Rh  Rh23  1  1.50000000  0.00000000  -0.00000000  1.0
  Rh  Rh24  1  1.00000000  0.50000000  -0.50000000  1.0
  Rh  Rh25  1  0.00000000  1.50000000  -0.00000000  1.0
  Rh  Rh26  1  0.50000000  1.00000000  -0.50000000  1.0
  Rh  Rh27  1  0.00000000  0.00000000  0.50000000  1.0
  Rh  Rh28  1  0.50000000  -0.50000000  1.00000000  1.0
