# generated using pymatgen
data_Ba9Nb2CN10O
_symmetry_space_group_name_H-M   'P 1'
_cell_length_a   9.73147249
_cell_length_b   8.07869143
_cell_length_c   12.71435043
_cell_angle_alpha   85.76573087
_cell_angle_beta   76.07557972
_cell_angle_gamma   87.82899432
_symmetry_Int_Tables_number   1
_chemical_formula_structural   Ba9Nb2CN10O
_chemical_formula_sum   'Ba18 Nb4 C2 N20 O2'
_cell_volume   967.34077192
_cell_formula_units_Z   2
loop_
 _symmetry_equiv_pos_site_id
 _symmetry_equiv_pos_as_xyz
  1  'x, y, z'
loop_
 _atom_site_type_symbol
 _atom_site_label
 _atom_site_symmetry_multiplicity
 _atom_site_fract_x
 _atom_site_fract_y
 _atom_site_fract_z
 _atom_site_occupancy
  Ba  Ba0  1  -0.61698360  -0.98721241  -0.60767215  1.0
  Ba  Ba1  1  -0.38301640  -0.01278759  -0.39232785  1.0
  Ba  Ba2  1  -0.93124131  -0.98470386  -0.77596144  1.0
  Ba  Ba3  1  -0.06875869  -0.01529614  -0.22403856  1.0
  Ba  Ba4  1  -0.75852287  -0.96562904  -0.11830289  1.0
  Ba  Ba5  1  -0.24147713  -0.03437096  -0.88169711  1.0
  Ba  Ba6  1  -0.98184579  -0.74384272  -0.49609994  1.0
  Ba  Ba7  1  -0.01815421  -0.25615728  -0.50390006  1.0
  Ba  Ba8  1  -0.29122173  -0.73500726  -0.65776617  1.0
  Ba  Ba9  1  -0.70877827  -0.26499274  -0.34223383  1.0
  Ba  Ba10  1  -0.32465074  -0.50050870  -0.91801303  1.0
  Ba  Ba11  1  -0.67534926  -0.49949130  -0.08198697  1.0
  Ba  Ba12  1  -0.62275228  -0.46832819  -0.62694522  1.0
  Ba  Ba13  1  -0.37724772  -0.53167181  -0.37305478  1.0
  Ba  Ba14  1  -0.93117409  -0.46376143  -0.77503443  1.0
  Ba  Ba15  1  -0.06882591  -0.53623857  -0.22496557  1.0
  Ba  Ba16  1  -0.58233579  -0.17431164  -0.88224063  1.0
  Ba  Ba17  1  -0.41766421  -0.82568836  -0.11775937  1.0
  Nb  Nb18  1  -0.70017012  -0.73181226  -0.37860605  1.0
  Nb  Nb19  1  -0.29982988  -0.26818774  -0.62139395  1.0
  Nb  Nb20  1  -0.63638975  -0.73044646  -0.83667420  1.0
  Nb  Nb21  1  -0.36361025  -0.26955354  -0.16332580  1.0
  C  C22  1  -0.06035577  -0.73996936  -0.96602996  1.0
  C  C23  1  -0.93964423  -0.26003064  -0.03397004  1.0
  N  N24  1  -0.80502382  -0.93825479  -0.37730451  1.0
  N  N25  1  -0.19497618  -0.06174521  -0.62269549  1.0
  N  N26  1  -0.67295278  -0.85863091  -0.95255379  1.0
  N  N27  1  -0.32704722  -0.14136909  -0.04744621  1.0
  N  N28  1  -0.45532080  -0.80114313  -0.80035995  1.0
  N  N29  1  -0.54467920  -0.19885687  -0.19964005  1.0
  N  N30  1  -0.79466561  -0.75850975  -0.70590508  1.0
  N  N31  1  -0.20533439  -0.24149025  -0.29409492  1.0
  N  N32  1  -0.53125226  -0.73761871  -0.49834276  1.0
  N  N33  1  -0.46874774  -0.26238129  -0.50165724  1.0
  N  N34  1  -0.62793970  -0.71226713  -0.24713023  1.0
  N  N35  1  -0.37206030  -0.28773287  -0.75286977  1.0
  N  N36  1  -0.07924927  -0.69952458  -0.87110393  1.0
  N  N37  1  -0.92075073  -0.30047542  -0.12889607  1.0
  N  N38  1  -0.82784669  -0.54362362  -0.41336333  1.0
  N  N39  1  -0.17215331  -0.45637638  -0.58663667  1.0
  N  N40  1  -0.63505213  -0.49520499  -0.87965230  1.0
  N  N41  1  -0.36494787  -0.50479501  -0.12034770  1.0
  N  N42  1  -0.94921107  -0.21325942  -0.94160678  1.0
  N  N43  1  -0.05078893  -0.78674058  -0.05839322  1.0
  O  O44  1  -0.80278059  -0.21830813  -0.67791866  1.0
  O  O45  1  -0.19721941  -0.78169187  -0.32208134  1.0
