# generated using pymatgen
data_K2Ti(CuS2)2
_symmetry_space_group_name_H-M   'P 1'
_cell_length_a   5.58179299
_cell_length_b   5.58179299
_cell_length_c   12.99210312
_cell_angle_alpha   90.00000000
_cell_angle_beta   90.00000000
_cell_angle_gamma   90.00000000
_symmetry_Int_Tables_number   1
_chemical_formula_structural   K2Ti(CuS2)2
_chemical_formula_sum   'K4 Ti2 Cu4 S8'
_cell_volume   404.78733051
_cell_formula_units_Z   2
loop_
 _symmetry_equiv_pos_site_id
 _symmetry_equiv_pos_as_xyz
  1  'x, y, z'
loop_
 _atom_site_type_symbol
 _atom_site_label
 _atom_site_symmetry_multiplicity
 _atom_site_fract_x
 _atom_site_fract_y
 _atom_site_fract_z
 _atom_site_occupancy
  K  K0  1  0.74256098  0.74256098  0.00000000  1.0
  K  K1  1  0.74256098  0.25743902  0.50000000  1.0
  K  K2  1  0.25743902  0.74256098  0.50000000  1.0
  K  K3  1  0.25743902  0.25743902  0.00000000  1.0
  Ti  Ti4  1  0.00000000  0.00000000  0.75000000  1.0
  Ti  Ti5  1  0.00000000  0.00000000  0.25000000  1.0
  Cu  Cu6  1  0.00000000  0.50000000  0.75000000  1.0
  Cu  Cu7  1  0.00000000  0.50000000  0.25000000  1.0
  Cu  Cu8  1  0.50000000  0.00000000  0.75000000  1.0
  Cu  Cu9  1  0.50000000  0.00000000  0.25000000  1.0
  S  S10  1  0.76124945  0.76124945  0.65047285  1.0
  S  S11  1  0.76124945  0.76124945  0.34952715  1.0
  S  S12  1  0.76124945  0.23875055  0.15047285  1.0
  S  S13  1  0.76124945  0.23875055  0.84952715  1.0
  S  S14  1  0.23875055  0.76124945  0.15047285  1.0
  S  S15  1  0.23875055  0.76124945  0.84952715  1.0
  S  S16  1  0.23875055  0.23875055  0.65047285  1.0
  S  S17  1  0.23875055  0.23875055  0.34952715  1.0
