# generated using pymatgen
data_MoPRh
_symmetry_space_group_name_H-M   'P 1'
_cell_length_a   5.95383428
_cell_length_b   3.93982012
_cell_length_c   7.03222029
_cell_angle_alpha   90.00000000
_cell_angle_beta   90.00000000
_cell_angle_gamma   90.00000000
_symmetry_Int_Tables_number   1
_chemical_formula_structural   MoPRh
_chemical_formula_sum   'Mo4 P4 Rh4'
_cell_volume   164.95504524
_cell_formula_units_Z   4
loop_
 _symmetry_equiv_pos_site_id
 _symmetry_equiv_pos_as_xyz
  1  'x, y, z'
loop_
 _atom_site_type_symbol
 _atom_site_label
 _atom_site_symmetry_multiplicity
 _atom_site_fract_x
 _atom_site_fract_y
 _atom_site_fract_z
 _atom_site_occupancy
  Mo  Mo0  1  0.96809314  0.75000000  0.66509882  1.0
  Mo  Mo1  1  0.46809314  0.75000000  0.83490118  1.0
  Mo  Mo2  1  0.03190686  0.25000000  0.33490118  1.0
  Mo  Mo3  1  0.53190686  0.25000000  0.16509882  1.0
  P  P4  1  0.75249472  0.75000000  0.38563819  1.0
  P  P5  1  0.25249472  0.75000000  0.11436181  1.0
  P  P6  1  0.24750528  0.25000000  0.61436181  1.0
  P  P7  1  0.74750528  0.25000000  0.88563819  1.0
  Rh  Rh8  1  0.86237348  0.75000000  0.07299460  1.0
  Rh  Rh9  1  0.36237348  0.75000000  0.42700540  1.0
  Rh  Rh10  1  0.13762652  0.25000000  0.92700540  1.0
  Rh  Rh11  1  0.63762652  0.25000000  0.57299460  1.0
