# generated using pymatgen
data_Sn5C8Se10N2O
_symmetry_space_group_name_H-M   'P 1'
_cell_length_a   10.19835945
_cell_length_b   10.19835945
_cell_length_c   10.19835945
_cell_angle_alpha   126.60155911
_cell_angle_beta   126.60155911
_cell_angle_gamma   78.90166552
_symmetry_Int_Tables_number   1
_chemical_formula_structural   Sn5C8Se10N2O
_chemical_formula_sum   'Sn5 C8 Se10 N2 O1'
_cell_volume   661.37839644
_cell_formula_units_Z   1
loop_
 _symmetry_equiv_pos_site_id
 _symmetry_equiv_pos_as_xyz
  1  'x, y, z'
loop_
 _atom_site_type_symbol
 _atom_site_label
 _atom_site_symmetry_multiplicity
 _atom_site_fract_x
 _atom_site_fract_y
 _atom_site_fract_z
 _atom_site_occupancy
  Sn  Sn0  1  0.25000000  0.75000000  0.50000000  1.0
  Sn  Sn1  1  1.09255252  0.86042806  1.14131097  1.0
  Sn  Sn2  1  0.71911709  0.95124155  0.85868903  1.0
  Sn  Sn3  1  1.04875845  0.90744748  1.76787554  1.0
  Sn  Sn4  1  0.13957194  0.28088291  0.23212446  1.0
  C  C5  1  1.39320067  1.34515808  1.90620879  1.0
  C  C6  1  0.43894929  0.48699188  0.09379121  1.0
  C  C7  1  0.51300812  0.60679933  0.95195741  1.0
  C  C8  1  0.65484192  0.56105071  1.04804259  1.0
  C  C9  1  0.61568190  1.21931836  1.50402448  1.0
  C  C10  1  0.71529388  0.11165741  0.49597552  1.0
  C  C11  1  0.88834259  0.38431810  0.60363646  1.0
  C  C12  1  0.78068164  1.28470612  1.39636354  1.0
  Se  Se13  1  1.47452917  0.62841324  1.34372137  1.0
  Se  Se14  1  0.28469188  1.13080780  0.65627863  1.0
  Se  Se15  1  0.86919220  0.52547083  1.15388408  1.0
  Se  Se16  1  0.37158676  0.71530812  0.84611592  1.0
  Se  Se17  1  0.46412791  0.31732095  0.55034034  1.0
  Se  Se18  1  0.76698060  0.91378756  1.44965966  1.0
  Se  Se19  1  1.08621244  0.53587209  0.85319304  1.0
  Se  Se20  1  0.68267905  1.23301940  1.14680696  1.0
  Se  Se21  1  0.78614044  0.78614044  1.00000000  1.0
  Se  Se22  1  0.21385956  0.21385956  -0.00000000  1.0
  N  N23  1  0.50000000  0.50000000  1.00000000  1.0
  N  N24  1  0.75000000  0.25000000  0.50000000  1.0
  O  O25  1  -0.00000000  -0.00000000  0.00000000  1.0
