# generated using pymatgen
data_BaMn2P2O9
_symmetry_space_group_name_H-M   'P 1'
_cell_length_a   5.11229714
_cell_length_b   5.11229714
_cell_length_c   8.70548366
_cell_angle_alpha   86.11058257
_cell_angle_beta   93.88941743
_cell_angle_gamma   121.10342173
_symmetry_Int_Tables_number   1
_chemical_formula_structural   BaMn2P2O9
_chemical_formula_sum   'Ba1 Mn2 P2 O9'
_cell_volume   194.22140836
_cell_formula_units_Z   1
loop_
 _symmetry_equiv_pos_site_id
 _symmetry_equiv_pos_as_xyz
  1  'x, y, z'
loop_
 _atom_site_type_symbol
 _atom_site_label
 _atom_site_symmetry_multiplicity
 _atom_site_fract_x
 _atom_site_fract_y
 _atom_site_fract_z
 _atom_site_occupancy
  Ba  Ba0  1  0.17533558  0.17533558  0.50000000  1.0
  P  P1  1  0.80655805  0.48058770  0.75601121  1.0
  P  P2  1  0.48058770  -0.19344195  0.24398879  1.0
  O  O3  1  1.26716282  0.74972535  0.37309869  1.0
  O  O4  1  0.74972535  0.26716282  0.62690131  1.0
  O  O5  1  1.14220163  0.75650130  0.76308191  1.0
  O  O6  1  0.75650130  0.14220163  0.23691809  1.0
  O  O7  1  0.72606967  0.28610407  0.91432031  1.0
  O  O8  1  1.28610407  0.72606967  0.08567969  1.0
  O  O9  1  0.58097159  0.60457198  0.72300014  1.0
  O  O10  1  0.60457198  -0.41902841  0.27699986  1.0
  O  O11  1  -0.18822499  -0.18822499  0.00000000  1.0
  Mn  Mn12  1  0.49356785  -0.20913260  0.88778825  1.0
  Mn  Mn13  1  0.79086740  0.49356785  0.11221175  1.0
