# generated using pymatgen
data_K3Cr(HO)6
_symmetry_space_group_name_H-M   'P 1'
_cell_length_a   7.29385768
_cell_length_b   7.29385768
_cell_length_c   7.29385768
_cell_angle_alpha   95.81559301
_cell_angle_beta   95.81559301
_cell_angle_gamma   95.81559301
_symmetry_Int_Tables_number   1
_chemical_formula_structural   K3Cr(HO)6
_chemical_formula_sum   'K6 Cr2 H12 O12'
_cell_volume   381.60279221
_cell_formula_units_Z   2
loop_
 _symmetry_equiv_pos_site_id
 _symmetry_equiv_pos_as_xyz
  1  'x, y, z'
loop_
 _atom_site_type_symbol
 _atom_site_label
 _atom_site_symmetry_multiplicity
 _atom_site_fract_x
 _atom_site_fract_y
 _atom_site_fract_z
 _atom_site_occupancy
  K  K0  1  0.87110822  1.25000000  -0.37110822  1.0
  K  K1  1  1.37110822  0.12889178  -0.25000000  1.0
  K  K2  1  0.75000000  0.37110822  0.12889178  1.0
  K  K3  1  1.25000000  0.62889178  -0.12889178  1.0
  K  K4  1  1.12889178  -0.25000000  0.37110822  1.0
  K  K5  1  0.62889178  0.87110822  0.25000000  1.0
  Cr  Cr6  1  0.50000000  0.50000000  0.50000000  1.0
  Cr  Cr7  1  0.00000000  0.00000000  0.00000000  1.0
  H  H8  1  1.17210946  0.38125414  -0.58243752  1.0
  H  H9  1  1.67210946  0.91756248  -0.11874586  1.0
  H  H10  1  1.08243752  0.11874586  -0.67210946  1.0
  H  H11  1  1.58243752  -0.17210946  0.61874586  1.0
  H  H12  1  1.61874586  0.58243752  -0.17210946  1.0
  H  H13  1  1.11874586  -0.67210946  0.08243752  1.0
  H  H14  1  0.82789054  0.61874586  0.58243752  1.0
  H  H15  1  0.32789054  0.08243752  0.11874586  1.0
  H  H16  1  0.41756248  1.17210946  -0.61874586  1.0
  H  H17  1  0.91756248  0.88125414  0.67210946  1.0
  H  H18  1  0.88125414  1.67210946  -0.08243752  1.0
  H  H19  1  0.38125414  0.41756248  0.17210946  1.0
  O  O20  1  1.23858608  0.40293877  -0.45839621  1.0
  O  O21  1  0.73858608  1.04160379  -0.09706123  1.0
  O  O22  1  0.95839621  0.09706123  0.26141392  1.0
  O  O23  1  1.45839621  -0.23858608  0.59706123  1.0
  O  O24  1  1.59706123  0.45839621  -0.23858608  1.0
  O  O25  1  1.09706123  0.26141392  -0.04160379  1.0
  O  O26  1  0.76141392  0.59706123  0.45839621  1.0
  O  O27  1  1.26141392  -0.04160379  0.09706123  1.0
  O  O28  1  0.54160379  1.23858608  -0.59706123  1.0
  O  O29  1  1.04160379  0.90293877  -0.26141392  1.0
  O  O30  1  0.90293877  0.73858608  0.04160379  1.0
  O  O31  1  0.40293877  0.54160379  0.23858608  1.0
