# generated using pymatgen
data_Tl2Cu2S3
_symmetry_space_group_name_H-M   'P 1'
_cell_length_a   12.97948449
_cell_length_b   4.00740264
_cell_length_c   12.58884620
_cell_angle_alpha   90.00000000
_cell_angle_beta   90.00000000
_cell_angle_gamma   90.00000000
_symmetry_Int_Tables_number   1
_chemical_formula_structural   Tl2Cu2S3
_chemical_formula_sum   'Tl8 Cu8 S12'
_cell_volume   654.79650338
_cell_formula_units_Z   4
loop_
 _symmetry_equiv_pos_site_id
 _symmetry_equiv_pos_as_xyz
  1  'x, y, z'
loop_
 _atom_site_type_symbol
 _atom_site_label
 _atom_site_symmetry_multiplicity
 _atom_site_fract_x
 _atom_site_fract_y
 _atom_site_fract_z
 _atom_site_occupancy
  Tl  Tl0  1  0.19324791  0.75000000  0.42708378  1.0
  Tl  Tl1  1  0.69324791  0.75000000  0.07291622  1.0
  Tl  Tl2  1  0.80675209  0.25000000  0.57291622  1.0
  Tl  Tl3  1  0.30675209  0.25000000  0.92708378  1.0
  Tl  Tl4  1  0.05645012  0.75000000  0.74060008  1.0
  Tl  Tl5  1  0.55645012  0.75000000  0.75939992  1.0
  Tl  Tl6  1  0.94354988  0.25000000  0.25939992  1.0
  Tl  Tl7  1  0.44354988  0.25000000  0.24060008  1.0
  Cu  Cu8  1  0.42918987  0.75000000  0.52166414  1.0
  Cu  Cu9  1  0.92918987  0.75000000  0.97833586  1.0
  Cu  Cu10  1  0.57081013  0.25000000  0.47833586  1.0
  Cu  Cu11  1  0.07081013  0.25000000  0.02166414  1.0
  Cu  Cu12  1  0.21337772  0.75000000  0.17360404  1.0
  Cu  Cu13  1  0.71337772  0.75000000  0.32639596  1.0
  Cu  Cu14  1  0.78662228  0.25000000  0.82639596  1.0
  Cu  Cu15  1  0.28662228  0.25000000  0.67360404  1.0
  S  S16  1  0.37928245  0.75000000  0.12238377  1.0
  S  S17  1  0.87928245  0.75000000  0.37761623  1.0
  S  S18  1  0.62071755  0.25000000  0.87761623  1.0
  S  S19  1  0.12071755  0.25000000  0.62238377  1.0
  S  S20  1  0.36225755  0.75000000  0.69725051  1.0
  S  S21  1  0.86225755  0.75000000  0.80274949  1.0
  S  S22  1  0.63774245  0.25000000  0.30274949  1.0
  S  S23  1  0.13774245  0.25000000  0.19725051  1.0
  S  S24  1  0.11806517  0.75000000  0.93870515  1.0
  S  S25  1  0.61806517  0.75000000  0.56129485  1.0
  S  S26  1  0.88193483  0.25000000  0.06129485  1.0
  S  S27  1  0.38193483  0.25000000  0.43870515  1.0
