# generated using pymatgen
data_Rb2YCl5
_symmetry_space_group_name_H-M   'P 1'
_cell_length_a   9.74044067
_cell_length_b   7.43843398
_cell_length_c   14.94455401
_cell_angle_alpha   90.00000000
_cell_angle_beta   90.00000000
_cell_angle_gamma   90.00000000
_symmetry_Int_Tables_number   1
_chemical_formula_structural   Rb2YCl5
_chemical_formula_sum   'Rb8 Y4 Cl20'
_cell_volume   1082.78711077
_cell_formula_units_Z   4
loop_
 _symmetry_equiv_pos_site_id
 _symmetry_equiv_pos_as_xyz
  1  'x, y, z'
loop_
 _atom_site_type_symbol
 _atom_site_label
 _atom_site_symmetry_multiplicity
 _atom_site_fract_x
 _atom_site_fract_y
 _atom_site_fract_z
 _atom_site_occupancy
  Rb  Rb0  1  0.84256324  0.75000000  0.41706737  1.0
  Rb  Rb1  1  0.34256324  0.75000000  0.08293263  1.0
  Rb  Rb2  1  0.15743676  0.25000000  0.58293263  1.0
  Rb  Rb3  1  0.65743676  0.25000000  0.91706737  1.0
  Rb  Rb4  1  0.52352989  0.75000000  0.71447099  1.0
  Rb  Rb5  1  0.02352989  0.75000000  0.78552901  1.0
  Rb  Rb6  1  0.47647011  0.25000000  0.28552901  1.0
  Rb  Rb7  1  0.97647011  0.25000000  0.21447099  1.0
  Y  Y8  1  0.81505548  0.75000000  0.06073908  1.0
  Y  Y9  1  0.31505548  0.75000000  0.43926092  1.0
  Y  Y10  1  0.18494452  0.25000000  0.93926092  1.0
  Y  Y11  1  0.68494452  0.25000000  0.56073908  1.0
  Cl  Cl12  1  0.72393668  0.75000000  0.89294126  1.0
  Cl  Cl13  1  0.22393668  0.75000000  0.60705874  1.0
  Cl  Cl14  1  0.27606332  0.25000000  0.10705874  1.0
  Cl  Cl15  1  0.77606332  0.25000000  0.39294126  1.0
  Cl  Cl16  1  0.65315759  0.49405678  0.10883272  1.0
  Cl  Cl17  1  0.65315759  0.00594322  0.10883272  1.0
  Cl  Cl18  1  0.15315759  0.49405678  0.39116728  1.0
  Cl  Cl19  1  0.15315759  0.00594322  0.39116728  1.0
  Cl  Cl20  1  0.34684241  0.99405678  0.89116728  1.0
  Cl  Cl21  1  0.34684241  0.50594322  0.89116728  1.0
  Cl  Cl22  1  0.84684241  0.99405678  0.60883272  1.0
  Cl  Cl23  1  0.84684241  0.50594322  0.60883272  1.0
  Cl  Cl24  1  0.95770555  0.75000000  0.20743828  1.0
  Cl  Cl25  1  0.45770555  0.75000000  0.29256172  1.0
  Cl  Cl26  1  0.04229445  0.25000000  0.79256172  1.0
  Cl  Cl27  1  0.54229445  0.25000000  0.70743828  1.0
  Cl  Cl28  1  0.00000000  0.00000000  0.00000000  1.0
  Cl  Cl29  1  0.00000000  0.50000000  0.00000000  1.0
  Cl  Cl30  1  0.50000000  0.00000000  0.50000000  1.0
  Cl  Cl31  1  0.50000000  0.50000000  0.50000000  1.0
