# generated using pymatgen
data_Nb2Bi2PbO9
_symmetry_space_group_name_H-M   'P 1'
_cell_length_a   12.99556538
_cell_length_b   12.99556538
_cell_length_c   5.71023523
_cell_angle_alpha   90.00000000
_cell_angle_beta   90.00000000
_cell_angle_gamma   25.11566876
_symmetry_Int_Tables_number   1
_chemical_formula_structural   Nb2Bi2PbO9
_chemical_formula_sum   'Nb4 Bi4 Pb2 O18'
_cell_volume   409.32463143
_cell_formula_units_Z   2
loop_
 _symmetry_equiv_pos_site_id
 _symmetry_equiv_pos_as_xyz
  1  'x, y, z'
loop_
 _atom_site_type_symbol
 _atom_site_label
 _atom_site_symmetry_multiplicity
 _atom_site_fract_x
 _atom_site_fract_y
 _atom_site_fract_z
 _atom_site_occupancy
  Nb  Nb0  1  0.66535965  1.16728339  0.96003183  1.0
  Nb  Nb1  1  0.16728339  1.66535965  0.46003183  1.0
  Nb  Nb2  1  -0.16728339  1.33464035  0.96003183  1.0
  Nb  Nb3  1  0.33464035  0.83271661  0.46003183  1.0
  Bi  Bi4  1  0.41769507  0.98310913  0.86698926  1.0
  Bi  Bi5  1  -0.01689087  1.41769507  0.36698926  1.0
  Bi  Bi6  1  0.01689087  1.58230493  0.86698926  1.0
  Bi  Bi7  1  0.58230493  1.01689087  0.36698926  1.0
  Pb  Pb8  1  -0.25269740  0.25269740  0.44207588  1.0
  Pb  Pb9  1  -0.74730260  0.74730260  0.94207588  1.0
  O  O10  1  0.91542932  0.94578623  0.73159280  1.0
  O  O11  1  -0.05421377  1.91542932  0.23159280  1.0
  O  O12  1  0.05421377  1.08457068  0.73159280  1.0
  O  O13  1  0.08457068  1.05421377  0.23159280  1.0
  O  O14  1  0.66146070  1.02683430  1.00158427  1.0
  O  O15  1  0.02683430  1.66146070  0.50158427  1.0
  O  O16  1  -0.02683430  1.33853930  1.00158427  1.0
  O  O17  1  0.33853930  0.97316570  0.50158427  1.0
  O  O18  1  0.72909237  0.76948543  0.66616664  1.0
  O  O19  1  -0.23051457  1.72909237  0.16616664  1.0
  O  O20  1  0.23051457  1.27090763  0.66616664  1.0
  O  O21  1  0.27090763  1.23051457  0.16616664  1.0
  O  O22  1  0.56663338  0.60556409  0.76111811  1.0
  O  O23  1  -0.39443591  1.56663338  0.26111811  1.0
  O  O24  1  0.39443591  1.43336662  0.76111811  1.0
  O  O25  1  0.43336662  1.39443591  0.26111811  1.0
  O  O26  1  -0.29408611  0.29408611  0.00915829  1.0
  O  O27  1  -0.70591389  0.70591389  0.50915829  1.0
