# generated using pymatgen
data_KY(MoO4)2
_symmetry_space_group_name_H-M   'P 1'
_cell_length_a   7.43100200
_cell_length_b   7.43100200
_cell_length_c   7.94824179
_cell_angle_alpha   61.18080624
_cell_angle_beta   118.81919376
_cell_angle_gamma   92.78155554
_symmetry_Int_Tables_number   1
_chemical_formula_structural   KY(MoO4)2
_chemical_formula_sum   'K2 Y2 Mo4 O16'
_cell_volume   327.10848896
_cell_formula_units_Z   2
loop_
 _symmetry_equiv_pos_site_id
 _symmetry_equiv_pos_as_xyz
  1  'x, y, z'
loop_
 _atom_site_type_symbol
 _atom_site_label
 _atom_site_symmetry_multiplicity
 _atom_site_fract_x
 _atom_site_fract_y
 _atom_site_fract_z
 _atom_site_occupancy
  K  K0  1  0.19122771  0.19122771  0.25000000  1.0
  K  K1  1  0.80877229  0.80877229  0.75000000  1.0
  Y  Y2  1  0.77036175  0.77036175  0.25000000  1.0
  Y  Y3  1  0.22963825  0.22963825  0.75000000  1.0
  Mo  Mo4  1  0.68972170  0.30019068  0.24203206  1.0
  Mo  Mo5  1  0.69980932  0.31027830  0.74203206  1.0
  Mo  Mo6  1  1.30019068  -0.31027830  0.25796794  1.0
  Mo  Mo7  1  1.31027830  -0.30019068  0.75796794  1.0
  O  O8  1  1.58200353  -0.36793846  0.03263454  1.0
  O  O9  1  1.36793846  -0.58200353  0.53263454  1.0
  O  O10  1  0.63206154  0.58200353  0.46736546  1.0
  O  O11  1  0.41799647  0.36793846  0.96736546  1.0
  O  O12  1  0.79738294  0.05315568  0.30063016  1.0
  O  O13  1  0.94684432  0.20261706  0.80063016  1.0
  O  O14  1  1.05315568  -0.20261706  0.19936984  1.0
  O  O15  1  1.20261706  -0.05315568  0.69936984  1.0
  O  O16  1  1.38502251  -0.07476602  0.12119075  1.0
  O  O17  1  1.07476602  -0.38502251  0.62119075  1.0
  O  O18  1  0.92523398  0.38502251  0.37880925  1.0
  O  O19  1  0.61497749  0.07476602  0.87880925  1.0
  O  O20  1  0.60111042  0.22003170  0.42943588  1.0
  O  O21  1  0.77996830  0.39888958  0.92943588  1.0
  O  O22  1  1.22003170  -0.39888958  0.07056412  1.0
  O  O23  1  1.39888958  -0.22003170  0.57056412  1.0
