# generated using pymatgen
data_Na3MnPCO7
_symmetry_space_group_name_H-M   'P 1'
_cell_length_a   5.22877677
_cell_length_b   6.81599541
_cell_length_c   9.05872043
_cell_angle_alpha   90.00000000
_cell_angle_beta   90.03256112
_cell_angle_gamma   90.00000000
_symmetry_Int_Tables_number   1
_chemical_formula_structural   Na3MnPCO7
_chemical_formula_sum   'Na6 Mn2 P2 C2 O14'
_cell_volume   322.84657034
_cell_formula_units_Z   2
loop_
 _symmetry_equiv_pos_site_id
 _symmetry_equiv_pos_as_xyz
  1  'x, y, z'
loop_
 _atom_site_type_symbol
 _atom_site_label
 _atom_site_symmetry_multiplicity
 _atom_site_fract_x
 _atom_site_fract_y
 _atom_site_fract_z
 _atom_site_occupancy
  Na  Na0  1  0.74780276  0.99805962  0.26027442  1.0
  Na  Na1  1  0.74780276  0.50194038  0.26027442  1.0
  Na  Na2  1  0.25219724  0.49805962  0.73972558  1.0
  Na  Na3  1  0.25219724  0.00194038  0.73972558  1.0
  Na  Na4  1  0.25820963  0.75000000  0.08302864  1.0
  Na  Na5  1  0.74179037  0.25000000  0.91697136  1.0
  Mn  Mn6  1  0.72374806  0.75000000  0.63733838  1.0
  Mn  Mn7  1  0.27625194  0.25000000  0.36266162  1.0
  P  P8  1  0.20651121  0.75000000  0.41235347  1.0
  P  P9  1  0.79348879  0.25000000  0.58764653  1.0
  C  C10  1  0.76318760  0.75000000  0.93859173  1.0
  C  C11  1  0.23681240  0.25000000  0.06140827  1.0
  O  O12  1  0.71514451  0.43384620  0.68019950  1.0
  O  O13  1  0.71514451  0.06615380  0.68019950  1.0
  O  O14  1  0.28485549  0.93384620  0.31980050  1.0
  O  O15  1  0.28485549  0.56615380  0.31980050  1.0
  O  O16  1  0.96389884  0.75000000  0.85333270  1.0
  O  O17  1  0.03610116  0.25000000  0.14666730  1.0
  O  O18  1  0.90797913  0.75000000  0.43307805  1.0
  O  O19  1  0.09202087  0.25000000  0.56692195  1.0
  O  O20  1  0.78922836  0.75000000  0.08072142  1.0
  O  O21  1  0.21077164  0.25000000  0.91927858  1.0
  O  O22  1  0.53733852  0.75000000  0.87876763  1.0
  O  O23  1  0.46266148  0.25000000  0.12123237  1.0
  O  O24  1  0.33317932  0.75000000  0.56807345  1.0
  O  O25  1  0.66682068  0.25000000  0.43192655  1.0
