# generated using pymatgen
data_TlVTeO5
_symmetry_space_group_name_H-M   'P 1'
_cell_length_a   7.47293122
_cell_length_b   8.85460540
_cell_length_c   7.84499863
_cell_angle_alpha   90.00000000
_cell_angle_beta   90.00000000
_cell_angle_gamma   90.00000000
_symmetry_Int_Tables_number   1
_chemical_formula_structural   TlVTeO5
_chemical_formula_sum   'Tl4 V4 Te4 O20'
_cell_volume   519.10243859
_cell_formula_units_Z   4
loop_
 _symmetry_equiv_pos_site_id
 _symmetry_equiv_pos_as_xyz
  1  'x, y, z'
loop_
 _atom_site_type_symbol
 _atom_site_label
 _atom_site_symmetry_multiplicity
 _atom_site_fract_x
 _atom_site_fract_y
 _atom_site_fract_z
 _atom_site_occupancy
  Tl  Tl0  1  0.52397529  0.10253710  0.30802327  1.0
  Tl  Tl1  1  0.02397529  0.39746290  0.30802327  1.0
  Tl  Tl2  1  0.47602471  0.89746290  0.80802327  1.0
  Tl  Tl3  1  0.97602471  0.60253710  0.80802327  1.0
  V  V4  1  0.73059751  0.74211310  0.18787954  1.0
  V  V5  1  0.23059751  0.75788690  0.18787954  1.0
  V  V6  1  0.26940249  0.25788690  0.68787954  1.0
  V  V7  1  0.76940249  0.24211310  0.68787954  1.0
  Te  Te8  1  0.51437084  0.53133077  0.50264025  1.0
  Te  Te9  1  0.01437084  0.96866923  0.50264025  1.0
  Te  Te10  1  0.48562916  0.46866923  0.00264025  1.0
  Te  Te11  1  0.98562916  0.03133077  0.00264025  1.0
  O  O12  1  0.60343610  0.55300167  0.25503256  1.0
  O  O13  1  0.10343610  0.94699833  0.25503256  1.0
  O  O14  1  0.39656390  0.44699833  0.75503256  1.0
  O  O15  1  0.89656390  0.05300167  0.75503256  1.0
  O  O16  1  0.63484436  0.64026817  0.94548466  1.0
  O  O17  1  0.13484436  0.85973183  0.94548466  1.0
  O  O18  1  0.36515564  0.35973183  0.44548466  1.0
  O  O19  1  0.86515564  0.14026817  0.44548466  1.0
  O  O20  1  0.73105002  0.81395655  0.38576575  1.0
  O  O21  1  0.23105002  0.68604345  0.38576575  1.0
  O  O22  1  0.26894998  0.18604345  0.88576575  1.0
  O  O23  1  0.76894998  0.31395655  0.88576575  1.0
  O  O24  1  0.75780447  0.91995626  0.05608662  1.0
  O  O25  1  0.25780447  0.58004374  0.05608662  1.0
  O  O26  1  0.24219553  0.08004374  0.55608662  1.0
  O  O27  1  0.74219553  0.41995626  0.55608662  1.0
  O  O28  1  0.93696995  0.67487435  0.16248734  1.0
  O  O29  1  0.43696995  0.82512565  0.16248734  1.0
  O  O30  1  0.06303005  0.32512565  0.66248734  1.0
  O  O31  1  0.56303005  0.17487435  0.66248734  1.0
