# generated using pymatgen
data_K(SiAs)3
_symmetry_space_group_name_H-M   'P 1'
_cell_length_a   10.18898214
_cell_length_b   19.53339204
_cell_length_c   3.70500032
_cell_angle_alpha   90.00000000
_cell_angle_beta   90.00000000
_cell_angle_gamma   90.00000000
_symmetry_Int_Tables_number   1
_chemical_formula_structural   K(SiAs)3
_chemical_formula_sum   'K4 Si12 As12'
_cell_volume   737.38910521
_cell_formula_units_Z   4
loop_
 _symmetry_equiv_pos_site_id
 _symmetry_equiv_pos_as_xyz
  1  'x, y, z'
loop_
 _atom_site_type_symbol
 _atom_site_label
 _atom_site_symmetry_multiplicity
 _atom_site_fract_x
 _atom_site_fract_y
 _atom_site_fract_z
 _atom_site_occupancy
  K  K0  1  0.18629070  0.80218218  0.00000000  1.0
  K  K1  1  0.68629070  0.69781782  0.00000000  1.0
  K  K2  1  0.81370930  0.19781782  0.00000000  1.0
  K  K3  1  0.31370930  0.30218218  0.00000000  1.0
  Si  Si4  1  0.09388399  0.53479814  0.50000000  1.0
  Si  Si5  1  0.59388399  0.96520186  0.50000000  1.0
  Si  Si6  1  0.90611601  0.46520186  0.50000000  1.0
  Si  Si7  1  0.40611601  0.03479814  0.50000000  1.0
  Si  Si8  1  0.38832135  0.51493704  0.00000000  1.0
  Si  Si9  1  0.88832135  0.98506296  0.00000000  1.0
  Si  Si10  1  0.61167865  0.48506296  0.00000000  1.0
  Si  Si11  1  0.11167865  0.01493704  0.00000000  1.0
  Si  Si12  1  0.32460888  0.63086275  0.00000000  1.0
  Si  Si13  1  0.82460888  0.86913725  0.00000000  1.0
  Si  Si14  1  0.67539112  0.36913725  0.00000000  1.0
  Si  Si15  1  0.17539112  0.13086275  0.00000000  1.0
  As  As16  1  0.08767428  0.61291013  0.00000000  1.0
  As  As17  1  0.58767428  0.88708987  0.00000000  1.0
  As  As18  1  0.91232572  0.38708987  0.00000000  1.0
  As  As19  1  0.41232572  0.11291013  0.00000000  1.0
  As  As20  1  0.39471645  0.69651653  0.50000000  1.0
  As  As21  1  0.89471645  0.80348347  0.50000000  1.0
  As  As22  1  0.60528355  0.30348347  0.50000000  1.0
  As  As23  1  0.10528355  0.19651653  0.50000000  1.0
  As  As24  1  0.21727347  0.95863780  0.50000000  1.0
  As  As25  1  0.71727347  0.54136220  0.50000000  1.0
  As  As26  1  0.78272653  0.04136220  0.50000000  1.0
  As  As27  1  0.28272653  0.45863780  0.50000000  1.0
