# generated using pymatgen
data_Li2IrO2
_symmetry_space_group_name_H-M   'P 1'
_cell_length_a   12.89963054
_cell_length_b   12.43252799
_cell_length_c   6.47618301
_cell_angle_alpha   79.22387137
_cell_angle_beta   71.22561893
_cell_angle_gamma   29.55050970
_symmetry_Int_Tables_number   1
_chemical_formula_structural   Li2IrO2
_chemical_formula_sum   'Li16 Ir8 O16'
_cell_volume   475.26491302
_cell_formula_units_Z   8
loop_
 _symmetry_equiv_pos_site_id
 _symmetry_equiv_pos_as_xyz
  1  'x, y, z'
loop_
 _atom_site_type_symbol
 _atom_site_label
 _atom_site_symmetry_multiplicity
 _atom_site_fract_x
 _atom_site_fract_y
 _atom_site_fract_z
 _atom_site_occupancy
  Li  Li0  1  0.30382947  0.44239522  1.46746226  1.0
  Li  Li1  1  -0.21368695  0.46746226  0.44239522  1.0
  Li  Li2  1  -0.19239522  0.94617053  0.46368695  1.0
  Li  Li3  1  -0.21746226  0.46368695  0.94617053  1.0
  Li  Li4  1  0.46746226  -0.21368695  1.30382947  1.0
  Li  Li5  1  0.44239522  0.30382947  -0.21368695  1.0
  Li  Li6  1  -0.53631305  0.78253774  0.80760478  1.0
  Li  Li7  1  -0.05382947  0.80760478  0.78253774  1.0
  Li  Li8  1  0.55973945  -0.51995950  1.19853135  1.0
  Li  Li9  1  -0.23831131  1.19853135  0.48004050  1.0
  Li  Li10  1  -0.23004050  0.69026055  0.48831131  1.0
  Li  Li11  1  1.05146865  -0.51168869  0.69026055  1.0
  Li  Li12  1  1.19853135  -0.23831131  0.55973945  1.0
  Li  Li13  1  -0.51995950  0.55973945  0.76168869  1.0
  Li  Li14  1  -0.51168869  1.05146865  0.76995950  1.0
  Li  Li15  1  0.69026055  -0.23004050  1.05146865  1.0
  Ir  Ir16  1  0.06079162  0.08889542  1.61593854  1.0
  Ir  Ir17  1  0.23437442  0.61593854  1.08889542  1.0
  Ir  Ir18  1  0.16110458  0.18920838  1.01562558  1.0
  Ir  Ir19  1  0.63406146  0.01562558  1.18920838  1.0
  Ir  Ir20  1  0.61593854  0.23437442  1.06079162  1.0
  Ir  Ir21  1  0.08889542  0.06079162  1.23437442  1.0
  Ir  Ir22  1  0.01562558  0.63406146  1.16110458  1.0
  Ir  Ir23  1  0.18920838  0.16110458  1.63406146  1.0
  O  O24  1  -0.22008432  0.34063228  0.28366728  1.0
  O  O25  1  0.59578476  0.28366728  1.34063228  1.0
  O  O26  1  -0.09063228  0.47008432  0.65421524  1.0
  O  O27  1  -0.03366728  0.65421524  0.47008432  1.0
  O  O28  1  0.28366728  0.59578476  -0.22008432  1.0
  O  O29  1  0.34063228  -0.22008432  1.59578476  1.0
  O  O30  1  -0.34578476  0.96633272  0.90936772  1.0
  O  O31  1  -0.52991568  0.90936772  0.96633272  1.0
  O  O32  1  0.49626372  -0.14117467  1.51627479  1.0
  O  O33  1  0.12863616  0.51627479  -0.14117467  1.0
  O  O34  1  -0.60882533  0.75373628  1.12136384  1.0
  O  O35  1  -0.26627479  1.12136384  0.75373628  1.0
  O  O36  1  0.51627479  0.12863616  1.49626372  1.0
  O  O37  1  -0.14117467  0.49626372  0.12863616  1.0
  O  O38  1  0.12136384  0.73372521  0.39117467  1.0
  O  O39  1  -0.24626372  0.39117467  0.73372521  1.0
