# generated using pymatgen
data_La2Sb4Ir3
_symmetry_space_group_name_H-M   'P 1'
_cell_length_a   16.42578066
_cell_length_b   4.63551400
_cell_length_c   11.11379609
_cell_angle_alpha   90.00000000
_cell_angle_beta   90.00000000
_cell_angle_gamma   90.00000000
_symmetry_Int_Tables_number   1
_chemical_formula_structural   La2Sb4Ir3
_chemical_formula_sum   'La8 Sb16 Ir12'
_cell_volume   846.22595326
_cell_formula_units_Z   4
loop_
 _symmetry_equiv_pos_site_id
 _symmetry_equiv_pos_as_xyz
  1  'x, y, z'
loop_
 _atom_site_type_symbol
 _atom_site_label
 _atom_site_symmetry_multiplicity
 _atom_site_fract_x
 _atom_site_fract_y
 _atom_site_fract_z
 _atom_site_occupancy
  La  La0  1  0.49431332  0.75000000  0.25160333  1.0
  La  La1  1  0.99431332  0.75000000  0.24839667  1.0
  La  La2  1  0.50568668  0.25000000  0.74839667  1.0
  La  La3  1  0.00568668  0.25000000  0.75160333  1.0
  La  La4  1  0.24915668  0.75000000  0.41174200  1.0
  La  La5  1  0.74915668  0.75000000  0.08825800  1.0
  La  La6  1  0.75084332  0.25000000  0.58825800  1.0
  La  La7  1  0.25084332  0.25000000  0.91174200  1.0
  Sb  Sb8  1  0.34846457  0.75000000  0.72473534  1.0
  Sb  Sb9  1  0.84846457  0.75000000  0.77526466  1.0
  Sb  Sb10  1  0.65153543  0.25000000  0.27526466  1.0
  Sb  Sb11  1  0.15153543  0.25000000  0.22473534  1.0
  Sb  Sb12  1  0.29118023  0.75000000  0.11480142  1.0
  Sb  Sb13  1  0.79118023  0.75000000  0.38519858  1.0
  Sb  Sb14  1  0.70881977  0.25000000  0.88519858  1.0
  Sb  Sb15  1  0.20881977  0.25000000  0.61480142  1.0
  Sb  Sb16  1  0.10516305  0.75000000  0.93879378  1.0
  Sb  Sb17  1  0.60516305  0.75000000  0.56120622  1.0
  Sb  Sb18  1  0.89483695  0.25000000  0.06120622  1.0
  Sb  Sb19  1  0.39483695  0.25000000  0.43879378  1.0
  Sb  Sb20  1  0.06811123  0.75000000  0.55133506  1.0
  Sb  Sb21  1  0.56811123  0.75000000  0.94866494  1.0
  Sb  Sb22  1  0.93188877  0.25000000  0.44866494  1.0
  Sb  Sb23  1  0.43188877  0.25000000  0.05133506  1.0
  Ir  Ir24  1  0.44395121  0.75000000  0.53392989  1.0
  Ir  Ir25  1  0.94395121  0.75000000  0.96607011  1.0
  Ir  Ir26  1  0.55604879  0.25000000  0.46607011  1.0
  Ir  Ir27  1  0.05604879  0.25000000  0.03392989  1.0
  Ir  Ir28  1  0.40772455  0.75000000  0.94359247  1.0
  Ir  Ir29  1  0.90772455  0.75000000  0.55640753  1.0
  Ir  Ir30  1  0.59227545  0.25000000  0.05640753  1.0
  Ir  Ir31  1  0.09227545  0.25000000  0.44359247  1.0
  Ir  Ir32  1  0.18067182  0.75000000  0.72357686  1.0
  Ir  Ir33  1  0.68067182  0.75000000  0.77642314  1.0
  Ir  Ir34  1  0.81932818  0.25000000  0.27642314  1.0
  Ir  Ir35  1  0.31932818  0.25000000  0.22357686  1.0
