# generated using pymatgen
data_Ca3(Cd2Pt)4
_symmetry_space_group_name_H-M   'P 1'
_cell_length_a   9.66847812
_cell_length_b   9.66847812
_cell_length_c   9.66847812
_cell_angle_alpha   60.00000000
_cell_angle_beta   60.00000000
_cell_angle_gamma   60.00000000
_symmetry_Int_Tables_number   1
_chemical_formula_structural   Ca3(Cd2Pt)4
_chemical_formula_sum   'Ca6 Cd16 Pt8'
_cell_volume   639.08607969
_cell_formula_units_Z   2
loop_
 _symmetry_equiv_pos_site_id
 _symmetry_equiv_pos_as_xyz
  1  'x, y, z'
loop_
 _atom_site_type_symbol
 _atom_site_label
 _atom_site_symmetry_multiplicity
 _atom_site_fract_x
 _atom_site_fract_y
 _atom_site_fract_z
 _atom_site_occupancy
  Ca  Ca0  1  -0.71201993  0.71201993  0.71201993  1.0
  Ca  Ca1  1  -0.28798007  0.28798007  0.71201993  1.0
  Ca  Ca2  1  0.71201993  0.71201993  -0.71201993  1.0
  Ca  Ca3  1  0.28798007  1.28798007  -0.28798007  1.0
  Ca  Ca4  1  0.28798007  -0.28798007  1.28798007  1.0
  Ca  Ca5  1  -0.28798007  0.28798007  0.28798007  1.0
  Cd  Cd6  1  0.88045780  0.88045780  -0.11954220  1.0
  Cd  Cd7  1  1.11954220  0.11954220  0.64137340  1.0
  Cd  Cd8  1  1.11954220  0.64137340  0.11954220  1.0
  Cd  Cd9  1  0.35862660  0.88045780  -0.11954220  1.0
  Cd  Cd10  1  1.64137340  0.11954220  0.11954220  1.0
  Cd  Cd11  1  0.88045780  0.35862660  -0.11954220  1.0
  Cd  Cd12  1  0.88045780  0.88045780  -0.64137340  1.0
  Cd  Cd13  1  1.11954220  0.11954220  0.11954220  1.0
  Cd  Cd14  1  0.66437985  0.66437985  -0.33562015  1.0
  Cd  Cd15  1  0.33562015  1.33562015  -0.00686046  1.0
  Cd  Cd16  1  1.33562015  -0.00686046  0.33562015  1.0
  Cd  Cd17  1  1.00686046  0.66437985  0.66437985  1.0
  Cd  Cd18  1  -0.00686046  1.33562015  0.33562015  1.0
  Cd  Cd19  1  0.66437985  1.00686046  -0.33562015  1.0
  Cd  Cd20  1  0.66437985  0.66437985  1.00686046  1.0
  Cd  Cd21  1  1.33562015  0.33562015  0.33562015  1.0
  Pt  Pt22  1  1.50000000  -0.00000000  0.00000000  1.0
  Pt  Pt23  1  1.00000000  0.50000000  -0.50000000  1.0
  Pt  Pt24  1  -0.00000000  1.50000000  0.00000000  1.0
  Pt  Pt25  1  0.50000000  1.00000000  -0.50000000  1.0
  Pt  Pt26  1  0.00000000  -0.00000000  0.50000000  1.0
  Pt  Pt27  1  0.50000000  -0.50000000  1.00000000  1.0
  Pt  Pt28  1  -0.50000000  0.50000000  0.50000000  1.0
  Pt  Pt29  1  0.00000000  0.00000000  0.00000000  1.0
