# generated using pymatgen
data_Gd6Fe16O
_symmetry_space_group_name_H-M   'P 1'
_cell_length_a   7.63211101
_cell_length_b   7.63211101
_cell_length_c   7.63211101
_cell_angle_alpha   109.47122063
_cell_angle_beta   109.47122063
_cell_angle_gamma   109.47122063
_symmetry_Int_Tables_number   1
_chemical_formula_structural   Gd6Fe16O
_chemical_formula_sum   'Gd6 Fe16 O1'
_cell_volume   342.22532513
_cell_formula_units_Z   1
loop_
 _symmetry_equiv_pos_site_id
 _symmetry_equiv_pos_as_xyz
  1  'x, y, z'
loop_
 _atom_site_type_symbol
 _atom_site_label
 _atom_site_symmetry_multiplicity
 _atom_site_fract_x
 _atom_site_fract_y
 _atom_site_fract_z
 _atom_site_occupancy
  Gd  Gd0  1  0.00000000  0.72462125  0.72462125  1.0
  Gd  Gd1  1  0.72462125  -0.00000000  0.72462125  1.0
  Gd  Gd2  1  0.72462125  0.72462125  0.00000000  1.0
  Gd  Gd3  1  0.27537875  0.27537875  0.00000000  1.0
  Gd  Gd4  1  0.27537875  -0.00000000  0.27537875  1.0
  Gd  Gd5  1  0.00000000  0.27537875  0.27537875  1.0
  Fe  Fe6  1  0.33090185  0.66545092  0.66545092  1.0
  Fe  Fe7  1  1.00000000  1.33454908  0.66545092  1.0
  Fe  Fe8  1  1.00000000  0.66545092  0.33454908  1.0
  Fe  Fe9  1  1.66909815  1.33454908  1.33454908  1.0
  Fe  Fe10  1  0.66545092  0.33090185  0.66545092  1.0
  Fe  Fe11  1  1.33454908  1.00000000  0.66545092  1.0
  Fe  Fe12  1  0.66545092  0.66545092  0.33090185  1.0
  Fe  Fe13  1  1.33454908  0.66545092  1.00000000  1.0
  Fe  Fe14  1  0.66545092  1.00000000  0.33454908  1.0
  Fe  Fe15  1  1.33454908  1.66909815  1.33454908  1.0
  Fe  Fe16  1  0.66545092  1.33454908  1.00000000  1.0
  Fe  Fe17  1  0.33454908  0.33454908  0.66909815  1.0
  Fe  Fe18  1  0.50000000  0.50000000  0.50000000  1.0
  Fe  Fe19  1  1.00000000  1.00000000  0.50000000  1.0
  Fe  Fe20  1  1.00000000  1.50000000  1.00000000  1.0
  Fe  Fe21  1  1.50000000  1.00000000  1.00000000  1.0
  O  O22  1  0.00000000  0.00000000  0.00000000  1.0
