# generated using pymatgen
data_Fe8N
_symmetry_space_group_name_H-M   'P 1'
_cell_length_a   5.08180126
_cell_length_b   5.08180126
_cell_length_c   5.08180126
_cell_angle_alpha   111.98159806
_cell_angle_beta   111.98159806
_cell_angle_gamma   104.55933220
_symmetry_Int_Tables_number   1
_chemical_formula_structural   Fe8N
_chemical_formula_sum   'Fe8 N1'
_cell_volume   100.47501778
_cell_formula_units_Z   1
loop_
 _symmetry_equiv_pos_site_id
 _symmetry_equiv_pos_as_xyz
  1  'x, y, z'
loop_
 _atom_site_type_symbol
 _atom_site_label
 _atom_site_symmetry_multiplicity
 _atom_site_fract_x
 _atom_site_fract_y
 _atom_site_fract_z
 _atom_site_occupancy
  Fe  Fe0  1  0.75724407  0.75724407  0.51448813  1.0
  Fe  Fe1  1  1.24275593  0.75724407  1.00000000  1.0
  Fe  Fe2  1  0.75724407  1.24275593  1.00000000  1.0
  Fe  Fe3  1  0.24275593  0.24275593  0.48551187  1.0
  Fe  Fe4  1  0.70584067  0.70584067  0.00000000  1.0
  Fe  Fe5  1  0.29415933  0.29415933  0.00000000  1.0
  Fe  Fe6  1  1.25000000  0.75000000  0.50000000  1.0
  Fe  Fe7  1  0.75000000  1.25000000  0.50000000  1.0
  N  N8  1  0.00000000  0.00000000  0.00000000  1.0
