# generated using pymatgen
data_SiTc
_symmetry_space_group_name_H-M   'P 1'
_cell_length_a   4.76409329
_cell_length_b   4.76409329
_cell_length_c   4.76409329
_cell_angle_alpha   90.00000000
_cell_angle_beta   90.00000000
_cell_angle_gamma   90.00000000
_symmetry_Int_Tables_number   1
_chemical_formula_structural   SiTc
_chemical_formula_sum   'Si4 Tc4'
_cell_volume   108.12864786
_cell_formula_units_Z   4
loop_
 _symmetry_equiv_pos_site_id
 _symmetry_equiv_pos_as_xyz
  1  'x, y, z'
loop_
 _atom_site_type_symbol
 _atom_site_label
 _atom_site_symmetry_multiplicity
 _atom_site_fract_x
 _atom_site_fract_y
 _atom_site_fract_z
 _atom_site_occupancy
  Si  Si0  1  0.40502705  0.90502705  0.59497295  1.0
  Si  Si1  1  0.90502705  0.59497295  0.40502705  1.0
  Si  Si2  1  0.59497295  0.40502705  0.90502705  1.0
  Si  Si3  1  0.09497295  0.09497295  0.09497295  1.0
  Tc  Tc4  1  0.11506505  0.61506505  0.88493495  1.0
  Tc  Tc5  1  0.61506505  0.88493495  0.11506505  1.0
  Tc  Tc6  1  0.88493495  0.11506505  0.61506505  1.0
  Tc  Tc7  1  0.38493495  0.38493495  0.38493495  1.0
