# generated using pymatgen
data_LuSnAu
_symmetry_space_group_name_H-M   'P 1'
_cell_length_a   4.66440074
_cell_length_b   4.66440074
_cell_length_c   7.37848728
_cell_angle_alpha   90.00000000
_cell_angle_beta   90.00000000
_cell_angle_gamma   120.00000000
_symmetry_Int_Tables_number   1
_chemical_formula_structural   LuSnAu
_chemical_formula_sum   'Lu2 Sn2 Au2'
_cell_volume   139.02396649
_cell_formula_units_Z   2
loop_
 _symmetry_equiv_pos_site_id
 _symmetry_equiv_pos_as_xyz
  1  'x, y, z'
loop_
 _atom_site_type_symbol
 _atom_site_label
 _atom_site_symmetry_multiplicity
 _atom_site_fract_x
 _atom_site_fract_y
 _atom_site_fract_z
 _atom_site_occupancy
  Lu  Lu0  1  0.00000000  0.00000000  -0.00068188  1.0
  Lu  Lu1  1  0.00000000  0.00000000  0.49931812  1.0
  Sn  Sn2  1  0.33333333  0.66666667  0.26994169  1.0
  Sn  Sn3  1  0.66666667  0.33333333  0.76994169  1.0
  Au  Au4  1  0.33333333  0.66666667  0.66204019  1.0
  Au  Au5  1  0.66666667  0.33333333  0.16204019  1.0
