# generated using pymatgen
data_Ca4P7Ir8
_symmetry_space_group_name_H-M   'P 1'
_cell_length_a   12.62350039
_cell_length_b   3.97172587
_cell_length_c   13.15272792
_cell_angle_alpha   90.00000000
_cell_angle_beta   98.94456103
_cell_angle_gamma   90.00000000
_symmetry_Int_Tables_number   1
_chemical_formula_structural   Ca4P7Ir8
_chemical_formula_sum   'Ca8 P14 Ir16'
_cell_volume   651.42013068
_cell_formula_units_Z   2
loop_
 _symmetry_equiv_pos_site_id
 _symmetry_equiv_pos_as_xyz
  1  'x, y, z'
loop_
 _atom_site_type_symbol
 _atom_site_label
 _atom_site_symmetry_multiplicity
 _atom_site_fract_x
 _atom_site_fract_y
 _atom_site_fract_z
 _atom_site_occupancy
  Ca  Ca0  1  0.98502536  0.25000000  0.29158557  1.0
  Ca  Ca1  1  0.01497464  0.75000000  0.70841443  1.0
  Ca  Ca2  1  0.39688956  0.25000000  0.79203631  1.0
  Ca  Ca3  1  0.60311044  0.75000000  0.20796369  1.0
  Ca  Ca4  1  0.28594011  0.25000000  0.43447200  1.0
  Ca  Ca5  1  0.71405989  0.75000000  0.56552800  1.0
  Ca  Ca6  1  0.21665693  0.25000000  0.10562852  1.0
  Ca  Ca7  1  0.78334307  0.75000000  0.89437148  1.0
  P  P8  1  0.97151870  0.25000000  0.87163926  1.0
  P  P9  1  0.02848130  0.75000000  0.12836074  1.0
  P  P10  1  0.88956328  0.25000000  0.56229188  1.0
  P  P11  1  0.11043672  0.75000000  0.43770812  1.0
  P  P12  1  0.75831953  0.25000000  0.07942619  1.0
  P  P13  1  0.24168047  0.75000000  0.92057381  1.0
  P  P14  1  0.65557789  0.25000000  0.71914083  1.0
  P  P15  1  0.34442211  0.75000000  0.28085917  1.0
  P  P16  1  0.59112530  0.25000000  0.41240581  1.0
  P  P17  1  0.40887470  0.75000000  0.58759419  1.0
  P  P18  1  0.44383241  0.25000000  0.09947346  1.0
  P  P19  1  0.55616759  0.75000000  0.90052654  1.0
  P  P20  1  0.19051442  0.25000000  0.68852833  1.0
  P  P21  1  0.80948558  0.75000000  0.31147167  1.0
  Ir  Ir22  1  0.94617127  0.25000000  0.04836128  1.0
  Ir  Ir23  1  0.05382873  0.75000000  0.95163872  1.0
  Ir  Ir24  1  0.83740398  0.25000000  0.72706463  1.0
  Ir  Ir25  1  0.16259602  0.75000000  0.27293537  1.0
  Ir  Ir26  1  0.77109867  0.25000000  0.39543034  1.0
  Ir  Ir27  1  0.22890133  0.75000000  0.60456966  1.0
  Ir  Ir28  1  0.58307769  0.25000000  0.99880930  1.0
  Ir  Ir29  1  0.41692231  0.75000000  0.00119070  1.0
  Ir  Ir30  1  0.51432380  0.25000000  0.57506505  1.0
  Ir  Ir31  1  0.48567620  0.75000000  0.42493495  1.0
  Ir  Ir32  1  0.43842834  0.25000000  0.27389007  1.0
  Ir  Ir33  1  0.56157166  0.75000000  0.72610993  1.0
  Ir  Ir34  1  0.16099063  0.25000000  0.85840253  1.0
  Ir  Ir35  1  0.83900937  0.75000000  0.14159747  1.0
  Ir  Ir36  1  0.07695822  0.25000000  0.52749066  1.0
  Ir  Ir37  1  0.92304178  0.75000000  0.47250934  1.0
