# generated using pymatgen
data_RbFe(SO4)2
_symmetry_space_group_name_H-M   'P 1'
_cell_length_a   5.20119101
_cell_length_b   5.20119101
_cell_length_c   8.28522583
_cell_angle_alpha   90.00000000
_cell_angle_beta   90.00000000
_cell_angle_gamma   120.00000000
_symmetry_Int_Tables_number   1
_chemical_formula_structural   RbFe(SO4)2
_chemical_formula_sum   'Rb1 Fe1 S2 O8'
_cell_volume   194.10672762
_cell_formula_units_Z   1
loop_
 _symmetry_equiv_pos_site_id
 _symmetry_equiv_pos_as_xyz
  1  'x, y, z'
loop_
 _atom_site_type_symbol
 _atom_site_label
 _atom_site_symmetry_multiplicity
 _atom_site_fract_x
 _atom_site_fract_y
 _atom_site_fract_z
 _atom_site_occupancy
  S  S0  1  0.33333333  0.66666667  0.20866562  1.0
  S  S1  1  0.66666667  0.33333333  0.79133438  1.0
  Fe  Fe2  1  -0.00000000  -0.00000000  0.00000000  1.0
  O  O3  1  0.33333333  0.66666667  0.38577437  1.0
  O  O4  1  0.66666667  0.33333333  0.61422563  1.0
  O  O5  1  0.17662900  0.82336011  0.14839664  1.0
  O  O6  1  0.82336011  0.17662900  0.85160336  1.0
  O  O7  1  0.64673111  0.82337100  0.14839664  1.0
  O  O8  1  0.17663989  0.35326889  0.14839664  1.0
  O  O9  1  0.82337100  0.64673111  0.85160336  1.0
  O  O10  1  0.35326889  0.17663989  0.85160336  1.0
  Rb  Rb11  1  0.00000000  0.00000000  0.50000000  1.0
