# generated using pymatgen
data_Ta2N3
_symmetry_space_group_name_H-M   'P 1'
_cell_length_a   8.48817994
_cell_length_b   8.48817994
_cell_length_c   8.48817994
_cell_angle_alpha   109.47122063
_cell_angle_beta   109.47122063
_cell_angle_gamma   109.47122063
_symmetry_Int_Tables_number   1
_chemical_formula_structural   Ta2N3
_chemical_formula_sum   'Ta16 N24'
_cell_volume   470.78415985
_cell_formula_units_Z   8
loop_
 _symmetry_equiv_pos_site_id
 _symmetry_equiv_pos_as_xyz
  1  'x, y, z'
loop_
 _atom_site_type_symbol
 _atom_site_label
 _atom_site_symmetry_multiplicity
 _atom_site_fract_x
 _atom_site_fract_y
 _atom_site_fract_z
 _atom_site_occupancy
  Ta  Ta0  1  -0.00000000  0.50000000  0.50000000  1.0
  Ta  Ta1  1  1.00000000  1.00000000  1.00000000  1.0
  Ta  Ta2  1  0.50000000  1.00000000  0.50000000  1.0
  Ta  Ta3  1  0.50000000  0.50000000  0.00000000  1.0
  Ta  Ta4  1  0.71056208  0.75000000  0.46056208  1.0
  Ta  Ta5  1  0.78943792  0.25000000  1.03943792  1.0
  Ta  Ta6  1  0.25000000  1.03943792  0.78943792  1.0
  Ta  Ta7  1  0.75000000  1.46056208  0.71056208  1.0
  Ta  Ta8  1  0.46056208  0.71056208  0.75000000  1.0
  Ta  Ta9  1  1.03943792  0.78943792  1.25000000  1.0
  Ta  Ta10  1  1.28943792  1.25000000  1.53943792  1.0
  Ta  Ta11  1  0.21056208  0.75000000  0.96056208  1.0
  Ta  Ta12  1  0.75000000  0.96056208  0.21056208  1.0
  Ta  Ta13  1  0.25000000  0.53943792  0.28943792  1.0
  Ta  Ta14  1  1.53943792  1.28943792  1.25000000  1.0
  Ta  Ta15  1  0.96056208  1.21056208  0.75000000  1.0
  N  N16  1  1.01661668  0.46517940  0.74164164  1.0
  N  N17  1  1.27646224  1.03482060  1.05143728  1.0
  N  N18  1  1.48338332  1.22502495  1.44856272  1.0
  N  N19  1  1.22353776  1.27497505  1.75835836  1.0
  N  N20  1  1.27497505  0.75835836  1.22353776  1.0
  N  N21  1  1.22502495  1.44856272  1.48338332  1.0
  N  N22  1  1.03482060  1.05143728  1.27646224  1.0
  N  N23  1  1.46517940  0.74164164  1.01661668  1.0
  N  N24  1  1.05143728  1.27646224  1.03482060  1.0
  N  N25  1  0.74164164  1.01661668  0.46517940  1.0
  N  N26  1  1.75835836  1.22353776  1.27497505  1.0
  N  N27  1  1.44856272  1.48338332  1.22502495  1.0
  N  N28  1  0.98338332  1.53482060  1.25835836  1.0
  N  N29  1  0.72353776  0.96517940  0.94856272  1.0
  N  N30  1  0.51661668  0.77497505  0.55143728  1.0
  N  N31  1  0.77646224  0.72502495  0.24164164  1.0
  N  N32  1  0.72502495  1.24164164  0.77646224  1.0
  N  N33  1  0.77497505  0.55143728  0.51661668  1.0
  N  N34  1  0.96517940  0.94856272  0.72353776  1.0
  N  N35  1  0.53482060  1.25835836  0.98338332  1.0
  N  N36  1  0.94856272  0.72353776  0.96517940  1.0
  N  N37  1  1.25835836  0.98338332  1.53482060  1.0
  N  N38  1  0.24164164  0.77646224  0.72502495  1.0
  N  N39  1  0.55143728  0.51661668  0.77497505  1.0
