# generated using pymatgen
data_HBr
_symmetry_space_group_name_H-M   'P 1'
_cell_length_a   4.69886723
_cell_length_b   4.69886723
_cell_length_c   5.44851330
_cell_angle_alpha   90.00000000
_cell_angle_beta   90.00000000
_cell_angle_gamma   75.41278559
_symmetry_Int_Tables_number   1
_chemical_formula_structural   HBr
_chemical_formula_sum   'H2 Br2'
_cell_volume   116.42183811
_cell_formula_units_Z   2
loop_
 _symmetry_equiv_pos_site_id
 _symmetry_equiv_pos_as_xyz
  1  'x, y, z'
loop_
 _atom_site_type_symbol
 _atom_site_label
 _atom_site_symmetry_multiplicity
 _atom_site_fract_x
 _atom_site_fract_y
 _atom_site_fract_z
 _atom_site_occupancy
  H  H0  1  0.04943594  0.95056406  -0.00783498  1.0
  H  H1  1  -0.04943594  1.04943594  0.49216502  1.0
  Br  Br2  1  0.22727508  0.77272492  0.18683498  1.0
  Br  Br3  1  -0.22727508  1.22727508  0.68683498  1.0
