# generated using pymatgen
data_Zr6BI12
_symmetry_space_group_name_H-M   'P 1'
_cell_length_a   9.28281621
_cell_length_b   9.28281621
_cell_length_c   9.28281621
_cell_angle_alpha   106.85805949
_cell_angle_beta   106.85805949
_cell_angle_gamma   106.85805949
_symmetry_Int_Tables_number   1
_chemical_formula_structural   Zr6BI12
_chemical_formula_sum   'Zr6 B1 I12'
_cell_volume   668.73246268
_cell_formula_units_Z   1
loop_
 _symmetry_equiv_pos_site_id
 _symmetry_equiv_pos_as_xyz
  1  'x, y, z'
loop_
 _atom_site_type_symbol
 _atom_site_label
 _atom_site_symmetry_multiplicity
 _atom_site_fract_x
 _atom_site_fract_y
 _atom_site_fract_z
 _atom_site_occupancy
  Zr  Zr0  1  1.72866981  0.91174208  -0.02601975  1.0
  Zr  Zr1  1  1.08825792  0.02601975  -0.72866981  1.0
  Zr  Zr2  1  1.02601975  -0.72866981  0.08825792  1.0
  Zr  Zr3  1  0.27133019  0.08825792  0.02601975  1.0
  Zr  Zr4  1  0.91174208  0.97398025  0.72866981  1.0
  Zr  Zr5  1  0.97398025  1.72866981  -0.08825792  1.0
  B  B6  1  0.00000000  0.00000000  0.00000000  1.0
  I  I7  1  1.63478037  0.56013250  -0.14074696  1.0
  I  I8  1  0.43986750  1.14074696  -0.63478037  1.0
  I  I9  1  1.14074696  0.36521963  -0.56013250  1.0
  I  I10  1  0.36521963  0.43986750  0.14074696  1.0
  I  I11  1  1.56013250  -0.14074696  0.63478037  1.0
  I  I12  1  0.85925304  0.63478037  0.56013250  1.0
  I  I13  1  0.69229596  0.22462578  0.07868939  1.0
  I  I14  1  0.77537422  0.92131061  0.30770404  1.0
  I  I15  1  0.92131061  1.30770404  -0.22462578  1.0
  I  I16  1  1.30770404  0.77537422  -0.07868939  1.0
  I  I17  1  1.22462578  0.07868939  -0.30770404  1.0
  I  I18  1  1.07868939  -0.30770404  0.22462578  1.0
