# generated using pymatgen
data_Ti2P
_symmetry_space_group_name_H-M   'P 1'
_cell_length_a   19.86179494
_cell_length_b   19.86179494
_cell_length_c   3.50850355
_cell_angle_alpha   90.00000000
_cell_angle_beta   90.00000000
_cell_angle_gamma   120.00000000
_symmetry_Int_Tables_number   1
_chemical_formula_structural   Ti2P
_chemical_formula_sum   'Ti54 P27'
_cell_volume   1198.64213471
_cell_formula_units_Z   27
loop_
 _symmetry_equiv_pos_site_id
 _symmetry_equiv_pos_as_xyz
  1  'x, y, z'
loop_
 _atom_site_type_symbol
 _atom_site_label
 _atom_site_symmetry_multiplicity
 _atom_site_fract_x
 _atom_site_fract_y
 _atom_site_fract_z
 _atom_site_occupancy
  Ti  Ti0  1  0.24868124  0.91533906  0.50000000  1.0
  Ti  Ti1  1  0.91533906  0.24868124  0.50000000  1.0
  Ti  Ti2  1  0.66665783  0.75131876  0.50000000  1.0
  Ti  Ti3  1  0.08466094  0.33334217  0.50000000  1.0
  Ti  Ti4  1  0.75131876  0.66665783  0.50000000  1.0
  Ti  Ti5  1  0.33334217  0.08466094  0.50000000  1.0
  Ti  Ti6  1  0.33335158  0.75135368  0.50000000  1.0
  Ti  Ti7  1  0.75135368  0.33335158  0.50000000  1.0
  Ti  Ti8  1  0.41800211  0.66664842  0.50000000  1.0
  Ti  Ti9  1  0.24864632  0.58199789  0.50000000  1.0
  Ti  Ti10  1  0.66664842  0.41800211  0.50000000  1.0
  Ti  Ti11  1  0.58199789  0.24864632  0.50000000  1.0
  Ti  Ti12  1  0.08469024  0.66671818  0.50000000  1.0
  Ti  Ti13  1  0.66671818  0.08469024  0.50000000  1.0
  Ti  Ti14  1  0.58202795  0.91530976  0.50000000  1.0
  Ti  Ti15  1  0.33328182  0.41797205  0.50000000  1.0
  Ti  Ti16  1  0.91530976  0.58202795  0.50000000  1.0
  Ti  Ti17  1  0.41797205  0.33328182  0.50000000  1.0
  Ti  Ti18  1  0.33338254  0.86397764  0.00000000  1.0
  Ti  Ti19  1  0.86397764  0.33338254  0.00000000  1.0
  Ti  Ti20  1  0.53059510  0.66661746  0.00000000  1.0
  Ti  Ti21  1  0.13602236  0.46940490  0.00000000  1.0
  Ti  Ti22  1  0.66661746  0.53059510  0.00000000  1.0
  Ti  Ti23  1  0.46940490  0.13602236  0.00000000  1.0
  Ti  Ti24  1  0.13606145  0.80272989  0.00000000  1.0
  Ti  Ti25  1  0.80272989  0.13606145  0.00000000  1.0
  Ti  Ti26  1  0.66666844  0.86393855  0.00000000  1.0
  Ti  Ti27  1  0.19727011  0.33333156  0.00000000  1.0
  Ti  Ti28  1  0.86393855  0.66666844  0.00000000  1.0
  Ti  Ti29  1  0.33333156  0.19727011  0.00000000  1.0
  Ti  Ti30  1  0.19729870  0.66667535  0.00000000  1.0
  Ti  Ti31  1  0.66667535  0.19729870  0.00000000  1.0
  Ti  Ti32  1  0.46937665  0.80270130  0.00000000  1.0
  Ti  Ti33  1  0.33332465  0.53062335  0.00000000  1.0
  Ti  Ti34  1  0.80270130  0.46937665  0.00000000  1.0
  Ti  Ti35  1  0.53062335  0.33332465  0.00000000  1.0
  Ti  Ti36  1  0.91532607  0.91532607  0.50000000  1.0
  Ti  Ti37  1  -0.00000000  0.08467393  0.50000000  1.0
  Ti  Ti38  1  0.08467393  0.00000000  0.50000000  1.0
  Ti  Ti39  1  0.58194395  0.58194395  0.50000000  1.0
  Ti  Ti40  1  0.00000000  0.41805605  0.50000000  1.0
  Ti  Ti41  1  0.41805605  0.00000000  0.50000000  1.0
  Ti  Ti42  1  0.24862544  0.24862544  0.50000000  1.0
  Ti  Ti43  1  0.00000000  0.75137456  0.50000000  1.0
  Ti  Ti44  1  0.75137456  0.00000000  0.50000000  1.0
  Ti  Ti45  1  0.80269254  0.80269254  0.00000000  1.0
  Ti  Ti46  1  -0.00000000  0.19730746  0.00000000  1.0
  Ti  Ti47  1  0.19730746  0.00000000  0.00000000  1.0
  Ti  Ti48  1  0.46931468  0.46931468  0.00000000  1.0
  Ti  Ti49  1  -0.00000000  0.53068532  0.00000000  1.0
  Ti  Ti50  1  0.53068532  0.00000000  0.00000000  1.0
  Ti  Ti51  1  0.13603147  0.13603147  0.00000000  1.0
  Ti  Ti52  1  0.00000000  0.86396853  0.00000000  1.0
  Ti  Ti53  1  0.86396853  0.00000000  0.00000000  1.0
  P  P54  1  0.11113148  0.88890648  0.50000000  1.0
  P  P55  1  0.88890648  0.11113148  0.50000000  1.0
  P  P56  1  0.77777501  0.88886852  0.50000000  1.0
  P  P57  1  0.11109352  0.22222499  0.50000000  1.0
  P  P58  1  0.88886852  0.77777501  0.50000000  1.0
  P  P59  1  0.22222499  0.11109352  0.50000000  1.0
  P  P60  1  0.44449158  0.88889717  0.50000000  1.0
  P  P61  1  0.88889717  0.44449158  0.50000000  1.0
  P  P62  1  0.44440559  0.55550842  0.50000000  1.0
  P  P63  1  0.11110283  0.55559441  0.50000000  1.0
  P  P64  1  0.55550842  0.44440559  0.50000000  1.0
  P  P65  1  0.55559441  0.11110283  0.50000000  1.0
  P  P66  1  0.22225680  0.77780085  0.50000000  1.0
  P  P67  1  0.77780085  0.22225680  0.50000000  1.0
  P  P68  1  0.55554406  0.77774320  0.50000000  1.0
  P  P69  1  0.22219915  0.44445594  0.50000000  1.0
  P  P70  1  0.77774320  0.55554406  0.50000000  1.0
  P  P71  1  0.44445594  0.22219915  0.50000000  1.0
  P  P72  1  0.66662018  0.66662018  0.00000000  1.0
  P  P73  1  -0.00000000  0.33337982  0.00000000  1.0
  P  P74  1  0.33337982  0.00000000  0.00000000  1.0
  P  P75  1  0.33329774  0.33329774  0.00000000  1.0
  P  P76  1  0.00000000  0.66670226  0.00000000  1.0
  P  P77  1  0.66670226  0.00000000  0.00000000  1.0
  P  P78  1  0.33333333  0.66666667  0.00000000  1.0
  P  P79  1  0.66666667  0.33333333  0.00000000  1.0
  P  P80  1  0.00000000  0.00000000  0.00000000  1.0
