# generated using pymatgen
data_Rb2SrP2O7
_symmetry_space_group_name_H-M   'P 1'
_cell_length_a   6.00175474
_cell_length_b   6.00175474
_cell_length_c   13.72455650
_cell_angle_alpha   75.46790479
_cell_angle_beta   104.53209521
_cell_angle_gamma   120.43221351
_symmetry_Int_Tables_number   1
_chemical_formula_structural   Rb2SrP2O7
_chemical_formula_sum   'Rb4 Sr2 P4 O14'
_cell_volume   408.05930281
_cell_formula_units_Z   2
loop_
 _symmetry_equiv_pos_site_id
 _symmetry_equiv_pos_as_xyz
  1  'x, y, z'
loop_
 _atom_site_type_symbol
 _atom_site_label
 _atom_site_symmetry_multiplicity
 _atom_site_fract_x
 _atom_site_fract_y
 _atom_site_fract_z
 _atom_site_occupancy
  Rb  Rb0  1  0.36862361  0.07334109  0.16410664  1.0
  Rb  Rb1  1  0.92665891  -0.36862361  0.66410664  1.0
  Rb  Rb2  1  1.07334109  0.36862361  0.33589336  1.0
  Rb  Rb3  1  1.63137639  -0.07334109  0.83589336  1.0
  Sr  Sr4  1  0.50000000  0.00000000  0.50000000  1.0
  Sr  Sr5  1  1.00000000  -0.50000000  -0.00000000  1.0
  P  P6  1  1.70063316  -0.24524190  0.13503757  1.0
  P  P7  1  1.24524190  -0.70063316  0.63503757  1.0
  P  P8  1  0.75475810  0.70063316  0.36496243  1.0
  P  P9  1  0.29936684  0.24524190  0.86496243  1.0
  O  O10  1  0.84024087  0.84024087  0.25000000  1.0
  O  O11  1  0.15975913  0.15975913  0.75000000  1.0
  O  O12  1  1.80035255  0.02083167  0.06664630  1.0
  O  O13  1  0.97916833  -0.80035255  0.56664630  1.0
  O  O14  1  1.02083167  0.80035255  0.43335370  1.0
  O  O15  1  0.19964745  -0.02083167  0.93335370  1.0
  O  O16  1  0.58307300  -0.18817404  0.37768478  1.0
  O  O17  1  1.18817404  -0.58307300  0.87768478  1.0
  O  O18  1  0.81182596  0.58307300  0.12231522  1.0
  O  O19  1  1.41692700  0.18817404  0.62231522  1.0
  O  O20  1  0.60569152  0.40256546  0.36674216  1.0
  O  O21  1  0.59743454  0.39430848  0.86674216  1.0
  O  O22  1  1.40256546  -0.39430848  0.13325784  1.0
  O  O23  1  1.39430848  -0.40256546  0.63325784  1.0
