# generated using pymatgen
data_SrLi2Nb2O7
_symmetry_space_group_name_H-M   'P 1'
_cell_length_a   9.54539780
_cell_length_b   9.54539780
_cell_length_c   5.62306203
_cell_angle_alpha   90.00000000
_cell_angle_beta   90.00000000
_cell_angle_gamma   34.32989051
_symmetry_Int_Tables_number   1
_chemical_formula_structural   SrLi2Nb2O7
_chemical_formula_sum   'Sr2 Li4 Nb4 O14'
_cell_volume   288.93947700
_cell_formula_units_Z   2
loop_
 _symmetry_equiv_pos_site_id
 _symmetry_equiv_pos_as_xyz
  1  'x, y, z'
loop_
 _atom_site_type_symbol
 _atom_site_label
 _atom_site_symmetry_multiplicity
 _atom_site_fract_x
 _atom_site_fract_y
 _atom_site_fract_z
 _atom_site_occupancy
  Sr  Sr0  1  -0.24533599  0.24533599  0.75000000  1.0
  Sr  Sr1  1  -0.75466401  0.75466401  0.25000000  1.0
  Li  Li2  1  -0.23791263  0.76208737  0.00000000  1.0
  Li  Li3  1  -0.23791263  0.76208737  0.50000000  1.0
  Li  Li4  1  0.23791263  0.23791263  0.00000000  1.0
  Li  Li5  1  0.23791263  0.23791263  0.50000000  1.0
  Nb  Nb6  1  0.13892936  0.63051193  0.75000000  1.0
  Nb  Nb7  1  -0.36948807  1.13892936  0.25000000  1.0
  Nb  Nb8  1  -0.63051193  0.86107064  0.75000000  1.0
  Nb  Nb9  1  -0.13892936  0.36948807  0.25000000  1.0
  O  O10  1  0.06839288  0.49676572  0.75000000  1.0
  O  O11  1  -0.50323428  1.06839288  0.25000000  1.0
  O  O12  1  -0.49676572  0.93160712  0.75000000  1.0
  O  O13  1  -0.06839288  0.50323428  0.25000000  1.0
  O  O14  1  -0.11684140  0.88315860  0.00000000  1.0
  O  O15  1  -0.11684140  0.88315860  0.50000000  1.0
  O  O16  1  0.11684140  0.11684140  0.00000000  1.0
  O  O17  1  0.11684140  0.11684140  0.50000000  1.0
  O  O18  1  -0.40570932  0.59429068  0.00000000  1.0
  O  O19  1  -0.40570932  0.59429068  0.50000000  1.0
  O  O20  1  0.40570932  0.40570932  0.00000000  1.0
  O  O21  1  0.40570932  0.40570932  0.50000000  1.0
  O  O22  1  -0.79783541  0.79783541  0.75000000  1.0
  O  O23  1  -0.20216459  0.20216459  0.25000000  1.0
