# generated using pymatgen
data_LaCd2Pd
_symmetry_space_group_name_H-M   'P 1'
_cell_length_a   5.55398954
_cell_length_b   5.55398954
_cell_length_c   8.55099548
_cell_angle_alpha   90.00000000
_cell_angle_beta   90.00000000
_cell_angle_gamma   133.89843977
_symmetry_Int_Tables_number   1
_chemical_formula_structural   LaCd2Pd
_chemical_formula_sum   'La2 Cd4 Pd2'
_cell_volume   190.06535619
_cell_formula_units_Z   2
loop_
 _symmetry_equiv_pos_site_id
 _symmetry_equiv_pos_as_xyz
  1  'x, y, z'
loop_
 _atom_site_type_symbol
 _atom_site_label
 _atom_site_symmetry_multiplicity
 _atom_site_fract_x
 _atom_site_fract_y
 _atom_site_fract_z
 _atom_site_occupancy
  La  La0  1  0.43560575  0.56439425  0.75000000  1.0
  La  La1  1  -0.43560575  0.43560575  0.25000000  1.0
  Cd  Cd2  1  0.14500859  0.85499141  0.95115535  1.0
  Cd  Cd3  1  0.14500859  0.85499141  0.54884465  1.0
  Cd  Cd4  1  -0.14500859  0.14500859  0.45115535  1.0
  Cd  Cd5  1  -0.14500859  0.14500859  0.04884465  1.0
  Pd  Pd6  1  -0.27942678  0.27942678  0.75000000  1.0
  Pd  Pd7  1  0.27942678  0.72057322  0.25000000  1.0
