# generated using pymatgen
data_Rb2Ca2(SiO3)3
_symmetry_space_group_name_H-M   'P 1'
_cell_length_a   6.67696022
_cell_length_b   7.48028590
_cell_length_c   12.23675879
_cell_angle_alpha   90.00000000
_cell_angle_beta   119.13184120
_cell_angle_gamma   90.00000000
_symmetry_Int_Tables_number   1
_chemical_formula_structural   Rb2Ca2(SiO3)3
_chemical_formula_sum   'Rb4 Ca4 Si6 O18'
_cell_volume   533.85977253
_cell_formula_units_Z   2
loop_
 _symmetry_equiv_pos_site_id
 _symmetry_equiv_pos_as_xyz
  1  'x, y, z'
loop_
 _atom_site_type_symbol
 _atom_site_label
 _atom_site_symmetry_multiplicity
 _atom_site_fract_x
 _atom_site_fract_y
 _atom_site_fract_z
 _atom_site_occupancy
  Rb  Rb0  1  0.55978399  0.58763885  0.77263828  1.0
  Rb  Rb1  1  0.55978399  0.41236115  0.27263828  1.0
  Rb  Rb2  1  0.17391048  0.33990878  0.90092046  1.0
  Rb  Rb3  1  0.17391048  0.66009122  0.40092046  1.0
  Ca  Ca4  1  0.12648925  0.16603410  0.58661748  1.0
  Ca  Ca5  1  0.12648925  0.83396590  0.08661748  1.0
  Ca  Ca6  1  0.65969408  0.06531197  0.85494012  1.0
  Ca  Ca7  1  0.65969408  0.93468803  0.35494012  1.0
  Si  Si8  1  0.88587746  0.41578683  0.09275716  1.0
  Si  Si9  1  0.88587746  0.58421317  0.59275716  1.0
  Si  Si10  1  0.57155420  0.74482116  0.04884831  1.0
  Si  Si11  1  0.57155420  0.25517884  0.54884831  1.0
  Si  Si12  1  0.12703140  0.86235766  0.81648470  1.0
  Si  Si13  1  0.12703140  0.13764234  0.31648470  1.0
  O  O14  1  0.52291498  0.17514152  0.65656281  1.0
  O  O15  1  0.52291498  0.82485848  0.15656281  1.0
  O  O16  1  0.66717645  0.53479110  0.08872081  1.0
  O  O17  1  0.66717645  0.46520890  0.58872081  1.0
  O  O18  1  0.10839389  0.54263845  0.13476698  1.0
  O  O19  1  0.10839389  0.45736155  0.63476698  1.0
  O  O20  1  0.00998402  0.96339214  0.88896686  1.0
  O  O21  1  0.00998402  0.03660786  0.38896686  1.0
  O  O22  1  0.73454059  0.14511342  0.50927820  1.0
  O  O23  1  0.73454059  0.85488658  0.00927820  1.0
  O  O24  1  0.79254378  0.32008816  0.95797414  1.0
  O  O25  1  0.79254378  0.67991184  0.45797414  1.0
  O  O26  1  0.25989540  0.99504938  0.76723486  1.0
  O  O27  1  0.25989540  0.00495062  0.26723486  1.0
  O  O28  1  0.31439291  0.71372201  0.91958464  1.0
  O  O29  1  0.31439291  0.28627799  0.41958464  1.0
  O  O30  1  0.93191712  0.26698414  0.20514419  1.0
  O  O31  1  0.93191712  0.73301586  0.70514419  1.0
