# generated using pymatgen
data_YSiIr2
_symmetry_space_group_name_H-M   'P 1'
_cell_length_a   5.54094482
_cell_length_b   5.54094482
_cell_length_c   15.28545121
_cell_angle_alpha   90.00000000
_cell_angle_beta   90.00000000
_cell_angle_gamma   120.00000000
_symmetry_Int_Tables_number   1
_chemical_formula_structural   YSiIr2
_chemical_formula_sum   'Y6 Si6 Ir12'
_cell_volume   406.42137911
_cell_formula_units_Z   6
loop_
 _symmetry_equiv_pos_site_id
 _symmetry_equiv_pos_as_xyz
  1  'x, y, z'
loop_
 _atom_site_type_symbol
 _atom_site_label
 _atom_site_symmetry_multiplicity
 _atom_site_fract_x
 _atom_site_fract_y
 _atom_site_fract_z
 _atom_site_occupancy
  Y  Y0  1  0.33333333  0.66666667  0.96170952  1.0
  Y  Y1  1  0.33333333  0.66666667  0.53829048  1.0
  Y  Y2  1  0.66666667  0.33333333  0.46170952  1.0
  Y  Y3  1  0.66666667  0.33333333  0.03829048  1.0
  Y  Y4  1  0.33333333  0.66666667  0.75000000  1.0
  Y  Y5  1  0.66666667  0.33333333  0.25000000  1.0
  Si  Si6  1  0.33333333  0.66666667  0.25000000  1.0
  Si  Si7  1  0.66666667  0.33333333  0.75000000  1.0
  Si  Si8  1  0.00000000  0.00000000  0.25000000  1.0
  Si  Si9  1  0.00000000  0.00000000  0.75000000  1.0
  Si  Si10  1  0.00000000  0.00000000  0.50000000  1.0
  Si  Si11  1  0.00000000  0.00000000  0.00000000  1.0
  Ir  Ir12  1  0.16716969  0.83283031  0.36959021  1.0
  Ir  Ir13  1  0.16716969  0.83283031  0.13040979  1.0
  Ir  Ir14  1  0.16716969  0.33433938  0.36959021  1.0
  Ir  Ir15  1  0.16716969  0.33433938  0.13040979  1.0
  Ir  Ir16  1  0.83283031  0.16716969  0.86959021  1.0
  Ir  Ir17  1  0.83283031  0.16716969  0.63040979  1.0
  Ir  Ir18  1  0.83283031  0.66566062  0.86959021  1.0
  Ir  Ir19  1  0.83283031  0.66566062  0.63040979  1.0
  Ir  Ir20  1  0.66566062  0.83283031  0.36959021  1.0
  Ir  Ir21  1  0.66566062  0.83283031  0.13040979  1.0
  Ir  Ir22  1  0.33433938  0.16716969  0.86959021  1.0
  Ir  Ir23  1  0.33433938  0.16716969  0.63040979  1.0
