# generated using pymatgen
data_Cs6Ge2O7
_symmetry_space_group_name_H-M   'P 1'
_cell_length_a   7.31711323
_cell_length_b   9.90397099
_cell_length_c   12.33168338
_cell_angle_alpha   90.00000000
_cell_angle_beta   125.38897672
_cell_angle_gamma   90.00000000
_symmetry_Int_Tables_number   1
_chemical_formula_structural   Cs6Ge2O7
_chemical_formula_sum   'Cs12 Ge4 O14'
_cell_volume   728.54531747
_cell_formula_units_Z   2
loop_
 _symmetry_equiv_pos_site_id
 _symmetry_equiv_pos_as_xyz
  1  'x, y, z'
loop_
 _atom_site_type_symbol
 _atom_site_label
 _atom_site_symmetry_multiplicity
 _atom_site_fract_x
 _atom_site_fract_y
 _atom_site_fract_z
 _atom_site_occupancy
  Cs  Cs0  1  0.89535650  0.71630972  0.27633987  1.0
  Cs  Cs1  1  0.89535650  0.78369028  0.77633987  1.0
  Cs  Cs2  1  0.10464350  0.21630972  0.22366013  1.0
  Cs  Cs3  1  0.10464350  0.28369028  0.72366013  1.0
  Cs  Cs4  1  0.70873279  0.02756102  0.45748344  1.0
  Cs  Cs5  1  0.70873279  0.47243898  0.95748344  1.0
  Cs  Cs6  1  0.29126721  0.52756102  0.04251656  1.0
  Cs  Cs7  1  0.29126721  0.97243898  0.54251656  1.0
  Cs  Cs8  1  0.46485156  0.14427150  0.08733473  1.0
  Cs  Cs9  1  0.46485156  0.35572850  0.58733473  1.0
  Cs  Cs10  1  0.53514844  0.64427150  0.41266527  1.0
  Cs  Cs11  1  0.53514844  0.85572850  0.91266527  1.0
  Ge  Ge12  1  0.82845228  0.36496995  0.37613227  1.0
  Ge  Ge13  1  0.82845228  0.13503005  0.87613227  1.0
  Ge  Ge14  1  0.17154772  0.86496995  0.12386773  1.0
  Ge  Ge15  1  0.17154772  0.63503005  0.62386773  1.0
  O  O16  1  1.00484539  0.21964945  0.43588980  1.0
  O  O17  1  1.00484539  0.28035055  0.93588980  1.0
  O  O18  1  -0.00484539  0.71964945  0.06411020  1.0
  O  O19  1  -0.00484539  0.78035055  0.56411020  1.0
  O  O20  1  0.76187557  0.41981562  0.21985817  1.0
  O  O21  1  0.76187557  0.08018438  0.71985817  1.0
  O  O22  1  0.23812443  0.91981562  0.28014183  1.0
  O  O23  1  0.23812443  0.58018438  0.78014183  1.0
  O  O24  1  0.58680565  0.34147916  0.37589068  1.0
  O  O25  1  0.58680565  0.15852084  0.87589068  1.0
  O  O26  1  0.41319435  0.84147916  0.12410932  1.0
  O  O27  1  0.41319435  0.65852084  0.62410932  1.0
  O  O28  1  0.00000000  0.50000000  0.50000000  1.0
  O  O29  1  0.00000000  0.00000000  0.00000000  1.0
