# generated using pymatgen
data_NaV(SiO3)2
_symmetry_space_group_name_H-M   'P 1'
_cell_length_a   6.60353356
_cell_length_b   6.60353356
_cell_length_c   5.32880140
_cell_angle_alpha   77.29794813
_cell_angle_beta   102.70205187
_cell_angle_gamma   96.02241375
_symmetry_Int_Tables_number   1
_chemical_formula_structural   NaV(SiO3)2
_chemical_formula_sum   'Na2 V2 Si4 O12'
_cell_volume   220.74554422
_cell_formula_units_Z   2
loop_
 _symmetry_equiv_pos_site_id
 _symmetry_equiv_pos_as_xyz
  1  'x, y, z'
loop_
 _atom_site_type_symbol
 _atom_site_label
 _atom_site_symmetry_multiplicity
 _atom_site_fract_x
 _atom_site_fract_y
 _atom_site_fract_z
 _atom_site_occupancy
  Na  Na0  1  0.80016339  0.80016339  0.25000000  1.0
  Na  Na1  1  0.19983661  0.19983661  0.75000000  1.0
  V  V2  1  0.40750187  0.40750187  0.25000000  1.0
  V  V3  1  0.59249813  0.59249813  0.75000000  1.0
  Si  Si4  1  1.29976719  -0.11655742  0.26608071  1.0
  Si  Si5  1  1.11655742  -0.29976719  0.76608071  1.0
  Si  Si6  1  0.88344258  0.29976719  0.23391929  1.0
  Si  Si7  1  0.70023281  0.11655742  0.73391929  1.0
  O  O8  1  0.39535324  0.11951139  0.19861467  1.0
  O  O9  1  0.88048861  0.60464676  0.69861467  1.0
  O  O10  1  1.11951139  -0.60464676  0.30138533  1.0
  O  O11  1  1.60464676  -0.11951139  0.80138533  1.0
  O  O12  1  1.46488232  -0.30304758  0.36051642  1.0
  O  O13  1  1.30304758  -0.46488232  0.86051642  1.0
  O  O14  1  0.69695242  0.46488232  0.13948358  1.0
  O  O15  1  0.53511768  0.30304758  0.63948358  1.0
  O  O16  1  0.84446291  0.14045930  0.51028694  1.0
  O  O17  1  0.85954070  0.15553709  0.01028694  1.0
  O  O18  1  1.14045930  -0.15553709  0.98971307  1.0
  O  O19  1  1.15553709  -0.14045930  0.48971307  1.0
