# generated using pymatgen
data_La3C2I3
_symmetry_space_group_name_H-M   'P 1'
_cell_length_a   10.84058134
_cell_length_b   10.84058134
_cell_length_c   17.92491276
_cell_angle_alpha   90.00000000
_cell_angle_beta   90.00000000
_cell_angle_gamma   111.72893216
_symmetry_Int_Tables_number   1
_chemical_formula_structural   La3C2I3
_chemical_formula_sum   'La24 C16 I24'
_cell_volume   1956.82751158
_cell_formula_units_Z   8
loop_
 _symmetry_equiv_pos_site_id
 _symmetry_equiv_pos_as_xyz
  1  'x, y, z'
loop_
 _atom_site_type_symbol
 _atom_site_label
 _atom_site_symmetry_multiplicity
 _atom_site_fract_x
 _atom_site_fract_y
 _atom_site_fract_z
 _atom_site_occupancy
  La  La0  1  0.11546791  0.82349021  0.02138853  1.0
  La  La1  1  -0.17650979  1.11546791  0.97861147  1.0
  La  La2  1  0.17650979  0.88453209  0.47861147  1.0
  La  La3  1  -0.11546791  1.17650979  0.52138853  1.0
  La  La4  1  0.05221155  0.50938371  0.39689272  1.0
  La  La5  1  -0.49061629  1.05221155  0.60310728  1.0
  La  La6  1  0.49061629  0.94778845  0.10310728  1.0
  La  La7  1  -0.05221155  1.49061629  0.89689272  1.0
  La  La8  1  0.02905167  0.52566425  0.11886484  1.0
  La  La9  1  -0.47433575  1.02905167  0.88113516  1.0
  La  La10  1  0.47433575  0.97094833  0.38113516  1.0
  La  La11  1  -0.02905167  1.47433574  0.61886484  1.0
  La  La12  1  -0.24173119  1.73037581  0.09930812  1.0
  La  La13  1  0.73037581  0.75826881  0.90069188  1.0
  La  La14  1  -0.73037581  1.24173119  0.40069188  1.0
  La  La15  1  0.24173119  0.26962419  0.59930812  1.0
  La  La16  1  -0.34338898  1.39342914  -0.00057447  1.0
  La  La17  1  0.39342914  0.65661102  1.00057447  1.0
  La  La18  1  -0.39342914  1.34338898  0.50057447  1.0
  La  La19  1  0.34338898  0.60657086  0.49942553  1.0
  La  La20  1  0.13072668  0.86927332  0.25000000  1.0
  La  La21  1  -0.13072668  1.13072668  0.75000000  1.0
  La  La22  1  0.33084605  0.66915395  0.25000000  1.0
  La  La23  1  -0.33084605  1.33084605  0.75000000  1.0
  C  C24  1  0.21908753  0.77500122  0.15030537  1.0
  C  C25  1  -0.22499878  1.21908753  0.84969463  1.0
  C  C26  1  0.22499878  0.78091247  0.34969463  1.0
  C  C27  1  -0.21908753  1.22499878  0.65030537  1.0
  C  C28  1  0.28063923  0.72510164  0.09633232  1.0
  C  C29  1  -0.27489836  1.28063923  0.90366768  1.0
  C  C30  1  0.27489836  0.71936077  0.40366768  1.0
  C  C31  1  -0.28063923  1.27489836  0.59633232  1.0
  C  C32  1  0.15701215  0.35356642  0.47688302  1.0
  C  C33  1  -0.64643358  1.15701215  0.52311698  1.0
  C  C34  1  0.64643358  0.84298785  0.02311698  1.0
  C  C35  1  -0.15701215  1.64643358  0.97688302  1.0
  C  C36  1  -0.09167963  1.59692936  0.02882760  1.0
  C  C37  1  0.59692936  0.90832037  0.97117240  1.0
  C  C38  1  -0.59692936  1.09167963  0.47117240  1.0
  C  C39  1  0.09167963  0.40307064  0.52882760  1.0
  I  I40  1  -0.00053222  1.98291960  0.61884699  1.0
  I  I41  1  0.98291960  0.99946778  0.38115301  1.0
  I  I42  1  -0.98291960  1.00053222  0.88115301  1.0
  I  I43  1  0.00053222  0.01708040  0.11884699  1.0
  I  I44  1  0.47927354  0.48634228  0.13195298  1.0
  I  I45  1  -0.51365772  1.47927354  0.86804702  1.0
  I  I46  1  0.51365772  0.52072646  0.36804702  1.0
  I  I47  1  -0.47927354  1.51365772  0.63195298  1.0
  I  I48  1  -0.12911097  1.63641049  0.49371797  1.0
  I  I49  1  0.63641049  0.87088903  0.50628203  1.0
  I  I50  1  -0.63641049  1.12911097  0.00628203  1.0
  I  I51  1  0.12911097  0.36358951  0.99371797  1.0
  I  I52  1  0.12993024  0.35899302  0.25472073  1.0
  I  I53  1  -0.64100698  1.12993024  0.74527927  1.0
  I  I54  1  0.64100698  0.87006976  0.24527927  1.0
  I  I55  1  -0.12993024  1.64100698  0.75472073  1.0
  I  I56  1  -0.13665221  1.59845577  0.25664425  1.0
  I  I57  1  0.59845577  0.86334779  0.74335575  1.0
  I  I58  1  -0.59845577  1.13665221  0.24335575  1.0
  I  I59  1  0.13665221  0.40154423  0.75664425  1.0
  I  I60  1  -0.24572791  1.23956180  0.13185383  1.0
  I  I61  1  0.23956180  0.75427209  0.86814617  1.0
  I  I62  1  -0.23956180  1.24572791  0.36814617  1.0
  I  I63  1  0.24572791  0.76043820  0.63185383  1.0
