# generated using pymatgen
data_Sr(MgAs)2
_symmetry_space_group_name_H-M   'P 1'
_cell_length_a   4.43899361
_cell_length_b   4.43899361
_cell_length_c   7.44241186
_cell_angle_alpha   90.00000000
_cell_angle_beta   90.00000000
_cell_angle_gamma   120.00000000
_symmetry_Int_Tables_number   1
_chemical_formula_structural   Sr(MgAs)2
_chemical_formula_sum   'Sr1 Mg2 As2'
_cell_volume   127.00282185
_cell_formula_units_Z   1
loop_
 _symmetry_equiv_pos_site_id
 _symmetry_equiv_pos_as_xyz
  1  'x, y, z'
loop_
 _atom_site_type_symbol
 _atom_site_label
 _atom_site_symmetry_multiplicity
 _atom_site_fract_x
 _atom_site_fract_y
 _atom_site_fract_z
 _atom_site_occupancy
  Sr  Sr0  1  0.00000000  0.00000000  0.00000000  1.0
  Mg  Mg1  1  0.33333333  0.66666667  0.62820599  1.0
  Mg  Mg2  1  0.66666667  0.33333333  0.37179401  1.0
  As  As3  1  0.33333333  0.66666667  0.26112258  1.0
  As  As4  1  0.66666667  0.33333333  0.73887742  1.0
