# generated using pymatgen
data_Rb2Te5
_symmetry_space_group_name_H-M   'P 1'
_cell_length_a   7.47987042
_cell_length_b   7.47987042
_cell_length_c   5.93140121
_cell_angle_alpha   68.40743431
_cell_angle_beta   111.59256569
_cell_angle_gamma   101.86113100
_symmetry_Int_Tables_number   1
_chemical_formula_structural   Rb2Te5
_chemical_formula_sum   'Rb2 Te5'
_cell_volume   285.96598691
_cell_formula_units_Z   1
loop_
 _symmetry_equiv_pos_site_id
 _symmetry_equiv_pos_as_xyz
  1  'x, y, z'
loop_
 _atom_site_type_symbol
 _atom_site_label
 _atom_site_symmetry_multiplicity
 _atom_site_fract_x
 _atom_site_fract_y
 _atom_site_fract_z
 _atom_site_occupancy
  Rb  Rb0  1  0.68349694  0.31650306  0.86073908  1.0
  Rb  Rb1  1  1.31650306  -0.31650306  0.13926092  1.0
  Te  Te2  1  1.67123783  -0.14143024  0.73374490  1.0
  Te  Te3  1  1.14143024  -0.67123783  0.73374490  1.0
  Te  Te4  1  0.85856976  0.67123783  0.26625510  1.0
  Te  Te5  1  0.32876217  0.14143024  0.26625510  1.0
  Te  Te6  1  0.00000000  -0.00000000  0.50000000  1.0
