# generated using pymatgen
data_K2ZnP2O7
_symmetry_space_group_name_H-M   'P 1'
_cell_length_a   7.98168369
_cell_length_b   7.98168369
_cell_length_c   11.47173094
_cell_angle_alpha   90.00000000
_cell_angle_beta   90.00000000
_cell_angle_gamma   90.00000000
_symmetry_Int_Tables_number   1
_chemical_formula_structural   K2ZnP2O7
_chemical_formula_sum   'K8 Zn4 P8 O28'
_cell_volume   730.83271292
_cell_formula_units_Z   4
loop_
 _symmetry_equiv_pos_site_id
 _symmetry_equiv_pos_as_xyz
  1  'x, y, z'
loop_
 _atom_site_type_symbol
 _atom_site_label
 _atom_site_symmetry_multiplicity
 _atom_site_fract_x
 _atom_site_fract_y
 _atom_site_fract_z
 _atom_site_occupancy
  K  K0  1  0.31571007  0.31571007  0.50000000  1.0
  K  K1  1  0.81571007  0.18428993  0.00000000  1.0
  K  K2  1  0.68428993  0.68428993  0.50000000  1.0
  K  K3  1  0.18428993  0.81571007  -0.00000000  1.0
  K  K4  1  0.15120169  0.84879831  0.50000000  1.0
  K  K5  1  0.65120169  0.65120169  -0.00000000  1.0
  K  K6  1  0.84879831  0.15120169  0.50000000  1.0
  K  K7  1  0.34879831  0.34879831  0.00000000  1.0
  Zn  Zn8  1  0.50000000  0.00000000  0.25000000  1.0
  Zn  Zn9  1  0.50000000  0.00000000  0.75000000  1.0
  Zn  Zn10  1  0.00000000  0.50000000  0.75000000  1.0
  Zn  Zn11  1  0.00000000  0.50000000  0.25000000  1.0
  P  P12  1  0.36336531  0.63663469  0.28114125  1.0
  P  P13  1  0.36336531  0.63663469  0.71885875  1.0
  P  P14  1  0.86336531  0.86336531  0.78114125  1.0
  P  P15  1  0.86336531  0.86336531  0.21885875  1.0
  P  P16  1  0.63663469  0.36336531  0.28114125  1.0
  P  P17  1  0.63663469  0.36336531  0.71885875  1.0
  P  P18  1  0.13663469  0.13663469  0.78114125  1.0
  P  P19  1  0.13663469  0.13663469  0.21885875  1.0
  O  O20  1  0.42112436  0.80252950  0.34003766  1.0
  O  O21  1  0.42112436  0.80252950  0.65996234  1.0
  O  O22  1  0.92112436  0.69747050  0.84003766  1.0
  O  O23  1  0.92112436  0.69747050  0.15996234  1.0
  O  O24  1  0.19747050  0.57887564  0.34003766  1.0
  O  O25  1  0.19747050  0.57887564  0.65996234  1.0
  O  O26  1  0.69747050  0.92112436  0.84003766  1.0
  O  O27  1  0.69747050  0.92112436  0.15996234  1.0
  O  O28  1  0.57887564  0.19747050  0.34003766  1.0
  O  O29  1  0.57887564  0.19747050  0.65996234  1.0
  O  O30  1  0.07887564  0.30252950  0.84003766  1.0
  O  O31  1  0.07887564  0.30252950  0.15996234  1.0
  O  O32  1  0.80252950  0.42112436  0.34003766  1.0
  O  O33  1  0.80252950  0.42112436  0.65996234  1.0
  O  O34  1  0.30252950  0.07887564  0.84003766  1.0
  O  O35  1  0.30252950  0.07887564  0.15996234  1.0
  O  O36  1  0.36415429  0.63584571  0.14940168  1.0
  O  O37  1  0.36415429  0.63584571  0.85059832  1.0
  O  O38  1  0.86415429  0.86415429  0.64940168  1.0
  O  O39  1  0.86415429  0.86415429  0.35059832  1.0
  O  O40  1  0.63584571  0.36415429  0.14940168  1.0
  O  O41  1  0.63584571  0.36415429  0.85059832  1.0
  O  O42  1  0.13584571  0.13584571  0.64940168  1.0
  O  O43  1  0.13584571  0.13584571  0.35059832  1.0
  O  O44  1  0.50000000  0.50000000  0.33262321  1.0
  O  O45  1  0.50000000  0.50000000  0.66737679  1.0
  O  O46  1  0.00000000  0.00000000  0.83262321  1.0
  O  O47  1  0.00000000  0.00000000  0.16737679  1.0
