# generated using pymatgen
data_Ba3Pb5
_symmetry_space_group_name_H-M   'P 1'
_cell_length_a   7.31536390
_cell_length_b   7.31536390
_cell_length_c   11.54815904
_cell_angle_alpha   90.00000000
_cell_angle_beta   90.00000000
_cell_angle_gamma   78.06705865
_symmetry_Int_Tables_number   1
_chemical_formula_structural   Ba3Pb5
_chemical_formula_sum   'Ba6 Pb10'
_cell_volume   604.63982650
_cell_formula_units_Z   2
loop_
 _symmetry_equiv_pos_site_id
 _symmetry_equiv_pos_as_xyz
  1  'x, y, z'
loop_
 _atom_site_type_symbol
 _atom_site_label
 _atom_site_symmetry_multiplicity
 _atom_site_fract_x
 _atom_site_fract_y
 _atom_site_fract_z
 _atom_site_occupancy
  Ba  Ba0  1  0.79333832  0.79333832  0.50000000  1.0
  Ba  Ba1  1  0.79333832  0.79333832  0.00000000  1.0
  Ba  Ba2  1  0.20666168  0.20666168  0.50000000  1.0
  Ba  Ba3  1  0.20666168  0.20666168  0.00000000  1.0
  Ba  Ba4  1  -0.36391331  1.36391331  0.25000000  1.0
  Ba  Ba5  1  0.36391331  0.63608669  0.75000000  1.0
  Pb  Pb6  1  0.08544379  0.51233737  0.25000000  1.0
  Pb  Pb7  1  -0.48766263  1.08544379  0.75000000  1.0
  Pb  Pb8  1  0.48766263  0.91455621  0.25000000  1.0
  Pb  Pb9  1  -0.08544379  1.48766263  0.75000000  1.0
  Pb  Pb10  1  0.30334761  0.69665239  0.44526407  1.0
  Pb  Pb11  1  0.30334761  0.69665239  0.05473593  1.0
  Pb  Pb12  1  -0.30334761  1.30334761  0.94526407  1.0
  Pb  Pb13  1  -0.30334761  1.30334761  0.55473593  1.0
  Pb  Pb14  1  0.03923109  0.96076891  0.25000000  1.0
  Pb  Pb15  1  -0.03923109  1.03923109  0.75000000  1.0
