# generated using pymatgen
data_CoSb2
_symmetry_space_group_name_H-M   'P 1'
_cell_length_a   3.40293666
_cell_length_b   6.42117994
_cell_length_c   6.56549039
_cell_angle_alpha   90.00000000
_cell_angle_beta   121.20902249
_cell_angle_gamma   90.00000000
_symmetry_Int_Tables_number   1
_chemical_formula_structural   CoSb2
_chemical_formula_sum   'Co2 Sb4'
_cell_volume   122.70027888
_cell_formula_units_Z   2
loop_
 _symmetry_equiv_pos_site_id
 _symmetry_equiv_pos_as_xyz
  1  'x, y, z'
loop_
 _atom_site_type_symbol
 _atom_site_label
 _atom_site_symmetry_multiplicity
 _atom_site_fract_x
 _atom_site_fract_y
 _atom_site_fract_z
 _atom_site_occupancy
  Co  Co0  1  -0.00000000  0.50000000  0.50000000  1.0
  Co  Co1  1  0.00000000  0.00000000  0.00000000  1.0
  Sb  Sb2  1  0.79921233  0.14310198  0.29924465  1.0
  Sb  Sb3  1  0.79921233  0.35689802  0.79924465  1.0
  Sb  Sb4  1  0.20078767  0.64310198  0.20075535  1.0
  Sb  Sb5  1  0.20078767  0.85689802  0.70075535  1.0
