# generated using pymatgen
data_CoBW
_symmetry_space_group_name_H-M   'P 1'
_cell_length_a   5.72422520
_cell_length_b   3.24859288
_cell_length_c   6.60925885
_cell_angle_alpha   90.00000000
_cell_angle_beta   90.00000000
_cell_angle_gamma   90.00000000
_symmetry_Int_Tables_number   1
_chemical_formula_structural   CoBW
_chemical_formula_sum   'Co4 B4 W4'
_cell_volume   122.90364430
_cell_formula_units_Z   4
loop_
 _symmetry_equiv_pos_site_id
 _symmetry_equiv_pos_as_xyz
  1  'x, y, z'
loop_
 _atom_site_type_symbol
 _atom_site_label
 _atom_site_symmetry_multiplicity
 _atom_site_fract_x
 _atom_site_fract_y
 _atom_site_fract_z
 _atom_site_occupancy
  Co  Co0  1  0.85703239  0.75000000  0.05784074  1.0
  Co  Co1  1  0.35703239  0.75000000  0.44215926  1.0
  Co  Co2  1  0.14296761  0.25000000  0.94215926  1.0
  Co  Co3  1  0.64296761  0.25000000  0.55784074  1.0
  B  B4  1  0.73025450  0.75000000  0.37443146  1.0
  B  B5  1  0.23025450  0.75000000  0.12556854  1.0
  B  B6  1  0.26974550  0.25000000  0.62556854  1.0
  B  B7  1  0.76974550  0.25000000  0.87443146  1.0
  W  W8  1  0.97261277  0.75000000  0.67472434  1.0
  W  W9  1  0.47261277  0.75000000  0.82527566  1.0
  W  W10  1  0.02738723  0.25000000  0.32527566  1.0
  W  W11  1  0.52738723  0.25000000  0.17472434  1.0
