# generated using pymatgen
data_C2(OF2)3
_symmetry_space_group_name_H-M   'P 1'
_cell_length_a   5.22194475
_cell_length_b   8.69243122
_cell_length_c   8.00357070
_cell_angle_alpha   78.44996104
_cell_angle_beta   81.57071980
_cell_angle_gamma   87.12810430
_symmetry_Int_Tables_number   1
_chemical_formula_structural   C2(OF2)3
_chemical_formula_sum   'C4 O6 F12'
_cell_volume   352.01091814
_cell_formula_units_Z   2
loop_
 _symmetry_equiv_pos_site_id
 _symmetry_equiv_pos_as_xyz
  1  'x, y, z'
loop_
 _atom_site_type_symbol
 _atom_site_label
 _atom_site_symmetry_multiplicity
 _atom_site_fract_x
 _atom_site_fract_y
 _atom_site_fract_z
 _atom_site_occupancy
  C  C0  1  -0.85613381  -0.82817202  -0.74211770  1.0
  C  C1  1  -0.14386619  -0.17182798  -0.25788230  1.0
  C  C2  1  -0.52475322  -0.34188112  -0.76834445  1.0
  C  C3  1  -0.47524678  -0.65811888  -0.23165555  1.0
  O  O4  1  -0.86911810  -0.73070918  -0.90315899  1.0
  O  O5  1  -0.13088190  -0.26929082  -0.09684101  1.0
  O  O6  1  -0.76300705  -0.81822659  -0.03465770  1.0
  O  O7  1  -0.23699295  -0.18177341  -0.96534230  1.0
  O  O8  1  -0.50754270  -0.22081247  -0.91429529  1.0
  O  O9  1  -0.49245730  -0.77918753  -0.08570471  1.0
  F  F10  1  -0.98888305  -0.96138079  -0.72171618  1.0
  F  F11  1  -0.01111695  -0.03861921  -0.27828382  1.0
  F  F12  1  -0.96609456  -0.74144328  -0.62839848  1.0
  F  F13  1  -0.03390544  -0.25855672  -0.37160152  1.0
  F  F14  1  -0.78008911  -0.36630779  -0.72517099  1.0
  F  F15  1  -0.21991089  -0.63369221  -0.27482901  1.0
  F  F16  1  -0.61094946  -0.86819169  -0.71451315  1.0
  F  F17  1  -0.38905054  -0.13180831  -0.28548685  1.0
  F  F18  1  -0.57154791  -0.69928416  -0.36332674  1.0
  F  F19  1  -0.42845209  -0.30071584  -0.63667326  1.0
  F  F20  1  -0.40200805  -0.47515475  -0.80080095  1.0
  F  F21  1  -0.59799195  -0.52484525  -0.19919905  1.0
