# generated using pymatgen
data_Eu2P3N7
_symmetry_space_group_name_H-M   'P 1'
_cell_length_a   7.46121207
_cell_length_b   7.46121207
_cell_length_c   5.22714455
_cell_angle_alpha   90.00000000
_cell_angle_beta   90.00000000
_cell_angle_gamma   90.00000000
_symmetry_Int_Tables_number   1
_chemical_formula_structural   Eu2P3N7
_chemical_formula_sum   'Eu4 P6 N14'
_cell_volume   290.99349379
_cell_formula_units_Z   2
loop_
 _symmetry_equiv_pos_site_id
 _symmetry_equiv_pos_as_xyz
  1  'x, y, z'
loop_
 _atom_site_type_symbol
 _atom_site_label
 _atom_site_symmetry_multiplicity
 _atom_site_fract_x
 _atom_site_fract_y
 _atom_site_fract_z
 _atom_site_occupancy
  P  P0  1  0.35832267  0.85832267  0.03054088  1.0
  P  P1  1  0.14167733  0.35832267  0.96945912  1.0
  P  P2  1  0.64167733  0.14167733  0.03054088  1.0
  P  P3  1  0.85832267  0.64167733  0.96945912  1.0
  P  P4  1  0.50000000  0.50000000  0.00000000  1.0
  P  P5  1  0.00000000  0.00000000  0.00000000  1.0
  N  N6  1  0.33549849  0.41680191  0.82040623  1.0
  N  N7  1  0.16450151  0.91680191  0.17959377  1.0
  N  N8  1  0.58319809  0.33549849  0.17959377  1.0
  N  N9  1  0.91680191  0.83549849  0.82040623  1.0
  N  N10  1  0.66450151  0.58319809  0.82040623  1.0
  N  N11  1  0.83549849  0.08319809  0.17959377  1.0
  N  N12  1  0.41680191  0.66450151  0.17959377  1.0
  N  N13  1  0.08319809  0.16450151  0.82040623  1.0
  N  N14  1  0.35761734  0.85761734  0.72533725  1.0
  N  N15  1  0.14238266  0.35761734  0.27466275  1.0
  N  N16  1  0.64238266  0.14238266  0.72533725  1.0
  N  N17  1  0.85761734  0.64238266  0.27466275  1.0
  N  N18  1  0.00000000  0.50000000  0.83596239  1.0
  N  N19  1  0.50000000  0.00000000  0.16403761  1.0
  Eu  Eu20  1  0.83787881  0.33787881  0.48953394  1.0
  Eu  Eu21  1  0.66212119  0.83787881  0.51046606  1.0
  Eu  Eu22  1  0.16212119  0.66212119  0.48953394  1.0
  Eu  Eu23  1  0.33787881  0.16212119  0.51046606  1.0
