# generated using pymatgen
data_CaZn2
_symmetry_space_group_name_H-M   'P 1'
_cell_length_a   5.75519226
_cell_length_b   5.75519226
_cell_length_c   5.75519226
_cell_angle_alpha   133.03624433
_cell_angle_beta   100.44841778
_cell_angle_gamma   97.82737308
_symmetry_Int_Tables_number   1
_chemical_formula_structural   CaZn2
_chemical_formula_sum   'Ca2 Zn4'
_cell_volume   127.74726096
_cell_formula_units_Z   2
loop_
 _symmetry_equiv_pos_site_id
 _symmetry_equiv_pos_as_xyz
  1  'x, y, z'
loop_
 _atom_site_type_symbol
 _atom_site_label
 _atom_site_symmetry_multiplicity
 _atom_site_fract_x
 _atom_site_fract_y
 _atom_site_fract_z
 _atom_site_occupancy
  Ca  Ca0  1  1.70017425  1.45017425  1.25000000  1.0
  Ca  Ca1  1  0.29982575  0.54982575  0.75000000  1.0
  Zn  Zn2  1  1.27480944  0.83567058  1.43913886  1.0
  Zn  Zn3  1  1.10346828  0.16432942  0.93913886  1.0
  Zn  Zn4  1  0.72519056  1.16432942  0.56086114  1.0
  Zn  Zn5  1  0.89653172  0.83567058  0.06086114  1.0
