# generated using pymatgen
data_Ba4InAgS6
_symmetry_space_group_name_H-M   'P 1'
_cell_length_a   8.80351912
_cell_length_b   8.98974035
_cell_length_c   17.98338296
_cell_angle_alpha   90.00000000
_cell_angle_beta   104.11545220
_cell_angle_gamma   90.00000000
_symmetry_Int_Tables_number   1
_chemical_formula_structural   Ba4InAgS6
_chemical_formula_sum   'Ba16 In4 Ag4 S24'
_cell_volume   1380.25663832
_cell_formula_units_Z   4
loop_
 _symmetry_equiv_pos_site_id
 _symmetry_equiv_pos_as_xyz
  1  'x, y, z'
loop_
 _atom_site_type_symbol
 _atom_site_label
 _atom_site_symmetry_multiplicity
 _atom_site_fract_x
 _atom_site_fract_y
 _atom_site_fract_z
 _atom_site_occupancy
  Ba  Ba0  1  0.90181381  0.74017788  0.54108430  1.0
  Ba  Ba1  1  0.90181381  0.75982212  0.04108430  1.0
  Ba  Ba2  1  0.09818619  0.24017788  0.95891570  1.0
  Ba  Ba3  1  0.09818619  0.25982212  0.45891570  1.0
  Ba  Ba4  1  0.78161320  0.91948889  0.78471639  1.0
  Ba  Ba5  1  0.78161320  0.58051111  0.28471639  1.0
  Ba  Ba6  1  0.21838680  0.41948889  0.71528361  1.0
  Ba  Ba7  1  0.21838680  0.08051111  0.21528361  1.0
  Ba  Ba8  1  0.74625823  0.42218011  0.71523605  1.0
  Ba  Ba9  1  0.74625823  0.07781989  0.21523605  1.0
  Ba  Ba10  1  0.25374177  0.92218011  0.78476395  1.0
  Ba  Ba11  1  0.25374177  0.57781989  0.28476395  1.0
  Ba  Ba12  1  0.38779546  0.73622006  0.53901143  1.0
  Ba  Ba13  1  0.38779546  0.76377994  0.03901143  1.0
  Ba  Ba14  1  0.61220454  0.23622006  0.96098857  1.0
  Ba  Ba15  1  0.61220454  0.26377994  0.46098857  1.0
  In  In16  1  0.55684063  0.61916663  0.86750849  1.0
  In  In17  1  0.55684063  0.88083337  0.36750849  1.0
  In  In18  1  0.44315937  0.11916663  0.63249151  1.0
  In  In19  1  0.44315937  0.38083337  0.13249151  1.0
  Ag  Ag20  1  0.93879478  0.12888445  0.63390138  1.0
  Ag  Ag21  1  0.93879478  0.37111555  0.13390138  1.0
  Ag  Ag22  1  0.06120522  0.62888445  0.86609862  1.0
  Ag  Ag23  1  0.06120522  0.87111555  0.36609862  1.0
  S  S24  1  0.98679771  0.68738488  0.72067502  1.0
  S  S25  1  0.98679771  0.81261512  0.22067502  1.0
  S  S26  1  0.01320229  0.18738488  0.77932498  1.0
  S  S27  1  0.01320229  0.31261512  0.27932498  1.0
  S  S28  1  0.90862565  0.38599449  0.57005800  1.0
  S  S29  1  0.90862565  0.11400551  0.07005800  1.0
  S  S30  1  0.09137435  0.88599449  0.92994200  1.0
  S  S31  1  0.09137435  0.61400551  0.42994200  1.0
  S  S32  1  0.81659089  0.49051210  0.90184136  1.0
  S  S33  1  0.81659089  0.00948790  0.40184136  1.0
  S  S34  1  0.18340911  0.99051210  0.59815864  1.0
  S  S35  1  0.18340911  0.50948790  0.09815864  1.0
  S  S36  1  0.66471273  0.98649868  0.59729486  1.0
  S  S37  1  0.66471273  0.51350132  0.09729486  1.0
  S  S38  1  0.33528727  0.48649868  0.90270514  1.0
  S  S39  1  0.33528727  0.01350132  0.40270514  1.0
  S  S40  1  0.58728227  0.87180504  0.92653318  1.0
  S  S41  1  0.58728227  0.62819496  0.42653318  1.0
  S  S42  1  0.41271773  0.37180504  0.57346682  1.0
  S  S43  1  0.41271773  0.12819496  0.07346682  1.0
  S  S44  1  0.48763916  0.67915021  0.72776788  1.0
  S  S45  1  0.48763916  0.82084979  0.22776788  1.0
  S  S46  1  0.51236084  0.17915021  0.77223212  1.0
  S  S47  1  0.51236084  0.32084979  0.27223212  1.0
