# generated using pymatgen
data_Ca11Si4SO18
_symmetry_space_group_name_H-M   'P 1'
_cell_length_a   8.66776252
_cell_length_b   8.66776252
_cell_length_c   8.66776252
_cell_angle_alpha   105.25118090
_cell_angle_beta   105.25118090
_cell_angle_gamma   118.28761022
_symmetry_Int_Tables_number   1
_chemical_formula_structural   Ca11Si4SO18
_chemical_formula_sum   'Ca11 Si4 S1 O18'
_cell_volume   492.27575125
_cell_formula_units_Z   1
loop_
 _symmetry_equiv_pos_site_id
 _symmetry_equiv_pos_as_xyz
  1  'x, y, z'
loop_
 _atom_site_type_symbol
 _atom_site_label
 _atom_site_symmetry_multiplicity
 _atom_site_fract_x
 _atom_site_fract_y
 _atom_site_fract_z
 _atom_site_occupancy
  Ca  Ca0  1  0.94845271  1.20032375  1.25187105  1.0
  Ca  Ca1  1  0.79967625  0.05154729  0.74812895  1.0
  Ca  Ca2  1  0.30341834  0.05154729  0.25187105  1.0
  Ca  Ca3  1  0.94845271  0.69658166  0.74812895  1.0
  Ca  Ca4  1  0.55145579  0.80316870  1.25171291  1.0
  Ca  Ca5  1  1.19683130  1.44854421  0.74828709  1.0
  Ca  Ca6  1  0.70025712  0.44854421  0.25171291  1.0
  Ca  Ca7  1  0.55145579  1.29974288  0.74828709  1.0
  Ca  Ca8  1  0.75006467  0.75006467  0.00000000  1.0
  Ca  Ca9  1  0.24993533  0.24993533  -0.00000000  1.0
  Ca  Ca10  1  0.25000000  0.75000000  0.50000000  1.0
  Si  Si11  1  1.03899699  0.96100301  1.50000000  1.0
  Si  Si12  1  0.46100301  0.96100301  0.92200602  1.0
  Si  Si13  1  1.03899699  0.53899699  1.07799398  1.0
  Si  Si14  1  0.46100301  0.53899699  0.50000000  1.0
  S  S15  1  0.75000000  0.25000000  0.50000000  1.0
  O  O16  1  0.54404434  1.04408109  0.78922448  1.0
  O  O17  1  1.25485661  1.04408109  1.50003675  1.0
  O  O18  1  0.95591891  1.45595566  1.21077552  1.0
  O  O19  1  0.24518014  0.45595566  0.50003675  1.0
  O  O20  1  1.54404434  1.75481986  1.49996325  1.0
  O  O21  1  1.25485661  1.75481986  1.21077552  1.0
  O  O22  1  0.95591891  0.74514339  0.49996325  1.0
  O  O23  1  0.24518014  0.74514339  0.78922448  1.0
  O  O24  1  0.61479965  0.93194755  1.04672053  1.0
  O  O25  1  0.88522703  0.93194755  1.31714790  1.0
  O  O26  1  1.06805245  1.38520035  0.95327947  1.0
  O  O27  1  0.43192087  0.38520035  0.31714790  1.0
  O  O28  1  1.61479965  1.56807913  1.68285210  1.0
  O  O29  1  0.88522703  1.56807913  0.95327947  1.0
  O  O30  1  1.06805245  1.11477297  0.68285210  1.0
  O  O31  1  0.43192087  1.11477297  1.04672053  1.0
  O  O32  1  0.50000000  0.50000000  0.00000000  1.0
  O  O33  1  0.00000000  0.00000000  0.00000000  1.0
