# generated using pymatgen
data_SrMgF4
_symmetry_space_group_name_H-M   'P 1'
_cell_length_a   7.80449521
_cell_length_b   7.80449521
_cell_length_c   5.59500907
_cell_angle_alpha   90.00000000
_cell_angle_beta   90.00000000
_cell_angle_gamma   149.77292988
_symmetry_Int_Tables_number   1
_chemical_formula_structural   SrMgF4
_chemical_formula_sum   'Sr2 Mg2 F8'
_cell_volume   171.56472362
_cell_formula_units_Z   2
loop_
 _symmetry_equiv_pos_site_id
 _symmetry_equiv_pos_as_xyz
  1  'x, y, z'
loop_
 _atom_site_type_symbol
 _atom_site_label
 _atom_site_symmetry_multiplicity
 _atom_site_fract_x
 _atom_site_fract_y
 _atom_site_fract_z
 _atom_site_occupancy
  Sr  Sr0  1  -0.67025220  0.67025220  0.25000000  1.0
  Sr  Sr1  1  -0.32974780  1.32974780  0.75000000  1.0
  Mg  Mg2  1  -0.91204756  0.91204756  0.25000000  1.0
  Mg  Mg3  1  -0.08795244  1.08795244  0.75000000  1.0
  F  F4  1  -0.81424694  0.81424694  0.49782891  1.0
  F  F5  1  -0.81424694  0.81424694  0.00217109  1.0
  F  F6  1  -0.18575306  1.18575306  0.99782891  1.0
  F  F7  1  -0.18575306  1.18575306  0.50217109  1.0
  F  F8  1  -0.39839663  1.39839663  0.25000000  1.0
  F  F9  1  -0.60160337  0.60160337  0.75000000  1.0
  F  F10  1  0.00000000  0.00000000  0.50000000  1.0
  F  F11  1  0.00000000  0.00000000  0.00000000  1.0
