# generated using pymatgen
data_Fe(Mo3Se4)2
_symmetry_space_group_name_H-M   'P 1'
_cell_length_a   6.71840003
_cell_length_b   6.71854153
_cell_length_c   6.71866435
_cell_angle_alpha   92.49788808
_cell_angle_beta   92.50640866
_cell_angle_gamma   92.48075154
_symmetry_Int_Tables_number   1
_chemical_formula_structural   Fe(Mo3Se4)2
_chemical_formula_sum   'Fe1 Mo6 Se8'
_cell_volume   302.37765689
_cell_formula_units_Z   1
loop_
 _symmetry_equiv_pos_site_id
 _symmetry_equiv_pos_as_xyz
  1  'x, y, z'
loop_
 _atom_site_type_symbol
 _atom_site_label
 _atom_site_symmetry_multiplicity
 _atom_site_fract_x
 _atom_site_fract_y
 _atom_site_fract_z
 _atom_site_occupancy
  Fe  Fe0  1  0.00000000  0.00000000  0.00000000  1.0
  Mo  Mo1  1  -0.54715475  -0.41836098  -0.22805089  1.0
  Mo  Mo2  1  -0.45284525  -0.58163902  -0.77194911  1.0
  Mo  Mo3  1  -0.22804657  -0.54722724  -0.41837609  1.0
  Mo  Mo4  1  -0.77195343  -0.45277276  -0.58162391  1.0
  Mo  Mo5  1  -0.41839224  -0.22804814  -0.54719381  1.0
  Mo  Mo6  1  -0.58160776  -0.77195186  -0.45280619  1.0
  Se  Se7  1  -0.36749222  -0.74392263  -0.12875477  1.0
  Se  Se8  1  -0.63250778  -0.25607737  -0.87124523  1.0
  Se  Se9  1  -0.21580793  -0.21578779  -0.21580578  1.0
  Se  Se10  1  -0.78419207  -0.78421221  -0.78419422  1.0
  Se  Se11  1  -0.74394658  -0.12870530  -0.36759317  1.0
  Se  Se12  1  -0.25605342  -0.87129470  -0.63240683  1.0
  Se  Se13  1  -0.12882375  -0.36765014  -0.74394758  1.0
  Se  Se14  1  -0.87117625  -0.63234986  -0.25605242  1.0
