# generated using pymatgen
data_GdSeClO3
_symmetry_space_group_name_H-M   'P 1'
_cell_length_a   7.52190600
_cell_length_b   7.12732202
_cell_length_c   8.92764022
_cell_angle_alpha   90.00000000
_cell_angle_beta   90.00000000
_cell_angle_gamma   90.00000000
_symmetry_Int_Tables_number   1
_chemical_formula_structural   GdSeClO3
_chemical_formula_sum   'Gd4 Se4 Cl4 O12'
_cell_volume   478.62013297
_cell_formula_units_Z   4
loop_
 _symmetry_equiv_pos_site_id
 _symmetry_equiv_pos_as_xyz
  1  'x, y, z'
loop_
 _atom_site_type_symbol
 _atom_site_label
 _atom_site_symmetry_multiplicity
 _atom_site_fract_x
 _atom_site_fract_y
 _atom_site_fract_z
 _atom_site_occupancy
  Gd  Gd0  1  0.60556321  0.75000000  0.54056911  1.0
  Gd  Gd1  1  0.10556321  0.75000000  0.95943089  1.0
  Gd  Gd2  1  0.39443679  0.25000000  0.45943089  1.0
  Gd  Gd3  1  0.89443679  0.25000000  0.04056911  1.0
  Se  Se4  1  0.71649987  0.75000000  0.13166017  1.0
  Se  Se5  1  0.21649987  0.75000000  0.36833983  1.0
  Se  Se6  1  0.28350013  0.25000000  0.86833983  1.0
  Se  Se7  1  0.78350013  0.25000000  0.63166017  1.0
  Cl  Cl8  1  0.93488273  0.75000000  0.68357609  1.0
  Cl  Cl9  1  0.43488273  0.75000000  0.81642391  1.0
  Cl  Cl10  1  0.06511727  0.25000000  0.31642391  1.0
  Cl  Cl11  1  0.56511727  0.25000000  0.18357609  1.0
  O  O12  1  0.86111720  0.92566259  0.06977201  1.0
  O  O13  1  0.86111720  0.57433741  0.06977201  1.0
  O  O14  1  0.36111720  0.92566259  0.43022799  1.0
  O  O15  1  0.36111720  0.57433741  0.43022799  1.0
  O  O16  1  0.13888280  0.42566259  0.93022799  1.0
  O  O17  1  0.13888280  0.07433741  0.93022799  1.0
  O  O18  1  0.63888280  0.42566259  0.56977201  1.0
  O  O19  1  0.63888280  0.07433741  0.56977201  1.0
  O  O20  1  0.75069308  0.75000000  0.31927696  1.0
  O  O21  1  0.25069308  0.75000000  0.18072304  1.0
  O  O22  1  0.24930692  0.25000000  0.68072304  1.0
  O  O23  1  0.74930692  0.25000000  0.81927696  1.0
