# generated using pymatgen
data_Y2ReB6
_symmetry_space_group_name_H-M   'P 1'
_cell_length_a   9.17396680
_cell_length_b   11.55307287
_cell_length_c   3.67453112
_cell_angle_alpha   90.00000000
_cell_angle_beta   90.00000000
_cell_angle_gamma   90.00000000
_symmetry_Int_Tables_number   1
_chemical_formula_structural   Y2ReB6
_chemical_formula_sum   'Y8 Re4 B24'
_cell_volume   389.45439313
_cell_formula_units_Z   4
loop_
 _symmetry_equiv_pos_site_id
 _symmetry_equiv_pos_as_xyz
  1  'x, y, z'
loop_
 _atom_site_type_symbol
 _atom_site_label
 _atom_site_symmetry_multiplicity
 _atom_site_fract_x
 _atom_site_fract_y
 _atom_site_fract_z
 _atom_site_occupancy
  Y  Y0  1  0.17688209  0.91393751  0.50000000  1.0
  Y  Y1  1  0.67688209  0.58606249  0.50000000  1.0
  Y  Y2  1  0.82311791  0.08606249  0.50000000  1.0
  Y  Y3  1  0.32311791  0.41393751  0.50000000  1.0
  Y  Y4  1  0.05740393  0.63009959  0.50000000  1.0
  Y  Y5  1  0.55740393  0.86990041  0.50000000  1.0
  Y  Y6  1  0.94259607  0.36990041  0.50000000  1.0
  Y  Y7  1  0.44259607  0.13009959  0.50000000  1.0
  Re  Re8  1  0.36184837  0.67917406  0.50000000  1.0
  Re  Re9  1  0.86184837  0.82082594  0.50000000  1.0
  Re  Re10  1  0.63815163  0.32082594  0.50000000  1.0
  Re  Re11  1  0.13815163  0.17917406  0.50000000  1.0
  B  B12  1  0.44687444  0.56725468  0.00000000  1.0
  B  B13  1  0.94687444  0.93274532  0.00000000  1.0
  B  B14  1  0.55312556  0.43274532  0.00000000  1.0
  B  B15  1  0.05312556  0.06725468  0.00000000  1.0
  B  B16  1  0.40006852  0.97197148  0.00000000  1.0
  B  B17  1  0.90006852  0.52802852  0.00000000  1.0
  B  B18  1  0.59993148  0.02802852  0.00000000  1.0
  B  B19  1  0.09993148  0.47197148  0.00000000  1.0
  B  B20  1  0.36958947  0.81414499  0.00000000  1.0
  B  B21  1  0.86958947  0.68585501  0.00000000  1.0
  B  B22  1  0.63041053  0.18585501  0.00000000  1.0
  B  B23  1  0.13041053  0.31414499  0.00000000  1.0
  B  B24  1  0.25135180  0.58165513  0.00000000  1.0
  B  B25  1  0.75135180  0.91834487  0.00000000  1.0
  B  B26  1  0.74864820  0.41834487  0.00000000  1.0
  B  B27  1  0.24864820  0.08165513  0.00000000  1.0
  B  B28  1  0.20868377  0.73461427  0.00000000  1.0
  B  B29  1  0.70868377  0.76538573  0.00000000  1.0
  B  B30  1  0.79131623  0.26538573  0.00000000  1.0
  B  B31  1  0.29131623  0.23461427  0.00000000  1.0
  B  B32  1  0.01786564  0.78822844  0.00000000  1.0
  B  B33  1  0.51786564  0.71177156  0.00000000  1.0
  B  B34  1  0.98213436  0.21177156  0.00000000  1.0
  B  B35  1  0.48213436  0.28822844  0.00000000  1.0
