# generated using pymatgen
data_TlCuAsO4
_symmetry_space_group_name_H-M   'P 1'
_cell_length_a   5.10397232
_cell_length_b   5.10397232
_cell_length_c   18.97689624
_cell_angle_alpha   87.75769643
_cell_angle_beta   92.24230357
_cell_angle_gamma   89.54896545
_symmetry_Int_Tables_number   1
_chemical_formula_structural   TlCuAsO4
_chemical_formula_sum   'Tl4 Cu4 As4 O16'
_cell_volume   493.57961365
_cell_formula_units_Z   4
loop_
 _symmetry_equiv_pos_site_id
 _symmetry_equiv_pos_as_xyz
  1  'x, y, z'
loop_
 _atom_site_type_symbol
 _atom_site_label
 _atom_site_symmetry_multiplicity
 _atom_site_fract_x
 _atom_site_fract_y
 _atom_site_fract_z
 _atom_site_occupancy
  Tl  Tl0  1  0.74038957  -0.29387448  0.06782528  1.0
  Tl  Tl1  1  1.29387448  0.25961043  0.56782528  1.0
  Tl  Tl2  1  0.70612552  -0.25961043  0.43217472  1.0
  Tl  Tl3  1  1.25961043  0.29387448  0.93217472  1.0
  Cu  Cu4  1  1.70791939  0.20895707  0.24975997  1.0
  Cu  Cu5  1  0.79104293  -0.70791939  0.74975997  1.0
  Cu  Cu6  1  1.20895707  0.70791939  0.25024003  1.0
  Cu  Cu7  1  0.29208061  -0.20895707  0.75024003  1.0
  As  As8  1  1.22520179  0.19195445  0.35061481  1.0
  As  As9  1  0.80804555  -0.22520179  0.85061481  1.0
  As  As10  1  1.19195445  0.22520179  0.14938519  1.0
  As  As11  1  0.77479821  -0.19195445  0.64938519  1.0
  O  O12  1  1.89192624  0.11901896  0.33738330  1.0
  O  O13  1  0.88098104  -0.89192624  0.83738330  1.0
  O  O14  1  1.11901896  0.89192624  0.16261670  1.0
  O  O15  1  0.10807376  -0.11901896  0.66261670  1.0
  O  O16  1  0.39933943  0.01773453  0.28537721  1.0
  O  O17  1  0.98226547  0.60066057  0.78537721  1.0
  O  O18  1  1.01773453  -0.60066057  0.21462279  1.0
  O  O19  1  1.60066057  -0.01773453  0.71462279  1.0
  O  O20  1  1.32786500  0.08320506  0.43352906  1.0
  O  O21  1  0.91679494  -0.32786500  0.93352906  1.0
  O  O22  1  1.08320506  0.32786500  0.06647094  1.0
  O  O23  1  0.67213500  -0.08320506  0.56647094  1.0
  O  O24  1  1.52463680  0.29775872  0.16207207  1.0
  O  O25  1  0.70224128  -0.52463680  0.66207207  1.0
  O  O26  1  1.29775872  0.52463680  0.33792793  1.0
  O  O27  1  0.47536320  -0.29775872  0.83792793  1.0
