# generated using pymatgen
data_Rb2LiNbS4
_symmetry_space_group_name_H-M   'P 1'
_cell_length_a   7.22469123
_cell_length_b   12.12948989
_cell_length_c   11.56241724
_cell_angle_alpha   71.16292430
_cell_angle_beta   83.12305176
_cell_angle_gamma   86.75498764
_symmetry_Int_Tables_number   1
_chemical_formula_structural   Rb2LiNbS4
_chemical_formula_sum   'Rb8 Li4 Nb4 S16'
_cell_volume   951.89444489
_cell_formula_units_Z   4
loop_
 _symmetry_equiv_pos_site_id
 _symmetry_equiv_pos_as_xyz
  1  'x, y, z'
loop_
 _atom_site_type_symbol
 _atom_site_label
 _atom_site_symmetry_multiplicity
 _atom_site_fract_x
 _atom_site_fract_y
 _atom_site_fract_z
 _atom_site_occupancy
  Rb  Rb0  1  -0.74345586  -0.86015369  -0.15712903  1.0
  Rb  Rb1  1  -0.25654414  -0.13984631  -0.84287097  1.0
  Rb  Rb2  1  -0.74837922  -0.35440431  -0.65354863  1.0
  Rb  Rb3  1  -0.25162078  -0.64559569  -0.34645137  1.0
  Rb  Rb4  1  -0.73124498  -0.72923877  -0.61954354  1.0
  Rb  Rb5  1  -0.26875502  -0.27076123  -0.38045646  1.0
  Rb  Rb6  1  -0.31425926  -0.75100076  -0.90124573  1.0
  Rb  Rb7  1  -0.68574074  -0.24899924  -0.09875427  1.0
  Li  Li8  1  -0.83141055  -0.58655454  -0.99190617  1.0
  Li  Li9  1  -0.16858945  -0.41344546  -0.00809383  1.0
  Li  Li10  1  -0.19765807  -0.92253953  -0.51317152  1.0
  Li  Li11  1  -0.80234193  -0.07746047  -0.48682848  1.0
  Nb  Nb12  1  -0.79267983  -0.98437313  -0.77211378  1.0
  Nb  Nb13  1  -0.20732017  -0.01562687  -0.22788622  1.0
  Nb  Nb14  1  -0.78237297  -0.48385014  -0.27372292  1.0
  Nb  Nb15  1  -0.21762703  -0.51614986  -0.72627708  1.0
  S  S16  1  -0.95131759  -0.95018208  -0.36816085  1.0
  S  S17  1  -0.04868241  -0.04981792  -0.63183915  1.0
  S  S18  1  -0.94057025  -0.47385429  -0.85202866  1.0
  S  S19  1  -0.05942975  -0.52614571  -0.14797134  1.0
  S  S20  1  -0.82761873  -0.79380411  -0.88817838  1.0
  S  S21  1  -0.17238127  -0.20619589  -0.11182162  1.0
  S  S22  1  -0.75209214  -0.59744682  -0.39803280  1.0
  S  S23  1  -0.24790786  -0.40255318  -0.60196720  1.0
  S  S24  1  -0.74077036  -0.10035170  -0.89383330  1.0
  S  S25  1  -0.25922964  -0.89964830  -0.10616670  1.0
  S  S26  1  -0.55067275  -0.99867060  -0.65855217  1.0
  S  S27  1  -0.44932725  -0.00132940  -0.34144783  1.0
  S  S28  1  -0.44445106  -0.47045463  -0.85550670  1.0
  S  S29  1  -0.55554894  -0.52954537  -0.14449330  1.0
  S  S30  1  -0.23280696  -0.71016594  -0.61610504  1.0
  S  S31  1  -0.76719304  -0.28983406  -0.38389496  1.0
