# generated using pymatgen
data_MnNbF6
_symmetry_space_group_name_H-M   'P 1'
_cell_length_a   5.77866145
_cell_length_b   5.77866145
_cell_length_c   5.77866145
_cell_angle_alpha   60.91965919
_cell_angle_beta   60.91965919
_cell_angle_gamma   60.91965919
_symmetry_Int_Tables_number   1
_chemical_formula_structural   MnNbF6
_chemical_formula_sum   'Mn1 Nb1 F6'
_cell_volume   139.27594747
_cell_formula_units_Z   1
loop_
 _symmetry_equiv_pos_site_id
 _symmetry_equiv_pos_as_xyz
  1  'x, y, z'
loop_
 _atom_site_type_symbol
 _atom_site_label
 _atom_site_symmetry_multiplicity
 _atom_site_fract_x
 _atom_site_fract_y
 _atom_site_fract_z
 _atom_site_occupancy
  Mn  Mn0  1  0.50000000  0.50000000  -0.50000000  1.0
  Nb  Nb1  1  -0.00000000  -0.00000000  0.00000000  1.0
  F  F2  1  0.24220254  0.75560491  -0.75831950  1.0
  F  F3  1  0.75831950  -0.24220254  0.24439509  1.0
  F  F4  1  1.24439509  -0.24168050  -0.24220254  1.0
  F  F5  1  0.75779746  0.24439509  -0.24168050  1.0
  F  F6  1  0.24168050  0.24220254  -0.24439509  1.0
  F  F7  1  0.75560491  0.24168050  -0.75779746  1.0
