# generated using pymatgen
data_Li2CoGeO4
_symmetry_space_group_name_H-M   'P 1'
_cell_length_a   11.10266532
_cell_length_b   6.31018708
_cell_length_c   5.11826961
_cell_angle_alpha   90.00000000
_cell_angle_beta   90.00000000
_cell_angle_gamma   90.00000000
_symmetry_Int_Tables_number   1
_chemical_formula_structural   Li2CoGeO4
_chemical_formula_sum   'Li8 Co4 Ge4 O16'
_cell_volume   358.58543283
_cell_formula_units_Z   4
loop_
 _symmetry_equiv_pos_site_id
 _symmetry_equiv_pos_as_xyz
  1  'x, y, z'
loop_
 _atom_site_type_symbol
 _atom_site_label
 _atom_site_symmetry_multiplicity
 _atom_site_fract_x
 _atom_site_fract_y
 _atom_site_fract_z
 _atom_site_occupancy
  O  O0  1  0.58990892  0.98171614  0.29049938  1.0
  O  O1  1  0.58990892  0.51828386  0.29049938  1.0
  O  O2  1  0.08990892  0.98171614  0.20950062  1.0
  O  O3  1  0.08990892  0.51828386  0.20950062  1.0
  O  O4  1  0.41009108  0.48171614  0.70950062  1.0
  O  O5  1  0.41009108  0.01828386  0.70950062  1.0
  O  O6  1  0.91009108  0.48171614  0.79049938  1.0
  O  O7  1  0.91009108  0.01828386  0.79049938  1.0
  O  O8  1  0.83344896  0.25000000  0.32652294  1.0
  O  O9  1  0.33344896  0.25000000  0.17347706  1.0
  O  O10  1  0.16655104  0.75000000  0.67347706  1.0
  O  O11  1  0.66655104  0.75000000  0.82652294  1.0
  O  O12  1  0.68164008  0.25000000  0.79034812  1.0
  O  O13  1  0.18164008  0.25000000  0.70965188  1.0
  O  O14  1  0.31835992  0.75000000  0.20965188  1.0
  O  O15  1  0.81835992  0.75000000  0.29034812  1.0
  Co  Co16  1  0.66748754  0.25000000  0.17901984  1.0
  Co  Co17  1  0.16748754  0.25000000  0.32098016  1.0
  Co  Co18  1  0.33251246  0.75000000  0.82098016  1.0
  Co  Co19  1  0.83251246  0.75000000  0.67901984  1.0
  Ge  Ge20  1  0.83422911  0.25000000  0.67586541  1.0
  Ge  Ge21  1  0.33422911  0.25000000  0.82413459  1.0
  Ge  Ge22  1  0.16577089  0.75000000  0.32413459  1.0
  Ge  Ge23  1  0.66577089  0.75000000  0.17586541  1.0
  Li  Li24  1  0.91398997  0.50173316  0.18287513  1.0
  Li  Li25  1  0.91398997  -0.00173316  0.18287513  1.0
  Li  Li26  1  0.41398997  0.50173316  0.31712487  1.0
  Li  Li27  1  0.41398997  -0.00173316  0.31712487  1.0
  Li  Li28  1  0.08601003  1.00173316  0.81712487  1.0
  Li  Li29  1  0.08601003  0.49826684  0.81712487  1.0
  Li  Li30  1  0.58601003  1.00173316  0.68287513  1.0
  Li  Li31  1  0.58601003  0.49826684  0.68287513  1.0
