# generated using pymatgen
data_NaCdIn2(PO4)3
_symmetry_space_group_name_H-M   'P 1'
_cell_length_a   9.15212681
_cell_length_b   9.15212681
_cell_length_c   6.68633557
_cell_angle_alpha   72.70705266
_cell_angle_beta   107.29294734
_cell_angle_gamma   88.08488722
_symmetry_Int_Tables_number   1
_chemical_formula_structural   NaCdIn2(PO4)3
_chemical_formula_sum   'Na2 Cd2 In4 P6 O24'
_cell_volume   505.99326248
_cell_formula_units_Z   2
loop_
 _symmetry_equiv_pos_site_id
 _symmetry_equiv_pos_as_xyz
  1  'x, y, z'
loop_
 _atom_site_type_symbol
 _atom_site_label
 _atom_site_symmetry_multiplicity
 _atom_site_fract_x
 _atom_site_fract_y
 _atom_site_fract_z
 _atom_site_occupancy
  Na  Na0  1  0.50000000  -0.50000000  0.00000000  1.0
  Na  Na1  1  0.50000000  -0.50000000  0.50000000  1.0
  Cd  Cd2  1  1.26164525  0.26164525  0.25000000  1.0
  Cd  Cd3  1  0.73835475  -0.26164525  0.75000000  1.0
  In  In4  1  0.92977838  -0.62990492  0.36967205  1.0
  In  In5  1  1.62990492  0.07022162  0.86967205  1.0
  In  In6  1  0.37009508  -0.07022162  0.13032795  1.0
  In  In7  1  1.07022162  0.62990492  0.63032795  1.0
  P  P8  1  0.71330705  -0.28669295  0.25000000  1.0
  P  P9  1  1.28669295  0.28669295  0.75000000  1.0
  P  P10  1  1.13510944  0.64566562  0.13592066  1.0
  P  P11  1  0.35433438  -0.13510944  0.63592066  1.0
  P  P12  1  1.64566562  0.13510944  0.36407934  1.0
  P  P13  1  0.86489056  -0.64566562  0.86407934  1.0
  O  O14  1  1.17042578  0.26417677  0.53940375  1.0
  O  O15  1  0.73582323  -0.17042578  0.03940375  1.0
  O  O16  1  1.26417677  0.17042578  0.96059625  1.0
  O  O17  1  0.82957422  -0.26417677  0.46059625  1.0
  O  O18  1  0.73333457  -0.45247308  0.23542369  1.0
  O  O19  1  1.45247308  0.26666543  0.73542369  1.0
  O  O20  1  0.54752692  -0.26666543  0.26457631  1.0
  O  O21  1  1.26666543  0.45247308  0.76457631  1.0
  O  O22  1  0.98861645  -0.66408429  0.09416201  1.0
  O  O23  1  1.66408429  0.01138355  0.59416201  1.0
  O  O24  1  0.33591571  -0.01138355  0.40583799  1.0
  O  O25  1  1.01138355  0.66408429  0.90583799  1.0
  O  O26  1  1.52457089  0.27394306  0.31500019  1.0
  O  O27  1  0.72605694  -0.52457089  0.81500019  1.0
  O  O28  1  1.27394306  0.52457089  0.18499981  1.0
  O  O29  1  0.47542911  -0.27394306  0.68499981  1.0
  O  O30  1  1.04886518  0.59015716  0.31377952  1.0
  O  O31  1  0.40984284  -0.04886518  0.81377952  1.0
  O  O32  1  1.59015716  0.04886518  0.18622048  1.0
  O  O33  1  0.95113482  -0.59015716  0.68622048  1.0
  O  O34  1  1.80289924  0.18571630  0.35486857  1.0
  O  O35  1  0.81428370  -0.80289924  0.85486857  1.0
  O  O36  1  1.18571630  0.80289924  0.14513143  1.0
  O  O37  1  0.19710076  -0.18571630  0.64513143  1.0
