# generated using pymatgen
data_TbPO4
_symmetry_space_group_name_H-M   'P 1'
_cell_length_a   5.02064461
_cell_length_b   6.93477090
_cell_length_c   6.84838195
_cell_angle_alpha   90.00000000
_cell_angle_beta   90.00000000
_cell_angle_gamma   90.00000000
_symmetry_Int_Tables_number   1
_chemical_formula_structural   TbPO4
_chemical_formula_sum   'Tb4 P4 O16'
_cell_volume   238.44025225
_cell_formula_units_Z   4
loop_
 _symmetry_equiv_pos_site_id
 _symmetry_equiv_pos_as_xyz
  1  'x, y, z'
loop_
 _atom_site_type_symbol
 _atom_site_label
 _atom_site_symmetry_multiplicity
 _atom_site_fract_x
 _atom_site_fract_y
 _atom_site_fract_z
 _atom_site_occupancy
  Tb  Tb0  1  0.48933958  0.31080047  0.75000000  1.0
  Tb  Tb1  1  0.51066042  0.68919953  0.25000000  1.0
  Tb  Tb2  1  0.48933958  0.18919953  0.25000000  1.0
  Tb  Tb3  1  0.51066042  0.81080047  0.75000000  1.0
  P  P4  1  0.00000000  0.50000000  0.50000000  1.0
  P  P5  1  0.00000000  0.50000000  0.00000000  1.0
  P  P6  1  0.00000000  0.00000000  0.50000000  1.0
  P  P7  1  0.00000000  0.00000000  0.00000000  1.0
  O  O8  1  0.70831723  0.07417926  0.56331162  1.0
  O  O9  1  0.29168277  0.92582074  0.06331162  1.0
  O  O10  1  0.70831723  0.42582074  0.43668838  1.0
  O  O11  1  0.29168277  0.57417926  0.93668838  1.0
  O  O12  1  0.29168277  0.92582074  0.43668838  1.0
  O  O13  1  0.70831723  0.07417926  0.93668838  1.0
  O  O14  1  0.29168277  0.57417926  0.56331162  1.0
  O  O15  1  0.70831723  0.42582074  0.06331162  1.0
  O  O16  1  0.14423267  0.25000000  0.50000000  1.0
  O  O17  1  0.85576733  0.75000000  0.00000000  1.0
  O  O18  1  0.85576733  0.75000000  0.50000000  1.0
  O  O19  1  0.14423267  0.25000000  0.00000000  1.0
  O  O20  1  0.88637740  0.47558972  0.75000000  1.0
  O  O21  1  0.11362260  0.52441028  0.25000000  1.0
  O  O22  1  0.88637740  0.02441028  0.25000000  1.0
  O  O23  1  0.11362260  0.97558972  0.75000000  1.0
