# generated using pymatgen
data_LaSiI
_symmetry_space_group_name_H-M   'P 1'
_cell_length_a   4.24544109
_cell_length_b   4.24544109
_cell_length_c   12.71431473
_cell_angle_alpha   90.00000000
_cell_angle_beta   90.00000000
_cell_angle_gamma   120.00000000
_symmetry_Int_Tables_number   1
_chemical_formula_structural   LaSiI
_chemical_formula_sum   'La2 Si2 I2'
_cell_volume   198.45828191
_cell_formula_units_Z   2
loop_
 _symmetry_equiv_pos_site_id
 _symmetry_equiv_pos_as_xyz
  1  'x, y, z'
loop_
 _atom_site_type_symbol
 _atom_site_label
 _atom_site_symmetry_multiplicity
 _atom_site_fract_x
 _atom_site_fract_y
 _atom_site_fract_z
 _atom_site_occupancy
  La  La0  1  0.00000000  0.00000000  0.16149175  1.0
  La  La1  1  0.00000000  0.00000000  0.83850825  1.0
  Si  Si2  1  0.33333333  0.66666667  0.00513759  1.0
  Si  Si3  1  0.66666667  0.33333333  0.99486241  1.0
  I  I4  1  0.33333333  0.66666667  0.66678942  1.0
  I  I5  1  0.66666667  0.33333333  0.33321058  1.0
