# generated using pymatgen
data_BH3NF4
_symmetry_space_group_name_H-M   'P 1'
_cell_length_a   5.40827688
_cell_length_b   5.51621992
_cell_length_c   6.79133867
_cell_angle_alpha   108.76409274
_cell_angle_beta   107.99733421
_cell_angle_gamma   100.30687845
_symmetry_Int_Tables_number   1
_chemical_formula_structural   BH3NF4
_chemical_formula_sum   'B2 H6 N2 F8'
_cell_volume   173.52080327
_cell_formula_units_Z   2
loop_
 _symmetry_equiv_pos_site_id
 _symmetry_equiv_pos_as_xyz
  1  'x, y, z'
loop_
 _atom_site_type_symbol
 _atom_site_label
 _atom_site_symmetry_multiplicity
 _atom_site_fract_x
 _atom_site_fract_y
 _atom_site_fract_z
 _atom_site_occupancy
  B  B0  1  -0.77454771  -0.88157443  -0.68149201  1.0
  B  B1  1  -0.22545229  -0.11842557  -0.31850799  1.0
  H  H2  1  -0.43159777  -0.66887536  -0.87847840  1.0
  H  H3  1  -0.56840223  -0.33112464  -0.12152160  1.0
  H  H4  1  -0.79582843  -0.59651835  -0.12487767  1.0
  H  H5  1  -0.20417157  -0.40348165  -0.87512233  1.0
  H  H6  1  -0.61298053  -0.31524113  -0.87886552  1.0
  H  H7  1  -0.38701947  -0.68475887  -0.12113448  1.0
  N  N8  1  -0.39170080  -0.55834461  -0.97207570  1.0
  N  N9  1  -0.60829920  -0.44165539  -0.02792430  1.0
  F  F10  1  -0.56525359  -0.86132588  -0.77001962  1.0
  F  F11  1  -0.43474641  -0.13867412  -0.22998038  1.0
  F  F12  1  -0.65427920  -0.76259128  -0.44461469  1.0
  F  F13  1  -0.34572080  -0.23740872  -0.55538531  1.0
  F  F14  1  -0.96440688  -0.76320836  -0.76690260  1.0
  F  F15  1  -0.03559312  -0.23679164  -0.23309740  1.0
  F  F16  1  -0.90093494  -0.16634929  -0.75581225  1.0
  F  F17  1  -0.09906506  -0.83365071  -0.24418775  1.0
