# generated using pymatgen
data_Y2AlCo2
_symmetry_space_group_name_H-M   'P 1'
_cell_length_a   5.39967521
_cell_length_b   5.39967521
_cell_length_c   5.39967521
_cell_angle_alpha   136.14250614
_cell_angle_beta   119.31021202
_cell_angle_gamma   77.84229609
_symmetry_Int_Tables_number   1
_chemical_formula_structural   Y2AlCo2
_chemical_formula_sum   'Y2 Al1 Co2'
_cell_volume   92.43827521
_cell_formula_units_Z   1
loop_
 _symmetry_equiv_pos_site_id
 _symmetry_equiv_pos_as_xyz
  1  'x, y, z'
loop_
 _atom_site_type_symbol
 _atom_site_label
 _atom_site_symmetry_multiplicity
 _atom_site_fract_x
 _atom_site_fract_y
 _atom_site_fract_z
 _atom_site_occupancy
  Y  Y0  1  0.70483701  0.20483701  0.50000000  1.0
  Y  Y1  1  1.29516299  0.79516299  0.50000000  1.0
  Al  Al2  1  0.00000000  0.00000000  0.00000000  1.0
  Co  Co3  1  0.28076031  0.50000000  0.78076031  1.0
  Co  Co4  1  0.71923969  0.50000000  1.21923969  1.0
