# generated using pymatgen
data_Re3Se4Cl
_symmetry_space_group_name_H-M   'P 1'
_cell_length_a   6.71244731
_cell_length_b   6.67027771
_cell_length_c   9.30569316
_cell_angle_alpha   107.12530438
_cell_angle_beta   101.60176810
_cell_angle_gamma   86.20550261
_symmetry_Int_Tables_number   1
_chemical_formula_structural   Re3Se4Cl
_chemical_formula_sum   'Re6 Se8 Cl2'
_cell_volume   390.03302789
_cell_formula_units_Z   2
loop_
 _symmetry_equiv_pos_site_id
 _symmetry_equiv_pos_as_xyz
  1  'x, y, z'
loop_
 _atom_site_type_symbol
 _atom_site_label
 _atom_site_symmetry_multiplicity
 _atom_site_fract_x
 _atom_site_fract_y
 _atom_site_fract_z
 _atom_site_occupancy
  Re  Re0  1  0.62000869  0.64249195  -0.79587039  1.0
  Re  Re1  1  0.37999131  0.35750805  -0.20412961  1.0
  Re  Re2  1  0.24486016  0.60365455  -0.96551298  1.0
  Re  Re3  1  0.75513984  0.39634545  -0.03448702  1.0
  Re  Re4  1  0.45967836  0.26781704  -0.93652399  1.0
  Re  Re5  1  0.54032164  0.73218296  -0.06347601  1.0
  Se  Se6  1  0.39820228  0.96214967  -0.82018252  1.0
  Se  Se7  1  0.60179772  0.03785033  -0.17981748  1.0
  Se  Se8  1  0.89440854  0.77649854  -0.89873395  1.0
  Se  Se9  1  0.10559146  0.22350146  -0.10126605  1.0
  Se  Se10  1  0.32769733  0.51599371  -0.71219867  1.0
  Se  Se11  1  0.67230267  0.48400629  -0.28780133  1.0
  Se  Se12  1  0.81717227  0.31169762  -0.78085411  1.0
  Se  Se13  1  0.18282773  0.68830238  -0.21914589  1.0
  Cl  Cl14  1  0.77063137  0.82028882  -0.54149722  1.0
  Cl  Cl15  1  0.22936863  0.17971118  -0.45850278  1.0
