# generated using pymatgen
data_MnHgC4(SeN)4
_symmetry_space_group_name_H-M   'P 1'
_cell_length_a   8.57998222
_cell_length_b   8.57998222
_cell_length_c   8.57998222
_cell_angle_alpha   95.67161805
_cell_angle_beta   95.67161805
_cell_angle_gamma   143.35474940
_symmetry_Int_Tables_number   1
_chemical_formula_structural   MnHgC4(SeN)4
_chemical_formula_sum   'Mn1 Hg1 C4 Se4 N4'
_cell_volume   357.87786869
_cell_formula_units_Z   1
loop_
 _symmetry_equiv_pos_site_id
 _symmetry_equiv_pos_as_xyz
  1  'x, y, z'
loop_
 _atom_site_type_symbol
 _atom_site_label
 _atom_site_symmetry_multiplicity
 _atom_site_fract_x
 _atom_site_fract_y
 _atom_site_fract_z
 _atom_site_occupancy
  Mn  Mn0  1  0.00000000  0.00000000  0.00000000  1.0
  Hg  Hg1  1  0.75000000  0.25000000  0.50000000  1.0
  C  C2  1  0.59448616  0.43639511  0.72391425  1.0
  C  C3  1  1.12942810  0.40551384  0.84190895  1.0
  C  C4  1  0.71248086  0.87057190  1.27608575  1.0
  C  C5  1  0.56360489  1.28751914  1.15809105  1.0
  Se  Se6  1  1.55094937  1.78847357  1.43438164  1.0
  Se  Se7  1  0.88343227  1.44905063  1.23752420  1.0
  Se  Se8  1  1.35409193  1.11656773  0.56561836  1.0
  Se  Se9  1  1.21152643  0.64590807  0.76247580  1.0
  N  N10  1  0.74547049  0.64369285  0.82641032  1.0
  N  N11  1  1.08093983  0.25452951  0.89822237  1.0
  N  N12  1  0.81728253  0.91906017  1.17358968  1.0
  N  N13  1  0.35630715  1.18271747  1.10177763  1.0
