# generated using pymatgen
data_Nb2NiS4
_symmetry_space_group_name_H-M   'P 1'
_cell_length_a   10.01086445
_cell_length_b   3.33758373
_cell_length_c   13.33897172
_cell_angle_alpha   90.00000000
_cell_angle_beta   90.00000000
_cell_angle_gamma   90.00000000
_symmetry_Int_Tables_number   1
_chemical_formula_structural   Nb2NiS4
_chemical_formula_sum   'Nb8 Ni4 S16'
_cell_volume   445.68303420
_cell_formula_units_Z   4
loop_
 _symmetry_equiv_pos_site_id
 _symmetry_equiv_pos_as_xyz
  1  'x, y, z'
loop_
 _atom_site_type_symbol
 _atom_site_label
 _atom_site_symmetry_multiplicity
 _atom_site_fract_x
 _atom_site_fract_y
 _atom_site_fract_z
 _atom_site_occupancy
  Nb  Nb0  1  0.86143727  0.75000000  0.40282637  1.0
  Nb  Nb1  1  0.36143727  0.75000000  0.09717363  1.0
  Nb  Nb2  1  0.13856273  0.25000000  0.59717363  1.0
  Nb  Nb3  1  0.63856273  0.25000000  0.90282637  1.0
  Nb  Nb4  1  0.51206853  0.75000000  0.59364288  1.0
  Nb  Nb5  1  1.01206853  0.75000000  0.90635712  1.0
  Nb  Nb6  1  0.48793147  0.25000000  0.40635712  1.0
  Nb  Nb7  1  -0.01206853  0.25000000  0.09364288  1.0
  Ni  Ni8  1  0.77316361  0.75000000  0.18072922  1.0
  Ni  Ni9  1  0.27316361  0.75000000  0.31927078  1.0
  Ni  Ni10  1  0.22683639  0.25000000  0.81927078  1.0
  Ni  Ni11  1  0.72683639  0.25000000  0.68072922  1.0
  S  S12  1  0.95031237  0.75000000  0.58247117  1.0
  S  S13  1  0.45031237  0.75000000  0.91752883  1.0
  S  S14  1  0.04968763  0.25000000  0.41752883  1.0
  S  S15  1  0.54968763  0.25000000  0.08247117  1.0
  S  S16  1  0.80332337  0.75000000  0.01269410  1.0
  S  S17  1  0.30332337  0.75000000  0.48730590  1.0
  S  S18  1  0.19667663  0.25000000  0.98730590  1.0
  S  S19  1  0.69667663  0.25000000  0.51269410  1.0
  S  S20  1  0.62354649  0.75000000  0.75834077  1.0
  S  S21  1  0.12354649  0.75000000  0.74165923  1.0
  S  S22  1  0.37645351  0.25000000  0.24165923  1.0
  S  S23  1  0.87645351  0.25000000  0.25834077  1.0
  S  S24  1  0.62995977  0.75000000  0.31836020  1.0
  S  S25  1  0.12995977  0.75000000  0.18163980  1.0
  S  S26  1  0.37004023  0.25000000  0.68163980  1.0
  S  S27  1  0.87004023  0.25000000  0.81836020  1.0
