# generated using pymatgen
data_Ba7Ru4Cl2O15
_symmetry_space_group_name_H-M   'P 1'
_cell_length_a   17.74295565
_cell_length_b   17.74295565
_cell_length_c   17.74295565
_cell_angle_alpha   19.03752968
_cell_angle_beta   19.03752968
_cell_angle_gamma   19.03752968
_symmetry_Int_Tables_number   1
_chemical_formula_structural   Ba7Ru4Cl2O15
_chemical_formula_sum   'Ba7 Ru4 Cl2 O15'
_cell_volume   519.42080515
_cell_formula_units_Z   1
loop_
 _symmetry_equiv_pos_site_id
 _symmetry_equiv_pos_as_xyz
  1  'x, y, z'
loop_
 _atom_site_type_symbol
 _atom_site_label
 _atom_site_symmetry_multiplicity
 _atom_site_fract_x
 _atom_site_fract_y
 _atom_site_fract_z
 _atom_site_occupancy
  Cl  Cl0  1  0.85582592  0.85582592  0.85582592  1.0
  Cl  Cl1  1  1.14417408  1.14417408  0.14417408  1.0
  O  O2  1  1.22810426  0.22810426  0.68080183  1.0
  O  O3  1  1.22810426  0.68080183  0.22810426  1.0
  O  O4  1  1.31919817  0.77189574  0.77189574  1.0
  O  O5  1  1.77189574  0.31919817  0.77189574  1.0
  O  O6  1  1.77189574  0.77189574  0.31919817  1.0
  O  O7  1  1.68080183  0.22810426  0.22810426  1.0
  O  O8  1  0.50000000  0.00000000  -0.50000000  1.0
  O  O9  1  0.50000000  -0.50000000  0.00000000  1.0
  O  O10  1  0.00000000  0.50000000  -0.50000000  1.0
  O  O11  1  1.41427040  0.41427040  0.89662489  1.0
  O  O12  1  1.41427040  0.89662489  0.41427040  1.0
  O  O13  1  1.10337511  0.58572960  0.58572960  1.0
  O  O14  1  1.58572960  0.10337511  0.58572960  1.0
  O  O15  1  1.58572960  0.58572960  0.10337511  1.0
  O  O16  1  1.89662489  0.41427040  0.41427040  1.0
  Ba  Ba17  1  0.91664786  0.91664786  0.91664786  1.0
  Ba  Ba18  1  1.08335214  1.08335214  0.08335214  1.0
  Ba  Ba19  1  0.79383574  0.79383574  0.79383574  1.0
  Ba  Ba20  1  1.20616426  1.20616426  0.20616426  1.0
  Ba  Ba21  1  0.71343242  0.71343242  0.71343242  1.0
  Ba  Ba22  1  1.28656758  1.28656758  0.28656758  1.0
  Ba  Ba23  1  0.00000000  0.00000000  0.00000000  1.0
  Ru  Ru24  1  1.59324383  0.59324383  0.59324383  1.0
  Ru  Ru25  1  1.40675617  0.40675617  0.40675617  1.0
  Ru  Ru26  1  1.64599418  0.64599418  0.64599418  1.0
  Ru  Ru27  1  1.35400582  0.35400582  0.35400582  1.0
