# generated using pymatgen
data_LaPOsO
_symmetry_space_group_name_H-M   'P 1'
_cell_length_a   4.07318973
_cell_length_b   4.07318973
_cell_length_c   8.52794257
_cell_angle_alpha   90.00000000
_cell_angle_beta   90.00000000
_cell_angle_gamma   90.00000000
_symmetry_Int_Tables_number   1
_chemical_formula_structural   LaPOsO
_chemical_formula_sum   'La2 P2 Os2 O2'
_cell_volume   141.48602554
_cell_formula_units_Z   2
loop_
 _symmetry_equiv_pos_site_id
 _symmetry_equiv_pos_as_xyz
  1  'x, y, z'
loop_
 _atom_site_type_symbol
 _atom_site_label
 _atom_site_symmetry_multiplicity
 _atom_site_fract_x
 _atom_site_fract_y
 _atom_site_fract_z
 _atom_site_occupancy
  La  La0  1  0.50000000  0.00000000  0.64453353  1.0
  La  La1  1  0.00000000  0.50000000  0.35546647  1.0
  P  P2  1  0.50000000  0.00000000  0.13969297  1.0
  P  P3  1  0.00000000  0.50000000  0.86030703  1.0
  Os  Os4  1  0.00000000  0.00000000  0.00000000  1.0
  Os  Os5  1  0.50000000  0.50000000  0.00000000  1.0
  O  O6  1  0.00000000  0.00000000  0.50000000  1.0
  O  O7  1  0.50000000  0.50000000  0.50000000  1.0
