# generated using pymatgen
data_CrH6SO7
_symmetry_space_group_name_H-M   'P 1'
_cell_length_a   7.40762372
_cell_length_b   7.40762372
_cell_length_c   7.46958647
_cell_angle_alpha   88.06023556
_cell_angle_beta   91.93976444
_cell_angle_gamma   45.23535164
_symmetry_Int_Tables_number   1
_chemical_formula_structural   CrH6SO7
_chemical_formula_sum   'Cr2 H12 S2 O14'
_cell_volume   289.88604237
_cell_formula_units_Z   2
loop_
 _symmetry_equiv_pos_site_id
 _symmetry_equiv_pos_as_xyz
  1  'x, y, z'
loop_
 _atom_site_type_symbol
 _atom_site_label
 _atom_site_symmetry_multiplicity
 _atom_site_fract_x
 _atom_site_fract_y
 _atom_site_fract_z
 _atom_site_occupancy
  Cr  Cr0  1  0.96894444  -0.69881406  0.75627021  1.0
  Cr  Cr1  1  0.69881406  0.03105556  0.25627021  1.0
  H  H2  1  0.95914663  -0.33431104  0.02843662  1.0
  H  H3  1  0.33431104  0.04085337  0.52843662  1.0
  H  H4  1  0.65470248  0.13327223  0.89911654  1.0
  H  H5  1  0.86672777  -0.65470248  0.39911654  1.0
  H  H6  1  1.12208272  -0.44004250  0.21974398  1.0
  H  H7  1  0.44004250  -0.12208272  0.71974398  1.0
  H  H8  1  1.42300008  -0.47384331  0.26730456  1.0
  H  H9  1  0.47384331  -0.42300008  0.76730456  1.0
  H  H10  1  1.38217347  -0.54275599  0.45690329  1.0
  H  H11  1  0.54275599  -0.38217347  0.95690329  1.0
  H  H12  1  0.41053663  0.19624220  0.96080840  1.0
  H  H13  1  0.80375780  -0.41053663  0.46080840  1.0
  S  S14  1  0.98334624  -0.21680889  0.67499075  1.0
  S  S15  1  0.21680889  0.01665376  0.17499075  1.0
  O  O16  1  0.83682272  -0.16603999  0.50122965  1.0
  O  O17  1  0.16603999  0.16317728  0.00122965  1.0
  O  O18  1  0.59771994  -0.42627412  0.83175158  1.0
  O  O19  1  0.42627412  0.40228006  0.33175158  1.0
  O  O20  1  0.94630967  -0.32004950  0.16092000  1.0
  O  O21  1  0.32004950  0.05369033  0.66092000  1.0
  O  O22  1  0.96461827  -0.36005199  0.80452912  1.0
  O  O23  1  0.36005199  0.03538173  0.30452912  1.0
  O  O24  1  0.80730367  -0.54125067  0.49930255  1.0
  O  O25  1  0.54125067  0.19269633  0.99930255  1.0
  O  O26  1  1.25520834  -0.37480121  0.63776800  1.0
  O  O27  1  0.37480121  -0.25520834  0.13776800  1.0
  O  O28  1  0.87008676  0.02793091  0.74592473  1.0
  O  O29  1  0.97206909  -0.87008676  0.24592473  1.0
