# generated using pymatgen
data_HfH8(SO6)2
_symmetry_space_group_name_H-M   'P 1'
_cell_length_a   14.22448180
_cell_length_b   13.26231888
_cell_length_c   6.49614526
_cell_angle_alpha   84.75445077
_cell_angle_beta   68.19508688
_cell_angle_gamma   27.05046235
_symmetry_Int_Tables_number   1
_chemical_formula_structural   HfH8(SO6)2
_chemical_formula_sum   'Hf2 H16 S4 O24'
_cell_volume   426.24957581
_cell_formula_units_Z   2
loop_
 _symmetry_equiv_pos_site_id
 _symmetry_equiv_pos_as_xyz
  1  'x, y, z'
loop_
 _atom_site_type_symbol
 _atom_site_label
 _atom_site_symmetry_multiplicity
 _atom_site_fract_x
 _atom_site_fract_y
 _atom_site_fract_z
 _atom_site_occupancy
  Hf  Hf0  1  0.00000000  0.00000000  0.00000000  1.0
  Hf  Hf1  1  1.25000000  0.25000000  0.25000000  1.0
  H  H2  1  0.15989499  1.64018855  -0.12335385  1.0
  H  H3  1  0.32327031  -0.12335385  1.64018855  1.0
  H  H4  1  -0.12335385  0.32327031  0.15989499  1.0
  H  H5  1  1.64018855  0.15989499  0.32327031  1.0
  H  H6  1  1.09010501  0.60981145  0.37335385  1.0
  H  H7  1  0.92672969  0.37335385  0.60981145  1.0
  H  H8  1  1.37335385  -0.07327031  0.09010501  1.0
  H  H9  1  1.60981145  0.09010501  -0.07327031  1.0
  H  H10  1  0.37149054  1.49638154  -0.11823483  1.0
  H  H11  1  0.25036275  -0.11823483  1.49638154  1.0
  H  H12  1  -0.11823483  0.25036275  0.37149054  1.0
  H  H13  1  1.49638154  0.37149054  0.25036275  1.0
  H  H14  1  0.87850946  0.75361846  0.36823483  1.0
  H  H15  1  0.99963725  0.36823483  0.75361846  1.0
  H  H16  1  0.36823483  0.99963725  0.87850946  1.0
  H  H17  1  0.75361846  0.87850946  0.99963725  1.0
  S  S18  1  0.94319591  0.94319591  0.55680409  1.0
  S  S19  1  0.55680409  -0.44319591  0.94319591  1.0
  S  S20  1  0.30680409  1.30680409  -0.30680409  1.0
  S  S21  1  0.69319591  0.69319591  -0.69319591  1.0
  O  O22  1  0.20532063  1.66309029  -0.09395450  1.0
  O  O23  1  0.22554359  -0.09395450  1.66309029  1.0
  O  O24  1  -0.09395450  0.22554359  0.20532063  1.0
  O  O25  1  1.66309029  0.20532063  0.22554359  1.0
  O  O26  1  1.04467937  0.58690971  0.34395450  1.0
  O  O27  1  1.02445641  0.34395450  0.58690971  1.0
  O  O28  1  1.34395450  0.02445641  0.04467937  1.0
  O  O29  1  1.58690971  0.04467937  0.02445641  1.0
  O  O30  1  0.67468730  1.14766907  0.78126575  1.0
  O  O31  1  0.39637787  -0.21873425  1.14766907  1.0
  O  O32  1  0.78126575  -0.60362213  0.67468730  1.0
  O  O33  1  1.14766907  0.67468730  0.39637787  1.0
  O  O34  1  0.57531270  1.10233093  -0.53126575  1.0
  O  O35  1  0.85362213  0.46873425  1.10233093  1.0
  O  O36  1  0.46873425  0.85362213  -0.42468730  1.0
  O  O37  1  1.10233093  0.57531270  0.85362213  1.0
  O  O38  1  1.04314104  0.91219763  0.65961315  1.0
  O  O39  1  0.38504819  -0.34038685  0.91219763  1.0
  O  O40  1  0.65961315  -0.61495181  1.04314104  1.0
  O  O41  1  0.91219763  1.04314104  0.38504819  1.0
  O  O42  1  1.20685896  0.33780237  0.59038685  1.0
  O  O43  1  -0.13504819  1.59038685  0.33780237  1.0
  O  O44  1  1.59038685  -0.13504819  0.20685896  1.0
  O  O45  1  0.33780237  1.20685896  -0.13504819  1.0
