# generated using pymatgen
data_MnGe4H24C8(S5N)2
_symmetry_space_group_name_H-M   'P 1'
_cell_length_a   10.05733199
_cell_length_b   10.05733199
_cell_length_c   10.05733199
_cell_angle_alpha   122.17100865
_cell_angle_beta   122.17100865
_cell_angle_gamma   86.27911377
_symmetry_Int_Tables_number   1
_chemical_formula_structural   MnGe4H24C8(S5N)2
_chemical_formula_sum   'Mn1 Ge4 H24 C8 S10 N2'
_cell_volume   694.13965168
_cell_formula_units_Z   1
loop_
 _symmetry_equiv_pos_site_id
 _symmetry_equiv_pos_as_xyz
  1  'x, y, z'
loop_
 _atom_site_type_symbol
 _atom_site_label
 _atom_site_symmetry_multiplicity
 _atom_site_fract_x
 _atom_site_fract_y
 _atom_site_fract_z
 _atom_site_occupancy
  Mn  Mn0  1  0.75000000  0.25000000  0.50000000  1.0
  Ge  Ge1  1  1.23582567  0.47538096  0.88682651  1.0
  Ge  Ge2  1  0.58855446  1.34899916  1.11317349  1.0
  Ge  Ge3  1  0.65100084  0.76417433  1.23955529  1.0
  Ge  Ge4  1  0.52461904  0.41144554  0.76044471  1.0
  H  H5  1  1.31116171  1.00177133  1.60937228  1.0
  H  H6  1  0.39239905  0.70178942  0.39062772  1.0
  H  H7  1  0.29821058  0.68883829  0.69060963  1.0
  H  H8  1  0.99822867  0.60760095  1.30939037  1.0
  H  H9  1  1.09430782  0.89964519  1.46258813  1.0
  H  H10  1  0.43705705  0.63171968  0.53741187  1.0
  H  H11  1  0.36828032  0.90569218  0.80533737  1.0
  H  H12  1  1.10035481  0.56294295  1.19466263  1.0
  H  H13  1  1.20001915  0.85480724  1.35126937  1.0
  H  H14  1  0.50353787  0.84874979  0.64873063  1.0
  H  H15  1  0.15125021  0.79998085  0.65478808  1.0
  H  H16  1  1.14519276  0.49646213  1.34521192  1.0
  H  H17  1  1.03866796  0.83606067  1.07758170  1.0
  H  H18  1  0.75847898  0.96108627  0.92241830  1.0
  H  H19  1  1.03891373  0.96133204  1.79739271  1.0
  H  H20  1  0.16393933  0.24152102  0.20260729  1.0
  H  H21  1  0.99813852  1.01715421  1.21810276  1.0
  H  H22  1  0.79905144  0.78003576  0.78189724  1.0
  H  H23  1  0.21996424  1.00186148  1.01901568  1.0
  H  H24  1  0.98284579  0.20094856  0.98098432  1.0
  H  H25  1  1.19573249  1.03456307  1.25969428  1.0
  H  H26  1  0.77486879  0.93603821  0.74030572  1.0
  H  H27  1  0.06396179  0.80426751  0.83883058  1.0
  H  H28  1  0.96543693  0.22513121  1.16116942  1.0
  C  C29  1  1.21050108  0.88706707  1.47951116  1.0
  C  C30  1  0.40755591  0.73098992  0.52048884  1.0
  C  C31  1  0.26901008  0.78949892  0.67656599  1.0
  C  C32  1  1.11293293  0.59244409  1.32343401  1.0
  C  C33  1  1.06309992  0.96953926  1.15077642  1.0
  C  C34  1  0.81876285  0.91232350  0.84922358  1.0
  C  C35  1  0.08767650  0.93690008  0.90643935  1.0
  C  C36  1  1.03046074  0.18123715  1.09356065  1.0
  S  S37  1  0.98721194  0.48110617  0.80688782  1.0
  S  S38  1  0.67421835  1.18032413  1.19311218  1.0
  S  S39  1  0.81967587  1.01278806  1.49389422  1.0
  S  S40  1  0.51889383  0.32578165  0.50610577  1.0
  S  S41  1  0.38510977  0.74665189  1.12949559  1.0
  S  S42  1  0.61715630  0.25561418  0.87050441  1.0
  S  S43  1  0.74438582  0.61489023  0.36154212  1.0
  S  S44  1  1.25334811  1.38284370  1.63845788  1.0
  S  S45  1  0.31988938  0.31988938  -0.00000000  1.0
  S  S46  1  0.68011062  0.68011062  1.00000000  1.0
  N  N47  1  0.25000000  0.75000000  0.50000000  1.0
  N  N48  1  0.00000000  0.00000000  0.00000000  1.0
