# generated using pymatgen
data_Sr3Ta6(Si2O13)2
_symmetry_space_group_name_H-M   'P 1'
_cell_length_a   9.02399603
_cell_length_b   9.02399603
_cell_length_c   7.73375405
_cell_angle_alpha   90.00000000
_cell_angle_beta   90.00000000
_cell_angle_gamma   120.00000000
_symmetry_Int_Tables_number   1
_chemical_formula_structural   Sr3Ta6(Si2O13)2
_chemical_formula_sum   'Sr3 Ta6 Si4 O26'
_cell_volume   545.40457829
_cell_formula_units_Z   1
loop_
 _symmetry_equiv_pos_site_id
 _symmetry_equiv_pos_as_xyz
  1  'x, y, z'
loop_
 _atom_site_type_symbol
 _atom_site_label
 _atom_site_symmetry_multiplicity
 _atom_site_fract_x
 _atom_site_fract_y
 _atom_site_fract_z
 _atom_site_occupancy
  Sr  Sr0  1  0.40298065  0.40298065  0.00000000  1.0
  Sr  Sr1  1  -0.00000000  0.59701935  0.00000000  1.0
  Sr  Sr2  1  0.59701935  0.00000000  0.00000000  1.0
  Ta  Ta3  1  0.76173062  0.76173062  0.74626138  1.0
  Ta  Ta4  1  0.76173062  0.76173062  0.25373862  1.0
  Ta  Ta5  1  -0.00000000  0.23826938  0.74626138  1.0
  Ta  Ta6  1  -0.00000000  0.23826938  0.25373862  1.0
  Ta  Ta7  1  0.23826938  0.00000000  0.74626138  1.0
  Ta  Ta8  1  0.23826938  0.00000000  0.25373862  1.0
  Si  Si9  1  0.33333333  0.66666667  0.70962065  1.0
  Si  Si10  1  0.33333333  0.66666667  0.29037935  1.0
  Si  Si11  1  0.66666667  0.33333333  0.70962065  1.0
  Si  Si12  1  0.66666667  0.33333333  0.29037935  1.0
  O  O13  1  0.31425577  0.82333542  0.79165013  1.0
  O  O14  1  0.31425577  0.82333542  0.20834987  1.0
  O  O15  1  0.82333542  0.31425577  0.79165013  1.0
  O  O16  1  0.82333542  0.31425577  0.20834987  1.0
  O  O17  1  0.50907965  0.68574423  0.79165013  1.0
  O  O18  1  0.50907965  0.68574423  0.20834987  1.0
  O  O19  1  0.17666458  0.49092035  0.79165013  1.0
  O  O20  1  0.17666458  0.49092035  0.20834987  1.0
  O  O21  1  0.68574423  0.50907965  0.79165013  1.0
  O  O22  1  0.68574423  0.50907965  0.20834987  1.0
  O  O23  1  0.49092035  0.17666458  0.79165013  1.0
  O  O24  1  0.49092035  0.17666458  0.20834987  1.0
  O  O25  1  0.18590786  0.18590786  0.73466356  1.0
  O  O26  1  0.18590786  0.18590786  0.26533644  1.0
  O  O27  1  -0.00000000  0.81409214  0.73466356  1.0
  O  O28  1  -0.00000000  0.81409214  0.26533644  1.0
  O  O29  1  0.81409214  0.00000000  0.73466356  1.0
  O  O30  1  0.81409214  0.00000000  0.26533644  1.0
  O  O31  1  0.72154773  0.72154773  0.50000000  1.0
  O  O32  1  0.00000000  0.27845227  0.50000000  1.0
  O  O33  1  0.27845227  0.00000000  0.50000000  1.0
  O  O34  1  0.77964503  0.77964503  0.00000000  1.0
  O  O35  1  -0.00000000  0.22035497  0.00000000  1.0
  O  O36  1  0.22035497  0.00000000  0.00000000  1.0
  O  O37  1  0.33333333  0.66666667  0.50000000  1.0
  O  O38  1  0.66666667  0.33333333  0.50000000  1.0
