# generated using pymatgen
data_RbCo3P3(O5F2)2
_symmetry_space_group_name_H-M   'P 1'
_cell_length_a   10.61565794
_cell_length_b   10.61565794
_cell_length_c   7.64973355
_cell_angle_alpha   78.54061340
_cell_angle_beta   101.45938660
_cell_angle_gamma   138.32240492
_symmetry_Int_Tables_number   1
_chemical_formula_structural   RbCo3P3(O5F2)2
_chemical_formula_sum   'Rb2 Co6 P6 O20 F8'
_cell_volume   560.11863104
_cell_formula_units_Z   2
loop_
 _symmetry_equiv_pos_site_id
 _symmetry_equiv_pos_as_xyz
  1  'x, y, z'
loop_
 _atom_site_type_symbol
 _atom_site_label
 _atom_site_symmetry_multiplicity
 _atom_site_fract_x
 _atom_site_fract_y
 _atom_site_fract_z
 _atom_site_occupancy
  Rb  Rb0  1  0.62209727  0.62209727  0.75000000  1.0
  Rb  Rb1  1  0.37790273  0.37790273  0.25000000  1.0
  F  F2  1  1.26428800  0.21799072  0.90763044  1.0
  F  F3  1  1.21799072  -0.73571200  0.59236956  1.0
  F  F4  1  1.73571200  -0.21799072  0.09236956  1.0
  F  F5  1  0.78200928  -0.26428800  0.40763044  1.0
  F  F6  1  1.71817251  0.06332769  0.92565200  1.0
  F  F7  1  1.06332769  -0.28182749  0.57434800  1.0
  F  F8  1  1.28182749  -0.06332769  0.07434800  1.0
  F  F9  1  0.93667231  -0.71817251  0.42565200  1.0
  P  P10  1  1.46939631  -0.19864286  0.41081923  1.0
  P  P11  1  0.80135714  -0.53060369  0.08918077  1.0
  P  P12  1  1.53060369  0.19864286  0.58918077  1.0
  P  P13  1  1.19864286  -0.46939631  0.91081923  1.0
  P  P14  1  0.10600904  0.10600904  0.75000000  1.0
  P  P15  1  0.89399096  0.89399096  0.25000000  1.0
  Co  Co16  1  1.81103311  0.14643583  0.67681056  1.0
  Co  Co17  1  1.14643583  -0.18896689  0.82318944  1.0
  Co  Co18  1  1.18896689  -0.14643583  0.32318944  1.0
  Co  Co19  1  0.85356417  -0.81103311  0.17681056  1.0
  Co  Co20  1  1.00000000  -0.50000000  0.50000000  1.0
  Co  Co21  1  1.50000000  -0.00000000  0.00000000  1.0
  O  O22  1  0.94306137  -0.93236499  0.77663697  1.0
  O  O23  1  1.06763501  -0.05693863  0.72336303  1.0
  O  O24  1  1.05693863  -0.06763501  0.22336303  1.0
  O  O25  1  1.93236499  0.05693863  0.27663697  1.0
  O  O26  1  1.44543000  -0.35693678  0.41312706  1.0
  O  O27  1  0.64306322  -0.55457000  0.08687294  1.0
  O  O28  1  1.55457000  0.35693678  0.58687294  1.0
  O  O29  1  1.35693678  -0.44543000  0.91312706  1.0
  O  O30  1  1.60053522  -0.08032245  0.57890331  1.0
  O  O31  1  0.91967755  -0.39946478  0.92109669  1.0
  O  O32  1  1.39946478  0.08032245  0.42109669  1.0
  O  O33  1  1.08032245  -0.60053522  0.07890331  1.0
  O  O34  1  1.27694725  -0.26823756  0.41329000  1.0
  O  O35  1  0.73176244  -0.72305275  0.08671000  1.0
  O  O36  1  1.72305275  0.26823756  0.58671000  1.0
  O  O37  1  1.26823756  -0.27694725  0.91329000  1.0
  O  O38  1  1.57209498  -0.05067311  0.24005966  1.0
  O  O39  1  0.94932689  -0.42790502  0.25994034  1.0
  O  O40  1  1.42790502  0.05067311  0.75994034  1.0
  O  O41  1  1.05067311  -0.57209498  0.74005966  1.0
