# generated using pymatgen
data_Hg7(P2Br3)2
_symmetry_space_group_name_H-M   'P 1'
_cell_length_a   6.15907385
_cell_length_b   20.28180566
_cell_length_c   7.73177426
_cell_angle_alpha   90.00000000
_cell_angle_beta   104.12993397
_cell_angle_gamma   90.00000000
_symmetry_Int_Tables_number   1
_chemical_formula_structural   Hg7(P2Br3)2
_chemical_formula_sum   'Hg14 P8 Br12'
_cell_volume   936.60951871
_cell_formula_units_Z   2
loop_
 _symmetry_equiv_pos_site_id
 _symmetry_equiv_pos_as_xyz
  1  'x, y, z'
loop_
 _atom_site_type_symbol
 _atom_site_label
 _atom_site_symmetry_multiplicity
 _atom_site_fract_x
 _atom_site_fract_y
 _atom_site_fract_z
 _atom_site_occupancy
  Hg  Hg0  1  0.99250777  0.13644879  0.07574983  1.0
  Hg  Hg1  1  0.99250777  0.36355121  0.57574983  1.0
  Hg  Hg2  1  0.00749223  0.63644879  0.42425017  1.0
  Hg  Hg3  1  0.00749223  0.86355121  0.92425017  1.0
  Hg  Hg4  1  0.71670712  0.09035005  0.48839203  1.0
  Hg  Hg5  1  0.71670712  0.40964995  0.98839203  1.0
  Hg  Hg6  1  0.28329288  0.59035005  0.01160797  1.0
  Hg  Hg7  1  0.28329288  0.90964995  0.51160797  1.0
  Hg  Hg8  1  0.40369163  0.26812128  0.30441133  1.0
  Hg  Hg9  1  0.40369163  0.23187872  0.80441133  1.0
  Hg  Hg10  1  0.59630837  0.76812128  0.19558867  1.0
  Hg  Hg11  1  0.59630837  0.73187872  0.69558867  1.0
  Hg  Hg12  1  0.50000000  0.50000000  0.50000000  1.0
  Hg  Hg13  1  0.50000000  0.00000000  -0.00000000  1.0
  P  P14  1  0.64256466  0.10286517  0.16147945  1.0
  P  P15  1  0.64256466  0.39713483  0.66147945  1.0
  P  P16  1  0.35743534  0.60286517  0.33852055  1.0
  P  P17  1  0.35743534  0.89713483  0.83852055  1.0
  P  P18  1  0.37462511  0.17791072  0.08343588  1.0
  P  P19  1  0.37462511  0.32208928  0.58343588  1.0
  P  P20  1  0.62537489  0.67791072  0.41656412  1.0
  P  P21  1  0.62537489  0.82208928  0.91656412  1.0
  Br  Br22  1  0.89470579  0.47827905  0.27567423  1.0
  Br  Br23  1  0.89470579  0.02172095  0.77567423  1.0
  Br  Br24  1  0.10529421  0.97827905  0.22432577  1.0
  Br  Br25  1  0.10529421  0.52172095  0.72432577  1.0
  Br  Br26  1  0.85791687  0.28792450  0.20801421  1.0
  Br  Br27  1  0.85791687  0.21207550  0.70801421  1.0
  Br  Br28  1  0.14208313  0.78792450  0.29198579  1.0
  Br  Br29  1  0.14208313  0.71207550  0.79198579  1.0
  Br  Br30  1  0.69631427  0.88528329  0.43307326  1.0
  Br  Br31  1  0.69631427  0.61471671  0.93307326  1.0
  Br  Br32  1  0.30368573  0.38528329  0.06692674  1.0
  Br  Br33  1  0.30368573  0.11471671  0.56692674  1.0
