# generated using pymatgen
data_K3InAu5
_symmetry_space_group_name_H-M   'P 1'
_cell_length_a   11.22652000
_cell_length_b   11.22652000
_cell_length_c   11.22652000
_cell_angle_alpha   54.44622597
_cell_angle_beta   150.81958002
_cell_angle_gamma   135.10310011
_symmetry_Int_Tables_number   1
_chemical_formula_structural   K3InAu5
_chemical_formula_sum   'K6 In2 Au10'
_cell_volume   484.10624593
_cell_formula_units_Z   2
loop_
 _symmetry_equiv_pos_site_id
 _symmetry_equiv_pos_as_xyz
  1  'x, y, z'
loop_
 _atom_site_type_symbol
 _atom_site_label
 _atom_site_symmetry_multiplicity
 _atom_site_fract_x
 _atom_site_fract_y
 _atom_site_fract_z
 _atom_site_occupancy
  K  K0  1  0.37875387  0.79238863  0.91363475  1.0
  K  K1  1  1.62124613  1.20761137  1.08636525  1.0
  K  K2  1  1.62124613  1.53488088  1.41363475  1.0
  K  K3  1  0.37875387  0.46511912  0.58636525  1.0
  K  K4  1  0.61907035  0.86907035  0.75000000  1.0
  K  K5  1  1.38092965  1.13092965  1.25000000  1.0
  In  In6  1  1.16419805  1.41419805  0.75000000  1.0
  In  In7  1  0.83580195  0.58580195  1.25000000  1.0
  Au  Au8  1  0.96348688  1.31872042  0.85523354  1.0
  Au  Au9  1  1.03651312  0.68127958  1.14476646  1.0
  Au  Au10  1  1.03651312  0.89174667  1.35523354  1.0
  Au  Au11  1  0.96348688  1.10825333  0.64476646  1.0
  Au  Au12  1  0.50000000  1.18668706  0.68668706  1.0
  Au  Au13  1  1.00000000  0.81331294  0.81331294  1.0
  Au  Au14  1  1.00000000  1.18668706  1.18668706  1.0
  Au  Au15  1  0.50000000  0.81331294  0.31331294  1.0
  Au  Au16  1  1.00000000  0.50000000  1.00000000  1.0
  Au  Au17  1  1.00000000  1.00000000  0.50000000  1.0
