# generated using pymatgen
data_Nd2Zr2O7
_symmetry_space_group_name_H-M   'P 1'
_cell_length_a   7.58696613
_cell_length_b   7.58696613
_cell_length_c   7.58696613
_cell_angle_alpha   60.00000000
_cell_angle_beta   60.00000000
_cell_angle_gamma   60.00000000
_symmetry_Int_Tables_number   1
_chemical_formula_structural   Nd2Zr2O7
_chemical_formula_sum   'Nd4 Zr4 O14'
_cell_volume   308.80863706
_cell_formula_units_Z   2
loop_
 _symmetry_equiv_pos_site_id
 _symmetry_equiv_pos_as_xyz
  1  'x, y, z'
loop_
 _atom_site_type_symbol
 _atom_site_label
 _atom_site_symmetry_multiplicity
 _atom_site_fract_x
 _atom_site_fract_y
 _atom_site_fract_z
 _atom_site_occupancy
  Zr  Zr0  1  1.12500000  0.62500000  0.62500000  1.0
  Zr  Zr1  1  0.62500000  1.12500000  -0.37500000  1.0
  Zr  Zr2  1  -0.37500000  0.62500000  1.12500000  1.0
  Zr  Zr3  1  -0.37500000  0.62500000  0.62500000  1.0
  O  O4  1  0.70964602  0.70964602  -0.70964602  1.0
  O  O5  1  0.29035398  1.29035398  -0.29035398  1.0
  O  O6  1  0.70964602  -0.70964602  0.70964602  1.0
  O  O7  1  0.29035398  -0.29035398  0.29035398  1.0
  O  O8  1  -0.70964602  0.70964602  0.70964602  1.0
  O  O9  1  -0.29035398  0.29035398  0.29035398  1.0
  O  O10  1  0.54035398  1.54035398  -0.04035398  1.0
  O  O11  1  -0.04035398  -0.04035398  0.54035398  1.0
  O  O12  1  0.54035398  0.95964602  0.54035398  1.0
  O  O13  1  -0.04035398  1.54035398  -0.04035398  1.0
  O  O14  1  -0.04035398  1.54035398  0.54035398  1.0
  O  O15  1  0.54035398  0.95964602  -0.04035398  1.0
  O  O16  1  0.00000000  0.00000000  -0.00000000  1.0
  O  O17  1  0.25000000  1.25000000  0.25000000  1.0
  Nd  Nd18  1  0.62500000  1.12500000  0.12500000  1.0
  Nd  Nd19  1  0.12500000  1.62500000  0.12500000  1.0
  Nd  Nd20  1  0.12500000  0.12500000  1.62500000  1.0
  Nd  Nd21  1  0.12500000  0.12500000  0.12500000  1.0
