# generated using pymatgen
data_KGe2(PO4)3
_symmetry_space_group_name_H-M   'P 1'
_cell_length_a   8.99600483
_cell_length_b   8.99600483
_cell_length_c   8.99600483
_cell_angle_alpha   54.42266604
_cell_angle_beta   54.42266604
_cell_angle_gamma   54.42266604
_symmetry_Int_Tables_number   1
_chemical_formula_structural   KGe2(PO4)3
_chemical_formula_sum   'K2 Ge4 P6 O24'
_cell_volume   447.83753928
_cell_formula_units_Z   2
loop_
 _symmetry_equiv_pos_site_id
 _symmetry_equiv_pos_as_xyz
  1  'x, y, z'
loop_
 _atom_site_type_symbol
 _atom_site_label
 _atom_site_symmetry_multiplicity
 _atom_site_fract_x
 _atom_site_fract_y
 _atom_site_fract_z
 _atom_site_occupancy
  K  K0  1  1.00000000  -0.00000000  -0.00000000  1.0
  K  K1  1  0.50000000  0.50000000  0.50000000  1.0
  Ge  Ge2  1  0.84885048  -0.15114952  -0.15114952  1.0
  Ge  Ge3  1  0.34885048  0.34885048  0.34885048  1.0
  Ge  Ge4  1  0.65114952  0.65114952  -0.34885048  1.0
  Ge  Ge5  1  1.15114952  0.15114952  0.15114952  1.0
  P  P6  1  0.46859171  0.75000000  0.03140829  1.0
  P  P7  1  0.96859171  -0.46859171  0.25000000  1.0
  P  P8  1  0.25000000  0.96859171  -0.46859171  1.0
  P  P9  1  0.75000000  1.03140829  -0.53140829  1.0
  P  P10  1  0.53140829  0.25000000  -0.03140829  1.0
  P  P11  1  1.03140829  0.46859171  -0.25000000  1.0
  O  O12  1  0.73578410  1.01872203  -0.34389398  1.0
  O  O13  1  1.23578410  0.15610602  -0.48127797  1.0
  O  O14  1  0.84389398  0.48127797  -0.23578410  1.0
  O  O15  1  0.34389398  0.26421590  -0.01872203  1.0
  O  O16  1  0.98127797  0.34389398  -0.73578410  1.0
  O  O17  1  0.48127797  0.76421590  -0.15610602  1.0
  O  O18  1  0.26421590  0.98127797  -0.65610602  1.0
  O  O19  1  0.76421590  0.84389398  -0.51872203  1.0
  O  O20  1  0.65610602  0.73578410  0.01872203  1.0
  O  O21  1  1.15610602  -0.48127797  0.23578410  1.0
  O  O22  1  0.51872203  0.23578410  0.15610602  1.0
  O  O23  1  1.01872203  0.65610602  -0.26421590  1.0
  O  O24  1  0.70688863  0.06147377  -0.06455849  1.0
  O  O25  1  1.20688863  0.43544151  -0.43852623  1.0
  O  O26  1  0.56455849  0.43852623  -0.20688863  1.0
  O  O27  1  1.06455849  0.29311137  -0.06147377  1.0
  O  O28  1  0.93852623  0.06455849  0.29311137  1.0
  O  O29  1  0.43852623  0.79311137  -0.43544151  1.0
  O  O30  1  1.29311137  -0.06147377  0.06455849  1.0
  O  O31  1  0.79311137  0.56455849  -0.56147377  1.0
  O  O32  1  0.93544151  -0.29311137  0.06147377  1.0
  O  O33  1  0.43544151  0.56147377  0.20688863  1.0
  O  O34  1  0.56147377  1.20688863  -0.56455849  1.0
  O  O35  1  1.06147377  -0.06455849  -0.29311137  1.0
