# generated using pymatgen
data_Ni5Mo12O
_symmetry_space_group_name_H-M   'P 1'
_cell_length_a   9.59111464
_cell_length_b   9.59111464
_cell_length_c   9.59111464
_cell_angle_alpha   60.00000000
_cell_angle_beta   60.00000000
_cell_angle_gamma   60.00000000
_symmetry_Int_Tables_number   1
_chemical_formula_structural   Ni5Mo12O
_chemical_formula_sum   'Ni10 Mo24 O2'
_cell_volume   623.86733767
_cell_formula_units_Z   2
loop_
 _symmetry_equiv_pos_site_id
 _symmetry_equiv_pos_as_xyz
  1  'x, y, z'
loop_
 _atom_site_type_symbol
 _atom_site_label
 _atom_site_symmetry_multiplicity
 _atom_site_fract_x
 _atom_site_fract_y
 _atom_site_fract_z
 _atom_site_occupancy
  Ni  Ni0  1  0.66592610  -0.33407390  1.00222169  1.0
  Ni  Ni1  1  0.66592610  0.00222169  0.66592610  1.0
  Ni  Ni2  1  0.58407390  -0.41592610  0.58407390  1.0
  Ni  Ni3  1  1.24777831  -0.41592610  0.58407390  1.0
  Ni  Ni4  1  1.00222169  -0.33407390  0.66592610  1.0
  Ni  Ni5  1  0.66592610  -0.33407390  0.66592610  1.0
  Ni  Ni6  1  0.58407390  0.24777831  0.58407390  1.0
  Ni  Ni7  1  0.58407390  -0.41592610  1.24777831  1.0
  Ni  Ni8  1  0.50000000  0.50000000  -0.50000000  1.0
  Ni  Ni9  1  0.75000000  -0.25000000  0.75000000  1.0
  Mo  Mo10  1  0.95904099  -0.60295300  0.68487101  1.0
  Mo  Mo11  1  -0.04095901  0.68487101  0.39704700  1.0
  Mo  Mo12  1  -0.14704700  0.29095901  0.29095901  1.0
  Mo  Mo13  1  0.56512899  0.29095901  0.29095901  1.0
  Mo  Mo14  1  -0.60295300  0.95904099  0.68487101  1.0
  Mo  Mo15  1  0.95904099  -0.04095901  0.68487101  1.0
  Mo  Mo16  1  0.95904099  -0.31512899  0.95904099  1.0
  Mo  Mo17  1  -0.60295300  0.68487101  0.95904099  1.0
  Mo  Mo18  1  0.29095901  -0.14704700  0.29095901  1.0
  Mo  Mo19  1  0.29095901  0.29095901  -0.14704700  1.0
  Mo  Mo20  1  0.56512899  0.29095901  -0.14704700  1.0
  Mo  Mo21  1  0.56512899  -0.14704700  0.29095901  1.0
  Mo  Mo22  1  0.68487101  -0.04095901  0.95904099  1.0
  Mo  Mo23  1  -0.60295300  0.95904099  0.95904099  1.0
  Mo  Mo24  1  0.29095901  0.56512899  -0.14704700  1.0
  Mo  Mo25  1  0.29095901  -0.14704700  0.56512899  1.0
  Mo  Mo26  1  -0.31512899  0.95904099  0.39704700  1.0
  Mo  Mo27  1  0.68487101  -0.60295300  0.95904099  1.0
  Mo  Mo28  1  0.95904099  -0.60295300  0.95904099  1.0
  Mo  Mo29  1  -0.04095901  0.95904099  0.39704700  1.0
  Mo  Mo30  1  0.29095901  0.56512899  0.29095901  1.0
  Mo  Mo31  1  -0.14704700  0.56512899  0.29095901  1.0
  Mo  Mo32  1  -0.14704700  0.29095901  0.56512899  1.0
  Mo  Mo33  1  0.29095901  0.29095901  0.56512899  1.0
  O  O34  1  0.00000000  1.00000000  0.00000000  1.0
  O  O35  1  0.25000000  0.25000000  0.25000000  1.0
