# generated using pymatgen
data_LiV(GeO3)2
_symmetry_space_group_name_H-M   'P 1'
_cell_length_a   10.00650773
_cell_length_b   8.83543075
_cell_length_c   5.44155426
_cell_angle_alpha   90.00000000
_cell_angle_beta   108.36969547
_cell_angle_gamma   90.00000000
_symmetry_Int_Tables_number   1
_chemical_formula_structural   LiV(GeO3)2
_chemical_formula_sum   'Li4 V4 Ge8 O24'
_cell_volume   456.58226567
_cell_formula_units_Z   4
loop_
 _symmetry_equiv_pos_site_id
 _symmetry_equiv_pos_as_xyz
  1  'x, y, z'
loop_
 _atom_site_type_symbol
 _atom_site_label
 _atom_site_symmetry_multiplicity
 _atom_site_fract_x
 _atom_site_fract_y
 _atom_site_fract_z
 _atom_site_occupancy
  Li  Li0  1  0.25479822  0.50908356  0.21685010  1.0
  Li  Li1  1  0.25479822  0.99091644  0.71685010  1.0
  Li  Li2  1  0.74520178  0.00908356  0.28314990  1.0
  Li  Li3  1  0.74520178  0.49091644  0.78314990  1.0
  V  V4  1  0.25213019  0.15562501  0.21151898  1.0
  V  V5  1  0.25213019  0.34437499  0.71151898  1.0
  V  V6  1  0.74786981  0.65562501  0.28848102  1.0
  V  V7  1  0.74786981  0.84437499  0.78848102  1.0
  Ge  Ge8  1  0.04512270  0.65728469  0.77906446  1.0
  Ge  Ge9  1  0.04512270  0.84271531  0.27906446  1.0
  Ge  Ge10  1  0.95487730  0.15728469  0.72093554  1.0
  Ge  Ge11  1  0.95487730  0.34271531  0.22093554  1.0
  Ge  Ge12  1  0.55232437  0.34056522  0.23048053  1.0
  Ge  Ge13  1  0.55232437  0.15943478  0.73048053  1.0
  Ge  Ge14  1  0.44767563  0.84056522  0.26951947  1.0
  Ge  Ge15  1  0.44767563  0.65943478  0.76951947  1.0
  O  O16  1  0.11575565  0.70490196  0.11527751  1.0
  O  O17  1  0.11575565  0.79509804  0.61527751  1.0
  O  O18  1  0.88424435  0.20490196  0.38472249  1.0
  O  O19  1  0.88424435  0.29509804  0.88472249  1.0
  O  O20  1  0.11907214  0.47867575  0.78368213  1.0
  O  O21  1  0.11907214  0.02132425  0.28368213  1.0
  O  O22  1  0.88092786  0.97867575  0.71631787  1.0
  O  O23  1  0.88092786  0.52132425  0.21631787  1.0
  O  O24  1  0.14204052  0.16549832  0.82099187  1.0
  O  O25  1  0.14204052  0.33450168  0.32099187  1.0
  O  O26  1  0.85795948  0.66549832  0.67900813  1.0
  O  O27  1  0.85795948  0.83450168  0.17900813  1.0
  O  O28  1  0.36356768  0.33028837  0.10866057  1.0
  O  O29  1  0.36356768  0.16971163  0.60866057  1.0
  O  O30  1  0.63643232  0.83028837  0.39133943  1.0
  O  O31  1  0.63643232  0.66971163  0.89133943  1.0
  O  O32  1  0.36460132  0.00264374  0.10733987  1.0
  O  O33  1  0.36460132  0.49735626  0.60733987  1.0
  O  O34  1  0.63539868  0.50264374  0.39266013  1.0
  O  O35  1  0.63539868  0.99735626  0.89266013  1.0
  O  O36  1  0.61100870  0.18627978  0.45408902  1.0
  O  O37  1  0.61100870  0.31372022  0.95408902  1.0
  O  O38  1  0.38899130  0.68627978  0.04591098  1.0
  O  O39  1  0.38899130  0.81372022  0.54591098  1.0
