# generated using pymatgen
data_KAl(SO4)2
_symmetry_space_group_name_H-M   'P 1'
_cell_length_a   4.79634660
_cell_length_b   4.79634660
_cell_length_c   16.38387734
_cell_angle_alpha   90.00000000
_cell_angle_beta   90.00000000
_cell_angle_gamma   120.00000000
_symmetry_Int_Tables_number   1
_chemical_formula_structural   KAl(SO4)2
_chemical_formula_sum   'K2 Al2 S4 O16'
_cell_volume   326.41374409
_cell_formula_units_Z   2
loop_
 _symmetry_equiv_pos_site_id
 _symmetry_equiv_pos_as_xyz
  1  'x, y, z'
loop_
 _atom_site_type_symbol
 _atom_site_label
 _atom_site_symmetry_multiplicity
 _atom_site_fract_x
 _atom_site_fract_y
 _atom_site_fract_z
 _atom_site_occupancy
  K  K0  1  -0.00000000  -0.00000000  0.25000000  1.0
  K  K1  1  0.00000000  0.00000000  0.75000000  1.0
  Al  Al2  1  0.00000000  0.00000000  0.00000000  1.0
  Al  Al3  1  0.00000000  0.00000000  0.50000000  1.0
  S  S4  1  0.33333333  0.66666667  0.90005759  1.0
  S  S5  1  0.66666667  0.33333333  0.59994241  1.0
  S  S6  1  0.33333333  0.66666667  0.40005759  1.0
  S  S7  1  0.66666667  0.33333333  0.09994241  1.0
  O  O8  1  0.27601600  0.92809908  0.93078095  1.0
  O  O9  1  0.92809908  0.27601600  0.56921905  1.0
  O  O10  1  0.65208309  0.72398400  0.93078095  1.0
  O  O11  1  0.07190092  0.34791691  0.93078095  1.0
  O  O12  1  0.72398400  0.65208309  0.56921905  1.0
  O  O13  1  0.34791691  0.07190092  0.56921905  1.0
  O  O14  1  0.92809908  0.65208309  0.06921905  1.0
  O  O15  1  0.65208309  0.92809908  0.43078095  1.0
  O  O16  1  0.72398400  0.07190092  0.06921905  1.0
  O  O17  1  0.34791691  0.27601600  0.06921905  1.0
  O  O18  1  0.07190092  0.72398400  0.43078095  1.0
  O  O19  1  0.27601600  0.34791691  0.43078095  1.0
  O  O20  1  0.33333333  0.66666667  0.81062384  1.0
  O  O21  1  0.66666667  0.33333333  0.68937616  1.0
  O  O22  1  0.33333333  0.66666667  0.31062384  1.0
  O  O23  1  0.66666667  0.33333333  0.18937616  1.0
