# generated using pymatgen
data_Al9Ir2
_symmetry_space_group_name_H-M   'P 1'
_cell_length_a   6.39221191
_cell_length_b   6.47124437
_cell_length_c   8.76341389
_cell_angle_alpha   90.00000000
_cell_angle_beta   95.08505914
_cell_angle_gamma   90.00000000
_symmetry_Int_Tables_number   1
_chemical_formula_structural   Al9Ir2
_chemical_formula_sum   'Al18 Ir4'
_cell_volume   361.07683299
_cell_formula_units_Z   2
loop_
 _symmetry_equiv_pos_site_id
 _symmetry_equiv_pos_as_xyz
  1  'x, y, z'
loop_
 _atom_site_type_symbol
 _atom_site_label
 _atom_site_symmetry_multiplicity
 _atom_site_fract_x
 _atom_site_fract_y
 _atom_site_fract_z
 _atom_site_occupancy
  Al  Al0  1  0.90173847  0.28479817  0.77279872  1.0
  Al  Al1  1  0.90173847  0.21520183  0.27279872  1.0
  Al  Al2  1  0.09826153  0.78479817  0.72720128  1.0
  Al  Al3  1  0.09826153  0.71520183  0.22720128  1.0
  Al  Al4  1  0.78870591  0.60342842  0.96086955  1.0
  Al  Al5  1  0.78870591  0.89657158  0.46086955  1.0
  Al  Al6  1  0.21129409  0.10342842  0.53913045  1.0
  Al  Al7  1  0.21129409  0.39657158  0.03913045  1.0
  Al  Al8  1  0.59952649  0.98020528  0.72940772  1.0
  Al  Al9  1  0.59952649  0.51979472  0.22940772  1.0
  Al  Al10  1  0.40047351  0.48020528  0.77059228  1.0
  Al  Al11  1  0.40047351  0.01979472  0.27059228  1.0
  Al  Al12  1  0.38849214  0.80485240  0.99772346  1.0
  Al  Al13  1  0.38849214  0.69514760  0.49772346  1.0
  Al  Al14  1  0.61150786  0.30485240  0.50227654  1.0
  Al  Al15  1  0.61150786  0.19514760  0.00227654  1.0
  Al  Al16  1  0.00000000  0.00000000  0.00000000  1.0
  Al  Al17  1  0.00000000  0.50000000  0.50000000  1.0
  Ir  Ir18  1  0.73576433  0.62299560  0.66850545  1.0
  Ir  Ir19  1  0.73576433  0.87700440  0.16850545  1.0
  Ir  Ir20  1  0.26423567  0.12299560  0.83149455  1.0
  Ir  Ir21  1  0.26423567  0.37700440  0.33149455  1.0
