# generated using pymatgen
data_LuPt
_symmetry_space_group_name_H-M   'P 1'
_cell_length_a   6.88336139
_cell_length_b   4.44410470
_cell_length_c   5.52541895
_cell_angle_alpha   90.00000000
_cell_angle_beta   90.00000000
_cell_angle_gamma   90.00000000
_symmetry_Int_Tables_number   1
_chemical_formula_structural   LuPt
_chemical_formula_sum   'Lu4 Pt4'
_cell_volume   169.02465788
_cell_formula_units_Z   4
loop_
 _symmetry_equiv_pos_site_id
 _symmetry_equiv_pos_as_xyz
  1  'x, y, z'
loop_
 _atom_site_type_symbol
 _atom_site_label
 _atom_site_symmetry_multiplicity
 _atom_site_fract_x
 _atom_site_fract_y
 _atom_site_fract_z
 _atom_site_occupancy
  Lu  Lu0  1  0.31937093  0.75000000  0.14106184  1.0
  Lu  Lu1  1  0.81937093  0.75000000  0.35893816  1.0
  Lu  Lu2  1  0.68062907  0.25000000  0.85893816  1.0
  Lu  Lu3  1  0.18062907  0.25000000  0.64106184  1.0
  Pt  Pt4  1  0.45690985  0.75000000  0.65603654  1.0
  Pt  Pt5  1  0.95690985  0.75000000  0.84396346  1.0
  Pt  Pt6  1  0.54309015  0.25000000  0.34396346  1.0
  Pt  Pt7  1  0.04309015  0.25000000  0.15603654  1.0
