# generated using pymatgen
data_Ba2B4O9
_symmetry_space_group_name_H-M   'P 1'
_cell_length_a   6.96454477
_cell_length_b   6.96454477
_cell_length_c   13.76962718
_cell_angle_alpha   90.00000000
_cell_angle_beta   90.00000000
_cell_angle_gamma   120.00000000
_symmetry_Int_Tables_number   1
_chemical_formula_structural   Ba2B4O9
_chemical_formula_sum   'Ba6 B12 O27'
_cell_volume   578.41331552
_cell_formula_units_Z   3
loop_
 _symmetry_equiv_pos_site_id
 _symmetry_equiv_pos_as_xyz
  1  'x, y, z'
loop_
 _atom_site_type_symbol
 _atom_site_label
 _atom_site_symmetry_multiplicity
 _atom_site_fract_x
 _atom_site_fract_y
 _atom_site_fract_z
 _atom_site_occupancy
  Ba  Ba0  1  0.07048471  0.42873248  0.42204663  1.0
  Ba  Ba1  1  0.35824777  0.92951529  0.08871330  1.0
  Ba  Ba2  1  0.57126752  0.64175223  0.75537997  1.0
  Ba  Ba3  1  0.92951529  0.35824777  0.91128670  1.0
  Ba  Ba4  1  0.42873248  0.07048471  0.57795337  1.0
  Ba  Ba5  1  0.64175223  0.57126752  0.24462003  1.0
  O  O6  1  -0.00000000  0.94551581  0.16666667  1.0
  O  O7  1  0.94551581  0.00000000  0.83333333  1.0
  O  O8  1  0.05448419  0.05448419  0.50000000  1.0
  O  O9  1  0.14283463  0.31933760  0.22926360  1.0
  O  O10  1  0.17650297  0.85716537  0.89593027  1.0
  O  O11  1  0.68066240  0.82349703  0.56259693  1.0
  O  O12  1  0.85716537  0.17650297  0.10406973  1.0
  O  O13  1  0.31933760  0.14283463  0.77073640  1.0
  O  O14  1  0.82349703  0.68066240  0.43740307  1.0
  O  O15  1  -0.00000000  0.54154605  0.16666667  1.0
  O  O16  1  0.54154605  0.00000000  0.83333333  1.0
  O  O17  1  0.45845395  0.45845395  0.50000000  1.0
  O  O18  1  0.60327566  0.15369561  0.37811520  1.0
  O  O19  1  0.55041995  0.39672434  0.04478187  1.0
  O  O20  1  0.84630439  0.44958005  0.71144853  1.0
  O  O21  1  0.39672434  0.55041995  0.95521813  1.0
  O  O22  1  0.15369561  0.60327566  0.62188480  1.0
  O  O23  1  0.44958005  0.84630439  0.28855147  1.0
  O  O24  1  0.96974319  0.00000000  0.33333333  1.0
  O  O25  1  0.03025681  0.03025681  0.00000000  1.0
  O  O26  1  -0.00000000  0.96974319  0.66666667  1.0
  O  O27  1  0.33305394  0.11984342  0.26104265  1.0
  O  O28  1  0.78678948  0.66694606  0.92770932  1.0
  O  O29  1  0.88015658  0.21321052  0.59437599  1.0
  O  O30  1  0.66694606  0.78678948  0.07229068  1.0
  O  O31  1  0.11984342  0.33305394  0.73895735  1.0
  O  O32  1  0.21321052  0.88015658  0.40562401  1.0
  B  B33  1  0.11137715  0.09508807  0.24865493  1.0
  B  B34  1  0.98371092  0.88862285  0.91532159  1.0
  B  B35  1  0.90491193  0.01628908  0.58198826  1.0
  B  B36  1  0.88862285  0.98371092  0.08467841  1.0
  B  B37  1  0.09508807  0.11137715  0.75134507  1.0
  B  B38  1  0.01628908  0.90491193  0.41801174  1.0
  B  B39  1  0.39347189  0.00000000  0.33333333  1.0
  B  B40  1  0.60652811  0.60652811  0.00000000  1.0
  B  B41  1  -0.00000000  0.39347189  0.66666667  1.0
  B  B42  1  -0.00000000  0.34938110  0.16666667  1.0
  B  B43  1  0.34938110  0.00000000  0.83333333  1.0
  B  B44  1  0.65061890  0.65061890  0.50000000  1.0
