# generated using pymatgen
data_LaZnPd
_symmetry_space_group_name_H-M   'P 1'
_cell_length_a   7.22438119
_cell_length_b   4.44714136
_cell_length_c   8.17170390
_cell_angle_alpha   90.00000000
_cell_angle_beta   90.00000000
_cell_angle_gamma   90.00000000
_symmetry_Int_Tables_number   1
_chemical_formula_structural   LaZnPd
_chemical_formula_sum   'La4 Zn4 Pd4'
_cell_volume   262.53923139
_cell_formula_units_Z   4
loop_
 _symmetry_equiv_pos_site_id
 _symmetry_equiv_pos_as_xyz
  1  'x, y, z'
loop_
 _atom_site_type_symbol
 _atom_site_label
 _atom_site_symmetry_multiplicity
 _atom_site_fract_x
 _atom_site_fract_y
 _atom_site_fract_z
 _atom_site_occupancy
  La  La0  1  0.96790013  0.75000000  0.69523126  1.0
  La  La1  1  0.46790013  0.75000000  0.80476874  1.0
  La  La2  1  0.03209987  0.25000000  0.30476874  1.0
  La  La3  1  0.53209987  0.25000000  0.19523126  1.0
  Zn  Zn4  1  0.84523430  0.75000000  0.07007175  1.0
  Zn  Zn5  1  0.34523430  0.75000000  0.42992825  1.0
  Zn  Zn6  1  0.15476570  0.25000000  0.92992825  1.0
  Zn  Zn7  1  0.65476570  0.25000000  0.57007175  1.0
  Pd  Pd8  1  0.72936221  0.75000000  0.39340874  1.0
  Pd  Pd9  1  0.22936221  0.75000000  0.10659126  1.0
  Pd  Pd10  1  0.27063779  0.25000000  0.60659126  1.0
  Pd  Pd11  1  0.77063779  0.25000000  0.89340874  1.0
