# generated using pymatgen
data_NaSbMoO5
_symmetry_space_group_name_H-M   'P 1'
_cell_length_a   8.65175878
_cell_length_b   11.27022063
_cell_length_c   5.75531978
_cell_angle_alpha   90.00000000
_cell_angle_beta   102.62664106
_cell_angle_gamma   90.00000000
_symmetry_Int_Tables_number   1
_chemical_formula_structural   NaSbMoO5
_chemical_formula_sum   'Na4 Sb4 Mo4 O20'
_cell_volume   547.61315177
_cell_formula_units_Z   4
loop_
 _symmetry_equiv_pos_site_id
 _symmetry_equiv_pos_as_xyz
  1  'x, y, z'
loop_
 _atom_site_type_symbol
 _atom_site_label
 _atom_site_symmetry_multiplicity
 _atom_site_fract_x
 _atom_site_fract_y
 _atom_site_fract_z
 _atom_site_occupancy
  Na  Na0  1  0.92431062  0.35919622  0.96393011  1.0
  Na  Na1  1  0.92431062  0.14080378  0.46393011  1.0
  Na  Na2  1  0.07568938  0.85919622  0.53606989  1.0
  Na  Na3  1  0.07568938  0.64080378  0.03606989  1.0
  Sb  Sb4  1  0.44629577  0.66592068  0.82452491  1.0
  Sb  Sb5  1  0.44629577  0.83407932  0.32452491  1.0
  Sb  Sb6  1  0.55370423  0.16592068  0.67547509  1.0
  Sb  Sb7  1  0.55370423  0.33407932  0.17547509  1.0
  Mo  Mo8  1  0.79266146  0.91004615  0.94620324  1.0
  Mo  Mo9  1  0.79266146  0.58995385  0.44620324  1.0
  Mo  Mo10  1  0.20733854  0.41004615  0.55379676  1.0
  Mo  Mo11  1  0.20733854  0.08995385  0.05379676  1.0
  O  O12  1  0.92787607  0.81845790  0.84520530  1.0
  O  O13  1  0.92787607  0.68154210  0.34520530  1.0
  O  O14  1  0.07212393  0.31845790  0.65479470  1.0
  O  O15  1  0.07212393  0.18154210  0.15479470  1.0
  O  O16  1  0.87111271  0.54423442  0.73934035  1.0
  O  O17  1  0.87111271  0.95576558  0.23934035  1.0
  O  O18  1  0.12888729  0.04423442  0.76065965  1.0
  O  O19  1  0.12888729  0.45576558  0.26065965  1.0
  O  O20  1  0.67172075  0.26553790  0.94293524  1.0
  O  O21  1  0.67172075  0.23446210  0.44293524  1.0
  O  O22  1  0.32827925  0.76553790  0.55706476  1.0
  O  O23  1  0.32827925  0.73446210  0.05706476  1.0
  O  O24  1  0.60863424  0.83267635  0.93578073  1.0
  O  O25  1  0.60863424  0.66732365  0.43578073  1.0
  O  O26  1  0.39136576  0.33267635  0.56421927  1.0
  O  O27  1  0.39136576  0.16732365  0.06421927  1.0
  O  O28  1  0.25065301  0.54049256  0.74608885  1.0
  O  O29  1  0.25065301  0.95950744  0.24608885  1.0
  O  O30  1  0.74934699  0.04049256  0.75391115  1.0
  O  O31  1  0.74934699  0.45950744  0.25391115  1.0
