# generated using pymatgen
data_Hg7(P3Br2)2
_symmetry_space_group_name_H-M   'P 1'
_cell_length_a   8.52938322
_cell_length_b   8.30385035
_cell_length_c   14.52826557
_cell_angle_alpha   90.00000000
_cell_angle_beta   117.15049576
_cell_angle_gamma   90.00000000
_symmetry_Int_Tables_number   1
_chemical_formula_structural   Hg7(P3Br2)2
_chemical_formula_sum   'Hg14 P12 Br8'
_cell_volume   915.60608828
_cell_formula_units_Z   2
loop_
 _symmetry_equiv_pos_site_id
 _symmetry_equiv_pos_as_xyz
  1  'x, y, z'
loop_
 _atom_site_type_symbol
 _atom_site_label
 _atom_site_symmetry_multiplicity
 _atom_site_fract_x
 _atom_site_fract_y
 _atom_site_fract_z
 _atom_site_occupancy
  Hg  Hg0  1  0.98143935  0.60516312  0.20495980  1.0
  Hg  Hg1  1  0.98143935  0.89483688  0.70495980  1.0
  Hg  Hg2  1  0.01856065  0.10516312  0.29504020  1.0
  Hg  Hg3  1  0.01856065  0.39483688  0.79504020  1.0
  Hg  Hg4  1  0.70719894  0.14479162  0.49128148  1.0
  Hg  Hg5  1  0.70719894  0.35520838  0.99128148  1.0
  Hg  Hg6  1  0.29280106  0.64479162  0.00871852  1.0
  Hg  Hg7  1  0.29280106  0.85520838  0.50871852  1.0
  Hg  Hg8  1  0.50542451  0.05934218  0.17273411  1.0
  Hg  Hg9  1  0.50542451  0.44065782  0.67273411  1.0
  Hg  Hg10  1  0.49457549  0.55934218  0.32726589  1.0
  Hg  Hg11  1  0.49457549  0.94065782  0.82726589  1.0
  Hg  Hg12  1  -0.00000000  0.50000000  0.50000000  1.0
  Hg  Hg13  1  0.00000000  0.00000000  0.00000000  1.0
  P  P14  1  0.74234523  0.26293408  0.24131261  1.0
  P  P15  1  0.74234523  0.23706592  0.74131261  1.0
  P  P16  1  0.25765477  0.76293408  0.25868739  1.0
  P  P17  1  0.25765477  0.73706592  0.75868739  1.0
  P  P18  1  0.73219037  0.36022316  0.37985903  1.0
  P  P19  1  0.73219037  0.13977684  0.87985903  1.0
  P  P20  1  0.26780963  0.86022316  0.12014097  1.0
  P  P21  1  0.26780963  0.63977684  0.62014097  1.0
  P  P22  1  0.69085014  0.47757014  0.14161500  1.0
  P  P23  1  0.69085014  0.02242986  0.64161500  1.0
  P  P24  1  0.30914986  0.97757014  0.35838500  1.0
  P  P25  1  0.30914986  0.52242986  0.85838500  1.0
  Br  Br26  1  0.79896116  0.87492942  0.38493489  1.0
  Br  Br27  1  0.79896116  0.62507058  0.88493489  1.0
  Br  Br28  1  0.20103884  0.37492942  0.11506511  1.0
  Br  Br29  1  0.20103884  0.12507058  0.61506511  1.0
  Br  Br30  1  0.26513707  0.40828029  0.41349608  1.0
  Br  Br31  1  0.26513707  0.09171971  0.91349608  1.0
  Br  Br32  1  0.73486293  0.90828029  0.08650392  1.0
  Br  Br33  1  0.73486293  0.59171971  0.58650392  1.0
