# generated using pymatgen
data_Si3N4
_symmetry_space_group_name_H-M   'P 1'
_cell_length_a   7.66263383
_cell_length_b   7.66263383
_cell_length_c   2.92615434
_cell_angle_alpha   90.00000000
_cell_angle_beta   90.00000000
_cell_angle_gamma   120.00000000
_symmetry_Int_Tables_number   1
_chemical_formula_structural   Si3N4
_chemical_formula_sum   'Si6 N8'
_cell_volume   148.79351604
_cell_formula_units_Z   2
loop_
 _symmetry_equiv_pos_site_id
 _symmetry_equiv_pos_as_xyz
  1  'x, y, z'
loop_
 _atom_site_type_symbol
 _atom_site_label
 _atom_site_symmetry_multiplicity
 _atom_site_fract_x
 _atom_site_fract_y
 _atom_site_fract_z
 _atom_site_occupancy
  Si  Si0  1  0.17498985  0.76888545  0.02700036  1.0
  Si  Si1  1  0.76888545  0.59389559  0.52700036  1.0
  Si  Si2  1  0.59389559  0.82501015  0.02700036  1.0
  Si  Si3  1  0.23111455  0.40610441  0.02700036  1.0
  Si  Si4  1  0.82501015  0.23111455  0.52700036  1.0
  Si  Si5  1  0.40610441  0.17498985  0.52700036  1.0
  N  N6  1  0.70080366  0.67000484  0.02700078  1.0
  N  N7  1  0.67000484  0.96920119  0.52700078  1.0
  N  N8  1  0.96920119  0.29919634  0.02700078  1.0
  N  N9  1  0.32999516  0.03079881  0.02700078  1.0
  N  N10  1  0.29919634  0.32999516  0.52700078  1.0
  N  N11  1  0.03079881  0.70080366  0.52700078  1.0
  N  N12  1  0.33333333  0.66666667  0.02699657  1.0
  N  N13  1  0.66666667  0.33333333  0.52699657  1.0
