# generated using pymatgen
data_Ba3Cr2MoO9
_symmetry_space_group_name_H-M   'P 1'
_cell_length_a   5.73711239
_cell_length_b   5.73711239
_cell_length_c   14.09214155
_cell_angle_alpha   90.00000000
_cell_angle_beta   90.00000000
_cell_angle_gamma   120.00000000
_symmetry_Int_Tables_number   1
_chemical_formula_structural   Ba3Cr2MoO9
_chemical_formula_sum   'Ba6 Cr4 Mo2 O18'
_cell_volume   401.69307473
_cell_formula_units_Z   2
loop_
 _symmetry_equiv_pos_site_id
 _symmetry_equiv_pos_as_xyz
  1  'x, y, z'
loop_
 _atom_site_type_symbol
 _atom_site_label
 _atom_site_symmetry_multiplicity
 _atom_site_fract_x
 _atom_site_fract_y
 _atom_site_fract_z
 _atom_site_occupancy
  Ba  Ba0  1  0.33333333  0.66666667  0.40045239  1.0
  Ba  Ba1  1  0.33333333  0.66666667  0.09954761  1.0
  Ba  Ba2  1  0.66666667  0.33333333  0.90045239  1.0
  Ba  Ba3  1  0.66666667  0.33333333  0.59954761  1.0
  Ba  Ba4  1  -0.00000000  -0.00000000  0.25000000  1.0
  Ba  Ba5  1  0.00000000  0.00000000  0.75000000  1.0
  Cr  Cr6  1  0.33333333  0.66666667  0.84202057  1.0
  Cr  Cr7  1  0.33333333  0.66666667  0.65797943  1.0
  Cr  Cr8  1  0.66666667  0.33333333  0.34202057  1.0
  Cr  Cr9  1  0.66666667  0.33333333  0.15797943  1.0
  Mo  Mo10  1  0.00000000  0.00000000  0.50000000  1.0
  Mo  Mo11  1  -0.00000000  -0.00000000  -0.00000000  1.0
  O  O12  1  0.16204616  0.83795384  0.92107581  1.0
  O  O13  1  0.16204616  0.83795384  0.57892419  1.0
  O  O14  1  0.16204616  0.32409232  0.92107581  1.0
  O  O15  1  0.16204616  0.32409232  0.57892419  1.0
  O  O16  1  0.83795384  0.16204616  0.42107581  1.0
  O  O17  1  0.83795384  0.16204616  0.07892419  1.0
  O  O18  1  0.83795384  0.67590768  0.42107581  1.0
  O  O19  1  0.83795384  0.67590768  0.07892419  1.0
  O  O20  1  0.67590768  0.83795384  0.92107581  1.0
  O  O21  1  0.67590768  0.83795384  0.57892419  1.0
  O  O22  1  0.32409232  0.16204616  0.42107581  1.0
  O  O23  1  0.32409232  0.16204616  0.07892419  1.0
  O  O24  1  0.51845964  0.48154036  0.25000000  1.0
  O  O25  1  0.51845964  0.03691927  0.25000000  1.0
  O  O26  1  0.48154036  0.51845964  0.75000000  1.0
  O  O27  1  0.48154036  0.96308073  0.75000000  1.0
  O  O28  1  0.96308073  0.48154036  0.25000000  1.0
  O  O29  1  0.03691927  0.51845964  0.75000000  1.0
