# generated using pymatgen
data_Re5(NiAs6)2
_symmetry_space_group_name_H-M   'P 1'
_cell_length_a   12.65753143
_cell_length_b   15.75505230
_cell_length_c   3.24803960
_cell_angle_alpha   90.00000000
_cell_angle_beta   90.00000000
_cell_angle_gamma   90.00000000
_symmetry_Int_Tables_number   1
_chemical_formula_structural   Re5(NiAs6)2
_chemical_formula_sum   'Re10 Ni4 As24'
_cell_volume   647.72428316
_cell_formula_units_Z   2
loop_
 _symmetry_equiv_pos_site_id
 _symmetry_equiv_pos_as_xyz
  1  'x, y, z'
loop_
 _atom_site_type_symbol
 _atom_site_label
 _atom_site_symmetry_multiplicity
 _atom_site_fract_x
 _atom_site_fract_y
 _atom_site_fract_z
 _atom_site_occupancy
  Re  Re0  1  0.31597015  0.10147392  0.50000000  1.0
  Re  Re1  1  0.81597015  0.39852608  -0.00000000  1.0
  Re  Re2  1  0.68402985  0.89852608  0.50000000  1.0
  Re  Re3  1  0.18402985  0.60147392  -0.00000000  1.0
  Re  Re4  1  0.07968497  0.73781304  0.50000000  1.0
  Re  Re5  1  0.57968497  0.76218696  -0.00000000  1.0
  Re  Re6  1  0.92031503  0.26218696  0.50000000  1.0
  Re  Re7  1  0.42031503  0.23781304  0.00000000  1.0
  Re  Re8  1  0.50000000  0.50000000  0.50000000  1.0
  Re  Re9  1  0.00000000  0.00000000  -0.00000000  1.0
  Ni  Ni10  1  0.87168322  0.65288702  0.50000000  1.0
  Ni  Ni11  1  0.37168322  0.84711298  0.00000000  1.0
  Ni  Ni12  1  0.12831678  0.34711298  0.50000000  1.0
  Ni  Ni13  1  0.62831678  0.15288702  -0.00000000  1.0
  As  As14  1  0.43131832  0.73766789  0.50000000  1.0
  As  As15  1  0.93131832  0.76233211  0.00000000  1.0
  As  As16  1  0.56868168  0.26233211  0.50000000  1.0
  As  As17  1  0.06868168  0.23766789  0.00000000  1.0
  As  As18  1  0.34138196  0.59115062  0.50000000  1.0
  As  As19  1  0.84138196  0.90884938  -0.00000000  1.0
  As  As20  1  0.65861804  0.40884938  0.50000000  1.0
  As  As21  1  0.15861804  0.09115062  -0.00000000  1.0
  As  As22  1  0.29236538  0.94098689  0.50000000  1.0
  As  As23  1  0.79236538  0.55901311  0.00000000  1.0
  As  As24  1  0.70763462  0.05901311  0.50000000  1.0
  As  As25  1  0.20763462  0.44098689  0.00000000  1.0
  As  As26  1  0.27405226  0.25661289  0.50000000  1.0
  As  As27  1  0.77405226  0.24338711  0.00000000  1.0
  As  As28  1  0.72594774  0.74338711  0.50000000  1.0
  As  As29  1  0.22594774  0.75661289  -0.00000000  1.0
  As  As30  1  0.09292619  0.90179195  0.50000000  1.0
  As  As31  1  0.59292619  0.59820805  0.00000000  1.0
  As  As32  1  0.90707381  0.09820805  0.50000000  1.0
  As  As33  1  0.40707381  0.40179195  -0.00000000  1.0
  As  As34  1  0.03518514  0.57785991  0.50000000  1.0
  As  As35  1  0.53518514  0.92214009  0.00000000  1.0
  As  As36  1  0.96481486  0.42214009  0.50000000  1.0
  As  As37  1  0.46481486  0.07785991  0.00000000  1.0
