# generated using pymatgen
data_BRh2
_symmetry_space_group_name_H-M   'P 1'
_cell_length_a   5.32533861
_cell_length_b   3.84164771
_cell_length_c   6.82355818
_cell_angle_alpha   90.00000000
_cell_angle_beta   90.00000000
_cell_angle_gamma   90.00000000
_symmetry_Int_Tables_number   1
_chemical_formula_structural   BRh2
_chemical_formula_sum   'B4 Rh8'
_cell_volume   139.59686407
_cell_formula_units_Z   4
loop_
 _symmetry_equiv_pos_site_id
 _symmetry_equiv_pos_as_xyz
  1  'x, y, z'
loop_
 _atom_site_type_symbol
 _atom_site_label
 _atom_site_symmetry_multiplicity
 _atom_site_fract_x
 _atom_site_fract_y
 _atom_site_fract_z
 _atom_site_occupancy
  B  B0  1  0.77113862  0.75000000  0.39845390  1.0
  B  B1  1  0.27113862  0.75000000  0.10154610  1.0
  B  B2  1  0.22886138  0.25000000  0.60154610  1.0
  B  B3  1  0.72886138  0.25000000  0.89845390  1.0
  Rh  Rh4  1  0.99567863  0.75000000  0.64922363  1.0
  Rh  Rh5  1  0.49567863  0.75000000  0.85077637  1.0
  Rh  Rh6  1  0.00432137  0.25000000  0.35077637  1.0
  Rh  Rh7  1  0.50432137  0.25000000  0.14922363  1.0
  Rh  Rh8  1  0.87796257  0.75000000  0.09782421  1.0
  Rh  Rh9  1  0.37796257  0.75000000  0.40217579  1.0
  Rh  Rh10  1  0.12203743  0.25000000  0.90217579  1.0
  Rh  Rh11  1  0.62203743  0.25000000  0.59782421  1.0
