# generated using pymatgen
data_ReO3F
_symmetry_space_group_name_H-M   'P 1'
_cell_length_a   6.93392495
_cell_length_b   6.67233919
_cell_length_c   11.60992034
_cell_angle_alpha   90.00000000
_cell_angle_beta   90.02929331
_cell_angle_gamma   90.00000000
_symmetry_Int_Tables_number   1
_chemical_formula_structural   ReO3F
_chemical_formula_sum   'Re6 O18 F6'
_cell_volume   537.13868948
_cell_formula_units_Z   6
loop_
 _symmetry_equiv_pos_site_id
 _symmetry_equiv_pos_as_xyz
  1  'x, y, z'
loop_
 _atom_site_type_symbol
 _atom_site_label
 _atom_site_symmetry_multiplicity
 _atom_site_fract_x
 _atom_site_fract_y
 _atom_site_fract_z
 _atom_site_occupancy
  Re  Re0  1  0.66654495  0.78644064  0.34991335  1.0
  Re  Re1  1  0.66654495  0.21355936  0.84991335  1.0
  Re  Re2  1  0.33345505  0.78644064  0.15008665  1.0
  Re  Re3  1  0.33345505  0.21355936  0.65008665  1.0
  Re  Re4  1  -0.00000000  0.48599100  0.25000000  1.0
  Re  Re5  1  0.00000000  0.51400900  0.75000000  1.0
  O  O6  1  0.85864753  0.32906653  0.17156813  1.0
  O  O7  1  0.85864753  0.67093347  0.67156813  1.0
  O  O8  1  0.14135247  0.32906653  0.32843187  1.0
  O  O9  1  0.14135247  0.67093347  0.82843187  1.0
  O  O10  1  0.83346041  0.56298366  0.37299657  1.0
  O  O11  1  0.83346041  0.43701634  0.87299657  1.0
  O  O12  1  0.16653959  0.56298366  0.12700343  1.0
  O  O13  1  0.16653959  0.43701634  0.62700343  1.0
  O  O14  1  0.80777811  0.98325434  0.38856504  1.0
  O  O15  1  0.80777811  0.01674566  0.88856504  1.0
  O  O16  1  0.19222189  0.98325434  0.11143496  1.0
  O  O17  1  0.19222189  0.01674566  0.61143496  1.0
  O  O18  1  0.52477792  0.74782580  0.46711991  1.0
  O  O19  1  0.52477792  0.25217420  0.96711991  1.0
  O  O20  1  0.47522208  0.74782580  0.03288009  1.0
  O  O21  1  0.47522208  0.25217420  0.53288009  1.0
  O  O22  1  0.50000000  0.93301365  0.25000000  1.0
  O  O23  1  0.50000000  0.06698635  0.75000000  1.0
  F  F24  1  0.83329416  0.74267020  0.19368498  1.0
  F  F25  1  0.83329416  0.25732980  0.69368498  1.0
  F  F26  1  0.16670584  0.74267020  0.30631502  1.0
  F  F27  1  0.16670584  0.25732980  0.80631502  1.0
  F  F28  1  0.50000000  0.57313923  0.25000000  1.0
  F  F29  1  0.50000000  0.42686077  0.75000000  1.0
