# generated using pymatgen
data_SrV2O6
_symmetry_space_group_name_H-M   'P 1'
_cell_length_a   9.77798042
_cell_length_b   3.67142024
_cell_length_c   13.04700786
_cell_angle_alpha   90.00000000
_cell_angle_beta   90.00000000
_cell_angle_gamma   90.00000000
_symmetry_Int_Tables_number   1
_chemical_formula_structural   SrV2O6
_chemical_formula_sum   'Sr4 V8 O24'
_cell_volume   468.37551623
_cell_formula_units_Z   4
loop_
 _symmetry_equiv_pos_site_id
 _symmetry_equiv_pos_as_xyz
  1  'x, y, z'
loop_
 _atom_site_type_symbol
 _atom_site_label
 _atom_site_symmetry_multiplicity
 _atom_site_fract_x
 _atom_site_fract_y
 _atom_site_fract_z
 _atom_site_occupancy
  Sr  Sr0  1  0.86207521  0.75000000  0.38436040  1.0
  Sr  Sr1  1  0.36207521  0.75000000  0.11563960  1.0
  Sr  Sr2  1  0.13792479  0.25000000  0.61563960  1.0
  Sr  Sr3  1  0.63792479  0.25000000  0.88436040  1.0
  V  V4  1  0.75694661  0.75000000  0.09668057  1.0
  V  V5  1  0.25694661  0.75000000  0.40331943  1.0
  V  V6  1  0.24305339  0.25000000  0.90331943  1.0
  V  V7  1  0.74305339  0.25000000  0.59668057  1.0
  V  V8  1  0.50081732  0.75000000  0.63898540  1.0
  V  V9  1  1.00081732  0.75000000  0.86101460  1.0
  V  V10  1  0.49918268  0.25000000  0.36101460  1.0
  V  V11  1  -0.00081732  0.25000000  0.13898540  1.0
  O  O12  1  0.96336721  0.75000000  0.10347792  1.0
  O  O13  1  0.46336721  0.75000000  0.39652208  1.0
  O  O14  1  0.03663279  0.25000000  0.89652208  1.0
  O  O15  1  0.53663279  0.25000000  0.60347792  1.0
  O  O16  1  0.71445333  0.75000000  0.21620537  1.0
  O  O17  1  0.21445333  0.75000000  0.28379463  1.0
  O  O18  1  0.28554667  0.25000000  0.78379463  1.0
  O  O19  1  0.78554667  0.25000000  0.71620537  1.0
  O  O20  1  0.69100584  0.75000000  0.57222363  1.0
  O  O21  1  0.19100584  0.75000000  0.92777637  1.0
  O  O22  1  0.30899416  0.25000000  0.42777637  1.0
  O  O23  1  0.80899416  0.25000000  0.07222363  1.0
  O  O24  1  0.61051952  0.75000000  0.02509422  1.0
  O  O25  1  0.11051952  0.75000000  0.47490578  1.0
  O  O26  1  0.38948048  0.25000000  0.97490578  1.0
  O  O27  1  0.88948048  0.25000000  0.52509422  1.0
  O  O28  1  0.52925811  0.75000000  0.76444284  1.0
  O  O29  1  0.02925811  0.75000000  0.73555716  1.0
  O  O30  1  0.47074189  0.25000000  0.23555716  1.0
  O  O31  1  0.97074189  0.25000000  0.26444284  1.0
  O  O32  1  0.33336214  0.75000000  0.61297524  1.0
  O  O33  1  0.83336214  0.75000000  0.88702476  1.0
  O  O34  1  0.66663786  0.25000000  0.38702476  1.0
  O  O35  1  0.16663786  0.25000000  0.11297524  1.0
