# generated using pymatgen
data_Ta2Te3
_symmetry_space_group_name_H-M   'P 1'
_cell_length_a   7.89969706
_cell_length_b   7.89969706
_cell_length_c   12.54640557
_cell_angle_alpha   56.25787076
_cell_angle_beta   123.74212924
_cell_angle_gamma   154.37636259
_symmetry_Int_Tables_number   1
_chemical_formula_structural   Ta2Te3
_chemical_formula_sum   'Ta4 Te6'
_cell_volume   278.29194305
_cell_formula_units_Z   2
loop_
 _symmetry_equiv_pos_site_id
 _symmetry_equiv_pos_as_xyz
  1  'x, y, z'
loop_
 _atom_site_type_symbol
 _atom_site_label
 _atom_site_symmetry_multiplicity
 _atom_site_fract_x
 _atom_site_fract_y
 _atom_site_fract_z
 _atom_site_occupancy
  Ta  Ta0  1  0.91654686  0.08345314  0.85466112  1.0
  Ta  Ta1  1  1.08345314  -0.08345314  0.14533888  1.0
  Ta  Ta2  1  0.72486193  -0.72486193  0.38857645  1.0
  Ta  Ta3  1  0.27513807  -0.27513807  0.61142355  1.0
  Te  Te4  1  0.92945542  -0.92945542  0.63923371  1.0
  Te  Te5  1  0.07054458  -0.07054458  0.36076629  1.0
  Te  Te6  1  0.69509078  0.30490922  0.71130467  1.0
  Te  Te7  1  1.30490922  -0.30490922  0.28869533  1.0
  Te  Te8  1  0.59896658  0.40103342  0.97218172  1.0
  Te  Te9  1  1.40103342  -0.40103342  0.02781828  1.0
