# generated using pymatgen
data_Ba3Si4
_symmetry_space_group_name_H-M   'P 1'
_cell_length_a   8.55987806
_cell_length_b   8.55987806
_cell_length_c   11.93764390
_cell_angle_alpha   90.00000000
_cell_angle_beta   90.00000000
_cell_angle_gamma   90.00000000
_symmetry_Int_Tables_number   1
_chemical_formula_structural   Ba3Si4
_chemical_formula_sum   'Ba12 Si16'
_cell_volume   874.68922365
_cell_formula_units_Z   4
loop_
 _symmetry_equiv_pos_site_id
 _symmetry_equiv_pos_as_xyz
  1  'x, y, z'
loop_
 _atom_site_type_symbol
 _atom_site_label
 _atom_site_symmetry_multiplicity
 _atom_site_fract_x
 _atom_site_fract_y
 _atom_site_fract_z
 _atom_site_occupancy
  Ba  Ba0  1  0.16391900  0.16391900  0.50000000  1.0
  Ba  Ba1  1  0.66391900  0.33608100  0.00000000  1.0
  Ba  Ba2  1  0.83608100  0.83608100  0.50000000  1.0
  Ba  Ba3  1  0.33608100  0.66391900  0.00000000  1.0
  Ba  Ba4  1  0.50000000  0.50000000  0.33074288  1.0
  Ba  Ba5  1  0.50000000  0.50000000  0.66925712  1.0
  Ba  Ba6  1  0.00000000  0.00000000  0.83074288  1.0
  Ba  Ba7  1  0.00000000  0.00000000  0.16925712  1.0
  Ba  Ba8  1  0.50000000  0.00000000  0.25000000  1.0
  Ba  Ba9  1  0.50000000  0.00000000  0.75000000  1.0
  Ba  Ba10  1  0.00000000  0.50000000  0.75000000  1.0
  Ba  Ba11  1  0.00000000  0.50000000  0.25000000  1.0
  Si  Si12  1  0.19904982  0.80095018  0.35614968  1.0
  Si  Si13  1  0.19904982  0.80095018  0.64385032  1.0
  Si  Si14  1  0.69904982  0.69904982  0.85614968  1.0
  Si  Si15  1  0.69904982  0.69904982  0.14385032  1.0
  Si  Si16  1  0.80095018  0.19904982  0.35614968  1.0
  Si  Si17  1  0.80095018  0.19904982  0.64385032  1.0
  Si  Si18  1  0.30095018  0.30095018  0.85614968  1.0
  Si  Si19  1  0.30095018  0.30095018  0.14385032  1.0
  Si  Si20  1  0.40042490  0.80010233  0.50000000  1.0
  Si  Si21  1  0.90042490  0.69989767  0.00000000  1.0
  Si  Si22  1  0.19989767  0.59957510  0.50000000  1.0
  Si  Si23  1  0.69989767  0.90042490  0.00000000  1.0
  Si  Si24  1  0.59957510  0.19989767  0.50000000  1.0
  Si  Si25  1  0.09957510  0.30010233  0.00000000  1.0
  Si  Si26  1  0.80010233  0.40042490  0.50000000  1.0
  Si  Si27  1  0.30010233  0.09957510  0.00000000  1.0
