# generated using pymatgen
data_FeGe2
_symmetry_space_group_name_H-M   'P 1'
_cell_length_a   6.65373951
_cell_length_b   6.65373951
_cell_length_c   8.25748158
_cell_angle_alpha   90.00000000
_cell_angle_beta   90.00000000
_cell_angle_gamma   75.13556381
_symmetry_Int_Tables_number   1
_chemical_formula_structural   FeGe2
_chemical_formula_sum   'Fe8 Ge16'
_cell_volume   353.34342187
_cell_formula_units_Z   8
loop_
 _symmetry_equiv_pos_site_id
 _symmetry_equiv_pos_as_xyz
  1  'x, y, z'
loop_
 _atom_site_type_symbol
 _atom_site_label
 _atom_site_symmetry_multiplicity
 _atom_site_fract_x
 _atom_site_fract_y
 _atom_site_fract_z
 _atom_site_occupancy
  Fe  Fe0  1  -0.21835492  0.78164508  0.00000000  1.0
  Fe  Fe1  1  0.28164508  1.28164508  0.50000000  1.0
  Fe  Fe2  1  0.21835492  1.21835492  0.00000000  1.0
  Fe  Fe3  1  -0.28164508  0.71835492  0.50000000  1.0
  Fe  Fe4  1  -0.19744294  1.19744294  0.18805942  1.0
  Fe  Fe5  1  0.19744294  0.80255706  0.81194058  1.0
  Fe  Fe6  1  -0.30255706  1.30255706  0.68805942  1.0
  Fe  Fe7  1  0.30255706  0.69744294  0.31194058  1.0
  Ge  Ge8  1  0.14471949  0.60067943  0.04353920  1.0
  Ge  Ge9  1  -0.39932057  1.14471949  0.95646080  1.0
  Ge  Ge10  1  0.10067943  0.64471949  0.54353920  1.0
  Ge  Ge11  1  -0.35528051  1.10067943  0.45646080  1.0
  Ge  Ge12  1  -0.14471949  1.39932057  0.95646080  1.0
  Ge  Ge13  1  0.39932057  0.85528051  0.04353920  1.0
  Ge  Ge14  1  -0.10067943  1.35528051  0.45646080  1.0
  Ge  Ge15  1  0.35528051  0.89932057  0.54353920  1.0
  Ge  Ge16  1  -0.33456258  0.58719425  0.23158370  1.0
  Ge  Ge17  1  -0.41280575  0.66543742  0.76841630  1.0
  Ge  Ge18  1  0.08719425  1.16543742  0.73158370  1.0
  Ge  Ge19  1  0.16543742  1.08719425  0.26841630  1.0
  Ge  Ge20  1  0.33456258  1.41280575  0.76841630  1.0
  Ge  Ge21  1  0.41280575  1.33456258  0.23158370  1.0
  Ge  Ge22  1  -0.08719425  0.83456258  0.26841630  1.0
  Ge  Ge23  1  -0.16543742  0.91280575  0.73158370  1.0
