# generated using pymatgen
data_K2Zn2Si8O19
_symmetry_space_group_name_H-M   'P 1'
_cell_length_a   7.47648578
_cell_length_b   7.47648578
_cell_length_c   12.57665678
_cell_angle_alpha   73.91677984
_cell_angle_beta   106.08322016
_cell_angle_gamma   139.53436523
_symmetry_Int_Tables_number   1
_chemical_formula_structural   K2Zn2Si8O19
_chemical_formula_sum   'K2 Zn2 Si8 O19'
_cell_volume   435.90672943
_cell_formula_units_Z   1
loop_
 _symmetry_equiv_pos_site_id
 _symmetry_equiv_pos_as_xyz
  1  'x, y, z'
loop_
 _atom_site_type_symbol
 _atom_site_label
 _atom_site_symmetry_multiplicity
 _atom_site_fract_x
 _atom_site_fract_y
 _atom_site_fract_z
 _atom_site_occupancy
  K  K0  1  0.51105732  -0.24416367  0.85175988  1.0
  K  K1  1  0.75583633  0.51105732  0.14824012  1.0
  Zn  Zn2  1  0.78968819  0.39036115  0.91131173  1.0
  Zn  Zn3  1  0.39036115  -0.21031181  0.08868827  1.0
  Si  Si4  1  1.31502210  0.56724407  0.57487411  1.0
  Si  Si5  1  0.56724407  0.31502210  0.42512589  1.0
  Si  Si6  1  0.89250775  0.48685049  0.65877631  1.0
  Si  Si7  1  0.48685049  -0.10749225  0.34122369  1.0
  Si  Si8  1  0.17319676  0.02516985  0.92608377  1.0
  Si  Si9  1  1.02516985  0.17319676  0.07391623  1.0
  Si  Si10  1  0.95372320  0.94893968  0.66812683  1.0
  Si  Si11  1  0.94893968  -0.04627680  0.33187317  1.0
  O  O12  1  1.17048383  0.25547273  0.60005411  1.0
  O  O13  1  0.25547273  0.17048383  0.39994589  1.0
  O  O14  1  1.29839090  0.64714209  0.44138161  1.0
  O  O15  1  0.64714209  0.29839090  0.55861839  1.0
  O  O16  1  1.16834661  0.58720780  0.63782763  1.0
  O  O17  1  0.58720780  0.16834661  0.36217237  1.0
  O  O18  1  0.80334181  0.31949668  0.77971526  1.0
  O  O19  1  0.31949668  -0.19665819  0.22028474  1.0
  O  O20  1  1.12618355  0.76412872  0.96824727  1.0
  O  O21  1  0.76412872  0.12618355  0.03175273  1.0
  O  O22  1  0.98908652  0.77583565  0.64428005  1.0
  O  O23  1  0.77583565  -0.01091348  0.35571995  1.0
  O  O24  1  0.49373023  0.32347220  0.93164652  1.0
  O  O25  1  1.32347220  0.49373023  0.06835348  1.0
  O  O26  1  1.00519753  0.97597228  0.79989928  1.0
  O  O27  1  0.97597228  0.00519753  0.20010072  1.0
  O  O28  1  0.63631287  -0.21140578  0.63019529  1.0
  O  O29  1  0.78859422  0.63631287  0.36980471  1.0
  O  O30  1  0.00080686  0.00080686  -0.00000000  1.0
