# generated using pymatgen
data_LaCrO5
_symmetry_space_group_name_H-M   'P 1'
_cell_length_a   5.04057580
_cell_length_b   13.26614724
_cell_length_c   7.15093093
_cell_angle_alpha   90.00000000
_cell_angle_beta   110.88418535
_cell_angle_gamma   90.00000000
_symmetry_Int_Tables_number   1
_chemical_formula_structural   LaCrO5
_chemical_formula_sum   'La4 Cr4 O20'
_cell_volume   446.76099087
_cell_formula_units_Z   4
loop_
 _symmetry_equiv_pos_site_id
 _symmetry_equiv_pos_as_xyz
  1  'x, y, z'
loop_
 _atom_site_type_symbol
 _atom_site_label
 _atom_site_symmetry_multiplicity
 _atom_site_fract_x
 _atom_site_fract_y
 _atom_site_fract_z
 _atom_site_occupancy
  O  O0  1  0.79913248  0.24557415  0.30459909  1.0
  O  O1  1  0.79913248  0.25442585  0.80459909  1.0
  O  O2  1  0.20086752  0.74557415  0.19540091  1.0
  O  O3  1  0.20086752  0.75442585  0.69540091  1.0
  O  O4  1  0.78876660  0.65032578  0.42217479  1.0
  O  O5  1  0.78876660  0.84967422  0.92217479  1.0
  O  O6  1  0.21123340  0.15032578  0.07782521  1.0
  O  O7  1  0.21123340  0.34967422  0.57782521  1.0
  O  O8  1  0.69120025  0.43070487  0.43146868  1.0
  O  O9  1  0.69120025  0.06929513  0.93146868  1.0
  O  O10  1  0.30879975  0.93070487  0.06853132  1.0
  O  O11  1  0.30879975  0.56929513  0.56853132  1.0
  O  O12  1  0.41096266  0.45395315  -0.01216257  1.0
  O  O13  1  0.41096266  0.04604685  0.48783743  1.0
  O  O14  1  0.58903734  0.95395315  0.51216257  1.0
  O  O15  1  0.58903734  0.54604685  1.01216257  1.0
  O  O16  1  0.98381336  0.91255068  0.30526116  1.0
  O  O17  1  0.98381336  0.58744932  0.80526116  1.0
  O  O18  1  0.01618664  0.41255068  0.19473884  1.0
  O  O19  1  0.01618664  0.08744932  0.69473884  1.0
  Cr  Cr20  1  0.92941163  0.35847301  0.37485855  1.0
  Cr  Cr21  1  0.92941163  0.14152699  0.87485855  1.0
  Cr  Cr22  1  0.07058837  0.85847301  0.12514145  1.0
  Cr  Cr23  1  0.07058837  0.64152699  0.62514145  1.0
  La  La24  1  0.67584128  0.06637714  0.28142901  1.0
  La  La25  1  0.67584128  0.43362286  0.78142901  1.0
  La  La26  1  0.32415872  0.56637714  0.21857099  1.0
  La  La27  1  0.32415872  0.93362286  0.71857099  1.0
