# generated using pymatgen
data_CN2ClO2
_symmetry_space_group_name_H-M   'P 1'
_cell_length_a   10.16937230
_cell_length_b   6.68961239
_cell_length_c   6.47459281
_cell_angle_alpha   79.12097135
_cell_angle_beta   74.96221452
_cell_angle_gamma   85.01792214
_symmetry_Int_Tables_number   1
_chemical_formula_structural   CN2ClO2
_chemical_formula_sum   'C4 N8 Cl4 O8'
_cell_volume   417.39928485
_cell_formula_units_Z   4
loop_
 _symmetry_equiv_pos_site_id
 _symmetry_equiv_pos_as_xyz
  1  'x, y, z'
loop_
 _atom_site_type_symbol
 _atom_site_label
 _atom_site_symmetry_multiplicity
 _atom_site_fract_x
 _atom_site_fract_y
 _atom_site_fract_z
 _atom_site_occupancy
  C  C0  1  -0.73754289  -0.71426475  -0.67410332  1.0
  C  C1  1  -0.26245711  -0.28573525  -0.32589668  1.0
  C  C2  1  -0.87178023  -0.69989772  -0.50637570  1.0
  C  C3  1  -0.12821977  -0.30010228  -0.49362430  1.0
  N  N4  1  -0.72002979  -0.50595167  -0.84648879  1.0
  N  N5  1  -0.27997021  -0.49404833  -0.15351121  1.0
  N  N6  1  -0.61307472  -0.72124362  -0.56517021  1.0
  N  N7  1  -0.38692528  -0.27875638  -0.43482979  1.0
  N  N8  1  -0.93649957  -0.50351766  -0.52843694  1.0
  N  N9  1  -0.06350043  -0.49648234  -0.47156306  1.0
  N  N10  1  -0.92621052  -0.83154268  -0.33977554  1.0
  N  N11  1  -0.07378948  -0.16845732  -0.66022446  1.0
  Cl  Cl12  1  -0.72549134  -0.91418072  -0.81313999  1.0
  Cl  Cl13  1  -0.27450866  -0.08581928  -0.18686001  1.0
  Cl  Cl14  1  -0.16251963  -0.94611525  -0.71683884  1.0
  Cl  Cl15  1  -0.83748037  -0.05388475  -0.28316116  1.0
  O  O16  1  -0.79325042  -0.48513336  -0.97153471  1.0
  O  O17  1  -0.20674958  -0.51486664  -0.02846529  1.0
  O  O18  1  -0.63674392  -0.39027807  -0.83668217  1.0
  O  O19  1  -0.36325608  -0.60972193  -0.16331783  1.0
  O  O20  1  -0.50599025  -0.79715637  -0.65557078  1.0
  O  O21  1  -0.49400975  -0.20284363  -0.34442922  1.0
  O  O22  1  -0.63890380  -0.64313816  -0.40268089  1.0
  O  O23  1  -0.36109620  -0.35686184  -0.59731911  1.0
