# generated using pymatgen
data_Na3In2Au
_symmetry_space_group_name_H-M   'P 1'
_cell_length_a   9.67085694
_cell_length_b   9.67085694
_cell_length_c   9.67085694
_cell_angle_alpha   60.00000000
_cell_angle_beta   60.00000000
_cell_angle_gamma   60.00000000
_symmetry_Int_Tables_number   1
_chemical_formula_structural   Na3In2Au
_chemical_formula_sum   'Na12 In8 Au4'
_cell_volume   639.55791548
_cell_formula_units_Z   4
loop_
 _symmetry_equiv_pos_site_id
 _symmetry_equiv_pos_as_xyz
  1  'x, y, z'
loop_
 _atom_site_type_symbol
 _atom_site_label
 _atom_site_symmetry_multiplicity
 _atom_site_fract_x
 _atom_site_fract_y
 _atom_site_fract_z
 _atom_site_occupancy
  Na  Na0  1  0.79695179  0.79695179  -0.79695179  1.0
  Na  Na1  1  0.20304821  1.20304821  -0.20304821  1.0
  Na  Na2  1  0.79695179  -0.79695179  0.79695179  1.0
  Na  Na3  1  0.20304821  -0.20304821  0.20304821  1.0
  Na  Na4  1  -0.79695179  0.79695179  0.79695179  1.0
  Na  Na5  1  -0.20304821  0.20304821  0.20304821  1.0
  Na  Na6  1  0.45304821  1.45304821  0.04695179  1.0
  Na  Na7  1  0.04695179  0.04695179  0.45304821  1.0
  Na  Na8  1  0.45304821  1.04695179  0.45304821  1.0
  Na  Na9  1  0.04695179  1.45304821  0.04695179  1.0
  Na  Na10  1  0.04695179  1.45304821  0.45304821  1.0
  Na  Na11  1  0.45304821  1.04695179  0.04695179  1.0
  In  In12  1  -0.24880365  0.41626788  0.41626788  1.0
  In  In13  1  0.41626788  -0.24880365  0.41626788  1.0
  In  In14  1  0.41626788  1.41626788  -0.24880365  1.0
  In  In15  1  0.41626788  1.41626788  0.41626788  1.0
  In  In16  1  0.49880365  0.83373212  -0.16626788  1.0
  In  In17  1  0.83373212  0.49880365  0.83373212  1.0
  In  In18  1  0.83373212  0.83373212  -0.50119635  1.0
  In  In19  1  0.83373212  0.83373212  0.83373212  1.0
  Au  Au20  1  1.12500000  0.62500000  0.62500000  1.0
  Au  Au21  1  0.62500000  1.12500000  -0.37500000  1.0
  Au  Au22  1  -0.37500000  0.62500000  1.12500000  1.0
  Au  Au23  1  -0.37500000  0.62500000  0.62500000  1.0
