# generated using pymatgen
data_Ca4MgAl3
_symmetry_space_group_name_H-M   'P 1'
_cell_length_a   6.16908066
_cell_length_b   24.18346493
_cell_length_c   5.87141195
_cell_angle_alpha   90.00000000
_cell_angle_beta   90.00000000
_cell_angle_gamma   90.00000000
_symmetry_Int_Tables_number   1
_chemical_formula_structural   Ca4MgAl3
_chemical_formula_sum   'Ca16 Mg4 Al12'
_cell_volume   875.95445577
_cell_formula_units_Z   4
loop_
 _symmetry_equiv_pos_site_id
 _symmetry_equiv_pos_as_xyz
  1  'x, y, z'
loop_
 _atom_site_type_symbol
 _atom_site_label
 _atom_site_symmetry_multiplicity
 _atom_site_fract_x
 _atom_site_fract_y
 _atom_site_fract_z
 _atom_site_occupancy
  Ca  Ca0  1  0.91978140  0.64239195  0.75000000  1.0
  Ca  Ca1  1  0.91978140  0.85760805  0.25000000  1.0
  Ca  Ca2  1  0.08021860  0.14239195  0.75000000  1.0
  Ca  Ca3  1  0.08021860  0.35760805  0.25000000  1.0
  Ca  Ca4  1  0.75735595  0.37629270  0.75000000  1.0
  Ca  Ca5  1  0.75735595  0.12370730  0.25000000  1.0
  Ca  Ca6  1  0.24264405  0.87629270  0.75000000  1.0
  Ca  Ca7  1  0.24264405  0.62370730  0.25000000  1.0
  Ca  Ca8  1  0.68698152  0.78998257  0.75000000  1.0
  Ca  Ca9  1  0.68698152  0.71001743  0.25000000  1.0
  Ca  Ca10  1  0.31301848  0.28998257  0.75000000  1.0
  Ca  Ca11  1  0.31301848  0.21001743  0.25000000  1.0
  Ca  Ca12  1  0.49557003  0.54582216  0.75000000  1.0
  Ca  Ca13  1  0.49557003  0.95417784  0.25000000  1.0
  Ca  Ca14  1  0.50442997  0.04582216  0.75000000  1.0
  Ca  Ca15  1  0.50442997  0.45417784  0.25000000  1.0
  Mg  Mg16  1  0.00000000  0.00000000  0.00000000  1.0
  Mg  Mg17  1  0.00000000  0.00000000  0.50000000  1.0
  Mg  Mg18  1  0.00000000  0.50000000  0.50000000  1.0
  Mg  Mg19  1  0.00000000  0.50000000  0.00000000  1.0
  Al  Al20  1  0.74295485  0.92414785  0.75000000  1.0
  Al  Al21  1  0.74295485  0.57585215  0.25000000  1.0
  Al  Al22  1  0.25704515  0.42414785  0.75000000  1.0
  Al  Al23  1  0.25704515  0.07585215  0.25000000  1.0
  Al  Al24  1  0.41381482  0.67714925  0.75000000  1.0
  Al  Al25  1  0.41381482  0.82285075  0.25000000  1.0
  Al  Al26  1  0.58618518  0.17714925  0.75000000  1.0
  Al  Al27  1  0.58618518  0.32285075  0.25000000  1.0
  Al  Al28  1  0.16828577  0.75000000  0.00000000  1.0
  Al  Al29  1  0.16828577  0.75000000  0.50000000  1.0
  Al  Al30  1  0.83171423  0.25000000  0.00000000  1.0
  Al  Al31  1  0.83171423  0.25000000  0.50000000  1.0
