# generated using pymatgen
data_K4Nb11Al2O20F
_symmetry_space_group_name_H-M   'P 1'
_cell_length_a   8.94391105
_cell_length_b   8.94391105
_cell_length_c   8.94391105
_cell_angle_alpha   120.62435874
_cell_angle_beta   120.62435874
_cell_angle_gamma   88.92193855
_symmetry_Int_Tables_number   1
_chemical_formula_structural   K4Nb11Al2O20F
_chemical_formula_sum   'K4 Nb11 Al2 O20 F1'
_cell_volume   501.03270039
_cell_formula_units_Z   1
loop_
 _symmetry_equiv_pos_site_id
 _symmetry_equiv_pos_as_xyz
  1  'x, y, z'
loop_
 _atom_site_type_symbol
 _atom_site_label
 _atom_site_symmetry_multiplicity
 _atom_site_fract_x
 _atom_site_fract_y
 _atom_site_fract_z
 _atom_site_occupancy
  K  K0  1  0.80723063  0.50000000  1.30723063  1.0
  K  K1  1  0.19276937  0.50000000  0.69276937  1.0
  K  K2  1  0.50000000  0.19276937  0.69276937  1.0
  K  K3  1  0.50000000  0.80723063  1.30723063  1.0
  Nb  Nb4  1  0.68551108  0.68551108  1.00000000  1.0
  Nb  Nb5  1  0.31448892  0.31448892  0.00000000  1.0
  Nb  Nb6  1  0.00000000  0.00000000  0.00000000  1.0
  Nb  Nb7  1  0.99948179  0.99948179  1.32350759  1.0
  Nb  Nb8  1  0.67597420  0.67597420  0.67649241  1.0
  Nb  Nb9  1  0.99948179  0.67597420  1.00000000  1.0
  Nb  Nb10  1  0.67597420  0.99948179  1.00000000  1.0
  Nb  Nb11  1  1.00051821  1.00051821  1.67649241  1.0
  Nb  Nb12  1  0.32402580  0.32402580  0.32350759  1.0
  Nb  Nb13  1  1.00051821  0.32402580  1.00000000  1.0
  Nb  Nb14  1  0.32402580  1.00051821  1.00000000  1.0
  Al  Al15  1  0.25000000  0.75000000  0.50000000  1.0
  Al  Al16  1  0.75000000  0.25000000  0.50000000  1.0
  O  O17  1  0.51024954  0.51024954  0.66954986  1.0
  O  O18  1  0.84069967  0.84069967  1.33045014  1.0
  O  O19  1  0.51024954  0.84069967  1.00000000  1.0
  O  O20  1  0.84069967  0.51024954  1.00000000  1.0
  O  O21  1  0.48975046  0.48975046  0.33045014  1.0
  O  O22  1  1.15930033  1.15930033  1.66954986  1.0
  O  O23  1  0.48975046  1.15930033  1.00000000  1.0
  O  O24  1  1.15930033  0.48975046  1.00000000  1.0
  O  O25  1  1.17283374  0.83439664  1.33843710  1.0
  O  O26  1  0.49595954  0.83439664  0.66156290  1.0
  O  O27  1  0.83439664  0.49595954  0.66156290  1.0
  O  O28  1  0.83439664  1.17283374  1.33843710  1.0
  O  O29  1  0.82716626  0.16560336  0.66156290  1.0
  O  O30  1  0.50404046  0.16560336  0.33843710  1.0
  O  O31  1  0.16560336  0.50404046  0.33843710  1.0
  O  O32  1  0.16560336  0.82716626  0.66156290  1.0
  O  O33  1  0.83053433  0.16946567  1.00000000  1.0
  O  O34  1  0.16946567  0.83053433  1.00000000  1.0
  O  O35  1  0.83053433  0.83053433  1.66106867  1.0
  O  O36  1  0.16946567  0.16946567  0.33893133  1.0
  F  F37  1  0.50000000  0.50000000  1.00000000  1.0
