# generated using pymatgen
data_EuAl3(BO3)4
_symmetry_space_group_name_H-M   'P 1'
_cell_length_a   5.96426031
_cell_length_b   5.96426031
_cell_length_c   11.26547884
_cell_angle_alpha   81.66745016
_cell_angle_beta   98.33254984
_cell_angle_gamma   75.22570567
_symmetry_Int_Tables_number   1
_chemical_formula_structural   EuAl3(BO3)4
_chemical_formula_sum   'Eu2 Al6 B8 O24'
_cell_volume   376.40892991
_cell_formula_units_Z   2
loop_
 _symmetry_equiv_pos_site_id
 _symmetry_equiv_pos_as_xyz
  1  'x, y, z'
loop_
 _atom_site_type_symbol
 _atom_site_label
 _atom_site_symmetry_multiplicity
 _atom_site_fract_x
 _atom_site_fract_y
 _atom_site_fract_z
 _atom_site_occupancy
  Eu  Eu0  1  0.95669971  -0.04330029  0.25000000  1.0
  Eu  Eu1  1  1.04330029  0.04330029  0.75000000  1.0
  Al  Al2  1  0.69399483  -0.19452526  0.97025848  1.0
  Al  Al3  1  1.19452526  0.30600517  0.47025848  1.0
  Al  Al4  1  0.80547474  -0.30600517  0.52974152  1.0
  Al  Al5  1  1.30600517  0.19452526  0.02974152  1.0
  Al  Al6  1  1.41332916  0.41332916  0.25000000  1.0
  Al  Al7  1  0.58667084  -0.41332916  0.75000000  1.0
  B  B8  1  0.49169848  -0.11960110  0.27860401  1.0
  B  B9  1  1.11960110  0.50830152  0.77860401  1.0
  B  B10  1  0.88039890  -0.50830152  0.22139599  1.0
  B  B11  1  1.50830152  0.11960110  0.72139599  1.0
  B  B12  1  1.72208535  0.22122881  0.49556868  1.0
  B  B13  1  0.77877119  -0.72208535  0.99556868  1.0
  B  B14  1  1.22122881  0.72208535  0.00443132  1.0
  B  B15  1  0.27791465  -0.22122881  0.50443132  1.0
  O  O16  1  0.69540889  -0.18165696  0.36424822  1.0
  O  O17  1  1.18165696  0.30459111  0.86424822  1.0
  O  O18  1  0.81834304  -0.30459111  0.13575178  1.0
  O  O19  1  1.30459111  0.18165696  0.63575178  1.0
  O  O20  1  0.35381201  -0.26654707  0.25795941  1.0
  O  O21  1  1.26654707  0.64618799  0.75795941  1.0
  O  O22  1  0.73345293  -0.64618799  0.24204059  1.0
  O  O23  1  1.64618799  0.26654707  0.74204059  1.0
  O  O24  1  1.63161765  0.13006736  0.00332291  1.0
  O  O25  1  0.86993264  -0.63161765  0.50332291  1.0
  O  O26  1  1.13006736  0.63161765  0.49667709  1.0
  O  O27  1  0.36838235  -0.13006736  0.99667709  1.0
  O  O28  1  1.42884883  0.10445989  0.20511210  1.0
  O  O29  1  0.89554011  -0.42884883  0.70511210  1.0
  O  O30  1  1.10445989  0.42884883  0.29488790  1.0
  O  O31  1  0.57115117  -0.10445989  0.79488790  1.0
  O  O32  1  1.19097169  0.00429108  0.43579440  1.0
  O  O33  1  0.99570892  -0.19097169  0.93579440  1.0
  O  O34  1  1.00429108  0.19097169  0.06420560  1.0
  O  O35  1  0.80902831  -0.00429108  0.56420560  1.0
  O  O36  1  1.49567540  0.30037954  0.42580034  1.0
  O  O37  1  0.69962046  -0.49567540  0.92580034  1.0
  O  O38  1  1.30037954  0.49567540  0.07419966  1.0
  O  O39  1  0.50432460  -0.30037954  0.57419966  1.0
