# generated using pymatgen
data_BaFeO4
_symmetry_space_group_name_H-M   'P 1'
_cell_length_a   9.19618036
_cell_length_b   5.58879855
_cell_length_c   7.42267581
_cell_angle_alpha   90.00000000
_cell_angle_beta   90.00000000
_cell_angle_gamma   90.00000000
_symmetry_Int_Tables_number   1
_chemical_formula_structural   BaFeO4
_chemical_formula_sum   'Ba4 Fe4 O16'
_cell_volume   381.49287247
_cell_formula_units_Z   4
loop_
 _symmetry_equiv_pos_site_id
 _symmetry_equiv_pos_as_xyz
  1  'x, y, z'
loop_
 _atom_site_type_symbol
 _atom_site_label
 _atom_site_symmetry_multiplicity
 _atom_site_fract_x
 _atom_site_fract_y
 _atom_site_fract_z
 _atom_site_occupancy
  Ba  Ba0  1  0.31711301  0.75000000  0.15395926  1.0
  Ba  Ba1  1  0.81711301  0.75000000  0.34604074  1.0
  Ba  Ba2  1  0.68288699  0.25000000  0.84604074  1.0
  Ba  Ba3  1  0.18288699  0.25000000  0.65395926  1.0
  Fe  Fe4  1  0.44047396  0.75000000  0.69228603  1.0
  Fe  Fe5  1  0.94047396  0.75000000  0.80771397  1.0
  Fe  Fe6  1  0.55952604  0.25000000  0.30771397  1.0
  Fe  Fe7  1  0.05952604  0.25000000  0.19228603  1.0
  O  O8  1  0.41678548  0.99095986  0.82231609  1.0
  O  O9  1  0.41678548  0.50904014  0.82231609  1.0
  O  O10  1  0.91678548  0.99095986  0.67768391  1.0
  O  O11  1  0.91678548  0.50904014  0.67768391  1.0
  O  O12  1  0.58321452  0.49095986  0.17768391  1.0
  O  O13  1  0.58321452  0.00904014  0.17768391  1.0
  O  O14  1  0.08321452  0.49095986  0.32231609  1.0
  O  O15  1  0.08321452  0.00904014  0.32231609  1.0
  O  O16  1  0.31391213  0.75000000  0.53417806  1.0
  O  O17  1  0.81391213  0.75000000  0.96582194  1.0
  O  O18  1  0.68608787  0.25000000  0.46582194  1.0
  O  O19  1  0.18608787  0.25000000  0.03417806  1.0
  O  O20  1  0.10797632  0.75000000  0.88521570  1.0
  O  O21  1  0.60797632  0.75000000  0.61478430  1.0
  O  O22  1  0.89202368  0.25000000  0.11478430  1.0
  O  O23  1  0.39202368  0.25000000  0.38521570  1.0
