# generated using pymatgen
data_MnH10SO9
_symmetry_space_group_name_H-M   'P 1'
_cell_length_a   6.18567844
_cell_length_b   10.96044304
_cell_length_c   6.28768684
_cell_angle_alpha   75.74894705
_cell_angle_beta   70.30236421
_cell_angle_gamma   81.83880932
_symmetry_Int_Tables_number   1
_chemical_formula_structural   MnH10SO9
_chemical_formula_sum   'Mn2 H20 S2 O18'
_cell_volume   388.18210827
_cell_formula_units_Z   2
loop_
 _symmetry_equiv_pos_site_id
 _symmetry_equiv_pos_as_xyz
  1  'x, y, z'
loop_
 _atom_site_type_symbol
 _atom_site_label
 _atom_site_symmetry_multiplicity
 _atom_site_fract_x
 _atom_site_fract_y
 _atom_site_fract_z
 _atom_site_occupancy
  Mn  Mn0  1  0.00000000  0.00000000  0.00000000  1.0
  Mn  Mn1  1  -0.00000000  -0.50000000  -0.50000000  1.0
  H  H2  1  -0.27402899  -0.13950550  -0.11123996  1.0
  H  H3  1  -0.72597101  -0.86049450  -0.88876004  1.0
  H  H4  1  -0.23920674  -0.00749146  -0.29452795  1.0
  H  H5  1  -0.76079326  -0.99250854  -0.70547205  1.0
  H  H6  1  -0.35522273  -0.13206335  -0.64418438  1.0
  H  H7  1  -0.64477727  -0.86793665  -0.35581562  1.0
  H  H8  1  -0.11445011  -0.20905269  -0.66119542  1.0
  H  H9  1  -0.88554989  -0.79094731  -0.33880458  1.0
  H  H10  1  -0.36964799  -0.37001840  -0.67307418  1.0
  H  H11  1  -0.63035201  -0.62998160  -0.32692582  1.0
  H  H12  1  -0.44974288  -0.38760535  -0.39610051  1.0
  H  H13  1  -0.55025712  -0.61239465  -0.60389949  1.0
  H  H14  1  -0.17737686  -0.37179592  -0.13239826  1.0
  H  H15  1  -0.82262314  -0.62820408  -0.86760174  1.0
  H  H16  1  -0.90500668  -0.39567781  -0.17760986  1.0
  H  H17  1  -0.09499332  -0.60432219  -0.82239014  1.0
  H  H18  1  -0.70138931  -0.13842292  -0.38420836  1.0
  H  H19  1  -0.29861069  -0.86157708  -0.61579164  1.0
  H  H20  1  -0.72296172  -0.19944356  -0.57765678  1.0
  H  H21  1  -0.27703828  -0.80055644  -0.42234322  1.0
  S  S22  1  -0.65340223  -0.28699161  -0.97874624  1.0
  S  S23  1  -0.34659777  -0.71300839  -0.02125376  1.0
  O  O24  1  -0.71892753  -0.15428731  -0.08505051  1.0
  O  O25  1  -0.28107247  -0.84571269  -0.91494949  1.0
  O  O26  1  -0.81942942  -0.32309997  -0.73856965  1.0
  O  O27  1  -0.18057058  -0.67690003  -0.26143035  1.0
  O  O28  1  -0.65738295  -0.37424671  -0.12546646  1.0
  O  O29  1  -0.34261705  -0.62575329  -0.87453354  1.0
  O  O30  1  -0.41572525  -0.29172006  -0.96061683  1.0
  O  O31  1  -0.58427475  -0.70827994  -0.03938317  1.0
  O  O32  1  -0.17033300  -0.07037135  -0.18825242  1.0
  O  O33  1  -0.82966700  -0.92962865  -0.81174758  1.0
  O  O34  1  -0.18699521  -0.12354895  -0.68487056  1.0
  O  O35  1  -0.81300479  -0.87645105  -0.31512944  1.0
  O  O36  1  -0.31920558  -0.39940072  -0.53490195  1.0
  O  O37  1  -0.68079442  -0.60059928  -0.46509805  1.0
  O  O38  1  -0.03285132  -0.40630337  -0.23209469  1.0
  O  O39  1  -0.96714868  -0.59369663  -0.76790531  1.0
  O  O40  1  -0.65267360  -0.13138012  -0.55358170  1.0
  O  O41  1  -0.34732640  -0.86861988  -0.44641830  1.0
