# generated using pymatgen
data_Zn(PO3)2
_symmetry_space_group_name_H-M   'P 1'
_cell_length_a   5.50011201
_cell_length_b   5.50011201
_cell_length_c   16.82000172
_cell_angle_alpha   88.87398927
_cell_angle_beta   91.12601073
_cell_angle_gamma   90.10277434
_symmetry_Int_Tables_number   1
_chemical_formula_structural   Zn(PO3)2
_chemical_formula_sum   'Zn4 P8 O24'
_cell_volume   508.62877717
_cell_formula_units_Z   4
loop_
 _symmetry_equiv_pos_site_id
 _symmetry_equiv_pos_as_xyz
  1  'x, y, z'
loop_
 _atom_site_type_symbol
 _atom_site_label
 _atom_site_symmetry_multiplicity
 _atom_site_fract_x
 _atom_site_fract_y
 _atom_site_fract_z
 _atom_site_occupancy
  Zn  Zn0  1  1.63104568  -0.24635096  0.96252450  1.0
  Zn  Zn1  1  1.24635096  -0.63104568  0.46252450  1.0
  Zn  Zn2  1  0.45528161  0.36492769  0.68544282  1.0
  Zn  Zn3  1  0.63507231  0.54471839  0.18544282  1.0
  P  P4  1  0.85301422  0.61828469  0.57383282  1.0
  P  P5  1  0.38171531  0.14698578  0.07383282  1.0
  P  P6  1  1.12232941  -0.14013747  0.70705881  1.0
  P  P7  1  1.14013747  -0.12232941  0.20705881  1.0
  P  P8  1  0.83646779  0.13229837  0.82476307  1.0
  P  P9  1  0.86770163  0.16353221  0.32476307  1.0
  P  P10  1  1.13880742  -0.57495062  0.94026118  1.0
  P  P11  1  1.57495062  -0.13880742  0.44026118  1.0
  O  O12  1  0.80105748  0.81169083  0.50219921  1.0
  O  O13  1  0.18830917  0.19894252  0.00219921  1.0
  O  O14  1  0.97630799  0.90280608  0.78803672  1.0
  O  O15  1  0.09719392  0.02369201  0.28803672  1.0
  O  O16  1  0.89510063  0.79616574  0.64794084  1.0
  O  O17  1  0.20383426  0.10489937  0.14794084  1.0
  O  O18  1  0.62643911  0.47014952  0.58872406  1.0
  O  O19  1  0.52985048  0.37356089  0.08872406  1.0
  O  O20  1  0.93100166  0.56968265  0.97139519  1.0
  O  O21  1  0.43031735  0.06899834  0.47139519  1.0
  O  O22  1  0.72537780  0.29016164  0.75992382  1.0
  O  O23  1  0.70983836  0.27462220  0.25992382  1.0
  O  O24  1  1.08809130  -0.51140424  0.55784663  1.0
  O  O25  1  1.51140424  -0.08809130  0.05784663  1.0
  O  O26  1  1.28052476  -0.35680131  0.72448179  1.0
  O  O27  1  1.35680131  -0.28052476  0.22448179  1.0
  O  O28  1  0.67654337  0.03415652  0.88940814  1.0
  O  O29  1  0.96584348  0.32345663  0.38940814  1.0
  O  O30  1  1.06515416  -0.71971045  0.86129736  1.0
  O  O31  1  1.71971045  -0.06515416  0.36129736  1.0
  O  O32  1  1.37106092  -0.44670134  0.91988167  1.0
  O  O33  1  1.44670134  -0.37106092  0.41988167  1.0
  O  O34  1  0.23620226  0.09054023  0.67618137  1.0
  O  O35  1  0.90945977  0.76379774  0.17618137  1.0
