# generated using pymatgen
data_VIO7
_symmetry_space_group_name_H-M   'P 1'
_cell_length_a   10.84688462
_cell_length_b   8.09089430
_cell_length_c   7.14350339
_cell_angle_alpha   90.00000000
_cell_angle_beta   103.83611138
_cell_angle_gamma   90.00000000
_symmetry_Int_Tables_number   1
_chemical_formula_structural   VIO7
_chemical_formula_sum   'V4 I4 O28'
_cell_volume   608.73008254
_cell_formula_units_Z   4
loop_
 _symmetry_equiv_pos_site_id
 _symmetry_equiv_pos_as_xyz
  1  'x, y, z'
loop_
 _atom_site_type_symbol
 _atom_site_label
 _atom_site_symmetry_multiplicity
 _atom_site_fract_x
 _atom_site_fract_y
 _atom_site_fract_z
 _atom_site_occupancy
  O  O0  1  0.88296047  0.07585380  0.00395052  1.0
  O  O1  1  0.88296047  0.42414620  0.50395052  1.0
  O  O2  1  0.11703953  0.57585380  0.49604948  1.0
  O  O3  1  0.11703953  0.92414620  0.99604948  1.0
  O  O4  1  0.88033075  0.06506016  0.41227805  1.0
  O  O5  1  0.88033075  0.43493984  0.91227805  1.0
  O  O6  1  0.11966925  0.56506016  0.08772195  1.0
  O  O7  1  0.11966925  0.93493984  0.58772195  1.0
  O  O8  1  0.29075124  0.42339478  0.14840347  1.0
  O  O9  1  0.29075124  0.07660522  0.64840347  1.0
  O  O10  1  0.70924876  0.92339478  0.35159653  1.0
  O  O11  1  0.70924876  0.57660522  0.85159653  1.0
  O  O12  1  0.61179473  0.12473345  0.40459963  1.0
  O  O13  1  0.61179473  0.37526655  0.90459963  1.0
  O  O14  1  0.38820527  0.62473345  0.09540037  1.0
  O  O15  1  0.38820527  0.87526655  0.59540037  1.0
  O  O16  1  0.62037854  0.45033274  0.40278803  1.0
  O  O17  1  0.62037854  0.04966726  0.90278803  1.0
  O  O18  1  0.37962146  0.95033274  0.09721197  1.0
  O  O19  1  0.37962146  0.54966726  0.59721197  1.0
  O  O20  1  0.74535506  0.28653979  0.17098779  1.0
  O  O21  1  0.74535506  0.21346021  0.67098779  1.0
  O  O22  1  0.25464494  0.78653979  0.32901221  1.0
  O  O23  1  0.25464494  0.71346021  0.82901221  1.0
  O  O24  1  0.92507520  0.77442851  0.21462386  1.0
  O  O25  1  0.92507520  0.72557149  0.71462386  1.0
  O  O26  1  0.07492480  0.27442851  0.28537614  1.0
  O  O27  1  0.07492480  0.22557149  0.78537614  1.0
  I  I28  1  0.98822164  0.98969247  0.24609382  1.0
  I  I29  1  0.98822164  0.51030753  0.74609382  1.0
  I  I30  1  0.01177836  0.48969247  0.25390618  1.0
  I  I31  1  0.01177836  0.01030753  0.75390618  1.0
  V  V32  1  0.71866087  0.30395469  0.41366467  1.0
  V  V33  1  0.71866087  0.19604531  0.91366467  1.0
  V  V34  1  0.28133913  0.80395469  0.08633533  1.0
  V  V35  1  0.28133913  0.69604531  0.58633533  1.0
