# generated using pymatgen
data_BaLa2ZnS5
_symmetry_space_group_name_H-M   'P 1'
_cell_length_a   8.91339465
_cell_length_b   8.91339465
_cell_length_c   8.91339465
_cell_angle_alpha   126.53346713
_cell_angle_beta   126.53346713
_cell_angle_gamma   79.01310573
_symmetry_Int_Tables_number   1
_chemical_formula_structural   BaLa2ZnS5
_chemical_formula_sum   'Ba2 La4 Zn2 S10'
_cell_volume   442.24818047
_cell_formula_units_Z   2
loop_
 _symmetry_equiv_pos_site_id
 _symmetry_equiv_pos_as_xyz
  1  'x, y, z'
loop_
 _atom_site_type_symbol
 _atom_site_label
 _atom_site_symmetry_multiplicity
 _atom_site_fract_x
 _atom_site_fract_y
 _atom_site_fract_z
 _atom_site_occupancy
  Ba  Ba0  1  0.75000000  0.75000000  1.00000000  1.0
  Ba  Ba1  1  0.25000000  0.25000000  0.00000000  1.0
  La  La2  1  0.33661569  0.83661569  1.17323139  1.0
  La  La3  1  0.16338431  0.33661569  0.50000000  1.0
  La  La4  1  0.83661569  0.66338431  1.50000000  1.0
  La  La5  1  0.66338431  0.16338431  0.82676861  1.0
  Zn  Zn6  1  0.25000000  0.75000000  0.50000000  1.0
  Zn  Zn7  1  0.75000000  0.25000000  0.50000000  1.0
  S  S8  1  0.00000000  0.00000000  0.00000000  1.0
  S  S9  1  0.50000000  0.50000000  1.00000000  1.0
  S  S10  1  0.71471993  1.21471993  1.20087470  1.0
  S  S11  1  0.98615477  0.48615477  1.20087470  1.0
  S  S12  1  0.51384523  0.71471993  0.50000000  1.0
  S  S13  1  0.78528007  0.98615477  1.50000000  1.0
  S  S14  1  1.21471993  1.01384523  1.50000000  1.0
  S  S15  1  0.48615477  0.28528007  0.50000000  1.0
  S  S16  1  1.01384523  0.51384523  0.79912530  1.0
  S  S17  1  0.28528007  0.78528007  0.79912530  1.0
