# generated using pymatgen
data_Mg3(Al9V)2
_symmetry_space_group_name_H-M   'P 1'
_cell_length_a   10.31274139
_cell_length_b   10.31274139
_cell_length_c   10.31274139
_cell_angle_alpha   60.00000000
_cell_angle_beta   60.00000000
_cell_angle_gamma   60.00000000
_symmetry_Int_Tables_number   1
_chemical_formula_structural   Mg3(Al9V)2
_chemical_formula_sum   'Mg6 Al36 V4'
_cell_volume   775.54568065
_cell_formula_units_Z   2
loop_
 _symmetry_equiv_pos_site_id
 _symmetry_equiv_pos_as_xyz
  1  'x, y, z'
loop_
 _atom_site_type_symbol
 _atom_site_label
 _atom_site_symmetry_multiplicity
 _atom_site_fract_x
 _atom_site_fract_y
 _atom_site_fract_z
 _atom_site_occupancy
  Mg  Mg0  1  1.12500000  0.62500000  0.62500000  1.0
  Mg  Mg1  1  0.62500000  1.12500000  -0.37500000  1.0
  Mg  Mg2  1  -0.37500000  0.62500000  1.12500000  1.0
  Mg  Mg3  1  -0.37500000  0.62500000  0.62500000  1.0
  Mg  Mg4  1  0.50000000  -0.50000000  0.50000000  1.0
  Mg  Mg5  1  0.75000000  0.75000000  0.75000000  1.0
  Al  Al6  1  0.86016558  0.86016558  -0.86016558  1.0
  Al  Al7  1  0.13983442  1.13983442  -0.13983442  1.0
  Al  Al8  1  0.86016558  -0.86016558  0.86016558  1.0
  Al  Al9  1  0.13983442  -0.13983442  0.13983442  1.0
  Al  Al10  1  -0.86016558  0.86016558  0.86016558  1.0
  Al  Al11  1  -0.13983442  0.13983442  0.13983442  1.0
  Al  Al12  1  0.38983442  1.38983442  0.11016558  1.0
  Al  Al13  1  0.11016558  0.11016558  0.38983442  1.0
  Al  Al14  1  0.38983442  1.11016558  0.38983442  1.0
  Al  Al15  1  0.11016558  1.38983442  0.11016558  1.0
  Al  Al16  1  0.11016558  1.38983442  0.38983442  1.0
  Al  Al17  1  0.38983442  1.11016558  0.11016558  1.0
  Al  Al18  1  0.56744088  1.30001123  0.30001123  1.0
  Al  Al19  1  0.30001123  1.56744088  -0.16746334  1.0
  Al  Al20  1  0.30001123  -0.16746334  0.56744088  1.0
  Al  Al21  1  -0.16746334  0.30001123  0.30001123  1.0
  Al  Al22  1  0.30001123  1.30001123  0.56744088  1.0
  Al  Al23  1  0.56744088  0.83253666  0.30001123  1.0
  Al  Al24  1  -0.16746334  1.56744088  0.30001123  1.0
  Al  Al25  1  0.30001123  1.30001123  -0.16746334  1.0
  Al  Al26  1  0.30001123  1.56744088  0.30001123  1.0
  Al  Al27  1  -0.16746334  0.30001123  0.56744088  1.0
  Al  Al28  1  0.56744088  1.30001123  -0.16746334  1.0
  Al  Al29  1  0.30001123  -0.16746334  0.30001123  1.0
  Al  Al30  1  0.68255912  0.94998877  0.94998877  1.0
  Al  Al31  1  0.94998877  0.68255912  -0.58253666  1.0
  Al  Al32  1  0.94998877  0.41746334  0.68255912  1.0
  Al  Al33  1  0.41746334  0.94998877  -0.05001123  1.0
  Al  Al34  1  0.94998877  0.94998877  0.68255912  1.0
  Al  Al35  1  0.68255912  -0.58253666  0.94998877  1.0
  Al  Al36  1  -0.58253666  0.68255912  0.94998877  1.0
  Al  Al37  1  0.94998877  0.94998877  -0.58253666  1.0
  Al  Al38  1  0.94998877  0.68255912  0.94998877  1.0
  Al  Al39  1  0.41746334  0.94998877  -0.31744088  1.0
  Al  Al40  1  0.68255912  0.94998877  -0.58253666  1.0
  Al  Al41  1  0.94998877  0.41746334  0.94998877  1.0
  V  V42  1  0.62500000  1.12500000  0.12500000  1.0
  V  V43  1  0.12500000  1.62500000  0.12500000  1.0
  V  V44  1  0.12500000  0.12500000  1.62500000  1.0
  V  V45  1  0.12500000  0.12500000  0.12500000  1.0
