# generated using pymatgen
data_BiOs2(CO)6
_symmetry_space_group_name_H-M   'P 1'
_cell_length_a   9.86584515
_cell_length_b   9.86584515
_cell_length_c   12.97764669
_cell_angle_alpha   85.40055756
_cell_angle_beta   94.59944244
_cell_angle_gamma   93.00870042
_symmetry_Int_Tables_number   1
_chemical_formula_structural   BiOs2(CO)6
_chemical_formula_sum   'Bi4 Os8 C24 O24'
_cell_volume   1253.70615380
_cell_formula_units_Z   4
loop_
 _symmetry_equiv_pos_site_id
 _symmetry_equiv_pos_as_xyz
  1  'x, y, z'
loop_
 _atom_site_type_symbol
 _atom_site_label
 _atom_site_symmetry_multiplicity
 _atom_site_fract_x
 _atom_site_fract_y
 _atom_site_fract_z
 _atom_site_occupancy
  Bi  Bi0  1  1.00065181  -0.20873575  0.78922206  1.0
  Bi  Bi1  1  0.79126425  0.00065181  0.71077794  1.0
  Bi  Bi2  1  0.99934819  0.20873575  0.21077794  1.0
  Bi  Bi3  1  1.20873575  -0.00065181  0.28922206  1.0
  Os  Os4  1  0.78515581  0.58513528  0.78363594  1.0
  Os  Os5  1  1.58513528  -0.21484419  0.71636406  1.0
  Os  Os6  1  1.21484419  -0.58513528  0.21636406  1.0
  Os  Os7  1  0.41486472  0.21484419  0.28363594  1.0
  Os  Os8  1  0.82418549  0.76372755  0.59667366  1.0
  Os  Os9  1  1.76372755  -0.17581451  0.90332634  1.0
  Os  Os10  1  1.17581451  -0.76372755  0.40332634  1.0
  Os  Os11  1  0.23627245  0.17581451  0.09667366  1.0
  C  C12  1  0.92294011  0.48557269  0.73455284  1.0
  C  C13  1  1.48557269  -0.07705989  0.76544716  1.0
  C  C14  1  1.07705989  -0.48557269  0.26544716  1.0
  C  C15  1  0.51442731  0.07705989  0.23455284  1.0
  C  C16  1  0.80725941  0.50474854  0.92140961  1.0
  C  C17  1  1.50474854  -0.19274059  0.57859039  1.0
  C  C18  1  1.19274059  -0.50474854  0.07859039  1.0
  C  C19  1  0.49525146  0.19274059  0.42140961  1.0
  C  C20  1  0.64780110  0.45279077  0.74277437  1.0
  C  C21  1  1.45279077  -0.35219890  0.75722563  1.0
  C  C22  1  1.35219890  -0.45279077  0.25722563  1.0
  C  C23  1  0.54720923  0.35219890  0.24277437  1.0
  C  C24  1  0.99409339  -0.27666593  0.55183811  1.0
  C  C25  1  0.72333407  -0.00590661  0.94816189  1.0
  C  C26  1  1.00590661  0.27666593  0.44816189  1.0
  C  C27  1  1.27666593  0.00590661  0.05183811  1.0
  C  C28  1  1.79734510  -0.10470177  0.48310854  1.0
  C  C29  1  0.89529823  0.79734510  0.01689146  1.0
  C  C30  1  0.20265490  0.10470177  0.51689146  1.0
  C  C31  1  1.10470177  -0.79734510  0.98310854  1.0
  C  C32  1  0.72479144  0.61714558  0.53353899  1.0
  C  C33  1  1.61714558  -0.27520856  0.96646101  1.0
  C  C34  1  1.27520856  -0.61714558  0.46646101  1.0
  C  C35  1  0.38285442  0.27520856  0.03353899  1.0
  O  O36  1  1.00566744  -0.57723555  0.70442559  1.0
  O  O37  1  0.42276445  0.00566744  0.79557441  1.0
  O  O38  1  0.99433256  0.57723555  0.29557441  1.0
  O  O39  1  1.57723555  -0.00566744  0.20442559  1.0
  O  O40  1  0.82537399  0.45049800  0.00385208  1.0
  O  O41  1  1.45049800  -0.17462601  0.49614792  1.0
  O  O42  1  1.17462601  -0.45049800  0.99614792  1.0
  O  O43  1  0.54950200  0.17462601  0.50385208  1.0
  O  O44  1  0.57290835  0.36387958  0.71942526  1.0
  O  O45  1  1.36387958  -0.42709165  0.78057474  1.0
  O  O46  1  1.42709165  -0.36387958  0.28057474  1.0
  O  O47  1  0.63612042  0.42709165  0.21942526  1.0
  O  O48  1  1.09764917  -0.30122080  0.52242026  1.0
  O  O49  1  0.69877920  0.09764917  0.97757974  1.0
  O  O50  1  0.90235083  0.30122080  0.47757974  1.0
  O  O51  1  1.30122080  -0.09764917  0.02242026  1.0
  O  O52  1  1.78213596  -0.02670857  0.41154604  1.0
  O  O53  1  0.97329143  0.78213596  0.08845396  1.0
  O  O54  1  0.21786404  0.02670857  0.58845396  1.0
  O  O55  1  1.02670857  -0.78213596  0.91154604  1.0
  O  O56  1  0.66668594  0.53031519  0.49108729  1.0
  O  O57  1  1.53031519  -0.33331406  0.00891271  1.0
  O  O58  1  1.33331406  -0.53031519  0.50891271  1.0
  O  O59  1  0.46968481  0.33331406  0.99108729  1.0
