# generated using pymatgen
data_SiPt
_symmetry_space_group_name_H-M   'P 1'
_cell_length_a   5.65772230
_cell_length_b   3.63150251
_cell_length_c   5.97888231
_cell_angle_alpha   90.00000000
_cell_angle_beta   90.00000000
_cell_angle_gamma   90.00000000
_symmetry_Int_Tables_number   1
_chemical_formula_structural   SiPt
_chemical_formula_sum   'Si4 Pt4'
_cell_volume   122.84231165
_cell_formula_units_Z   4
loop_
 _symmetry_equiv_pos_site_id
 _symmetry_equiv_pos_as_xyz
  1  'x, y, z'
loop_
 _atom_site_type_symbol
 _atom_site_label
 _atom_site_symmetry_multiplicity
 _atom_site_fract_x
 _atom_site_fract_y
 _atom_site_fract_z
 _atom_site_occupancy
  Si  Si0  1  0.82178553  0.75000000  0.58322842  1.0
  Si  Si1  1  0.32178553  0.75000000  0.91677158  1.0
  Si  Si2  1  0.17821447  0.25000000  0.41677158  1.0
  Si  Si3  1  0.67821447  0.25000000  0.08322842  1.0
  Pt  Pt4  1  1.00558698  0.75000000  0.19344474  1.0
  Pt  Pt5  1  0.50558698  0.75000000  0.30655526  1.0
  Pt  Pt6  1  -0.00558698  0.25000000  0.80655526  1.0
  Pt  Pt7  1  0.49441302  0.25000000  0.69344474  1.0
