# generated using pymatgen
data_MgH2SeO5
_symmetry_space_group_name_H-M   'P 1'
_cell_length_a   5.41814176
_cell_length_b   5.41814176
_cell_length_c   7.74094128
_cell_angle_alpha   73.67662642
_cell_angle_beta   106.32337358
_cell_angle_gamma   80.24866673
_symmetry_Int_Tables_number   1
_chemical_formula_structural   MgH2SeO5
_chemical_formula_sum   'Mg2 H4 Se2 O10'
_cell_volume   201.54048765
_cell_formula_units_Z   2
loop_
 _symmetry_equiv_pos_site_id
 _symmetry_equiv_pos_as_xyz
  1  'x, y, z'
loop_
 _atom_site_type_symbol
 _atom_site_label
 _atom_site_symmetry_multiplicity
 _atom_site_fract_x
 _atom_site_fract_y
 _atom_site_fract_z
 _atom_site_occupancy
  Mg  Mg0  1  1.50000000  -0.00000000  0.50000000  1.0
  Mg  Mg1  1  1.00000000  -0.50000000  -0.00000000  1.0
  H  H2  1  1.53175078  0.36398022  0.20482861  1.0
  H  H3  1  0.63601978  -0.53175078  0.70482861  1.0
  H  H4  1  1.36398022  0.53175078  0.29517139  1.0
  H  H5  1  0.46824922  -0.36398022  0.79517139  1.0
  Se  Se6  1  0.91905505  -0.08094495  0.25000000  1.0
  Se  Se7  1  1.08094495  0.08094495  0.75000000  1.0
  O  O8  1  0.78800998  -0.17649129  0.41799649  1.0
  O  O9  1  1.17649129  0.21199002  0.91799649  1.0
  O  O10  1  0.82350871  -0.21199002  0.08200351  1.0
  O  O11  1  1.21199002  0.17649129  0.58200351  1.0
  O  O12  1  0.25340560  -0.18255631  0.34722830  1.0
  O  O13  1  1.18255631  0.74659440  0.84722830  1.0
  O  O14  1  0.81744369  -0.74659440  0.15277170  1.0
  O  O15  1  1.74659440  0.18255631  0.65277170  1.0
  O  O16  1  1.37551695  0.37551695  0.25000000  1.0
  O  O17  1  0.62448305  -0.37551695  0.75000000  1.0
