# generated using pymatgen
data_Cu2SiS3
_symmetry_space_group_name_H-M   'P 1'
_cell_length_a   6.36054884
_cell_length_b   6.36054884
_cell_length_c   6.09423745
_cell_angle_alpha   90.00000000
_cell_angle_beta   90.00000000
_cell_angle_gamma   60.47336051
_symmetry_Int_Tables_number   1
_chemical_formula_structural   Cu2SiS3
_chemical_formula_sum   'Cu4 Si2 S6'
_cell_volume   214.53147864
_cell_formula_units_Z   2
loop_
 _symmetry_equiv_pos_site_id
 _symmetry_equiv_pos_as_xyz
  1  'x, y, z'
loop_
 _atom_site_type_symbol
 _atom_site_label
 _atom_site_symmetry_multiplicity
 _atom_site_fract_x
 _atom_site_fract_y
 _atom_site_fract_z
 _atom_site_occupancy
  Cu  Cu0  1  -0.17552356  1.49718439  0.01990649  1.0
  Cu  Cu1  1  0.49718439  0.82447644  0.51990649  1.0
  Cu  Cu2  1  -0.49718439  1.17552356  0.01990649  1.0
  Cu  Cu3  1  0.17552356  0.50281561  0.51990649  1.0
  Si  Si4  1  0.16909925  0.83090075  -0.01082926  1.0
  Si  Si5  1  -0.16909925  1.16909925  0.48917074  1.0
  S  S6  1  -0.16140929  1.48544524  0.39428623  1.0
  S  S7  1  0.48544524  0.83859071  0.89428623  1.0
  S  S8  1  -0.48544524  1.16140929  0.39428623  1.0
  S  S9  1  0.16140929  0.51455476  0.89428623  1.0
  S  S10  1  0.15512922  0.84487078  0.36144383  1.0
  S  S11  1  -0.15512922  1.15512922  0.86144383  1.0
