# generated using pymatgen
data_KC2N7O2
_symmetry_space_group_name_H-M   'P 1'
_cell_length_a   4.78519845
_cell_length_b   11.69276474
_cell_length_c   13.28773677
_cell_angle_alpha   90.00000000
_cell_angle_beta   95.66401204
_cell_angle_gamma   90.00000000
_symmetry_Int_Tables_number   1
_chemical_formula_structural   KC2N7O2
_chemical_formula_sum   'K4 C8 N28 O8'
_cell_volume   739.84826152
_cell_formula_units_Z   4
loop_
 _symmetry_equiv_pos_site_id
 _symmetry_equiv_pos_as_xyz
  1  'x, y, z'
loop_
 _atom_site_type_symbol
 _atom_site_label
 _atom_site_symmetry_multiplicity
 _atom_site_fract_x
 _atom_site_fract_y
 _atom_site_fract_z
 _atom_site_occupancy
  K  K0  1  0.63600848  0.09379084  0.13825154  1.0
  K  K1  1  0.63600848  0.40620916  0.63825154  1.0
  K  K2  1  0.36399152  0.59379084  0.36174846  1.0
  K  K3  1  0.36399152  0.90620916  0.86174846  1.0
  C  C4  1  0.92084134  0.33719824  0.29175252  1.0
  C  C5  1  0.92084134  0.16280176  0.79175252  1.0
  C  C6  1  0.07915866  0.83719824  0.20824748  1.0
  C  C7  1  0.07915866  0.66280176  0.70824748  1.0
  C  C8  1  0.64960459  0.28763644  0.39386423  1.0
  C  C9  1  0.64960459  0.21236356  0.89386423  1.0
  C  C10  1  0.35039541  0.78763644  0.10613577  1.0
  C  C11  1  0.35039541  0.71236356  0.60613577  1.0
  N  N12  1  0.91482413  0.42647720  0.35504014  1.0
  N  N13  1  0.91482413  0.07352280  0.85504014  1.0
  N  N14  1  0.08517587  0.92647720  0.14495986  1.0
  N  N15  1  0.08517587  0.57352280  0.64495986  1.0
  N  N16  1  0.90144933  0.83708067  0.28864090  1.0
  N  N17  1  0.90144933  0.66291933  0.78864090  1.0
  N  N18  1  0.09855067  0.33708067  0.21135910  1.0
  N  N19  1  0.09855067  0.16291933  0.71135910  1.0
  N  N20  1  0.75799453  0.24706441  0.31167584  1.0
  N  N21  1  0.75799453  0.25293559  0.81167584  1.0
  N  N22  1  0.24200547  0.74706441  0.18832416  1.0
  N  N23  1  0.24200547  0.75293559  0.68832416  1.0
  N  N24  1  0.73627982  0.39480952  0.42221534  1.0
  N  N25  1  0.73627982  0.10519048  0.92221534  1.0
  N  N26  1  0.26372018  0.89480952  0.07778466  1.0
  N  N27  1  0.26372018  0.60519048  0.57778466  1.0
  N  N28  1  0.46426952  0.23291227  0.45236972  1.0
  N  N29  1  0.46426952  0.26708773  0.95236972  1.0
  N  N30  1  0.53573048  0.73291227  0.04763028  1.0
  N  N31  1  0.53573048  0.76708773  0.54763028  1.0
  N  N32  1  0.37794091  0.13628253  0.42806746  1.0
  N  N33  1  0.37794091  0.36371747  0.92806746  1.0
  N  N34  1  0.62205909  0.63628253  0.07193254  1.0
  N  N35  1  0.62205909  0.86371747  0.57193254  1.0
  N  N36  1  0.27929457  0.04824209  0.41503741  1.0
  N  N37  1  0.27929457  0.45175791  0.91503741  1.0
  N  N38  1  0.72070543  0.54824209  0.08496259  1.0
  N  N39  1  0.72070543  0.95175791  0.58496259  1.0
  O  O40  1  0.91298618  0.75265179  0.34647041  1.0
  O  O41  1  0.91298618  0.74734821  0.84647041  1.0
  O  O42  1  0.08701382  0.25265179  0.15352959  1.0
  O  O43  1  0.08701382  0.24734821  0.65352959  1.0
  O  O44  1  0.74108531  0.91923438  0.29629038  1.0
  O  O45  1  0.74108531  0.58076562  0.79629038  1.0
  O  O46  1  0.25891469  0.41923438  0.20370962  1.0
  O  O47  1  0.25891469  0.08076562  0.70370962  1.0
