# generated using pymatgen
data_Li2C3
_symmetry_space_group_name_H-M   'P 1'
_cell_length_a   8.64026752
_cell_length_b   8.64026752
_cell_length_c   2.55878109
_cell_angle_alpha   90.00000000
_cell_angle_beta   90.00000000
_cell_angle_gamma   156.99614021
_symmetry_Int_Tables_number   1
_chemical_formula_structural   Li2C3
_chemical_formula_sum   'Li4 C6'
_cell_volume   74.65079576
_cell_formula_units_Z   2
loop_
 _symmetry_equiv_pos_site_id
 _symmetry_equiv_pos_as_xyz
  1  'x, y, z'
loop_
 _atom_site_type_symbol
 _atom_site_label
 _atom_site_symmetry_multiplicity
 _atom_site_fract_x
 _atom_site_fract_y
 _atom_site_fract_z
 _atom_site_occupancy
  Li  Li0  1  0.28953580  0.71046420  0.25000000  1.0
  Li  Li1  1  -0.28953580  0.28953580  0.75000000  1.0
  Li  Li2  1  -0.42290865  0.42290865  0.25000000  1.0
  Li  Li3  1  0.42290865  0.57709135  0.75000000  1.0
  C  C4  1  -0.11014856  0.11014856  0.25000000  1.0
  C  C5  1  0.11014856  0.88985144  0.75000000  1.0
  C  C6  1  -0.02220606  0.02220606  0.25000000  1.0
  C  C7  1  0.02220606  0.97779394  0.75000000  1.0
  C  C8  1  0.15528094  0.84471906  0.25000000  1.0
  C  C9  1  -0.15528094  0.15528094  0.75000000  1.0
