# generated using pymatgen
data_CoSn3
_symmetry_space_group_name_H-M   'P 1'
_cell_length_a   9.10876283
_cell_length_b   9.10876283
_cell_length_c   6.32147342
_cell_angle_alpha   90.00000000
_cell_angle_beta   90.00000000
_cell_angle_gamma   40.43722692
_symmetry_Int_Tables_number   1
_chemical_formula_structural   CoSn3
_chemical_formula_sum   'Co4 Sn12'
_cell_volume   340.19176608
_cell_formula_units_Z   4
loop_
 _symmetry_equiv_pos_site_id
 _symmetry_equiv_pos_as_xyz
  1  'x, y, z'
loop_
 _atom_site_type_symbol
 _atom_site_label
 _atom_site_symmetry_multiplicity
 _atom_site_fract_x
 _atom_site_fract_y
 _atom_site_fract_z
 _atom_site_occupancy
  Co  Co0  1  0.42057421  1.42057421  0.50000000  1.0
  Co  Co1  1  0.92057421  0.92057421  0.00000000  1.0
  Co  Co2  1  0.57942579  0.57942579  0.50000000  1.0
  Co  Co3  1  0.07942579  1.07942579  0.00000000  1.0
  Sn  Sn4  1  0.65066169  1.01965998  0.31594180  1.0
  Sn  Sn5  1  0.15066169  1.51965998  0.18405820  1.0
  Sn  Sn6  1  0.01965998  1.65066169  0.68405820  1.0
  Sn  Sn7  1  0.51965998  1.15066169  0.81594180  1.0
  Sn  Sn8  1  -0.01965998  1.34933831  0.31594180  1.0
  Sn  Sn9  1  0.48034002  0.84933831  0.18405820  1.0
  Sn  Sn10  1  0.34933831  0.98034002  0.68405820  1.0
  Sn  Sn11  1  -0.15066169  1.48034002  0.81594180  1.0
  Sn  Sn12  1  -0.33693368  0.33693368  0.16307081  1.0
  Sn  Sn13  1  -0.83693368  0.83693368  0.33692919  1.0
  Sn  Sn14  1  -0.66306632  0.66306632  0.83692919  1.0
  Sn  Sn15  1  -0.16306632  0.16306632  0.66307081  1.0
