# generated using pymatgen
data_ReH8(Br3N)2
_symmetry_space_group_name_H-M   'P 1'
_cell_length_a   7.53013560
_cell_length_b   7.53013560
_cell_length_c   7.53013560
_cell_angle_alpha   60.00000000
_cell_angle_beta   60.00000000
_cell_angle_gamma   60.00000000
_symmetry_Int_Tables_number   1
_chemical_formula_structural   ReH8(Br3N)2
_chemical_formula_sum   'Re1 H8 Br6 N2'
_cell_volume   301.92105022
_cell_formula_units_Z   1
loop_
 _symmetry_equiv_pos_site_id
 _symmetry_equiv_pos_as_xyz
  1  'x, y, z'
loop_
 _atom_site_type_symbol
 _atom_site_label
 _atom_site_symmetry_multiplicity
 _atom_site_fract_x
 _atom_site_fract_y
 _atom_site_fract_z
 _atom_site_occupancy
  Re  Re0  1  0.00000000  0.00000000  0.00000000  1.0
  H  H1  1  0.69400818  0.69400818  -0.30599182  1.0
  H  H2  1  1.30599182  0.30599182  0.08202454  1.0
  H  H3  1  1.30599182  0.08202454  0.30599182  1.0
  H  H4  1  0.91797546  0.69400818  -0.30599182  1.0
  H  H5  1  1.08202454  0.30599182  0.30599182  1.0
  H  H6  1  0.69400818  0.91797546  -0.30599182  1.0
  H  H7  1  0.69400818  0.69400818  -0.08202454  1.0
  H  H8  1  1.30599182  0.30599182  0.30599182  1.0
  Br  Br9  1  -0.76204868  0.76204868  0.76204868  1.0
  Br  Br10  1  -0.23795132  0.23795132  0.76204868  1.0
  Br  Br11  1  0.76204868  0.76204868  -0.76204868  1.0
  Br  Br12  1  0.23795132  1.23795132  -0.23795132  1.0
  Br  Br13  1  0.23795132  -0.23795132  1.23795132  1.0
  Br  Br14  1  -0.23795132  0.23795132  0.23795132  1.0
  N  N15  1  0.75000000  0.75000000  -0.25000000  1.0
  N  N16  1  1.25000000  0.25000000  0.25000000  1.0
