# generated using pymatgen
data_FeSO5
_symmetry_space_group_name_H-M   'P 1'
_cell_length_a   5.32269227
_cell_length_b   5.32269227
_cell_length_c   6.78203481
_cell_angle_alpha   73.98461147
_cell_angle_beta   106.01538853
_cell_angle_gamma   82.63312886
_symmetry_Int_Tables_number   1
_chemical_formula_structural   FeSO5
_chemical_formula_sum   'Fe2 S2 O10'
_cell_volume   173.12024657
_cell_formula_units_Z   2
loop_
 _symmetry_equiv_pos_site_id
 _symmetry_equiv_pos_as_xyz
  1  'x, y, z'
loop_
 _atom_site_type_symbol
 _atom_site_label
 _atom_site_symmetry_multiplicity
 _atom_site_fract_x
 _atom_site_fract_y
 _atom_site_fract_z
 _atom_site_occupancy
  O  O0  1  0.60989430  0.26176350  0.39741199  1.0
  O  O1  1  1.26176350  -0.39010570  0.10258801  1.0
  O  O2  1  0.39010570  -0.26176350  0.60258801  1.0
  O  O3  1  0.73823650  -0.60989430  0.89741199  1.0
  O  O4  1  0.85878027  0.69691039  0.61870657  1.0
  O  O5  1  0.69691039  -0.14121973  0.88129343  1.0
  O  O6  1  1.14121973  0.30308961  0.38129343  1.0
  O  O7  1  0.30308961  0.14121973  0.11870657  1.0
  O  O8  1  0.92746692  0.92746692  0.25000000  1.0
  O  O9  1  1.07253308  0.07253308  0.75000000  1.0
  Fe  Fe10  1  0.00000000  -0.00000000  0.50000000  1.0
  Fe  Fe11  1  -0.00000000  0.00000000  0.00000000  1.0
  S  S12  1  0.33148475  0.33148475  0.25000000  1.0
  S  S13  1  0.66851525  -0.33148475  0.75000000  1.0
