# generated using pymatgen
data_Mg7NbH16
_symmetry_space_group_name_H-M   'P 1'
_cell_length_a   6.63468405
_cell_length_b   6.63468405
_cell_length_c   6.63468405
_cell_angle_alpha   60.00000000
_cell_angle_beta   60.00000000
_cell_angle_gamma   60.00000000
_symmetry_Int_Tables_number   1
_chemical_formula_structural   Mg7NbH16
_chemical_formula_sum   'Mg7 Nb1 H16'
_cell_volume   206.51221260
_cell_formula_units_Z   1
loop_
 _symmetry_equiv_pos_site_id
 _symmetry_equiv_pos_as_xyz
  1  'x, y, z'
loop_
 _atom_site_type_symbol
 _atom_site_label
 _atom_site_symmetry_multiplicity
 _atom_site_fract_x
 _atom_site_fract_y
 _atom_site_fract_z
 _atom_site_occupancy
  Mg  Mg0  1  -0.00000000  0.00000000  0.50000000  1.0
  Mg  Mg1  1  0.50000000  1.00000000  -0.50000000  1.0
  Mg  Mg2  1  1.00000000  0.50000000  -0.50000000  1.0
  Mg  Mg3  1  0.50000000  -0.50000000  1.00000000  1.0
  Mg  Mg4  1  -0.00000000  1.50000000  0.00000000  1.0
  Mg  Mg5  1  1.50000000  -0.00000000  0.00000000  1.0
  Mg  Mg6  1  -0.50000000  0.50000000  0.50000000  1.0
  Nb  Nb7  1  0.00000000  0.00000000  0.00000000  1.0
  H  H8  1  0.88029247  0.88029247  -0.64087740  1.0
  H  H9  1  0.88029247  0.35912260  -0.11970753  1.0
  H  H10  1  0.35912260  0.88029247  -0.11970753  1.0
  H  H11  1  0.88029247  0.88029247  -0.11970753  1.0
  H  H12  1  1.11970753  0.11970753  0.64087740  1.0
  H  H13  1  1.11970753  0.64087740  0.11970753  1.0
  H  H14  1  1.64087740  0.11970753  0.11970753  1.0
  H  H15  1  1.11970753  0.11970753  0.11970753  1.0
  H  H16  1  0.62766773  0.62766773  1.11699680  1.0
  H  H17  1  0.62766773  1.11699680  -0.37233227  1.0
  H  H18  1  1.11699680  0.62766773  0.62766773  1.0
  H  H19  1  0.62766773  0.62766773  -0.37233227  1.0
  H  H20  1  0.37233227  1.37233227  -0.11699680  1.0
  H  H21  1  1.37233227  -0.11699680  0.37233227  1.0
  H  H22  1  -0.11699680  1.37233227  0.37233227  1.0
  H  H23  1  1.37233227  0.37233227  0.37233227  1.0
