# generated using pymatgen
data_Co(BW)2
_symmetry_space_group_name_H-M   'P 1'
_cell_length_a   4.50912101
_cell_length_b   4.50912101
_cell_length_c   4.50912101
_cell_angle_alpha   138.69829362
_cell_angle_beta   119.24718409
_cell_angle_gamma   76.12391567
_symmetry_Int_Tables_number   1
_chemical_formula_structural   Co(BW)2
_chemical_formula_sum   'Co1 B2 W2'
_cell_volume   51.49278725
_cell_formula_units_Z   1
loop_
 _symmetry_equiv_pos_site_id
 _symmetry_equiv_pos_as_xyz
  1  'x, y, z'
loop_
 _atom_site_type_symbol
 _atom_site_label
 _atom_site_symmetry_multiplicity
 _atom_site_fract_x
 _atom_site_fract_y
 _atom_site_fract_z
 _atom_site_occupancy
  Co  Co0  1  0.00000000  0.00000000  0.00000000  1.0
  B  B1  1  0.29426887  0.50000000  0.79426887  1.0
  B  B2  1  0.70573113  0.50000000  1.20573113  1.0
  W  W3  1  0.70099534  0.20099534  0.50000000  1.0
  W  W4  1  1.29900466  0.79900466  0.50000000  1.0
