# generated using pymatgen
data_Ti3Se4
_symmetry_space_group_name_H-M   'P 1'
_cell_length_a   9.92290525
_cell_length_b   9.92290525
_cell_length_c   3.56554669
_cell_angle_alpha   90.00000000
_cell_angle_beta   90.00000000
_cell_angle_gamma   120.00000000
_symmetry_Int_Tables_number   1
_chemical_formula_structural   Ti3Se4
_chemical_formula_sum   'Ti6 Se8'
_cell_volume   304.04260778
_cell_formula_units_Z   2
loop_
 _symmetry_equiv_pos_site_id
 _symmetry_equiv_pos_as_xyz
  1  'x, y, z'
loop_
 _atom_site_type_symbol
 _atom_site_label
 _atom_site_symmetry_multiplicity
 _atom_site_fract_x
 _atom_site_fract_y
 _atom_site_fract_z
 _atom_site_occupancy
  Ti  Ti0  1  0.35955977  0.87018386  0.25000000  1.0
  Ti  Ti1  1  0.87018386  0.51062410  0.75000000  1.0
  Ti  Ti2  1  0.51062410  0.64044023  0.25000000  1.0
  Ti  Ti3  1  0.12981614  0.48937590  0.25000000  1.0
  Ti  Ti4  1  0.64044023  0.12981614  0.75000000  1.0
  Ti  Ti5  1  0.48937590  0.35955977  0.75000000  1.0
  Se  Se6  1  0.05051797  0.69924559  0.25000000  1.0
  Se  Se7  1  0.69924559  0.64872763  0.75000000  1.0
  Se  Se8  1  0.64872763  0.94948203  0.25000000  1.0
  Se  Se9  1  0.30075441  0.35127237  0.25000000  1.0
  Se  Se10  1  0.94948203  0.30075441  0.75000000  1.0
  Se  Se11  1  0.35127237  0.05051797  0.75000000  1.0
  Se  Se12  1  0.66666667  0.33333333  0.25000000  1.0
  Se  Se13  1  0.33333333  0.66666667  0.75000000  1.0
