# generated using pymatgen
data_ZnOF
_symmetry_space_group_name_H-M   'P 1'
_cell_length_a   10.48681127
_cell_length_b   3.13814026
_cell_length_c   4.80038182
_cell_angle_alpha   90.00000000
_cell_angle_beta   90.00000000
_cell_angle_gamma   90.00000000
_symmetry_Int_Tables_number   1
_chemical_formula_structural   ZnOF
_chemical_formula_sum   'Zn4 O4 F4'
_cell_volume   157.97617156
_cell_formula_units_Z   4
loop_
 _symmetry_equiv_pos_site_id
 _symmetry_equiv_pos_as_xyz
  1  'x, y, z'
loop_
 _atom_site_type_symbol
 _atom_site_label
 _atom_site_symmetry_multiplicity
 _atom_site_fract_x
 _atom_site_fract_y
 _atom_site_fract_z
 _atom_site_occupancy
  Zn  Zn0  1  0.86646066  0.75000000  1.04618459  1.0
  Zn  Zn1  1  0.36646066  0.75000000  0.45381541  1.0
  Zn  Zn2  1  0.13353934  0.25000000  -0.04618459  1.0
  Zn  Zn3  1  0.63353934  0.25000000  0.54618459  1.0
  O  O4  1  0.52424756  0.75000000  0.68963914  1.0
  O  O5  1  0.02424756  0.75000000  0.81036086  1.0
  O  O6  1  0.47575244  0.25000000  0.31036086  1.0
  O  O7  1  0.97575244  0.25000000  0.18963914  1.0
  F  F8  1  0.76333308  0.25000000  0.85240721  1.0
  F  F9  1  0.26333308  0.25000000  0.64759279  1.0
  F  F10  1  0.23666692  0.75000000  0.14759279  1.0
  F  F11  1  0.73666692  0.75000000  0.35240721  1.0
