# generated using pymatgen
data_Ca3Zn2(CuP2)2
_symmetry_space_group_name_H-M   'P 1'
_cell_length_a   4.04125046
_cell_length_b   4.04125046
_cell_length_c   14.72265187
_cell_angle_alpha   90.00000000
_cell_angle_beta   90.00000000
_cell_angle_gamma   120.00000000
_symmetry_Int_Tables_number   1
_chemical_formula_structural   Ca3Zn2(CuP2)2
_chemical_formula_sum   'Ca3 Zn2 Cu2 P4'
_cell_volume   208.23235430
_cell_formula_units_Z   1
loop_
 _symmetry_equiv_pos_site_id
 _symmetry_equiv_pos_as_xyz
  1  'x, y, z'
loop_
 _atom_site_type_symbol
 _atom_site_label
 _atom_site_symmetry_multiplicity
 _atom_site_fract_x
 _atom_site_fract_y
 _atom_site_fract_z
 _atom_site_occupancy
  Ca  Ca0  1  0.00000000  0.00000000  0.26803233  1.0
  Ca  Ca1  1  0.00000000  0.00000000  0.73196767  1.0
  Ca  Ca2  1  0.00000000  0.00000000  0.00000000  1.0
  Zn  Zn3  1  0.33333333  0.66666667  0.56226756  1.0
  Zn  Zn4  1  0.66666667  0.33333333  0.43773244  1.0
  Cu  Cu5  1  0.33333333  0.66666667  0.13538407  1.0
  Cu  Cu6  1  0.66666667  0.33333333  0.86461593  1.0
  P  P7  1  0.33333333  0.66666667  0.38943934  1.0
  P  P8  1  0.66666667  0.33333333  0.61056066  1.0
  P  P9  1  0.33333333  0.66666667  0.86583350  1.0
  P  P10  1  0.66666667  0.33333333  0.13416650  1.0
