# generated using pymatgen
data_Cs3Cu5O4
_symmetry_space_group_name_H-M   'P 1'
_cell_length_a   10.41051325
_cell_length_b   7.73402498
_cell_length_c   14.97867707
_cell_angle_alpha   90.00000000
_cell_angle_beta   106.11896208
_cell_angle_gamma   90.00000000
_symmetry_Int_Tables_number   1
_chemical_formula_structural   Cs3Cu5O4
_chemical_formula_sum   'Cs12 Cu20 O16'
_cell_volume   1158.59921601
_cell_formula_units_Z   4
loop_
 _symmetry_equiv_pos_site_id
 _symmetry_equiv_pos_as_xyz
  1  'x, y, z'
loop_
 _atom_site_type_symbol
 _atom_site_label
 _atom_site_symmetry_multiplicity
 _atom_site_fract_x
 _atom_site_fract_y
 _atom_site_fract_z
 _atom_site_occupancy
  Cs  Cs0  1  0.82296556  0.09602342  0.39274105  1.0
  Cs  Cs1  1  0.82296556  0.40397658  0.89274105  1.0
  Cs  Cs2  1  0.17703444  0.59602342  0.10725895  1.0
  Cs  Cs3  1  0.17703444  0.90397658  0.60725895  1.0
  Cs  Cs4  1  0.60216444  0.33091573  0.09396807  1.0
  Cs  Cs5  1  0.60216444  0.16908427  0.59396807  1.0
  Cs  Cs6  1  0.39783556  0.83091573  0.40603193  1.0
  Cs  Cs7  1  0.39783556  0.66908427  0.90603193  1.0
  Cs  Cs8  1  0.22176152  0.30254602  0.41718020  1.0
  Cs  Cs9  1  0.22176152  0.19745398  0.91718020  1.0
  Cs  Cs10  1  0.77823848  0.80254602  0.08281980  1.0
  Cs  Cs11  1  0.77823848  0.69745398  0.58281980  1.0
  Cu  Cu12  1  0.97187823  0.21211937  0.12810375  1.0
  Cu  Cu13  1  0.97187823  0.28788063  0.62810375  1.0
  Cu  Cu14  1  0.02812177  0.71211937  0.37189625  1.0
  Cu  Cu15  1  0.02812177  0.78788063  0.87189625  1.0
  Cu  Cu16  1  0.92928375  0.46181463  0.23142619  1.0
  Cu  Cu17  1  0.92928375  0.03818537  0.73142619  1.0
  Cu  Cu18  1  0.07071625  0.96181463  0.26857381  1.0
  Cu  Cu19  1  0.07071625  0.53818537  0.76857381  1.0
  Cu  Cu20  1  0.79327135  0.93271671  0.85591298  1.0
  Cu  Cu21  1  0.79327135  0.56728329  0.35591298  1.0
  Cu  Cu22  1  0.20672865  0.43271671  0.64408702  1.0
  Cu  Cu23  1  0.20672865  0.06728329  0.14408702  1.0
  Cu  Cu24  1  0.56540327  0.42180019  0.37151607  1.0
  Cu  Cu25  1  0.56540327  0.07819981  0.87151607  1.0
  Cu  Cu26  1  0.43459673  0.92180019  0.12848393  1.0
  Cu  Cu27  1  0.43459673  0.57819981  0.62848393  1.0
  Cu  Cu28  1  0.43708613  0.17573437  0.26100239  1.0
  Cu  Cu29  1  0.43708613  0.32426563  0.76100239  1.0
  Cu  Cu30  1  0.56291387  0.67573437  0.23899761  1.0
  Cu  Cu31  1  0.56291387  0.82426563  0.73899761  1.0
  O  O32  1  0.96122665  0.48786134  0.35809931  1.0
  O  O33  1  0.96122665  0.01213866  0.85809931  1.0
  O  O34  1  0.03877335  0.98786134  0.14190069  1.0
  O  O35  1  0.03877335  0.51213866  0.64190069  1.0
  O  O36  1  0.89925612  0.42869930  0.10638037  1.0
  O  O37  1  0.89925612  0.07130070  0.60638037  1.0
  O  O38  1  0.10074388  0.92869930  0.39361963  1.0
  O  O39  1  0.10074388  0.57130070  0.89361963  1.0
  O  O40  1  0.50391519  0.20585978  0.38609670  1.0
  O  O41  1  0.50391519  0.29414022  0.88609670  1.0
  O  O42  1  0.49608481  0.70585978  0.11390330  1.0
  O  O43  1  0.49608481  0.79414022  0.61390330  1.0
  O  O44  1  0.36993770  0.14529405  0.13319405  1.0
  O  O45  1  0.36993770  0.35470595  0.63319405  1.0
  O  O46  1  0.63006230  0.64529405  0.36680595  1.0
  O  O47  1  0.63006230  0.85470595  0.86680595  1.0
