# generated using pymatgen
data_Ca2BeSi2O7
_symmetry_space_group_name_H-M   'P 1'
_cell_length_a   7.48406219
_cell_length_b   7.48406219
_cell_length_c   5.03919433
_cell_angle_alpha   90.00000000
_cell_angle_beta   90.00000000
_cell_angle_gamma   90.00000000
_symmetry_Int_Tables_number   1
_chemical_formula_structural   Ca2BeSi2O7
_chemical_formula_sum   'Ca4 Be2 Si4 O14'
_cell_volume   282.25125501
_cell_formula_units_Z   2
loop_
 _symmetry_equiv_pos_site_id
 _symmetry_equiv_pos_as_xyz
  1  'x, y, z'
loop_
 _atom_site_type_symbol
 _atom_site_label
 _atom_site_symmetry_multiplicity
 _atom_site_fract_x
 _atom_site_fract_y
 _atom_site_fract_z
 _atom_site_occupancy
  Ca  Ca0  1  0.83554965  0.33554965  0.48517313  1.0
  Ca  Ca1  1  0.66445035  0.83554965  0.51482687  1.0
  Ca  Ca2  1  0.16445035  0.66445035  0.48517313  1.0
  Ca  Ca3  1  0.33554965  0.16445035  0.51482687  1.0
  Be  Be4  1  0.50000000  0.50000000  0.00000000  1.0
  Be  Be5  1  0.00000000  0.00000000  0.00000000  1.0
  Si  Si6  1  0.35263833  0.85263833  0.03877734  1.0
  Si  Si7  1  0.14736167  0.35263833  0.96122266  1.0
  Si  Si8  1  0.64736167  0.14736167  0.03877734  1.0
  Si  Si9  1  0.85263833  0.64736167  0.96122266  1.0
  O  O10  1  0.33563995  0.41298905  0.81936514  1.0
  O  O11  1  0.16436005  0.91298905  0.18063486  1.0
  O  O12  1  0.58701095  0.33563995  0.18063486  1.0
  O  O13  1  0.91298905  0.83563995  0.81936514  1.0
  O  O14  1  0.66436005  0.58701095  0.81936514  1.0
  O  O15  1  0.83563995  0.08701095  0.18063486  1.0
  O  O16  1  0.41298905  0.66436005  0.18063486  1.0
  O  O17  1  0.08701095  0.16436005  0.81936514  1.0
  O  O18  1  0.35983519  0.85983519  0.71786009  1.0
  O  O19  1  0.14016481  0.35983519  0.28213991  1.0
  O  O20  1  0.64016481  0.14016481  0.71786009  1.0
  O  O21  1  0.85983519  0.64016481  0.28213991  1.0
  O  O22  1  0.00000000  0.50000000  0.83253949  1.0
  O  O23  1  0.50000000  0.00000000  0.16746051  1.0
