# generated using pymatgen
data_Cr2Se3
_symmetry_space_group_name_H-M   'P 1'
_cell_length_a   6.92705162
_cell_length_b   6.92705162
_cell_length_c   6.92705162
_cell_angle_alpha   54.55203091
_cell_angle_beta   54.55203091
_cell_angle_gamma   54.55203091
_symmetry_Int_Tables_number   1
_chemical_formula_structural   Cr2Se3
_chemical_formula_sum   'Cr4 Se6'
_cell_volume   205.18797920
_cell_formula_units_Z   2
loop_
 _symmetry_equiv_pos_site_id
 _symmetry_equiv_pos_as_xyz
  1  'x, y, z'
loop_
 _atom_site_type_symbol
 _atom_site_label
 _atom_site_symmetry_multiplicity
 _atom_site_fract_x
 _atom_site_fract_y
 _atom_site_fract_z
 _atom_site_occupancy
  Cr  Cr0  1  0.17576710  0.17576710  0.17576710  1.0
  Cr  Cr1  1  0.82423290  -0.17576710  -0.17576710  1.0
  Cr  Cr2  1  0.50000000  0.50000000  -0.50000000  1.0
  Cr  Cr3  1  0.00000000  0.00000000  0.00000000  1.0
  Se  Se4  1  0.09542137  0.76139063  -0.59508118  1.0
  Se  Se5  1  0.59508118  -0.09542137  0.23860937  1.0
  Se  Se6  1  1.23860937  -0.40491882  -0.09542137  1.0
  Se  Se7  1  0.90457863  0.23860937  -0.40491882  1.0
  Se  Se8  1  0.40491882  0.09542137  -0.23860937  1.0
  Se  Se9  1  0.76139063  0.40491882  -0.90457863  1.0
