# generated using pymatgen
data_Sr3Te4O11
_symmetry_space_group_name_H-M   'P 1'
_cell_length_a   9.35572503
_cell_length_b   9.89205639
_cell_length_c   7.71444010
_cell_angle_alpha   110.98140963
_cell_angle_beta   101.72270410
_cell_angle_gamma   98.21593219
_symmetry_Int_Tables_number   1
_chemical_formula_structural   Sr3Te4O11
_chemical_formula_sum   'Sr6 Te8 O22'
_cell_volume   634.29041056
_cell_formula_units_Z   2
loop_
 _symmetry_equiv_pos_site_id
 _symmetry_equiv_pos_as_xyz
  1  'x, y, z'
loop_
 _atom_site_type_symbol
 _atom_site_label
 _atom_site_symmetry_multiplicity
 _atom_site_fract_x
 _atom_site_fract_y
 _atom_site_fract_z
 _atom_site_occupancy
  Sr  Sr0  1  0.00317137  0.01659031  0.00442672  1.0
  Sr  Sr1  1  0.94443421  0.77008364  0.38876293  1.0
  Sr  Sr2  1  0.43428836  0.27346109  0.40570082  1.0
  Sr  Sr3  1  0.55641721  0.71470114  0.56002367  1.0
  Sr  Sr4  1  0.39230455  0.07180499  0.83354636  1.0
  Sr  Sr5  1  0.51385043  0.51317798  0.98778539  1.0
  Te  Te6  1  0.16941491  0.43335598  0.14846162  1.0
  Te  Te7  1  0.66828734  0.93040246  0.19717461  1.0
  Te  Te8  1  0.27918365  0.85635872  0.19629141  1.0
  Te  Te9  1  0.77923505  0.35314730  0.24526464  1.0
  Te  Te10  1  0.10329555  0.18448983  0.61041578  1.0
  Te  Te11  1  0.22318536  0.62103831  0.67790285  1.0
  Te  Te12  1  0.72503212  0.16565691  0.71558714  1.0
  Te  Te13  1  0.84499102  0.60212582  0.78325471  1.0
  O  O14  1  0.34276870  0.70775380  -0.00829990  1.0
  O  O15  1  0.84804123  0.23562445  0.00885947  1.0
  O  O16  1  0.28296147  0.00414551  0.08659975  1.0
  O  O17  1  0.06320754  0.77527431  0.11696043  1.0
  O  O18  1  0.56788069  0.25489914  0.14201435  1.0
  O  O19  1  0.77364906  0.52196657  0.17895386  1.0
  O  O20  1  0.17409758  0.26460562  0.21511200  1.0
  O  O21  1  0.38104596  0.53061495  0.25188799  1.0
  O  O22  1  0.88411136  0.01205645  0.27630100  1.0
  O  O23  1  0.66492001  0.78239559  0.30653768  1.0
  O  O24  1  0.10071688  0.55176120  0.38454783  1.0
  O  O25  1  0.60435958  0.07826564  0.40209861  1.0
  O  O26  1  0.24524864  0.08462520  0.49306652  1.0
  O  O27  1  0.69431026  0.48653999  0.52970175  1.0
  O  O28  1  0.37588613  0.50812296  0.64459538  1.0
  O  O29  1  0.32554845  0.79715869  0.66001726  1.0
  O  O30  1  0.02008640  0.02970627  0.68466445  1.0
  O  O31  1  0.92734855  0.75687010  0.70836959  1.0
  O  O32  1  0.57193204  0.27806596  0.74923208  1.0
  O  O33  1  0.62370786  0.98944968  0.73428115  1.0
  O  O34  1  0.25405480  0.29940989  0.86404941  1.0
  O  O35  1  0.70272568  0.70159354  0.90035070  1.0
