# generated using pymatgen
data_NaTi2O4
_symmetry_space_group_name_H-M   'P 1'
_cell_length_a   9.34272970
_cell_length_b   2.96098542
_cell_length_c   10.84368619
_cell_angle_alpha   90.00000000
_cell_angle_beta   90.00000000
_cell_angle_gamma   90.00000000
_symmetry_Int_Tables_number   1
_chemical_formula_structural   NaTi2O4
_chemical_formula_sum   'Na4 Ti8 O16'
_cell_volume   299.97633448
_cell_formula_units_Z   4
loop_
 _symmetry_equiv_pos_site_id
 _symmetry_equiv_pos_as_xyz
  1  'x, y, z'
loop_
 _atom_site_type_symbol
 _atom_site_label
 _atom_site_symmetry_multiplicity
 _atom_site_fract_x
 _atom_site_fract_y
 _atom_site_fract_z
 _atom_site_occupancy
  Na  Na0  1  0.75738619  0.75000000  0.65422851  1.0
  Na  Na1  1  0.25738619  0.75000000  0.84577149  1.0
  Na  Na2  1  0.24261381  0.25000000  0.34577149  1.0
  Na  Na3  1  0.74261381  0.25000000  0.15422851  1.0
  Ti  Ti4  1  0.91809459  0.75000000  0.39718119  1.0
  Ti  Ti5  1  0.41809459  0.75000000  0.10281881  1.0
  Ti  Ti6  1  0.08190541  0.25000000  0.60281881  1.0
  Ti  Ti7  1  0.58190541  0.25000000  0.89718119  1.0
  Ti  Ti8  1  0.43656224  0.75000000  0.61069328  1.0
  Ti  Ti9  1  0.93656224  0.75000000  0.88930672  1.0
  Ti  Ti10  1  0.56343776  0.25000000  0.38930672  1.0
  Ti  Ti11  1  0.06343776  0.25000000  0.11069328  1.0
  O  O12  1  0.92094339  0.75000000  0.07044476  1.0
  O  O13  1  0.42094339  0.75000000  0.42955524  1.0
  O  O14  1  0.07905661  0.25000000  0.92955524  1.0
  O  O15  1  0.57905661  0.25000000  0.57044476  1.0
  O  O16  1  0.70790861  0.75000000  0.35139354  1.0
  O  O17  1  0.20790861  0.75000000  0.14860646  1.0
  O  O18  1  0.29209139  0.25000000  0.64860646  1.0
  O  O19  1  0.79209139  0.25000000  0.85139354  1.0
  O  O20  1  0.61261061  0.75000000  0.02165131  1.0
  O  O21  1  0.11261061  0.75000000  0.47834869  1.0
  O  O22  1  0.38738939  0.25000000  0.97834869  1.0
  O  O23  1  0.88738939  0.25000000  0.52165131  1.0
  O  O24  1  0.52198426  0.75000000  0.78173490  1.0
  O  O25  1  0.02198426  0.75000000  0.71826510  1.0
  O  O26  1  0.47801574  0.25000000  0.21826510  1.0
  O  O27  1  0.97801574  0.25000000  0.28173490  1.0
