# generated using pymatgen
data_ZnHgAsHO5
_symmetry_space_group_name_H-M   'P 1'
_cell_length_a   7.91685444
_cell_length_b   6.46121749
_cell_length_c   8.76130676
_cell_angle_alpha   90.00000000
_cell_angle_beta   90.00000000
_cell_angle_gamma   90.00000000
_symmetry_Int_Tables_number   1
_chemical_formula_structural   ZnHgAsHO5
_chemical_formula_sum   'Zn4 Hg4 As4 H4 O20'
_cell_volume   448.16290489
_cell_formula_units_Z   4
loop_
 _symmetry_equiv_pos_site_id
 _symmetry_equiv_pos_as_xyz
  1  'x, y, z'
loop_
 _atom_site_type_symbol
 _atom_site_label
 _atom_site_symmetry_multiplicity
 _atom_site_fract_x
 _atom_site_fract_y
 _atom_site_fract_z
 _atom_site_occupancy
  Zn  Zn0  1  0.00000000  0.00000000  -0.00000000  1.0
  Zn  Zn1  1  -0.00000000  0.50000000  0.00000000  1.0
  Zn  Zn2  1  0.50000000  0.00000000  0.50000000  1.0
  Zn  Zn3  1  0.50000000  0.50000000  0.50000000  1.0
  Hg  Hg4  1  0.89615563  0.75000000  0.66857843  1.0
  Hg  Hg5  1  0.39615563  0.75000000  0.83142157  1.0
  Hg  Hg6  1  0.10384437  0.25000000  0.33142157  1.0
  Hg  Hg7  1  0.60384437  0.25000000  0.16857843  1.0
  As  As8  1  0.84547794  0.75000000  0.31156926  1.0
  As  As9  1  0.34547794  0.75000000  0.18843074  1.0
  As  As10  1  0.15452206  0.25000000  0.68843074  1.0
  As  As11  1  0.65452206  0.25000000  0.81156926  1.0
  H  H12  1  0.24725335  0.75000000  0.55885853  1.0
  H  H13  1  0.74725335  0.75000000  0.94114147  1.0
  H  H14  1  0.75274665  0.25000000  0.44114147  1.0
  H  H15  1  0.25274665  0.25000000  0.05885853  1.0
  O  O16  1  0.86033240  0.97637605  0.20517321  1.0
  O  O17  1  0.86033240  0.52362395  0.20517321  1.0
  O  O18  1  0.36033240  0.97637605  0.29482679  1.0
  O  O19  1  0.36033240  0.52362395  0.29482679  1.0
  O  O20  1  0.13966760  0.47637605  0.79482679  1.0
  O  O21  1  0.13966760  0.02362395  0.79482679  1.0
  O  O22  1  0.63966760  0.47637605  0.70517321  1.0
  O  O23  1  0.63966760  0.02362395  0.70517321  1.0
  O  O24  1  0.65901080  0.75000000  0.41907772  1.0
  O  O25  1  0.15901080  0.75000000  0.08092228  1.0
  O  O26  1  0.34098920  0.25000000  0.58092228  1.0
  O  O27  1  0.84098920  0.25000000  0.91907772  1.0
  O  O28  1  0.50719421  0.75000000  0.04785857  1.0
  O  O29  1  0.00719421  0.75000000  0.45214143  1.0
  O  O30  1  0.49280579  0.25000000  0.95214143  1.0
  O  O31  1  0.99280579  0.25000000  0.54785857  1.0
  O  O32  1  0.36586530  0.75000000  0.59123721  1.0
  O  O33  1  0.86586530  0.75000000  0.90876279  1.0
  O  O34  1  0.63413470  0.25000000  0.40876279  1.0
  O  O35  1  0.13413470  0.25000000  0.09123721  1.0
