# generated using pymatgen
data_Ca2PN3
_symmetry_space_group_name_H-M   'P 1'
_cell_length_a   5.80846557
_cell_length_b   5.80846557
_cell_length_c   11.29969670
_cell_angle_alpha   90.00000000
_cell_angle_beta   90.00000000
_cell_angle_gamma   126.51666101
_symmetry_Int_Tables_number   1
_chemical_formula_structural   Ca2PN3
_chemical_formula_sum   'Ca8 P4 N12'
_cell_volume   306.39020097
_cell_formula_units_Z   4
loop_
 _symmetry_equiv_pos_site_id
 _symmetry_equiv_pos_as_xyz
  1  'x, y, z'
loop_
 _atom_site_type_symbol
 _atom_site_label
 _atom_site_symmetry_multiplicity
 _atom_site_fract_x
 _atom_site_fract_y
 _atom_site_fract_z
 _atom_site_occupancy
  Ca  Ca0  1  0.05190709  0.94809291  0.64217919  1.0
  Ca  Ca1  1  -0.44809291  0.44809291  0.85782081  1.0
  Ca  Ca2  1  -0.05190709  0.05190709  0.35782081  1.0
  Ca  Ca3  1  0.44809291  0.55190709  0.14217919  1.0
  Ca  Ca4  1  0.36234549  0.63765451  0.57400762  1.0
  Ca  Ca5  1  -0.13765451  0.13765451  0.92599238  1.0
  Ca  Ca6  1  -0.36234549  0.36234549  0.42599238  1.0
  Ca  Ca7  1  0.13765451  0.86234549  0.07400762  1.0
  P  P8  1  0.24462192  0.75537808  0.83499186  1.0
  P  P9  1  -0.25537808  0.25537808  0.66500814  1.0
  P  P10  1  -0.24462192  0.24462192  0.16500814  1.0
  P  P11  1  0.25537808  0.74462192  0.33499186  1.0
  N  N12  1  0.08865223  0.91134777  0.85952590  1.0
  N  N13  1  -0.41134777  0.41134777  0.64047410  1.0
  N  N14  1  -0.08865223  0.08865223  0.14047410  1.0
  N  N15  1  0.41134777  0.58865223  0.35952590  1.0
  N  N16  1  0.34019324  0.65980676  0.95022770  1.0
  N  N17  1  -0.15980676  0.15980676  0.54977230  1.0
  N  N18  1  -0.34019324  0.34019324  0.04977230  1.0
  N  N19  1  0.15980676  0.84019324  0.45022770  1.0
  N  N20  1  0.03996848  0.46003152  0.75000000  1.0
  N  N21  1  0.53996848  0.96003152  0.75000000  1.0
  N  N22  1  0.46003152  1.03996848  0.25000000  1.0
  N  N23  1  -0.03996848  0.53996848  0.25000000  1.0
