# generated using pymatgen
data_KGaH2
_symmetry_space_group_name_H-M   'P 1'
_cell_length_a   6.61706436
_cell_length_b   6.61706436
_cell_length_c   4.56359025
_cell_angle_alpha   90.00000000
_cell_angle_beta   90.00000000
_cell_angle_gamma   131.44327339
_symmetry_Int_Tables_number   1
_chemical_formula_structural   KGaH2
_chemical_formula_sum   'K2 Ga2 H4'
_cell_volume   149.78679867
_cell_formula_units_Z   2
loop_
 _symmetry_equiv_pos_site_id
 _symmetry_equiv_pos_as_xyz
  1  'x, y, z'
loop_
 _atom_site_type_symbol
 _atom_site_label
 _atom_site_symmetry_multiplicity
 _atom_site_fract_x
 _atom_site_fract_y
 _atom_site_fract_z
 _atom_site_occupancy
  K  K0  1  0.34941090  0.65058910  0.75000000  1.0
  K  K1  1  -0.34941090  0.34941090  0.25000000  1.0
  Ga  Ga2  1  0.04815740  0.95184260  0.75000000  1.0
  Ga  Ga3  1  -0.04815740  0.04815740  0.25000000  1.0
  H  H4  1  -0.08991360  0.63161951  0.75000000  1.0
  H  H5  1  0.63161951  0.91008640  0.25000000  1.0
  H  H6  1  0.36838049  1.08991360  0.75000000  1.0
  H  H7  1  0.08991360  0.36838049  0.25000000  1.0
