# generated using pymatgen
data_Ba3GaS4Cl
_symmetry_space_group_name_H-M   'P 1'
_cell_length_a   12.44845980
_cell_length_b   9.62709087
_cell_length_c   8.54435662
_cell_angle_alpha   90.00000000
_cell_angle_beta   90.00000000
_cell_angle_gamma   90.00000000
_symmetry_Int_Tables_number   1
_chemical_formula_structural   Ba3GaS4Cl
_chemical_formula_sum   'Ba12 Ga4 S16 Cl4'
_cell_volume   1023.97666179
_cell_formula_units_Z   4
loop_
 _symmetry_equiv_pos_site_id
 _symmetry_equiv_pos_as_xyz
  1  'x, y, z'
loop_
 _atom_site_type_symbol
 _atom_site_label
 _atom_site_symmetry_multiplicity
 _atom_site_fract_x
 _atom_site_fract_y
 _atom_site_fract_z
 _atom_site_occupancy
  Ba  Ba0  1  0.66771206  0.47977825  0.08494583  1.0
  Ba  Ba1  1  0.66771206  0.02022175  0.08494583  1.0
  Ba  Ba2  1  0.16771206  0.47977825  0.41505417  1.0
  Ba  Ba3  1  0.16771206  0.02022175  0.41505417  1.0
  Ba  Ba4  1  0.33228794  0.97977825  0.91505417  1.0
  Ba  Ba5  1  0.33228794  0.52022175  0.91505417  1.0
  Ba  Ba6  1  0.83228794  0.97977825  0.58494583  1.0
  Ba  Ba7  1  0.83228794  0.52022175  0.58494583  1.0
  Ba  Ba8  1  0.51860976  0.25000000  0.58329649  1.0
  Ba  Ba9  1  0.01860976  0.25000000  0.91670351  1.0
  Ba  Ba10  1  0.48139024  0.75000000  0.41670351  1.0
  Ba  Ba11  1  0.98139024  0.75000000  0.08329649  1.0
  Ga  Ga12  1  0.89287011  0.25000000  0.31154797  1.0
  Ga  Ga13  1  0.39287011  0.25000000  0.18845203  1.0
  Ga  Ga14  1  0.10712989  0.75000000  0.68845203  1.0
  Ga  Ga15  1  0.60712989  0.75000000  0.81154797  1.0
  S  S16  1  0.92619015  0.45258558  0.18746607  1.0
  S  S17  1  0.92619015  0.04741442  0.18746607  1.0
  S  S18  1  0.42619015  0.45258558  0.31253393  1.0
  S  S19  1  0.42619015  0.04741442  0.31253393  1.0
  S  S20  1  0.07380985  0.95258558  0.81253393  1.0
  S  S21  1  0.07380985  0.54741442  0.81253393  1.0
  S  S22  1  0.57380985  0.95258558  0.68746607  1.0
  S  S23  1  0.57380985  0.54741442  0.68746607  1.0
  S  S24  1  0.99316359  0.25000000  0.53655845  1.0
  S  S25  1  0.49316359  0.25000000  0.96344155  1.0
  S  S26  1  0.00683641  0.75000000  0.46344155  1.0
  S  S27  1  0.50683641  0.75000000  0.03655845  1.0
  S  S28  1  0.71225511  0.25000000  0.36270923  1.0
  S  S29  1  0.21225511  0.25000000  0.13729077  1.0
  S  S30  1  0.28774489  0.75000000  0.63729077  1.0
  S  S31  1  0.78774489  0.75000000  0.86270923  1.0
  Cl  Cl32  1  0.77098866  0.25000000  0.83592587  1.0
  Cl  Cl33  1  0.27098866  0.25000000  0.66407413  1.0
  Cl  Cl34  1  0.22901134  0.75000000  0.16407413  1.0
  Cl  Cl35  1  0.72901134  0.75000000  0.33592587  1.0
