# generated using pymatgen
data_C2SF6
_symmetry_space_group_name_H-M   'P 1'
_cell_length_a   7.19877855
_cell_length_b   6.10120334
_cell_length_c   15.20926737
_cell_angle_alpha   90.00000000
_cell_angle_beta   118.71176139
_cell_angle_gamma   90.00000000
_symmetry_Int_Tables_number   1
_chemical_formula_structural   C2SF6
_chemical_formula_sum   'C8 S4 F24'
_cell_volume   585.87606525
_cell_formula_units_Z   4
loop_
 _symmetry_equiv_pos_site_id
 _symmetry_equiv_pos_as_xyz
  1  'x, y, z'
loop_
 _atom_site_type_symbol
 _atom_site_label
 _atom_site_symmetry_multiplicity
 _atom_site_fract_x
 _atom_site_fract_y
 _atom_site_fract_z
 _atom_site_occupancy
  C  C0  1  0.97839679  0.95336340  0.45630719  1.0
  C  C1  1  0.97839679  0.54663660  0.95630719  1.0
  C  C2  1  0.02160321  0.45336340  0.04369281  1.0
  C  C3  1  0.02160321  0.04663660  0.54369281  1.0
  C  C4  1  0.85937001  0.34056378  0.06648967  1.0
  C  C5  1  0.85937001  0.15943622  0.56648967  1.0
  C  C6  1  0.14062999  0.84056378  0.43351033  1.0
  C  C7  1  0.14062999  0.65943622  0.93351033  1.0
  S  S8  1  0.70606104  0.95266325  0.34897807  1.0
  S  S9  1  0.70606104  0.54733675  0.84897807  1.0
  S  S10  1  0.29393896  0.45266325  0.15102193  1.0
  S  S11  1  0.29393896  0.04733675  0.65102193  1.0
  F  F12  1  0.91133993  0.12984654  0.09356937  1.0
  F  F13  1  0.91133993  0.37015346  0.59356937  1.0
  F  F14  1  0.08866007  0.62984654  0.40643063  1.0
  F  F15  1  0.08866007  0.87015346  0.90643063  1.0
  F  F16  1  0.84253628  0.44647734  0.14037355  1.0
  F  F17  1  0.84253628  0.05352266  0.64037355  1.0
  F  F18  1  0.15746372  0.94647734  0.35962645  1.0
  F  F19  1  0.15746372  0.55352266  0.85962645  1.0
  F  F20  1  0.77312340  0.19452057  0.31294932  1.0
  F  F21  1  0.77312340  0.30547943  0.81294932  1.0
  F  F22  1  0.22687660  0.69452057  0.18705068  1.0
  F  F23  1  0.22687660  0.80547943  0.68705068  1.0
  F  F24  1  0.73878398  0.83060990  0.26399604  1.0
  F  F25  1  0.73878398  0.66939010  0.76399604  1.0
  F  F26  1  0.26121602  0.33060990  0.23600396  1.0
  F  F27  1  0.26121602  0.16939010  0.73600396  1.0
  F  F28  1  0.66225008  0.15928535  0.48425601  1.0
  F  F29  1  0.66225008  0.34071465  0.98425601  1.0
  F  F30  1  0.33774992  0.65928535  0.01574399  1.0
  F  F31  1  0.33774992  0.84071465  0.51574399  1.0
  F  F32  1  0.32035197  0.19866969  0.10849227  1.0
  F  F33  1  0.32035197  0.30133031  0.60849227  1.0
  F  F34  1  0.67964803  0.69866969  0.39150773  1.0
  F  F35  1  0.67964803  0.80133031  0.89150773  1.0
