# generated using pymatgen
data_Mo(RhO3)2
_symmetry_space_group_name_H-M   'P 1'
_cell_length_a   4.64853227
_cell_length_b   4.64853227
_cell_length_c   9.14348268
_cell_angle_alpha   90.00000000
_cell_angle_beta   90.00000000
_cell_angle_gamma   90.00000000
_symmetry_Int_Tables_number   1
_chemical_formula_structural   Mo(RhO3)2
_chemical_formula_sum   'Mo2 Rh4 O12'
_cell_volume   197.58016678
_cell_formula_units_Z   2
loop_
 _symmetry_equiv_pos_site_id
 _symmetry_equiv_pos_as_xyz
  1  'x, y, z'
loop_
 _atom_site_type_symbol
 _atom_site_label
 _atom_site_symmetry_multiplicity
 _atom_site_fract_x
 _atom_site_fract_y
 _atom_site_fract_z
 _atom_site_occupancy
  Mo  Mo0  1  0.50000000  0.50000000  0.50000000  1.0
  Mo  Mo1  1  0.00000000  0.00000000  0.00000000  1.0
  Rh  Rh2  1  0.50000000  0.50000000  0.16869264  1.0
  Rh  Rh3  1  0.00000000  0.00000000  0.66869264  1.0
  Rh  Rh4  1  0.50000000  0.50000000  0.83130736  1.0
  Rh  Rh5  1  0.00000000  0.00000000  0.33130736  1.0
  O  O6  1  0.19786593  0.80213407  0.50000000  1.0
  O  O7  1  0.80213407  0.19786593  0.50000000  1.0
  O  O8  1  0.30213407  0.30213407  0.00000000  1.0
  O  O9  1  0.69786593  0.69786593  0.00000000  1.0
  O  O10  1  0.19674004  0.80325996  0.15739635  1.0
  O  O11  1  0.80325996  0.19674004  0.15739635  1.0
  O  O12  1  0.30325996  0.30325996  0.65739635  1.0
  O  O13  1  0.69674004  0.69674004  0.65739635  1.0
  O  O14  1  0.80325996  0.19674004  0.84260365  1.0
  O  O15  1  0.19674004  0.80325996  0.84260365  1.0
  O  O16  1  0.69674004  0.69674004  0.34260365  1.0
  O  O17  1  0.30325996  0.30325996  0.34260365  1.0
