# generated using pymatgen
data_Ti2VTe4
_symmetry_space_group_name_H-M   'P 1'
_cell_length_a   7.44377364
_cell_length_b   7.44377364
_cell_length_c   6.91762741
_cell_angle_alpha   63.38031490
_cell_angle_beta   116.61968510
_cell_angle_gamma   150.02784307
_symmetry_Int_Tables_number   1
_chemical_formula_structural   Ti2VTe4
_chemical_formula_sum   'Ti2 V1 Te4'
_cell_volume   169.64505218
_cell_formula_units_Z   1
loop_
 _symmetry_equiv_pos_site_id
 _symmetry_equiv_pos_as_xyz
  1  'x, y, z'
loop_
 _atom_site_type_symbol
 _atom_site_label
 _atom_site_symmetry_multiplicity
 _atom_site_fract_x
 _atom_site_fract_y
 _atom_site_fract_z
 _atom_site_occupancy
  Ti  Ti0  1  0.74863203  -0.74863203  0.70588127  1.0
  Ti  Ti1  1  1.25136797  -0.25136797  0.29411873  1.0
  V  V2  1  0.00000000  0.00000000  0.00000000  1.0
  Te  Te3  1  0.89216944  -0.89216944  0.55204118  1.0
  Te  Te4  1  1.10783056  -0.10783056  0.44795882  1.0
  Te  Te5  1  0.63314547  -0.63314547  0.96578312  1.0
  Te  Te6  1  1.36685453  -0.36685453  0.03421688  1.0
