# generated using pymatgen
data_Ti5O9
_symmetry_space_group_name_H-M   'P 1'
_cell_length_a   5.61025181
_cell_length_b   8.54250890
_cell_length_c   7.16873243
_cell_angle_alpha   69.48889602
_cell_angle_beta   71.29212997
_cell_angle_gamma   75.23960975
_symmetry_Int_Tables_number   1
_chemical_formula_structural   Ti5O9
_chemical_formula_sum   'Ti10 O18'
_cell_volume   300.83243265
_cell_formula_units_Z   2
loop_
 _symmetry_equiv_pos_site_id
 _symmetry_equiv_pos_as_xyz
  1  'x, y, z'
loop_
 _atom_site_type_symbol
 _atom_site_label
 _atom_site_symmetry_multiplicity
 _atom_site_fract_x
 _atom_site_fract_y
 _atom_site_fract_z
 _atom_site_occupancy
  O  O0  1  -0.97901278  -0.23934265  -0.80898234  1.0
  O  O1  1  -0.02098722  -0.76065735  -0.19101766  1.0
  O  O2  1  -0.93100328  -0.57889097  -0.80321936  1.0
  O  O3  1  -0.06899672  -0.42110903  -0.19678064  1.0
  O  O4  1  -0.91621518  -0.91891454  -0.80408306  1.0
  O  O5  1  -0.08378482  -0.08108546  -0.19591694  1.0
  O  O6  1  -0.74034462  -0.86168892  -0.53855949  1.0
  O  O7  1  -0.25965538  -0.13831108  -0.46144051  1.0
  O  O8  1  -0.68709837  -0.54129917  -0.53239430  1.0
  O  O9  1  -0.31290163  -0.45870083  -0.46760570  1.0
  O  O10  1  -0.41448895  -0.63308605  -0.86808454  1.0
  O  O11  1  -0.58551105  -0.36691395  -0.13191546  1.0
  O  O12  1  -0.40990866  -0.32272637  -0.84899507  1.0
  O  O13  1  -0.59009134  -0.67727363  -0.15100493  1.0
  O  O14  1  -0.37393646  -0.97822548  -0.85098409  1.0
  O  O15  1  -0.62606354  -0.02177452  -0.14901591  1.0
  O  O16  1  -0.28421535  -0.79671956  -0.48963186  1.0
  O  O17  1  -0.71578465  -0.20328044  -0.51036814  1.0
  Ti  Ti18  1  -0.71903317  -0.42168339  -0.82874574  1.0
  Ti  Ti19  1  -0.28096683  -0.57831661  -0.17125426  1.0
  Ti  Ti20  1  -0.27779562  -0.57566008  -0.67387241  1.0
  Ti  Ti21  1  -0.72220438  -0.42433992  -0.32612759  1.0
  Ti  Ti22  1  0.00000000  0.00000000  0.00000000  1.0
  Ti  Ti23  1  -0.65420999  -0.79503406  -0.34249564  1.0
  Ti  Ti24  1  -0.34579001  -0.20496594  -0.65750436  1.0
  Ti  Ti25  1  -0.65450829  -0.79556468  -0.84110069  1.0
  Ti  Ti26  1  -0.34549171  -0.20443532  -0.15889931  1.0
  Ti  Ti27  1  0.00000000  -0.00000000  -0.50000000  1.0
