# generated using pymatgen
data_CaP2(HO)4
_symmetry_space_group_name_H-M   'P 1'
_cell_length_a   8.52945231
_cell_length_b   8.52945231
_cell_length_c   6.74161613
_cell_angle_alpha   78.69098787
_cell_angle_beta   101.30901213
_cell_angle_gamma   140.74957934
_symmetry_Int_Tables_number   1
_chemical_formula_structural   CaP2(HO)4
_chemical_formula_sum   'Ca2 P4 H8 O8'
_cell_volume   303.52145441
_cell_formula_units_Z   2
loop_
 _symmetry_equiv_pos_site_id
 _symmetry_equiv_pos_as_xyz
  1  'x, y, z'
loop_
 _atom_site_type_symbol
 _atom_site_label
 _atom_site_symmetry_multiplicity
 _atom_site_fract_x
 _atom_site_fract_y
 _atom_site_fract_z
 _atom_site_occupancy
  Ca  Ca0  1  0.83613654  0.83613654  0.25000000  1.0
  Ca  Ca1  1  0.16386346  0.16386346  0.75000000  1.0
  P  P2  1  1.45662288  0.18722997  0.21085775  1.0
  P  P3  1  1.18722997  -0.54337712  0.28914225  1.0
  P  P4  1  1.54337712  -0.18722997  0.78914225  1.0
  P  P5  1  0.81277003  -0.45662288  0.71085775  1.0
  H  H6  1  1.40343434  0.06696489  0.40906374  1.0
  H  H7  1  1.06696489  -0.59656566  0.09093626  1.0
  H  H8  1  1.59656566  -0.06696489  0.59093626  1.0
  H  H9  1  0.93303511  -0.40343434  0.90906374  1.0
  H  H10  1  1.52912444  0.11684292  0.11695653  1.0
  H  H11  1  1.11684292  -0.47087556  0.38304347  1.0
  H  H12  1  1.47087556  -0.11684292  0.88304347  1.0
  H  H13  1  0.88315708  -0.52912444  0.61695653  1.0
  O  O14  1  1.21001132  0.06828771  0.10195067  1.0
  O  O15  1  1.06828771  -0.78998868  0.39804933  1.0
  O  O16  1  1.78998868  -0.06828771  0.89804933  1.0
  O  O17  1  0.93171229  -0.21001132  0.60195067  1.0
  O  O18  1  0.67472978  -0.53316598  0.22507691  1.0
  O  O19  1  1.46683402  -0.32527022  0.27492309  1.0
  O  O20  1  1.32527022  -0.46683402  0.77492309  1.0
  O  O21  1  1.53316598  0.32527022  0.72507691  1.0
