# generated using pymatgen
data_Pb2CO4
_symmetry_space_group_name_H-M   'P 1'
_cell_length_a   5.24368661
_cell_length_b   10.04266155
_cell_length_c   9.47891678
_cell_angle_alpha   90.00000000
_cell_angle_beta   90.00000000
_cell_angle_gamma   90.00000000
_symmetry_Int_Tables_number   1
_chemical_formula_structural   Pb2CO4
_chemical_formula_sum   'Pb8 C4 O16'
_cell_volume   499.16515902
_cell_formula_units_Z   4
loop_
 _symmetry_equiv_pos_site_id
 _symmetry_equiv_pos_as_xyz
  1  'x, y, z'
loop_
 _atom_site_type_symbol
 _atom_site_label
 _atom_site_symmetry_multiplicity
 _atom_site_fract_x
 _atom_site_fract_y
 _atom_site_fract_z
 _atom_site_occupancy
  Pb  Pb0  1  0.49116486  0.53662958  0.56645247  1.0
  Pb  Pb1  1  0.99116486  0.96337042  0.43354753  1.0
  Pb  Pb2  1  0.50883514  0.03662958  0.93354753  1.0
  Pb  Pb3  1  0.00883514  0.46337042  0.06645247  1.0
  Pb  Pb4  1  0.94158385  0.76356579  0.85053753  1.0
  Pb  Pb5  1  0.44158385  0.73643421  0.14946247  1.0
  Pb  Pb6  1  0.05841615  0.26356579  0.64946247  1.0
  Pb  Pb7  1  0.55841615  0.23643421  0.35053753  1.0
  C  C8  1  0.49228731  1.01330041  0.61486482  1.0
  C  C9  1  0.99228731  0.48669959  0.38513518  1.0
  C  C10  1  0.50771269  0.51330041  0.88513518  1.0
  C  C11  1  0.00771269  -0.01330041  0.11486482  1.0
  O  O12  1  0.46291033  0.31670725  0.56689497  1.0
  O  O13  1  0.96291033  0.18329275  0.43310503  1.0
  O  O14  1  0.53708967  0.81670725  0.93310503  1.0
  O  O15  1  0.03708967  0.68329275  0.06689497  1.0
  O  O16  1  0.29503288  0.50402294  0.81800976  1.0
  O  O17  1  0.79503288  -0.00402294  0.18199024  1.0
  O  O18  1  0.70496712  1.00402294  0.68199024  1.0
  O  O19  1  0.20496712  0.49597706  0.31800976  1.0
  O  O20  1  0.27978559  1.03165313  0.68304285  1.0
  O  O21  1  0.77978559  0.46834687  0.31695715  1.0
  O  O22  1  0.72021441  0.53165313  0.81695715  1.0
  O  O23  1  0.22021441  -0.03165313  0.18304285  1.0
  O  O24  1  0.98691269  0.49737565  0.52276446  1.0
  O  O25  1  0.48691269  1.00262435  0.47723554  1.0
  O  O26  1  0.01308731  -0.00262435  0.97723554  1.0
  O  O27  1  0.51308731  0.50262435  0.02276446  1.0
