# generated using pymatgen
data_CsMo3I3Cl4
_symmetry_space_group_name_H-M   'P 1'
_cell_length_a   10.60544003
_cell_length_b   10.60544003
_cell_length_c   17.52116331
_cell_angle_alpha   90.00000000
_cell_angle_beta   90.00000000
_cell_angle_gamma   120.00000000
_symmetry_Int_Tables_number   1
_chemical_formula_structural   CsMo3I3Cl4
_chemical_formula_sum   'Cs4 Mo12 I12 Cl16'
_cell_volume   1706.67550024
_cell_formula_units_Z   4
loop_
 _symmetry_equiv_pos_site_id
 _symmetry_equiv_pos_as_xyz
  1  'x, y, z'
loop_
 _atom_site_type_symbol
 _atom_site_label
 _atom_site_symmetry_multiplicity
 _atom_site_fract_x
 _atom_site_fract_y
 _atom_site_fract_z
 _atom_site_occupancy
  Cs  Cs0  1  0.33333333  0.66666667  0.28613110  1.0
  Cs  Cs1  1  0.66666667  0.33333333  0.78613110  1.0
  Cs  Cs2  1  0.00000000  0.00000000  0.03607313  1.0
  Cs  Cs3  1  0.00000000  0.00000000  0.53607313  1.0
  Mo  Mo4  1  0.66570957  0.47563072  0.22525366  1.0
  Mo  Mo5  1  0.47563072  0.66570957  0.72525366  1.0
  Mo  Mo6  1  0.80992114  0.33429043  0.22525366  1.0
  Mo  Mo7  1  0.52436928  0.19007886  0.22525366  1.0
  Mo  Mo8  1  0.33429043  0.80992114  0.72525366  1.0
  Mo  Mo9  1  0.19007886  0.52436928  0.72525366  1.0
  Mo  Mo10  1  0.80999416  0.47555998  0.34721038  1.0
  Mo  Mo11  1  0.47555998  0.80999416  0.84721038  1.0
  Mo  Mo12  1  0.66556582  0.19000584  0.34721038  1.0
  Mo  Mo13  1  0.52444002  0.33443418  0.34721038  1.0
  Mo  Mo14  1  0.19000584  0.66556582  0.84721038  1.0
  Mo  Mo15  1  0.33443418  0.52444002  0.84721038  1.0
  I  I16  1  0.30908971  0.95985888  0.13727836  1.0
  I  I17  1  0.95985888  0.30908971  0.63727836  1.0
  I  I18  1  0.65076916  0.69091029  0.13727836  1.0
  I  I19  1  0.04014112  0.34923084  0.13727836  1.0
  I  I20  1  0.69091029  0.65076916  0.63727836  1.0
  I  I21  1  0.34923084  0.04014112  0.63727836  1.0
  I  I22  1  0.04025333  0.69079093  0.43518266  1.0
  I  I23  1  0.69079093  0.04025333  0.93518266  1.0
  I  I24  1  0.65053760  0.95974667  0.43518266  1.0
  I  I25  1  0.30920907  0.34946240  0.43518266  1.0
  I  I26  1  0.95974667  0.65053760  0.93518266  1.0
  I  I27  1  0.34946240  0.30920907  0.93518266  1.0
  Cl  Cl28  1  0.66983837  0.60488942  0.34477955  1.0
  Cl  Cl29  1  0.60488942  0.66983837  0.84477955  1.0
  Cl  Cl30  1  0.93505105  0.33016163  0.34477955  1.0
  Cl  Cl31  1  0.39511058  0.06494895  0.34477955  1.0
  Cl  Cl32  1  0.33016163  0.93505105  0.84477955  1.0
  Cl  Cl33  1  0.06494895  0.39511058  0.84477955  1.0
  Cl  Cl34  1  0.93521199  0.60472598  0.22767233  1.0
  Cl  Cl35  1  0.60472598  0.93521199  0.72767233  1.0
  Cl  Cl36  1  0.66951399  0.06478801  0.22767233  1.0
  Cl  Cl37  1  0.39527402  0.33048601  0.22767233  1.0
  Cl  Cl38  1  0.06478801  0.66951399  0.72767233  1.0
  Cl  Cl39  1  0.33048601  0.39527402  0.72767233  1.0
  Cl  Cl40  1  0.33333333  0.66666667  -0.04069421  1.0
  Cl  Cl41  1  0.66666667  0.33333333  0.45930579  1.0
  Cl  Cl42  1  0.33333333  0.66666667  0.61315918  1.0
  Cl  Cl43  1  0.66666667  0.33333333  0.11315918  1.0
