# generated using pymatgen
data_TlBO2
_symmetry_space_group_name_H-M   'P 1'
_cell_length_a   7.68672059
_cell_length_b   7.68672059
_cell_length_c   9.47292592
_cell_angle_alpha   90.00000000
_cell_angle_beta   90.00000000
_cell_angle_gamma   90.00000000
_symmetry_Int_Tables_number   1
_chemical_formula_structural   TlBO2
_chemical_formula_sum   'Tl8 B8 O16'
_cell_volume   559.71420696
_cell_formula_units_Z   8
loop_
 _symmetry_equiv_pos_site_id
 _symmetry_equiv_pos_as_xyz
  1  'x, y, z'
loop_
 _atom_site_type_symbol
 _atom_site_label
 _atom_site_symmetry_multiplicity
 _atom_site_fract_x
 _atom_site_fract_y
 _atom_site_fract_z
 _atom_site_occupancy
  Tl  Tl0  1  0.28110421  0.73190516  0.75029555  1.0
  Tl  Tl1  1  0.71889579  0.26809484  0.25029555  1.0
  Tl  Tl2  1  0.73190516  0.71889579  0.50029555  1.0
  Tl  Tl3  1  0.26809484  0.28110421  0.00029555  1.0
  Tl  Tl4  1  0.02051591  0.72586312  0.15173087  1.0
  Tl  Tl5  1  0.97948409  0.27413688  0.65173087  1.0
  Tl  Tl6  1  0.72586312  0.97948409  0.90173087  1.0
  Tl  Tl7  1  0.27413688  0.02051591  0.40173087  1.0
  B  B8  1  0.46642164  0.85480927  0.16746960  1.0
  B  B9  1  0.53357836  0.14519073  0.66746960  1.0
  B  B10  1  0.85480927  0.53357836  0.91746960  1.0
  B  B11  1  0.14519073  0.46642164  0.41746960  1.0
  B  B12  1  0.41118143  0.55222762  0.27388130  1.0
  B  B13  1  0.58881857  0.44777238  0.77388130  1.0
  B  B14  1  0.55222762  0.58881857  0.02388130  1.0
  B  B15  1  0.44777238  0.41118143  0.52388130  1.0
  O  O16  1  0.50890953  0.77804594  0.03849266  1.0
  O  O17  1  0.49109047  0.22195406  0.53849266  1.0
  O  O18  1  0.77804594  0.49109047  0.78849266  1.0
  O  O19  1  0.22195406  0.50890953  0.28849266  1.0
  O  O20  1  0.47079310  0.48676601  0.13689115  1.0
  O  O21  1  0.52920690  0.51323399  0.63689115  1.0
  O  O22  1  0.48676601  0.52920690  0.88689115  1.0
  O  O23  1  0.51323399  0.47079310  0.38689115  1.0
  O  O24  1  0.43228812  0.74519636  0.28264939  1.0
  O  O25  1  0.56771188  0.25480364  0.78264939  1.0
  O  O26  1  0.74519636  0.56771188  0.03264939  1.0
  O  O27  1  0.25480364  0.43228812  0.53264939  1.0
  O  O28  1  0.45416714  0.02927099  0.18408947  1.0
  O  O29  1  0.54583286  0.97072901  0.68408947  1.0
  O  O30  1  0.02927099  0.54583286  0.93408947  1.0
  O  O31  1  0.97072901  0.45416714  0.43408947  1.0
