# generated using pymatgen
data_Ba5V3ClO12
_symmetry_space_group_name_H-M   'P 1'
_cell_length_a   10.88760842
_cell_length_b   10.88760842
_cell_length_c   7.83282358
_cell_angle_alpha   90.00000000
_cell_angle_beta   90.00000000
_cell_angle_gamma   120.00000000
_symmetry_Int_Tables_number   1
_chemical_formula_structural   Ba5V3ClO12
_chemical_formula_sum   'Ba10 V6 Cl2 O24'
_cell_volume   804.10722140
_cell_formula_units_Z   2
loop_
 _symmetry_equiv_pos_site_id
 _symmetry_equiv_pos_as_xyz
  1  'x, y, z'
loop_
 _atom_site_type_symbol
 _atom_site_label
 _atom_site_symmetry_multiplicity
 _atom_site_fract_x
 _atom_site_fract_y
 _atom_site_fract_z
 _atom_site_occupancy
  Ba  Ba0  1  0.00927716  0.73234433  0.25000000  1.0
  Ba  Ba1  1  0.73234433  0.72306718  0.75000000  1.0
  Ba  Ba2  1  0.72306718  0.99072284  0.25000000  1.0
  Ba  Ba3  1  0.26765567  0.27693282  0.25000000  1.0
  Ba  Ba4  1  0.99072284  0.26765567  0.75000000  1.0
  Ba  Ba5  1  0.27693282  0.00927716  0.75000000  1.0
  Ba  Ba6  1  0.33333333  0.66666667  0.49787376  1.0
  Ba  Ba7  1  0.33333333  0.66666667  0.00212624  1.0
  Ba  Ba8  1  0.66666667  0.33333333  0.99787376  1.0
  Ba  Ba9  1  0.66666667  0.33333333  0.50212624  1.0
  V  V10  1  0.63441317  0.59271847  0.25000000  1.0
  V  V11  1  0.59271847  0.95830530  0.75000000  1.0
  V  V12  1  0.95830530  0.36558683  0.25000000  1.0
  V  V13  1  0.40728153  0.04169470  0.25000000  1.0
  V  V14  1  0.36558683  0.40728153  0.75000000  1.0
  V  V15  1  0.04169470  0.63441317  0.75000000  1.0
  Cl  Cl16  1  0.00000000  0.00000000  0.25000000  1.0
  Cl  Cl17  1  0.00000000  0.00000000  0.75000000  1.0
  O  O18  1  0.74188505  0.64183640  0.42675561  1.0
  O  O19  1  0.74188505  0.64183640  0.07324439  1.0
  O  O20  1  0.64183640  0.89995135  0.92675561  1.0
  O  O21  1  0.64183640  0.89995135  0.57324439  1.0
  O  O22  1  0.89995135  0.25811495  0.42675561  1.0
  O  O23  1  0.89995135  0.25811495  0.07324439  1.0
  O  O24  1  0.35816360  0.10004865  0.42675561  1.0
  O  O25  1  0.35816360  0.10004865  0.07324439  1.0
  O  O26  1  0.25811495  0.35816360  0.92675561  1.0
  O  O27  1  0.25811495  0.35816360  0.57324439  1.0
  O  O28  1  0.10004865  0.74188505  0.92675561  1.0
  O  O29  1  0.10004865  0.74188505  0.57324439  1.0
  O  O30  1  0.34221077  0.85967817  0.25000000  1.0
  O  O31  1  0.85967817  0.51746740  0.75000000  1.0
  O  O32  1  0.51746740  0.65778923  0.25000000  1.0
  O  O33  1  0.14032183  0.48253260  0.25000000  1.0
  O  O34  1  0.65778923  0.14032183  0.75000000  1.0
  O  O35  1  0.48253260  0.34221077  0.75000000  1.0
  O  O36  1  0.54309014  0.40870613  0.25000000  1.0
  O  O37  1  0.40870613  0.86561599  0.75000000  1.0
  O  O38  1  0.86561599  0.45690986  0.25000000  1.0
  O  O39  1  0.59129387  0.13438401  0.25000000  1.0
  O  O40  1  0.45690986  0.59129387  0.75000000  1.0
  O  O41  1  0.13438401  0.54309014  0.75000000  1.0
