# generated using pymatgen
data_ZrCrP
_symmetry_space_group_name_H-M   'P 1'
_cell_length_a   6.39110121
_cell_length_b   3.65853834
_cell_length_c   7.57652558
_cell_angle_alpha   90.00000000
_cell_angle_beta   90.00000000
_cell_angle_gamma   90.00000000
_symmetry_Int_Tables_number   1
_chemical_formula_structural   ZrCrP
_chemical_formula_sum   'Zr4 Cr4 P4'
_cell_volume   177.15499414
_cell_formula_units_Z   4
loop_
 _symmetry_equiv_pos_site_id
 _symmetry_equiv_pos_as_xyz
  1  'x, y, z'
loop_
 _atom_site_type_symbol
 _atom_site_label
 _atom_site_symmetry_multiplicity
 _atom_site_fract_x
 _atom_site_fract_y
 _atom_site_fract_z
 _atom_site_occupancy
  Zr  Zr0  1  0.03806207  0.25000000  0.32933187  1.0
  Zr  Zr1  1  0.53806207  0.25000000  0.17066813  1.0
  Zr  Zr2  1  0.96193793  0.75000000  0.67066813  1.0
  Zr  Zr3  1  0.46193793  0.75000000  0.82933187  1.0
  Cr  Cr4  1  0.12111767  0.25000000  0.95190281  1.0
  Cr  Cr5  1  0.62111767  0.25000000  0.54809719  1.0
  Cr  Cr6  1  0.87888233  0.75000000  0.04809719  1.0
  Cr  Cr7  1  0.37888233  0.75000000  0.45190281  1.0
  P  P8  1  0.26163668  0.25000000  0.64022902  1.0
  P  P9  1  0.76163668  0.25000000  0.85977098  1.0
  P  P10  1  0.73836332  0.75000000  0.35977098  1.0
  P  P11  1  0.23836332  0.75000000  0.14022902  1.0
