# generated using pymatgen
data_KNbV2O8
_symmetry_space_group_name_H-M   'P 1'
_cell_length_a   15.91058591
_cell_length_b   5.62255692
_cell_length_c   8.79433303
_cell_angle_alpha   90.00000000
_cell_angle_beta   90.00000000
_cell_angle_gamma   90.00000000
_symmetry_Int_Tables_number   1
_chemical_formula_structural   KNbV2O8
_chemical_formula_sum   'K4 Nb4 V8 O32'
_cell_volume   786.72498288
_cell_formula_units_Z   4
loop_
 _symmetry_equiv_pos_site_id
 _symmetry_equiv_pos_as_xyz
  1  'x, y, z'
loop_
 _atom_site_type_symbol
 _atom_site_label
 _atom_site_symmetry_multiplicity
 _atom_site_fract_x
 _atom_site_fract_y
 _atom_site_fract_z
 _atom_site_occupancy
  K  K0  1  0.12663358  0.75000000  0.96466267  1.0
  K  K1  1  0.62663358  0.75000000  0.53533733  1.0
  K  K2  1  0.87336642  0.25000000  0.03533733  1.0
  K  K3  1  0.37336642  0.25000000  0.46466267  1.0
  Nb  Nb4  1  0.37129351  0.75000000  0.84653549  1.0
  Nb  Nb5  1  0.87129351  0.75000000  0.65346451  1.0
  Nb  Nb6  1  0.62870649  0.25000000  0.15346451  1.0
  Nb  Nb7  1  0.12870649  0.25000000  0.34653549  1.0
  V  V8  1  0.48747186  0.75000000  0.21391973  1.0
  V  V9  1  0.98747186  0.75000000  0.28608027  1.0
  V  V10  1  0.51252814  0.25000000  0.78608027  1.0
  V  V11  1  0.01252814  0.25000000  0.71391973  1.0
  V  V12  1  0.21220651  0.75000000  0.54765065  1.0
  V  V13  1  0.71220651  0.75000000  0.95234935  1.0
  V  V14  1  0.78779349  0.25000000  0.45234935  1.0
  V  V15  1  0.28779349  0.25000000  0.04765065  1.0
  O  O16  1  0.44506216  0.49745338  0.76723019  1.0
  O  O17  1  0.44506216  0.00254662  0.76723019  1.0
  O  O18  1  0.94506216  0.49745338  0.73276981  1.0
  O  O19  1  0.94506216  0.00254662  0.73276981  1.0
  O  O20  1  0.55493784  0.99745338  0.23276981  1.0
  O  O21  1  0.55493784  0.50254662  0.23276981  1.0
  O  O22  1  0.05493784  0.99745338  0.26723019  1.0
  O  O23  1  0.05493784  0.50254662  0.26723019  1.0
  O  O24  1  0.29217692  0.99299885  0.93465453  1.0
  O  O25  1  0.29217692  0.50700115  0.93465453  1.0
  O  O26  1  0.79217692  0.99299885  0.56534547  1.0
  O  O27  1  0.79217692  0.50700115  0.56534547  1.0
  O  O28  1  0.70782308  0.49299885  0.06534547  1.0
  O  O29  1  0.70782308  0.00700115  0.06534547  1.0
  O  O30  1  0.20782308  0.49299885  0.43465453  1.0
  O  O31  1  0.20782308  0.00700115  0.43465453  1.0
  O  O32  1  0.43375133  0.75000000  0.04167193  1.0
  O  O33  1  0.93375133  0.75000000  0.45832807  1.0
  O  O34  1  0.56624867  0.25000000  0.95832807  1.0
  O  O35  1  0.06624867  0.25000000  0.54167193  1.0
  O  O36  1  0.42434347  0.75000000  0.35954155  1.0
  O  O37  1  0.92434347  0.75000000  0.14045845  1.0
  O  O38  1  0.57565653  0.25000000  0.64045845  1.0
  O  O39  1  0.07565653  0.25000000  0.85954155  1.0
  O  O40  1  0.30573555  0.75000000  0.65620052  1.0
  O  O41  1  0.80573555  0.75000000  0.84379948  1.0
  O  O42  1  0.69426445  0.25000000  0.34379948  1.0
  O  O43  1  0.19426445  0.25000000  0.15620052  1.0
  O  O44  1  0.13258381  0.75000000  0.66219621  1.0
  O  O45  1  0.63258381  0.75000000  0.83780379  1.0
  O  O46  1  0.86741619  0.25000000  0.33780379  1.0
  O  O47  1  0.36741619  0.25000000  0.16219621  1.0
