# generated using pymatgen
data_BaWO4
_symmetry_space_group_name_H-M   'P 1'
_cell_length_a   7.60801540
_cell_length_b   7.31052649
_cell_length_c   14.75446693
_cell_angle_alpha   90.00000000
_cell_angle_beta   113.03948733
_cell_angle_gamma   90.00000000
_symmetry_Int_Tables_number   1
_chemical_formula_structural   BaWO4
_chemical_formula_sum   'Ba8 W8 O32'
_cell_volume   755.16607760
_cell_formula_units_Z   8
loop_
 _symmetry_equiv_pos_site_id
 _symmetry_equiv_pos_as_xyz
  1  'x, y, z'
loop_
 _atom_site_type_symbol
 _atom_site_label
 _atom_site_symmetry_multiplicity
 _atom_site_fract_x
 _atom_site_fract_y
 _atom_site_fract_z
 _atom_site_occupancy
  Ba  Ba0  1  1.00353387  0.14591909  0.34275480  1.0
  Ba  Ba1  1  1.00353387  0.35408091  0.84275480  1.0
  Ba  Ba2  1  -0.00353387  0.64591909  0.15724520  1.0
  Ba  Ba3  1  -0.00353387  0.85408091  0.65724520  1.0
  Ba  Ba4  1  0.49138786  0.41561591  0.34024289  1.0
  Ba  Ba5  1  0.49138786  0.08438409  0.84024289  1.0
  Ba  Ba6  1  0.50861214  0.91561591  0.15975711  1.0
  Ba  Ba7  1  0.50861214  0.58438409  0.65975711  1.0
  W  W8  1  0.98123640  0.14771707  0.08198708  1.0
  W  W9  1  0.98123640  0.35228293  0.58198708  1.0
  W  W10  1  0.01876360  0.64771707  0.41801292  1.0
  W  W11  1  0.01876360  0.85228293  0.91801292  1.0
  W  W12  1  0.40399432  0.43953707  0.07472467  1.0
  W  W13  1  0.40399432  0.06046293  0.57472467  1.0
  W  W14  1  0.59600568  0.93953707  0.42527533  1.0
  W  W15  1  0.59600568  0.56046293  0.92527533  1.0
  O  O16  1  0.87035541  0.43190856  0.42970487  1.0
  O  O17  1  0.87035541  0.06809144  0.92970487  1.0
  O  O18  1  0.12964459  0.93190856  0.07029513  1.0
  O  O19  1  0.12964459  0.56809144  0.57029513  1.0
  O  O20  1  0.85726960  0.73500472  0.29795603  1.0
  O  O21  1  0.85726960  0.76499528  0.79795603  1.0
  O  O22  1  0.14273040  0.23500472  0.20204397  1.0
  O  O23  1  0.14273040  0.26499528  0.70204397  1.0
  O  O24  1  0.83011395  0.35102022  0.03538541  1.0
  O  O25  1  0.83011395  0.14897978  0.53538541  1.0
  O  O26  1  0.16988605  0.85102022  0.46461459  1.0
  O  O27  1  0.16988605  0.64897978  0.96461459  1.0
  O  O28  1  0.83279669  0.00947206  0.12567850  1.0
  O  O29  1  0.83279669  0.49052794  0.62567850  1.0
  O  O30  1  0.16720331  0.50947206  0.37432150  1.0
  O  O31  1  0.16720331  0.99052794  0.87432150  1.0
  O  O32  1  0.80880218  0.79065162  0.46661995  1.0
  O  O33  1  0.80880218  0.70934838  0.96661995  1.0
  O  O34  1  0.19119782  0.29065162  0.03338005  1.0
  O  O35  1  0.19119782  0.20934838  0.53338005  1.0
  O  O36  1  0.57445928  0.29195786  0.16032183  1.0
  O  O37  1  0.57445928  0.20804214  0.66032183  1.0
  O  O38  1  0.42554072  0.79195786  0.33967817  1.0
  O  O39  1  0.42554072  0.70804214  0.83967817  1.0
  O  O40  1  0.64521022  0.08249853  0.33614003  1.0
  O  O41  1  0.64521022  0.41750147  0.83614003  1.0
  O  O42  1  0.35478978  0.58249853  0.16385996  1.0
  O  O43  1  0.35478978  0.91750147  0.66385996  1.0
  O  O44  1  0.42038538  0.12599506  0.44240504  1.0
  O  O45  1  0.42038538  0.37400494  0.94240504  1.0
  O  O46  1  0.57961462  0.62599506  0.05759496  1.0
  O  O47  1  0.57961462  0.87400494  0.55759496  1.0
