# generated using pymatgen
data_CrH12C8S2(NO)2
_symmetry_space_group_name_H-M   'P 1'
_cell_length_a   8.00774864
_cell_length_b   5.91251472
_cell_length_c   8.04663181
_cell_angle_alpha   100.02627319
_cell_angle_beta   103.73447432
_cell_angle_gamma   95.71963339
_symmetry_Int_Tables_number   1
_chemical_formula_structural   CrH12C8S2(NO)2
_chemical_formula_sum   'Cr1 H12 C8 S2 N2 O2'
_cell_volume   360.44942803
_cell_formula_units_Z   1
loop_
 _symmetry_equiv_pos_site_id
 _symmetry_equiv_pos_as_xyz
  1  'x, y, z'
loop_
 _atom_site_type_symbol
 _atom_site_label
 _atom_site_symmetry_multiplicity
 _atom_site_fract_x
 _atom_site_fract_y
 _atom_site_fract_z
 _atom_site_occupancy
  Cr  Cr0  1  -0.50000000  -0.50000000  -0.50000000  1.0
  H  H1  1  -0.40326142  -0.93373523  -0.73413320  1.0
  H  H2  1  -0.59673858  -0.06626477  -0.26586680  1.0
  H  H3  1  -0.29636651  -0.95023668  -0.91032630  1.0
  H  H4  1  -0.70363349  -0.04976332  -0.08967370  1.0
  H  H5  1  -0.17186743  -0.90209956  -0.69208243  1.0
  H  H6  1  -0.82813257  -0.09790044  -0.30791757  1.0
  H  H7  1  -0.13294862  -0.31183715  -0.81342374  1.0
  H  H8  1  -0.86705138  -0.68816285  -0.18657626  1.0
  H  H9  1  -0.04499376  -0.57996930  -0.84966051  1.0
  H  H10  1  -0.95500624  -0.42003070  -0.15033949  1.0
  H  H11  1  -0.23407566  -0.54001683  0.00105097  1.0
  H  H12  1  -0.76592434  -0.45998317  -1.00105097  1.0
  C  C13  1  -0.29200654  -0.86459637  -0.77621266  1.0
  C  C14  1  -0.70799346  -0.13540363  -0.22378734  1.0
  C  C15  1  -0.27613525  -0.60807674  -0.76079923  1.0
  C  C16  1  -0.72386475  -0.39192326  -0.23920077  1.0
  C  C17  1  -0.16417089  -0.50019329  -0.85915390  1.0
  C  C18  1  -0.83582911  -0.49980671  -0.14084610  1.0
  C  C19  1  -0.30312506  -0.87767615  -0.33369459  1.0
  C  C20  1  -0.69687494  -0.12232385  -0.66630541  1.0
  S  S21  1  -0.22664233  -0.09713324  -0.26266446  1.0
  S  S22  1  -0.77335767  -0.90286676  -0.73733554  1.0
  N  N23  1  -0.36122877  -0.71860648  -0.38600141  1.0
  N  N24  1  -0.63877123  -0.28139352  -0.61399859  1.0
  O  O25  1  -0.35060576  -0.48088949  -0.67052279  1.0
  O  O26  1  -0.64939424  -0.51911051  -0.32947721  1.0
