# generated using pymatgen
data_K2Sn(S2O7)3
_symmetry_space_group_name_H-M   'P 1'
_cell_length_a   10.07906177
_cell_length_b   10.07906177
_cell_length_c   11.09569988
_cell_angle_alpha   90.00000000
_cell_angle_beta   90.00000000
_cell_angle_gamma   120.00000000
_symmetry_Int_Tables_number   1
_chemical_formula_structural   K2Sn(S2O7)3
_chemical_formula_sum   'K4 Sn2 S12 O42'
_cell_volume   976.17020219
_cell_formula_units_Z   2
loop_
 _symmetry_equiv_pos_site_id
 _symmetry_equiv_pos_as_xyz
  1  'x, y, z'
loop_
 _atom_site_type_symbol
 _atom_site_label
 _atom_site_symmetry_multiplicity
 _atom_site_fract_x
 _atom_site_fract_y
 _atom_site_fract_z
 _atom_site_occupancy
  K  K0  1  0.33333333  0.66666667  0.13217207  1.0
  K  K1  1  0.66666667  0.33333333  0.86782793  1.0
  K  K2  1  0.33333333  0.66666667  0.55328292  1.0
  K  K3  1  0.66666667  0.33333333  0.44671708  1.0
  Sn  Sn4  1  0.00000000  0.00000000  0.24062607  1.0
  Sn  Sn5  1  0.00000000  0.00000000  0.75937393  1.0
  S  S6  1  0.28230361  0.94815630  0.33995337  1.0
  S  S7  1  0.94815630  0.66585269  0.66004663  1.0
  S  S8  1  0.66585269  0.71769639  0.33995337  1.0
  S  S9  1  0.05184370  0.33414731  0.33995337  1.0
  S  S10  1  0.71769639  0.05184370  0.66004663  1.0
  S  S11  1  0.33414731  0.28230361  0.66004663  1.0
  S  S12  1  0.81731354  0.64481965  0.14875290  1.0
  S  S13  1  0.64481965  0.82750611  0.85124710  1.0
  S  S14  1  0.82750611  0.18268646  0.14875290  1.0
  S  S15  1  0.35518035  0.17249389  0.14875290  1.0
  S  S16  1  0.18268646  0.35518035  0.85124710  1.0
  S  S17  1  0.17249389  0.81731354  0.85124710  1.0
  O  O18  1  0.33727122  0.00854511  0.19931568  1.0
  O  O19  1  0.00854511  0.67127389  0.80068432  1.0
  O  O20  1  0.67127389  0.66272878  0.19931568  1.0
  O  O21  1  0.99145489  0.32872611  0.19931568  1.0
  O  O22  1  0.66272878  0.99145489  0.80068432  1.0
  O  O23  1  0.32872611  0.33727122  0.80068432  1.0
  O  O24  1  0.13445771  0.95314840  0.35515937  1.0
  O  O25  1  0.95314840  0.81869068  0.64484063  1.0
  O  O26  1  0.81869068  0.86554229  0.35515937  1.0
  O  O27  1  0.04685160  0.18130932  0.35515937  1.0
  O  O28  1  0.86554229  0.04685160  0.64484063  1.0
  O  O29  1  0.18130932  0.13445771  0.64484063  1.0
  O  O30  1  0.94206485  0.81242093  0.12963375  1.0
  O  O31  1  0.81242093  0.87035608  0.87036625  1.0
  O  O32  1  0.87035608  0.05793515  0.12963375  1.0
  O  O33  1  0.18757907  0.12964392  0.12963375  1.0
  O  O34  1  0.05793515  0.18757907  0.87036625  1.0
  O  O35  1  0.12964392  0.94206485  0.87036625  1.0
  O  O36  1  0.25399171  0.79314783  0.33267669  1.0
  O  O37  1  0.79314783  0.53915612  0.66732331  1.0
  O  O38  1  0.53915612  0.74600829  0.33267669  1.0
  O  O39  1  0.20685217  0.46084388  0.33267669  1.0
  O  O40  1  0.74600829  0.20685217  0.66732331  1.0
  O  O41  1  0.46084388  0.25399171  0.66732331  1.0
  O  O42  1  0.65569583  0.60302893  0.42257547  1.0
  O  O43  1  0.60302893  0.94733309  0.57742453  1.0
  O  O44  1  0.94733309  0.34430417  0.42257547  1.0
  O  O45  1  0.39697107  0.05266691  0.42257547  1.0
  O  O46  1  0.34430417  0.39697107  0.57742453  1.0
  O  O47  1  0.05266691  0.65569583  0.57742453  1.0
  O  O48  1  0.76271275  0.57267194  0.03341133  1.0
  O  O49  1  0.57267194  0.80995919  0.96658867  1.0
  O  O50  1  0.80995919  0.23728725  0.03341133  1.0
  O  O51  1  0.42732806  0.19004081  0.03341133  1.0
  O  O52  1  0.23728725  0.42732806  0.96658867  1.0
  O  O53  1  0.19004081  0.76271275  0.96658867  1.0
  O  O54  1  0.85787053  0.57042523  0.24059887  1.0
  O  O55  1  0.57042523  0.71255469  0.75940113  1.0
  O  O56  1  0.71255469  0.14212947  0.24059887  1.0
  O  O57  1  0.42957477  0.28744531  0.24059887  1.0
  O  O58  1  0.14212947  0.42957477  0.75940113  1.0
  O  O59  1  0.28744531  0.85787053  0.75940113  1.0
