# generated using pymatgen
data_Ti4P6PbO24
_symmetry_space_group_name_H-M   'P 1'
_cell_length_a   9.06346736
_cell_length_b   9.06346736
_cell_length_c   9.06346736
_cell_angle_alpha   55.96305982
_cell_angle_beta   55.96305982
_cell_angle_gamma   55.96305982
_symmetry_Int_Tables_number   1
_chemical_formula_structural   Ti4P6PbO24
_chemical_formula_sum   'Ti4 P6 Pb1 O24'
_cell_volume   477.21814567
_cell_formula_units_Z   1
loop_
 _symmetry_equiv_pos_site_id
 _symmetry_equiv_pos_as_xyz
  1  'x, y, z'
loop_
 _atom_site_type_symbol
 _atom_site_label
 _atom_site_symmetry_multiplicity
 _atom_site_fract_x
 _atom_site_fract_y
 _atom_site_fract_z
 _atom_site_occupancy
  Ti  Ti0  1  0.15035901  0.15035901  0.15035901  1.0
  Ti  Ti1  1  0.84964099  -0.15035901  -0.15035901  1.0
  Ti  Ti2  1  0.35597036  0.35597036  -0.64402964  1.0
  Ti  Ti3  1  0.64402964  0.64402964  -0.35597036  1.0
  P  P4  1  0.53636411  0.24940758  -0.03024375  1.0
  P  P5  1  1.03024375  -0.53636411  -0.24940758  1.0
  P  P6  1  0.75059242  0.03024375  -0.53636411  1.0
  P  P7  1  0.46363589  -0.24940758  0.03024375  1.0
  P  P8  1  0.96975625  0.53636411  -0.75059242  1.0
  P  P9  1  0.24940758  0.96975625  -0.46363589  1.0
  Pb  Pb10  1  0.00000000  0.00000000  0.00000000  1.0
  O  O11  1  0.21488918  0.99899504  -0.62955877  1.0
  O  O12  1  0.62955877  -0.21488918  0.00100496  1.0
  O  O13  1  1.00100496  -0.37044123  -0.21488918  1.0
  O  O14  1  0.78511082  0.00100496  -0.37044123  1.0
  O  O15  1  0.37044123  0.21488918  -0.00100496  1.0
  O  O16  1  0.99899504  0.37044123  -0.78511082  1.0
  O  O17  1  0.55501501  0.19101139  -0.54021135  1.0
  O  O18  1  0.54021135  0.44498499  -0.19101139  1.0
  O  O19  1  0.80898861  0.54021135  -0.55501501  1.0
  O  O20  1  0.44498499  0.80898861  -0.45978865  1.0
  O  O21  1  0.45978865  0.55501501  -0.80898861  1.0
  O  O22  1  0.19101139  0.45978865  -0.44498499  1.0
  O  O23  1  0.27322196  0.91157722  -0.90940851  1.0
  O  O24  1  0.90940851  -0.27322196  0.08842278  1.0
  O  O25  1  1.08842278  -0.09059149  -0.27322196  1.0
  O  O26  1  0.72677804  0.08842278  -0.09059149  1.0
  O  O27  1  0.09059149  0.27322196  -0.08842278  1.0
  O  O28  1  0.91157722  0.09059149  -0.72677804  1.0
  O  O29  1  0.51649238  0.23915999  0.15557940  1.0
  O  O30  1  0.84442060  -0.51649238  -0.23915999  1.0
  O  O31  1  0.76084001  -0.15557940  -0.51649238  1.0
  O  O32  1  0.48350762  -0.23915999  -0.15557940  1.0
  O  O33  1  1.15557940  -0.48350762  0.23915999  1.0
  O  O34  1  1.23915999  0.15557940  -0.48350762  1.0
