# generated using pymatgen
data_Tb2N3
_symmetry_space_group_name_H-M   'P 1'
_cell_length_a   9.25333258
_cell_length_b   9.25333258
_cell_length_c   9.25333258
_cell_angle_alpha   109.47122063
_cell_angle_beta   109.47122063
_cell_angle_gamma   109.47122063
_symmetry_Int_Tables_number   1
_chemical_formula_structural   Tb2N3
_chemical_formula_sum   'Tb16 N24'
_cell_volume   609.91964881
_cell_formula_units_Z   8
loop_
 _symmetry_equiv_pos_site_id
 _symmetry_equiv_pos_as_xyz
  1  'x, y, z'
loop_
 _atom_site_type_symbol
 _atom_site_label
 _atom_site_symmetry_multiplicity
 _atom_site_fract_x
 _atom_site_fract_y
 _atom_site_fract_z
 _atom_site_occupancy
  Tb  Tb0  1  1.72020108  1.47020108  1.25000000  1.0
  Tb  Tb1  1  1.22020108  0.97020108  1.25000000  1.0
  Tb  Tb2  1  0.75000000  0.77979892  0.02979892  1.0
  Tb  Tb3  1  0.25000000  1.22020108  0.97020108  1.0
  Tb  Tb4  1  0.25000000  0.72020108  0.47020108  1.0
  Tb  Tb5  1  0.75000000  1.27979892  0.52979892  1.0
  Tb  Tb6  1  1.47020108  1.25000000  1.72020108  1.0
  Tb  Tb7  1  0.97020108  0.25000000  1.22020108  1.0
  Tb  Tb8  1  0.02979892  0.75000000  0.77979892  1.0
  Tb  Tb9  1  0.52979892  0.75000000  0.27979892  1.0
  Tb  Tb10  1  0.27979892  0.52979892  0.75000000  1.0
  Tb  Tb11  1  0.77979892  1.02979892  0.75000000  1.0
  Tb  Tb12  1  1.00000000  0.50000000  1.00000000  1.0
  Tb  Tb13  1  0.50000000  0.50000000  0.50000000  1.0
  Tb  Tb14  1  1.00000000  1.00000000  1.50000000  1.0
  Tb  Tb15  1  1.50000000  1.00000000  1.00000000  1.0
  N  N16  1  0.53711760  0.53099533  0.76854971  1.0
  N  N17  1  1.03711760  0.26856789  1.00612227  1.0
  N  N18  1  0.26244561  0.76856789  0.73145029  1.0
  N  N19  1  0.76244561  1.03099533  0.49387773  1.0
  N  N20  1  0.50612227  1.23755439  0.96900467  1.0
  N  N21  1  1.00612227  1.03711760  0.26856789  1.0
  N  N22  1  0.76854971  0.53711760  0.53099533  1.0
  N  N23  1  1.26854971  0.73755439  1.23143211  1.0
  N  N24  1  0.76856789  0.73145029  0.26244561  1.0
  N  N25  1  1.26856789  1.00612227  1.03711760  1.0
  N  N26  1  0.96900467  0.50612227  1.23755439  1.0
  N  N27  1  1.46900467  1.23145029  1.46288240  1.0
  N  N28  1  1.73755439  1.23143211  1.26854971  1.0
  N  N29  1  1.23755439  0.96900467  1.50612227  1.0
  N  N30  1  1.46288240  1.46900467  1.23145029  1.0
  N  N31  1  0.96288240  1.73143211  0.99387773  1.0
  N  N32  1  1.23145029  1.46288240  1.46900467  1.0
  N  N33  1  0.73145029  1.26244561  0.76856789  1.0
  N  N34  1  1.49387773  0.76244561  1.03099533  1.0
  N  N35  1  0.99387773  0.96288240  1.73143211  1.0
  N  N36  1  1.03099533  1.49387773  0.76244561  1.0
  N  N37  1  0.53099533  0.76854971  0.53711760  1.0
  N  N38  1  1.23143211  1.26854971  1.73755439  1.0
  N  N39  1  0.73143211  0.99387773  0.96288240  1.0
