# generated using pymatgen
data_Re7(NiMo)4
_symmetry_space_group_name_H-M   'P 1'
_cell_length_a   9.24505869
_cell_length_b   9.24505869
_cell_length_c   4.93155965
_cell_angle_alpha   90.00000000
_cell_angle_beta   90.00000000
_cell_angle_gamma   90.00000000
_symmetry_Int_Tables_number   1
_chemical_formula_structural   Re7(NiMo)4
_chemical_formula_sum   'Re14 Ni8 Mo8'
_cell_volume   421.50587793
_cell_formula_units_Z   2
loop_
 _symmetry_equiv_pos_site_id
 _symmetry_equiv_pos_as_xyz
  1  'x, y, z'
loop_
 _atom_site_type_symbol
 _atom_site_label
 _atom_site_symmetry_multiplicity
 _atom_site_fract_x
 _atom_site_fract_y
 _atom_site_fract_z
 _atom_site_occupancy
  Re  Re0  1  0.50000000  0.50000000  0.50000000  1.0
  Re  Re1  1  0.00000000  0.00000000  0.00000000  1.0
  Re  Re2  1  0.10169210  0.89830790  0.50000000  1.0
  Re  Re3  1  0.89830790  0.10169210  0.50000000  1.0
  Re  Re4  1  0.39830790  0.39830790  0.00000000  1.0
  Re  Re5  1  0.60169210  0.60169210  0.00000000  1.0
  Re  Re6  1  0.31495974  0.68504026  0.24990584  1.0
  Re  Re7  1  0.68504026  0.31495974  0.24990584  1.0
  Re  Re8  1  0.18504026  0.18504026  0.74990584  1.0
  Re  Re9  1  0.81495974  0.81495974  0.74990584  1.0
  Re  Re10  1  0.68504026  0.31495974  0.75009416  1.0
  Re  Re11  1  0.31495974  0.68504026  0.75009416  1.0
  Re  Re12  1  0.81495974  0.81495974  0.25009416  1.0
  Re  Re13  1  0.18504026  0.18504026  0.25009416  1.0
  Ni  Ni14  1  0.43257192  0.24238492  0.50000000  1.0
  Ni  Ni15  1  0.56742808  0.75761508  0.50000000  1.0
  Ni  Ni16  1  0.06742808  0.74238492  0.00000000  1.0
  Ni  Ni17  1  0.93257192  0.25761508  0.00000000  1.0
  Ni  Ni18  1  0.24238492  0.43257192  0.50000000  1.0
  Ni  Ni19  1  0.75761508  0.56742808  0.50000000  1.0
  Ni  Ni20  1  0.74238492  0.06742808  0.00000000  1.0
  Ni  Ni21  1  0.25761508  0.93257192  0.00000000  1.0
  Mo  Mo22  1  0.36860877  0.96262914  0.50000000  1.0
  Mo  Mo23  1  0.63139123  0.03737086  0.50000000  1.0
  Mo  Mo24  1  0.13139123  0.46262914  0.00000000  1.0
  Mo  Mo25  1  0.86860877  0.53737086  0.00000000  1.0
  Mo  Mo26  1  0.96262914  0.36860877  0.50000000  1.0
  Mo  Mo27  1  0.03737086  0.63139123  0.50000000  1.0
  Mo  Mo28  1  0.46262914  0.13139123  0.00000000  1.0
  Mo  Mo29  1  0.53737086  0.86860877  0.00000000  1.0
