# generated using pymatgen
data_MoP2O7
_symmetry_space_group_name_H-M   'P 1'
_cell_length_a   8.35487184
_cell_length_b   8.35487184
_cell_length_c   8.35487184
_cell_angle_alpha   90.00000000
_cell_angle_beta   90.00000000
_cell_angle_gamma   90.00000000
_symmetry_Int_Tables_number   1
_chemical_formula_structural   MoP2O7
_chemical_formula_sum   'Mo4 P8 O28'
_cell_volume   583.20250076
_cell_formula_units_Z   4
loop_
 _symmetry_equiv_pos_site_id
 _symmetry_equiv_pos_as_xyz
  1  'x, y, z'
loop_
 _atom_site_type_symbol
 _atom_site_label
 _atom_site_symmetry_multiplicity
 _atom_site_fract_x
 _atom_site_fract_y
 _atom_site_fract_z
 _atom_site_occupancy
  Mo  Mo0  1  -0.00000000  0.50000000  -0.00000000  1.0
  Mo  Mo1  1  -0.00000000  0.00000000  0.50000000  1.0
  Mo  Mo2  1  0.50000000  0.50000000  0.50000000  1.0
  Mo  Mo3  1  0.50000000  0.00000000  0.00000000  1.0
  P  P4  1  0.38983823  0.88983823  0.61016177  1.0
  P  P5  1  0.38983823  0.61016177  0.11016177  1.0
  P  P6  1  0.88983823  0.88983823  0.88983823  1.0
  P  P7  1  0.88983823  0.61016177  0.38983823  1.0
  P  P8  1  0.61016177  0.38983823  0.88983823  1.0
  P  P9  1  0.61016177  0.11016177  0.38983823  1.0
  P  P10  1  0.11016177  0.38983823  0.61016177  1.0
  P  P11  1  0.11016177  0.11016177  0.11016177  1.0
  O  O12  1  0.44184105  0.71703080  0.58440192  1.0
  O  O13  1  0.44184105  0.78296920  0.08440192  1.0
  O  O14  1  0.94184105  0.71703080  0.91559808  1.0
  O  O15  1  0.94184105  0.78296920  0.41559808  1.0
  O  O16  1  0.21703080  0.91559808  0.55815895  1.0
  O  O17  1  0.21703080  0.58440192  0.05815895  1.0
  O  O18  1  0.71703080  0.91559808  0.94184105  1.0
  O  O19  1  0.71703080  0.58440192  0.44184105  1.0
  O  O20  1  0.41559808  0.94184105  0.78296920  1.0
  O  O21  1  0.41559808  0.55815895  0.28296920  1.0
  O  O22  1  0.91559808  0.94184105  0.71703080  1.0
  O  O23  1  0.91559808  0.55815895  0.21703080  1.0
  O  O24  1  0.55815895  0.21703080  0.91559808  1.0
  O  O25  1  0.55815895  0.28296920  0.41559808  1.0
  O  O26  1  0.05815895  0.21703080  0.58440192  1.0
  O  O27  1  0.05815895  0.28296920  0.08440192  1.0
  O  O28  1  0.78296920  0.41559808  0.94184105  1.0
  O  O29  1  0.78296920  0.08440192  0.44184105  1.0
  O  O30  1  0.28296920  0.41559808  0.55815895  1.0
  O  O31  1  0.28296920  0.08440192  0.05815895  1.0
  O  O32  1  0.58440192  0.44184105  0.71703080  1.0
  O  O33  1  0.58440192  0.05815895  0.21703080  1.0
  O  O34  1  0.08440192  0.44184105  0.78296920  1.0
  O  O35  1  0.08440192  0.05815895  0.28296920  1.0
  O  O36  1  0.50000000  -0.00000000  0.50000000  1.0
  O  O37  1  0.50000000  0.50000000  0.00000000  1.0
  O  O38  1  -0.00000000  0.00000000  0.00000000  1.0
  O  O39  1  -0.00000000  0.50000000  0.50000000  1.0
