# generated using pymatgen
data_MnPb2WO6
_symmetry_space_group_name_H-M   'P 1'
_cell_length_a   11.15172415
_cell_length_b   5.57726730
_cell_length_c   7.88445071
_cell_angle_alpha   90.00000000
_cell_angle_beta   90.00000000
_cell_angle_gamma   90.00000000
_symmetry_Int_Tables_number   1
_chemical_formula_structural   MnPb2WO6
_chemical_formula_sum   'Mn4 Pb8 W4 O24'
_cell_volume   490.38245136
_cell_formula_units_Z   4
loop_
 _symmetry_equiv_pos_site_id
 _symmetry_equiv_pos_as_xyz
  1  'x, y, z'
loop_
 _atom_site_type_symbol
 _atom_site_label
 _atom_site_symmetry_multiplicity
 _atom_site_fract_x
 _atom_site_fract_y
 _atom_site_fract_z
 _atom_site_occupancy
  Mn  Mn0  1  0.12500012  0.74998642  0.38095098  1.0
  Mn  Mn1  1  0.87499988  0.25001358  0.88095098  1.0
  Mn  Mn2  1  0.37499988  0.24998642  0.88095098  1.0
  Mn  Mn3  1  0.62500012  0.75001358  0.38095098  1.0
  Pb  Pb4  1  0.12499899  0.24996055  0.13094912  1.0
  Pb  Pb5  1  0.87500101  0.75003945  0.63094912  1.0
  Pb  Pb6  1  0.37500101  0.74996055  0.63094912  1.0
  Pb  Pb7  1  0.62499899  0.25003945  0.13094912  1.0
  Pb  Pb8  1  0.12499883  0.24997214  0.63094987  1.0
  Pb  Pb9  1  0.87500117  0.75002786  0.13094987  1.0
  Pb  Pb10  1  0.37500117  0.74997214  0.13094987  1.0
  Pb  Pb11  1  0.62499883  0.25002786  0.63094987  1.0
  W  W12  1  0.12500040  0.74997858  0.88094997  1.0
  W  W13  1  0.87499960  0.25002142  0.38094997  1.0
  W  W14  1  0.37499960  0.24997858  0.38094997  1.0
  W  W15  1  0.62500040  0.75002142  0.88094997  1.0
  O  O16  1  0.24965811  -0.00074141  0.88094511  1.0
  O  O17  1  0.75034189  1.00074141  0.38094511  1.0
  O  O18  1  0.25034189  0.49925859  0.38094511  1.0
  O  O19  1  0.74965811  0.50074141  0.88094511  1.0
  O  O20  1  0.24965577  0.50070279  0.88095487  1.0
  O  O21  1  0.75034423  0.49929721  0.38095487  1.0
  O  O22  1  0.25034423  0.00070279  0.38095487  1.0
  O  O23  1  0.74965577  0.99929721  0.88095487  1.0
  O  O24  1  0.00034258  0.50071611  0.88095198  1.0
  O  O25  1  0.99965742  0.49928389  0.38095198  1.0
  O  O26  1  0.49965742  0.00071611  0.38095198  1.0
  O  O27  1  0.50034258  0.99928389  0.88095198  1.0
  O  O28  1  0.12499915  0.74997883  0.63163734  1.0
  O  O29  1  0.87500085  0.25002117  0.13163734  1.0
  O  O30  1  0.37500085  0.24997883  0.13163734  1.0
  O  O31  1  0.62499915  0.75002117  0.63163734  1.0
  O  O32  1  0.12499890  0.75000055  0.13026298  1.0
  O  O33  1  0.87500110  0.24999945  0.63026298  1.0
  O  O34  1  0.37500110  0.25000055  0.63026298  1.0
  O  O35  1  0.62499890  0.74999945  0.13026298  1.0
  O  O36  1  0.00034369  0.99927264  0.88094779  1.0
  O  O37  1  0.99965631  0.00072736  0.38094779  1.0
  O  O38  1  0.49965631  0.49927264  0.38094779  1.0
  O  O39  1  0.50034369  0.50072736  0.88094779  1.0
