# generated using pymatgen
data_Si2Mo3
_symmetry_space_group_name_H-M   'P 1'
_cell_length_a   6.62419079
_cell_length_b   6.62419079
_cell_length_c   3.28724523
_cell_angle_alpha   90.00000000
_cell_angle_beta   90.00000000
_cell_angle_gamma   90.00000000
_symmetry_Int_Tables_number   1
_chemical_formula_structural   Si2Mo3
_chemical_formula_sum   'Si4 Mo6'
_cell_volume   144.24400407
_cell_formula_units_Z   2
loop_
 _symmetry_equiv_pos_site_id
 _symmetry_equiv_pos_as_xyz
  1  'x, y, z'
loop_
 _atom_site_type_symbol
 _atom_site_label
 _atom_site_symmetry_multiplicity
 _atom_site_fract_x
 _atom_site_fract_y
 _atom_site_fract_z
 _atom_site_occupancy
  Si  Si0  1  0.63361733  0.13361733  0.00000000  1.0
  Si  Si1  1  0.36638267  0.86638267  0.00000000  1.0
  Si  Si2  1  0.86638267  0.63361733  -0.00000000  1.0
  Si  Si3  1  0.13361733  0.36638267  -0.00000000  1.0
  Mo  Mo4  1  0.50000000  0.50000000  0.00000000  1.0
  Mo  Mo5  1  0.00000000  0.00000000  0.00000000  1.0
  Mo  Mo6  1  0.16193249  0.66193249  0.50000000  1.0
  Mo  Mo7  1  0.83806751  0.33806751  0.50000000  1.0
  Mo  Mo8  1  0.33806751  0.16193249  0.50000000  1.0
  Mo  Mo9  1  0.66193249  0.83806751  0.50000000  1.0
