# generated using pymatgen
data_MgSi7Ir3
_symmetry_space_group_name_H-M   'P 1'
_cell_length_a   7.97966176
_cell_length_b   7.97966176
_cell_length_c   7.97966176
_cell_angle_alpha   56.59153584
_cell_angle_beta   56.59153584
_cell_angle_gamma   56.59153584
_symmetry_Int_Tables_number   1
_chemical_formula_structural   MgSi7Ir3
_chemical_formula_sum   'Mg2 Si14 Ir6'
_cell_volume   330.99171654
_cell_formula_units_Z   2
loop_
 _symmetry_equiv_pos_site_id
 _symmetry_equiv_pos_as_xyz
  1  'x, y, z'
loop_
 _atom_site_type_symbol
 _atom_site_label
 _atom_site_symmetry_multiplicity
 _atom_site_fract_x
 _atom_site_fract_y
 _atom_site_fract_z
 _atom_site_occupancy
  Mg  Mg0  1  1.00000000  0.00000000  0.00000000  1.0
  Mg  Mg1  1  0.50000000  0.50000000  0.50000000  1.0
  Si  Si2  1  0.85035764  0.06503867  -0.32721205  1.0
  Si  Si3  1  1.35035764  0.17278795  -0.43496133  1.0
  Si  Si4  1  0.82721205  0.43496133  -0.35035764  1.0
  Si  Si5  1  1.32721205  0.14964236  -0.06503867  1.0
  Si  Si6  1  0.93496133  0.32721205  0.14964236  1.0
  Si  Si7  1  0.43496133  0.64964236  -0.17278795  1.0
  Si  Si8  1  1.14964236  -0.06503867  0.32721205  1.0
  Si  Si9  1  0.64964236  0.82721205  -0.56503867  1.0
  Si  Si10  1  0.67278795  -0.14964236  0.06503867  1.0
  Si  Si11  1  1.17278795  -0.43496133  0.35035764  1.0
  Si  Si12  1  0.56503867  0.35035764  0.17278795  1.0
  Si  Si13  1  1.06503867  -0.32721205  -0.14964236  1.0
  Si  Si14  1  0.75000000  0.75000000  -0.25000000  1.0
  Si  Si15  1  0.25000000  0.25000000  0.25000000  1.0
  Ir  Ir16  1  0.42609494  0.75000000  0.07390506  1.0
  Ir  Ir17  1  0.92609494  -0.42609494  0.25000000  1.0
  Ir  Ir18  1  0.25000000  0.92609494  -0.42609494  1.0
  Ir  Ir19  1  0.75000000  1.07390506  -0.57390506  1.0
  Ir  Ir20  1  0.57390506  0.25000000  -0.07390506  1.0
  Ir  Ir21  1  1.07390506  0.42609494  -0.25000000  1.0
