# generated using pymatgen
data_Eu2FeH6
_symmetry_space_group_name_H-M   'P 1'
_cell_length_a   5.12183871
_cell_length_b   5.12183871
_cell_length_c   5.12183871
_cell_angle_alpha   60.00000000
_cell_angle_beta   60.00000000
_cell_angle_gamma   60.00000000
_symmetry_Int_Tables_number   1
_chemical_formula_structural   Eu2FeH6
_chemical_formula_sum   'Eu2 Fe1 H6'
_cell_volume   95.00855136
_cell_formula_units_Z   1
loop_
 _symmetry_equiv_pos_site_id
 _symmetry_equiv_pos_as_xyz
  1  'x, y, z'
loop_
 _atom_site_type_symbol
 _atom_site_label
 _atom_site_symmetry_multiplicity
 _atom_site_fract_x
 _atom_site_fract_y
 _atom_site_fract_z
 _atom_site_occupancy
  Eu  Eu0  1  0.75000000  0.75000000  -0.25000000  1.0
  Eu  Eu1  1  1.25000000  0.25000000  0.25000000  1.0
  Fe  Fe2  1  -0.00000000  0.00000000  0.00000000  1.0
  H  H3  1  -0.77529105  0.77529105  0.77529105  1.0
  H  H4  1  -0.22470895  0.22470895  0.77529105  1.0
  H  H5  1  0.77529105  0.77529105  -0.77529105  1.0
  H  H6  1  0.22470895  1.22470895  -0.22470895  1.0
  H  H7  1  0.22470895  -0.22470895  1.22470895  1.0
  H  H8  1  -0.22470895  0.22470895  0.22470895  1.0
