# generated using pymatgen
data_Cd2(GeO3)3
_symmetry_space_group_name_H-M   'P 1'
_cell_length_a   7.15217781
_cell_length_b   7.64545367
_cell_length_c   8.34869971
_cell_angle_alpha   111.57026951
_cell_angle_beta   117.93449071
_cell_angle_gamma   82.32423762
_symmetry_Int_Tables_number   1
_chemical_formula_structural   Cd2(GeO3)3
_chemical_formula_sum   'Cd4 Ge6 O18'
_cell_volume   374.66697142
_cell_formula_units_Z   2
loop_
 _symmetry_equiv_pos_site_id
 _symmetry_equiv_pos_as_xyz
  1  'x, y, z'
loop_
 _atom_site_type_symbol
 _atom_site_label
 _atom_site_symmetry_multiplicity
 _atom_site_fract_x
 _atom_site_fract_y
 _atom_site_fract_z
 _atom_site_occupancy
  O  O0  1  0.28916782  -0.47626271  -0.61822383  1.0
  O  O1  1  -0.28916782  -0.52373729  -0.38177617  1.0
  O  O2  1  0.00189971  -0.21348533  -0.79619659  1.0
  O  O3  1  -0.00189971  -0.78651467  -0.20380341  1.0
  O  O4  1  -0.11466537  -0.58112467  -0.89142963  1.0
  O  O5  1  0.11466537  -0.41887533  -0.10857037  1.0
  O  O6  1  -0.18821242  -0.93524418  -0.89011750  1.0
  O  O7  1  0.18821242  -0.06475582  -0.10988250  1.0
  O  O8  1  0.05568988  -0.68951774  -0.49402821  1.0
  O  O9  1  -0.05568988  -0.31048226  -0.50597179  1.0
  O  O10  1  -0.49048550  -0.63311679  -0.85752128  1.0
  O  O11  1  0.49048550  -0.36688321  -0.14247872  1.0
  O  O12  1  0.25644165  -0.89630083  -0.67676583  1.0
  O  O13  1  -0.25644165  -0.10369917  -0.32323417  1.0
  O  O14  1  -0.18539303  -0.97195982  -0.57202983  1.0
  O  O15  1  0.18539303  -0.02804018  -0.42797017  1.0
  O  O16  1  0.54333211  -0.83435208  -0.21873165  1.0
  O  O17  1  -0.54333211  -0.16564792  -0.78126835  1.0
  Ge  Ge18  1  0.03652964  -0.38207881  -0.68456764  1.0
  Ge  Ge19  1  -0.03652964  -0.61792119  -0.31543236  1.0
  Ge  Ge20  1  0.02407716  -0.95305067  -0.65341268  1.0
  Ge  Ge21  1  -0.02407716  -0.04694933  -0.34658732  1.0
  Ge  Ge22  1  -0.32186237  -0.74107465  -0.95932665  1.0
  Ge  Ge23  1  0.32186237  -0.25892535  -0.04067335  1.0
  Cd  Cd24  1  0.42695535  -0.64199849  -0.39596877  1.0
  Cd  Cd25  1  -0.42695535  -0.35800151  -0.60403123  1.0
  Cd  Cd26  1  -0.77631594  -0.76073225  -0.88973208  1.0
  Cd  Cd27  1  0.77631594  -0.23926775  -0.11026792  1.0
