# generated using pymatgen
data_Rb2BiF5
_symmetry_space_group_name_H-M   'P 1'
_cell_length_a   8.74055367
_cell_length_b   6.47304216
_cell_length_c   12.93318844
_cell_angle_alpha   90.00000000
_cell_angle_beta   90.00000000
_cell_angle_gamma   90.00000000
_symmetry_Int_Tables_number   1
_chemical_formula_structural   Rb2BiF5
_chemical_formula_sum   'Rb8 Bi4 F20'
_cell_volume   731.73357854
_cell_formula_units_Z   4
loop_
 _symmetry_equiv_pos_site_id
 _symmetry_equiv_pos_as_xyz
  1  'x, y, z'
loop_
 _atom_site_type_symbol
 _atom_site_label
 _atom_site_symmetry_multiplicity
 _atom_site_fract_x
 _atom_site_fract_y
 _atom_site_fract_z
 _atom_site_occupancy
  Rb  Rb0  1  0.85847689  0.75000000  0.41894671  1.0
  Rb  Rb1  1  0.35847689  0.75000000  0.08105329  1.0
  Rb  Rb2  1  0.14152311  0.25000000  0.58105329  1.0
  Rb  Rb3  1  0.64152311  0.25000000  0.91894671  1.0
  Rb  Rb4  1  0.47875445  0.75000000  0.74751981  1.0
  Rb  Rb5  1  -0.02124555  0.75000000  0.75248019  1.0
  Rb  Rb6  1  0.52124555  0.25000000  0.25248019  1.0
  Rb  Rb7  1  1.02124555  0.25000000  0.24751981  1.0
  Bi  Bi8  1  0.82034536  0.75000000  0.05673891  1.0
  Bi  Bi9  1  0.32034536  0.75000000  0.44326109  1.0
  Bi  Bi10  1  0.17965464  0.25000000  0.94326109  1.0
  Bi  Bi11  1  0.67965464  0.25000000  0.55673891  1.0
  F  F12  1  0.65050704  0.99182996  0.09819476  1.0
  F  F13  1  0.65050704  0.50817004  0.09819476  1.0
  F  F14  1  0.15050704  0.99182996  0.40180524  1.0
  F  F15  1  0.15050704  0.50817004  0.40180524  1.0
  F  F16  1  0.34949296  0.49182996  0.90180524  1.0
  F  F17  1  0.34949296  0.00817004  0.90180524  1.0
  F  F18  1  0.84949296  0.49182996  0.59819476  1.0
  F  F19  1  0.84949296  0.00817004  0.59819476  1.0
  F  F20  1  0.92777428  0.75000000  0.21292123  1.0
  F  F21  1  0.42777428  0.75000000  0.28707877  1.0
  F  F22  1  0.07222572  0.25000000  0.78707877  1.0
  F  F23  1  0.57222572  0.25000000  0.71292123  1.0
  F  F24  1  0.72480863  0.75000000  0.88911867  1.0
  F  F25  1  0.22480863  0.75000000  0.61088133  1.0
  F  F26  1  0.27519137  0.25000000  0.11088133  1.0
  F  F27  1  0.77519137  0.25000000  0.38911867  1.0
  F  F28  1  0.00000000  0.00000000  0.00000000  1.0
  F  F29  1  0.00000000  0.50000000  0.00000000  1.0
  F  F30  1  0.50000000  0.00000000  0.50000000  1.0
  F  F31  1  0.50000000  0.50000000  0.50000000  1.0
