# generated using pymatgen
data_PF5
_symmetry_space_group_name_H-M   'P 1'
_cell_length_a   5.95026532
_cell_length_b   5.95026532
_cell_length_c   6.75943359
_cell_angle_alpha   90.00000000
_cell_angle_beta   90.00000000
_cell_angle_gamma   120.00000000
_symmetry_Int_Tables_number   1
_chemical_formula_structural   PF5
_chemical_formula_sum   'P2 F10'
_cell_volume   207.25909587
_cell_formula_units_Z   2
loop_
 _symmetry_equiv_pos_site_id
 _symmetry_equiv_pos_as_xyz
  1  'x, y, z'
loop_
 _atom_site_type_symbol
 _atom_site_label
 _atom_site_symmetry_multiplicity
 _atom_site_fract_x
 _atom_site_fract_y
 _atom_site_fract_z
 _atom_site_occupancy
  P  P0  1  0.33333333  0.66666667  0.25000000  1.0
  P  P1  1  0.66666667  0.33333333  0.75000000  1.0
  F  F2  1  0.18120849  0.81879151  0.25000000  1.0
  F  F3  1  0.18120849  0.36241699  0.25000000  1.0
  F  F4  1  0.81879151  0.18120849  0.75000000  1.0
  F  F5  1  0.81879151  0.63758301  0.75000000  1.0
  F  F6  1  0.63758301  0.81879151  0.25000000  1.0
  F  F7  1  0.36241699  0.18120849  0.75000000  1.0
  F  F8  1  0.33333333  0.66666667  1.01116405  1.0
  F  F9  1  0.33333333  0.66666667  0.48883595  1.0
  F  F10  1  0.66666667  0.33333333  0.51116405  1.0
  F  F11  1  0.66666667  0.33333333  -0.01116405  1.0
