# generated using pymatgen
data_Zn12SiNi4
_symmetry_space_group_name_H-M   'P 1'
_cell_length_a   9.89230011
_cell_length_b   9.89230011
_cell_length_c   9.89230011
_cell_angle_alpha   60.00000000
_cell_angle_beta   60.00000000
_cell_angle_gamma   60.00000000
_symmetry_Int_Tables_number   1
_chemical_formula_structural   Zn12SiNi4
_chemical_formula_sum   'Zn24 Si2 Ni8'
_cell_volume   684.50535969
_cell_formula_units_Z   2
loop_
 _symmetry_equiv_pos_site_id
 _symmetry_equiv_pos_as_xyz
  1  'x, y, z'
loop_
 _atom_site_type_symbol
 _atom_site_label
 _atom_site_symmetry_multiplicity
 _atom_site_fract_x
 _atom_site_fract_y
 _atom_site_fract_z
 _atom_site_occupancy
  Zn  Zn0  1  0.95593149  -0.59070954  0.67884656  1.0
  Zn  Zn1  1  -0.04406851  0.67884656  0.40929046  1.0
  Zn  Zn2  1  -0.15929046  0.29406851  0.29406851  1.0
  Zn  Zn3  1  0.57115344  0.29406851  0.29406851  1.0
  Zn  Zn4  1  -0.59070954  0.95593149  0.67884656  1.0
  Zn  Zn5  1  0.95593149  -0.04406851  0.67884656  1.0
  Zn  Zn6  1  0.95593149  -0.32115344  0.95593149  1.0
  Zn  Zn7  1  -0.59070954  0.67884656  0.95593149  1.0
  Zn  Zn8  1  0.29406851  -0.15929046  0.29406851  1.0
  Zn  Zn9  1  0.29406851  0.29406851  -0.15929046  1.0
  Zn  Zn10  1  0.57115344  0.29406851  -0.15929046  1.0
  Zn  Zn11  1  0.57115344  -0.15929046  0.29406851  1.0
  Zn  Zn12  1  0.67884656  -0.04406851  0.95593149  1.0
  Zn  Zn13  1  -0.59070954  0.95593149  0.95593149  1.0
  Zn  Zn14  1  0.29406851  0.57115344  -0.15929046  1.0
  Zn  Zn15  1  0.29406851  -0.15929046  0.57115344  1.0
  Zn  Zn16  1  -0.32115344  0.95593149  0.40929046  1.0
  Zn  Zn17  1  0.67884656  -0.59070954  0.95593149  1.0
  Zn  Zn18  1  0.95593149  -0.59070954  0.95593149  1.0
  Zn  Zn19  1  -0.04406851  0.95593149  0.40929046  1.0
  Zn  Zn20  1  0.29406851  0.57115344  0.29406851  1.0
  Zn  Zn21  1  -0.15929046  0.57115344  0.29406851  1.0
  Zn  Zn22  1  -0.15929046  0.29406851  0.57115344  1.0
  Zn  Zn23  1  0.29406851  0.29406851  0.57115344  1.0
  Si  Si24  1  0.50000000  0.50000000  -0.50000000  1.0
  Si  Si25  1  0.75000000  -0.25000000  0.75000000  1.0
  Ni  Ni26  1  0.66794524  -0.33205476  0.99616428  1.0
  Ni  Ni27  1  0.66794524  -0.00383572  0.66794524  1.0
  Ni  Ni28  1  0.58205476  -0.41794524  0.58205476  1.0
  Ni  Ni29  1  1.25383572  -0.41794524  0.58205476  1.0
  Ni  Ni30  1  0.99616428  -0.33205476  0.66794524  1.0
  Ni  Ni31  1  0.66794524  -0.33205476  0.66794524  1.0
  Ni  Ni32  1  0.58205476  0.25383572  0.58205476  1.0
  Ni  Ni33  1  0.58205476  -0.41794524  1.25383572  1.0
