# generated using pymatgen
data_Ca3Tl2O6
_symmetry_space_group_name_H-M   'P 1'
_cell_length_a   11.37734919
_cell_length_b   16.71838424
_cell_length_c   3.37318290
_cell_angle_alpha   90.00000000
_cell_angle_beta   90.00000000
_cell_angle_gamma   90.00000000
_symmetry_Int_Tables_number   1
_chemical_formula_structural   Ca3Tl2O6
_chemical_formula_sum   'Ca12 Tl8 O24'
_cell_volume   641.61614018
_cell_formula_units_Z   4
loop_
 _symmetry_equiv_pos_site_id
 _symmetry_equiv_pos_as_xyz
  1  'x, y, z'
loop_
 _atom_site_type_symbol
 _atom_site_label
 _atom_site_symmetry_multiplicity
 _atom_site_fract_x
 _atom_site_fract_y
 _atom_site_fract_z
 _atom_site_occupancy
  Ca  Ca0  1  0.36679896  0.96050103  0.00000000  1.0
  Ca  Ca1  1  0.86679896  0.53949897  0.00000000  1.0
  Ca  Ca2  1  0.63320104  0.03949897  0.00000000  1.0
  Ca  Ca3  1  0.13320104  0.46050103  0.00000000  1.0
  Ca  Ca4  1  0.32779575  0.72539124  0.00000000  1.0
  Ca  Ca5  1  0.82779575  0.77460876  0.00000000  1.0
  Ca  Ca6  1  0.67220425  0.27460876  0.00000000  1.0
  Ca  Ca7  1  0.17220425  0.22539124  0.00000000  1.0
  Ca  Ca8  1  0.10374674  0.85509361  0.00000000  1.0
  Ca  Ca9  1  0.60374674  0.64490639  0.00000000  1.0
  Ca  Ca10  1  0.89625326  0.14490639  0.00000000  1.0
  Ca  Ca11  1  0.39625326  0.35509361  0.00000000  1.0
  Tl  Tl12  1  0.36503147  0.54574182  0.50000000  1.0
  Tl  Tl13  1  0.86503147  0.95425818  0.50000000  1.0
  Tl  Tl14  1  0.63496853  0.45425818  0.50000000  1.0
  Tl  Tl15  1  0.13496853  0.04574182  0.50000000  1.0
  Tl  Tl16  1  0.08408553  0.64937268  0.50000000  1.0
  Tl  Tl17  1  0.58408553  0.85062732  0.50000000  1.0
  Tl  Tl18  1  0.91591447  0.35062732  0.50000000  1.0
  Tl  Tl19  1  0.41591447  0.14937268  0.50000000  1.0
  O  O20  1  0.44678286  0.66025985  0.50000000  1.0
  O  O21  1  0.94678286  0.83974015  0.50000000  1.0
  O  O22  1  0.55321714  0.33974015  0.50000000  1.0
  O  O23  1  0.05321714  0.16025985  0.50000000  1.0
  O  O24  1  0.21931726  0.93237748  0.50000000  1.0
  O  O25  1  0.71931726  0.56762252  0.50000000  1.0
  O  O26  1  0.78068274  0.06762252  0.50000000  1.0
  O  O27  1  0.28068274  0.43237748  0.50000000  1.0
  O  O28  1  0.19160279  0.76235720  0.50000000  1.0
  O  O29  1  0.69160279  0.73764280  0.50000000  1.0
  O  O30  1  0.80839721  0.23764280  0.50000000  1.0
  O  O31  1  0.30839721  0.26235720  0.50000000  1.0
  O  O32  1  0.45561027  0.83361820  0.00000000  1.0
  O  O33  1  0.95561027  0.66638180  0.00000000  1.0
  O  O34  1  0.54438973  0.16638180  0.00000000  1.0
  O  O35  1  0.04438973  0.33361820  0.00000000  1.0
  O  O36  1  0.21546595  0.59612094  0.00000000  1.0
  O  O37  1  0.71546595  0.90387906  0.00000000  1.0
  O  O38  1  0.78453405  0.40387906  0.00000000  1.0
  O  O39  1  0.28453405  0.09612094  0.00000000  1.0
  O  O40  1  0.50000000  0.00000000  0.50000000  1.0
  O  O41  1  0.00000000  0.50000000  0.50000000  1.0
  O  O42  1  0.50000000  0.50000000  0.00000000  1.0
  O  O43  1  0.00000000  0.00000000  0.00000000  1.0
