# generated using pymatgen
data_Gd2Hf3Ge4
_symmetry_space_group_name_H-M   'P 1'
_cell_length_a   7.42196015
_cell_length_b   7.42196015
_cell_length_c   13.62795953
_cell_angle_alpha   90.00000000
_cell_angle_beta   90.00000000
_cell_angle_gamma   90.00000000
_symmetry_Int_Tables_number   1
_chemical_formula_structural   Gd2Hf3Ge4
_chemical_formula_sum   'Gd8 Hf12 Ge16'
_cell_volume   750.70286324
_cell_formula_units_Z   4
loop_
 _symmetry_equiv_pos_site_id
 _symmetry_equiv_pos_as_xyz
  1  'x, y, z'
loop_
 _atom_site_type_symbol
 _atom_site_label
 _atom_site_symmetry_multiplicity
 _atom_site_fract_x
 _atom_site_fract_y
 _atom_site_fract_z
 _atom_site_occupancy
  Gd  Gd0  1  0.50001903  0.83786109  0.03144562  1.0
  Gd  Gd1  1  1.00001903  0.66213891  0.71855438  1.0
  Gd  Gd2  1  0.16213891  0.49998097  0.46855438  1.0
  Gd  Gd3  1  0.66213891  1.00001903  0.28144562  1.0
  Gd  Gd4  1  0.49998097  0.16213891  0.53144562  1.0
  Gd  Gd5  1  -0.00001903  0.33786109  0.21855438  1.0
  Gd  Gd6  1  0.83786109  0.50001903  0.96855438  1.0
  Gd  Gd7  1  0.33786109  -0.00001903  0.78144562  1.0
  Hf  Hf8  1  0.33920964  0.49635635  0.87501598  1.0
  Hf  Hf9  1  0.83920964  1.00364365  0.87498402  1.0
  Hf  Hf10  1  0.50364365  0.66079036  0.62498402  1.0
  Hf  Hf11  1  1.00364365  0.83920964  0.12501598  1.0
  Hf  Hf12  1  0.66079036  0.50364365  0.37501598  1.0
  Hf  Hf13  1  0.16079036  -0.00364365  0.37498402  1.0
  Hf  Hf14  1  0.49635635  0.33920964  0.12498402  1.0
  Hf  Hf15  1  -0.00364365  0.16079036  0.62501598  1.0
  Hf  Hf16  1  0.33123692  0.66876308  0.25000000  1.0
  Hf  Hf17  1  0.83123692  0.83123692  0.50000000  1.0
  Hf  Hf18  1  0.66876308  0.33123692  0.75000000  1.0
  Hf  Hf19  1  0.16876308  0.16876308  0.00000000  1.0
  Ge  Ge20  1  0.20346805  0.53296501  0.06871609  1.0
  Ge  Ge21  1  0.70346805  0.96703499  0.68128391  1.0
  Ge  Ge22  1  0.46703499  0.79653195  0.43128391  1.0
  Ge  Ge23  1  0.96703499  0.70346805  0.31871609  1.0
  Ge  Ge24  1  0.79653195  0.46703499  0.56871609  1.0
  Ge  Ge25  1  0.29653195  0.03296501  0.18128391  1.0
  Ge  Ge26  1  0.53296501  0.20346805  0.93128391  1.0
  Ge  Ge27  1  0.03296501  0.29653195  0.81871609  1.0
  Ge  Ge28  1  0.12946602  0.80113919  0.92734121  1.0
  Ge  Ge29  1  0.62946602  0.69886081  0.82265879  1.0
  Ge  Ge30  1  0.19886081  0.87053398  0.57265879  1.0
  Ge  Ge31  1  0.69886081  0.62946602  0.17734121  1.0
  Ge  Ge32  1  0.87053398  0.19886081  0.42734121  1.0
  Ge  Ge33  1  0.37053398  0.30113919  0.32265879  1.0
  Ge  Ge34  1  0.80113919  0.12946602  0.07265879  1.0
  Ge  Ge35  1  0.30113919  0.37053398  0.67734121  1.0
