# generated using pymatgen
data_K11LiMn4O16
_symmetry_space_group_name_H-M   'P 1'
_cell_length_a   10.39835725
_cell_length_b   10.39835725
_cell_length_c   10.39835725
_cell_angle_alpha   134.87552066
_cell_angle_beta   134.87552066
_cell_angle_gamma   65.72367390
_symmetry_Int_Tables_number   1
_chemical_formula_structural   K11LiMn4O16
_chemical_formula_sum   'K11 Li1 Mn4 O16'
_cell_volume   556.13167035
_cell_formula_units_Z   1
loop_
 _symmetry_equiv_pos_site_id
 _symmetry_equiv_pos_as_xyz
  1  'x, y, z'
loop_
 _atom_site_type_symbol
 _atom_site_label
 _atom_site_symmetry_multiplicity
 _atom_site_fract_x
 _atom_site_fract_y
 _atom_site_fract_z
 _atom_site_occupancy
  K  K0  1  0.57675122  1.17891162  1.00000000  1.0
  K  K1  1  0.82108838  0.82108838  1.39783960  1.0
  K  K2  1  0.42324878  0.42324878  0.60216040  1.0
  K  K3  1  1.17891162  0.57675122  1.00000000  1.0
  K  K4  1  0.21147349  0.21147349  0.00000000  1.0
  K  K5  1  0.78852651  0.78852651  1.00000000  1.0
  K  K6  1  0.25000000  0.75000000  0.50000000  1.0
  K  K7  1  0.75000000  0.25000000  0.50000000  1.0
  K  K8  1  0.00000000  0.50000000  0.50000000  1.0
  K  K9  1  0.50000000  0.00000000  0.50000000  1.0
  K  K10  1  0.00000000  0.00000000  0.00000000  1.0
  Li  Li11  1  0.50000000  0.50000000  1.00000000  1.0
  Mn  Mn12  1  0.36811500  0.88277792  1.00000000  1.0
  Mn  Mn13  1  1.11722208  1.11722208  1.48533708  1.0
  Mn  Mn14  1  0.63188500  0.63188500  0.51466292  1.0
  Mn  Mn15  1  0.88277792  0.36811500  1.00000000  1.0
  O  O16  1  0.14611325  0.83450120  0.75587556  1.0
  O  O17  1  0.92137436  1.16549880  1.31161205  1.0
  O  O18  1  0.39023769  1.07862564  1.24412444  1.0
  O  O19  1  1.16549880  0.92137436  1.31161205  1.0
  O  O20  1  0.85388675  0.60976231  0.68838795  1.0
  O  O21  1  1.07862564  0.39023769  1.24412444  1.0
  O  O22  1  0.60976231  0.85388675  0.68838795  1.0
  O  O23  1  0.83450120  0.14611325  0.75587556  1.0
  O  O24  1  0.50844913  0.92824170  1.00000000  1.0
  O  O25  1  1.07175830  1.07175830  1.58020743  1.0
  O  O26  1  0.49155087  0.49155087  0.41979257  1.0
  O  O27  1  0.92824170  0.50844913  1.00000000  1.0
  O  O28  1  0.42129253  0.70384442  1.00000000  1.0
  O  O29  1  1.29615558  1.29615558  1.71744811  1.0
  O  O30  1  0.57870747  0.57870747  0.28255189  1.0
  O  O31  1  0.70384442  0.42129253  1.00000000  1.0
