# generated using pymatgen
data_Li2AgSn2
_symmetry_space_group_name_H-M   'P 1'
_cell_length_a   10.65343974
_cell_length_b   10.65343974
_cell_length_c   10.65343974
_cell_angle_alpha   154.97143734
_cell_angle_beta   154.97143734
_cell_angle_gamma   35.68915281
_symmetry_Int_Tables_number   1
_chemical_formula_structural   Li2AgSn2
_chemical_formula_sum   'Li4 Ag2 Sn4'
_cell_volume   216.15555282
_cell_formula_units_Z   2
loop_
 _symmetry_equiv_pos_site_id
 _symmetry_equiv_pos_as_xyz
  1  'x, y, z'
loop_
 _atom_site_type_symbol
 _atom_site_label
 _atom_site_symmetry_multiplicity
 _atom_site_fract_x
 _atom_site_fract_y
 _atom_site_fract_z
 _atom_site_occupancy
  Li  Li0  1  0.82531465  0.82531465  -0.00000000  1.0
  Li  Li1  1  0.57531465  0.07531465  0.50000000  1.0
  Li  Li2  1  0.92468535  1.42468535  0.50000000  1.0
  Li  Li3  1  1.17468535  1.17468535  1.00000000  1.0
  Ag  Ag4  1  0.75000000  1.25000000  0.50000000  1.0
  Ag  Ag5  1  0.00000000  0.00000000  0.00000000  1.0
  Sn  Sn6  1  1.32829218  1.32829218  1.00000000  1.0
  Sn  Sn7  1  0.07829218  0.57829218  0.50000000  1.0
  Sn  Sn8  1  1.42170782  0.92170782  0.50000000  1.0
  Sn  Sn9  1  0.67170782  0.67170782  -0.00000000  1.0
