# generated using pymatgen
data_YScO3
_symmetry_space_group_name_H-M   'P 1'
_cell_length_a   5.73748404
_cell_length_b   7.99104103
_cell_length_c   5.45162881
_cell_angle_alpha   90.00000000
_cell_angle_beta   90.00000000
_cell_angle_gamma   90.00000000
_symmetry_Int_Tables_number   1
_chemical_formula_structural   YScO3
_chemical_formula_sum   'Y4 Sc4 O12'
_cell_volume   249.94884198
_cell_formula_units_Z   4
loop_
 _symmetry_equiv_pos_site_id
 _symmetry_equiv_pos_as_xyz
  1  'x, y, z'
loop_
 _atom_site_type_symbol
 _atom_site_label
 _atom_site_symmetry_multiplicity
 _atom_site_fract_x
 _atom_site_fract_y
 _atom_site_fract_z
 _atom_site_occupancy
  Y  Y0  1  0.06155157  0.75000000  0.52020143  1.0
  Y  Y1  1  0.56155157  0.75000000  0.97979857  1.0
  Y  Y2  1  0.93844843  0.25000000  0.47979857  1.0
  Y  Y3  1  0.43844843  0.25000000  0.02020143  1.0
  Sc  Sc4  1  0.50000000  0.00000000  0.50000000  1.0
  Sc  Sc5  1  0.50000000  0.50000000  0.50000000  1.0
  Sc  Sc6  1  0.00000000  0.00000000  0.00000000  1.0
  Sc  Sc7  1  0.00000000  0.50000000  0.00000000  1.0
  O  O8  1  0.30576867  0.93095795  0.80834836  1.0
  O  O9  1  0.30576867  0.56904205  0.80834836  1.0
  O  O10  1  0.80576867  0.93095795  0.69165164  1.0
  O  O11  1  0.80576867  0.56904205  0.69165164  1.0
  O  O12  1  0.69423133  0.43095795  0.19165164  1.0
  O  O13  1  0.69423133  0.06904205  0.19165164  1.0
  O  O14  1  0.19423133  0.43095795  0.30834836  1.0
  O  O15  1  0.19423133  0.06904205  0.30834836  1.0
  O  O16  1  0.94143986  0.75000000  0.13122035  1.0
  O  O17  1  0.44143986  0.75000000  0.36877965  1.0
  O  O18  1  0.05856014  0.25000000  0.86877965  1.0
  O  O19  1  0.55856014  0.25000000  0.63122035  1.0
