# generated using pymatgen
data_BeAlSiO5
_symmetry_space_group_name_H-M   'P 1'
_cell_length_a   4.62302392
_cell_length_b   14.55541858
_cell_length_c   4.84102339
_cell_angle_alpha   90.00000000
_cell_angle_beta   99.07190832
_cell_angle_gamma   90.00000000
_symmetry_Int_Tables_number   1
_chemical_formula_structural   BeAlSiO5
_chemical_formula_sum   'Be4 Al4 Si4 O20'
_cell_volume   321.67793216
_cell_formula_units_Z   4
loop_
 _symmetry_equiv_pos_site_id
 _symmetry_equiv_pos_as_xyz
  1  'x, y, z'
loop_
 _atom_site_type_symbol
 _atom_site_label
 _atom_site_symmetry_multiplicity
 _atom_site_fract_x
 _atom_site_fract_y
 _atom_site_fract_z
 _atom_site_occupancy
  Si  Si0  1  0.53921261  0.39831179  0.18127780  1.0
  Si  Si1  1  0.53921261  0.10168821  0.68127780  1.0
  Si  Si2  1  0.46078739  0.89831179  0.31872220  1.0
  Si  Si3  1  0.46078739  0.60168821  0.81872220  1.0
  Be  Be4  1  0.45692471  0.20021452  0.18206670  1.0
  Be  Be5  1  0.45692471  0.29978548  0.68206670  1.0
  Be  Be6  1  0.54307529  0.70021452  0.31793330  1.0
  Be  Be7  1  0.54307529  0.79978548  0.81793330  1.0
  O  O8  1  0.78079756  0.95000032  0.40244812  1.0
  O  O9  1  0.78079756  0.54999968  0.90244812  1.0
  O  O10  1  0.21920244  0.45000032  0.09755188  1.0
  O  O11  1  0.21920244  0.04999968  0.59755188  1.0
  O  O12  1  0.76698172  0.46483754  0.38585573  1.0
  O  O13  1  0.76698172  0.03516246  0.88585573  1.0
  O  O14  1  0.23301828  0.96483754  0.11414427  1.0
  O  O15  1  0.23301828  0.53516246  0.61414427  1.0
  O  O16  1  0.66582923  0.12748171  0.38884819  1.0
  O  O17  1  0.66582923  0.37251829  0.88884819  1.0
  O  O18  1  0.33417077  0.62748171  0.11115181  1.0
  O  O19  1  0.33417077  0.87251829  0.61115181  1.0
  O  O20  1  0.49853971  0.30081095  0.34719252  1.0
  O  O21  1  0.49853971  0.19918905  0.84719252  1.0
  O  O22  1  0.50146029  0.80081095  0.15280748  1.0
  O  O23  1  0.50146029  0.69918905  0.65280748  1.0
  O  O24  1  0.87614554  0.66491165  0.34363621  1.0
  O  O25  1  0.87614554  0.83508835  0.84363621  1.0
  O  O26  1  0.12385446  0.16491165  0.15636379  1.0
  O  O27  1  0.12385446  0.33508835  0.65636379  1.0
  Al  Al28  1  0.95882373  0.05496167  0.24963363  1.0
  Al  Al29  1  0.95882373  0.44503833  0.74963363  1.0
  Al  Al30  1  0.04117627  0.55496167  0.25036637  1.0
  Al  Al31  1  0.04117627  0.94503833  0.75036637  1.0
