# generated using pymatgen
data_ZrCl2
_symmetry_space_group_name_H-M   'P 1'
_cell_length_a   7.70138490
_cell_length_b   7.70138490
_cell_length_c   7.70138490
_cell_angle_alpha   25.59844183
_cell_angle_beta   25.59844183
_cell_angle_gamma   25.59844183
_symmetry_Int_Tables_number   1
_chemical_formula_structural   ZrCl2
_chemical_formula_sum   'Zr1 Cl2'
_cell_volume   75.07355810
_cell_formula_units_Z   1
loop_
 _symmetry_equiv_pos_site_id
 _symmetry_equiv_pos_as_xyz
  1  'x, y, z'
loop_
 _atom_site_type_symbol
 _atom_site_label
 _atom_site_symmetry_multiplicity
 _atom_site_fract_x
 _atom_site_fract_y
 _atom_site_fract_z
 _atom_site_occupancy
  Zr  Zr0  1  0.57807846  0.57807846  -0.42192154  1.0
  Cl  Cl1  1  -0.01196326  -0.01196326  -0.01196326  1.0
  Cl  Cl2  1  0.83478480  -0.16521520  -0.16521520  1.0
