# generated using pymatgen
data_Bi3Rh
_symmetry_space_group_name_H-M   'P 1'
_cell_length_a   8.96023932
_cell_length_b   4.30281887
_cell_length_c   11.58120260
_cell_angle_alpha   90.00000000
_cell_angle_beta   90.00000000
_cell_angle_gamma   90.00000000
_symmetry_Int_Tables_number   1
_chemical_formula_structural   Bi3Rh
_chemical_formula_sum   'Bi12 Rh4'
_cell_volume   446.50500720
_cell_formula_units_Z   4
loop_
 _symmetry_equiv_pos_site_id
 _symmetry_equiv_pos_as_xyz
  1  'x, y, z'
loop_
 _atom_site_type_symbol
 _atom_site_label
 _atom_site_symmetry_multiplicity
 _atom_site_fract_x
 _atom_site_fract_y
 _atom_site_fract_z
 _atom_site_occupancy
  Bi  Bi0  1  0.90477846  0.75000000  0.67796783  1.0
  Bi  Bi1  1  0.40477846  0.75000000  0.82203217  1.0
  Bi  Bi2  1  0.09522154  0.25000000  0.32203217  1.0
  Bi  Bi3  1  0.59522154  0.25000000  0.17796783  1.0
  Bi  Bi4  1  0.89649515  0.75000000  0.09314640  1.0
  Bi  Bi5  1  0.39649515  0.75000000  0.40685360  1.0
  Bi  Bi6  1  0.10350485  0.25000000  0.90685360  1.0
  Bi  Bi7  1  0.60350485  0.25000000  0.59314640  1.0
  Bi  Bi8  1  0.80172805  0.75000000  0.38836023  1.0
  Bi  Bi9  1  0.30172805  0.75000000  0.11163977  1.0
  Bi  Bi10  1  0.19827195  0.25000000  0.61163977  1.0
  Bi  Bi11  1  0.69827195  0.25000000  0.88836023  1.0
  Rh  Rh12  1  0.60118960  0.75000000  0.02112885  1.0
  Rh  Rh13  1  0.10118960  0.75000000  0.47887115  1.0
  Rh  Rh14  1  0.39881040  0.25000000  0.97887115  1.0
  Rh  Rh15  1  0.89881040  0.25000000  0.52112885  1.0
