# generated using pymatgen
data_VPNO6
_symmetry_space_group_name_H-M   'P 1'
_cell_length_a   6.87001299
_cell_length_b   5.63697214
_cell_length_c   7.98965036
_cell_angle_alpha   90.00000000
_cell_angle_beta   81.26267321
_cell_angle_gamma   90.00000000
_symmetry_Int_Tables_number   1
_chemical_formula_structural   VPNO6
_chemical_formula_sum   'V2 P2 N2 O12'
_cell_volume   305.81713822
_cell_formula_units_Z   2
loop_
 _symmetry_equiv_pos_site_id
 _symmetry_equiv_pos_as_xyz
  1  'x, y, z'
loop_
 _atom_site_type_symbol
 _atom_site_label
 _atom_site_symmetry_multiplicity
 _atom_site_fract_x
 _atom_site_fract_y
 _atom_site_fract_z
 _atom_site_occupancy
  V  V0  1  0.71570175  0.26457798  0.15517203  1.0
  V  V1  1  0.28429825  0.76457798  0.84482797  1.0
  O  O2  1  0.92904017  0.38229982  0.25766960  1.0
  O  O3  1  0.07095983  0.88229982  0.74233040  1.0
  O  O4  1  0.98342772  0.33423412  0.71185306  1.0
  O  O5  1  0.01657228  0.83423412  0.28814694  1.0
  O  O6  1  0.82375922  0.06916122  0.96872725  1.0
  O  O7  1  0.17624078  0.56916122  0.03127275  1.0
  O  O8  1  0.39270851  -0.00647056  0.90500906  1.0
  O  O9  1  0.60729149  0.49352944  0.09499094  1.0
  O  O10  1  0.55768273  0.12774143  0.29451402  1.0
  O  O11  1  0.44231727  0.62774143  0.70548598  1.0
  O  O12  1  0.71464915  -0.00909296  0.64211568  1.0
  O  O13  1  0.28535085  0.49090704  0.35788432  1.0
  N  N14  1  0.29292969  0.30209635  0.41744041  1.0
  N  N15  1  0.70707031  0.80209635  0.58255959  1.0
  P  P16  1  0.93778385  0.09935261  0.78891583  1.0
  P  P17  1  0.06221615  0.59935261  0.21108417  1.0
