# generated using pymatgen
data_CeFeB4
_symmetry_space_group_name_H-M   'P 1'
_cell_length_a   5.94682677
_cell_length_b   11.53042534
_cell_length_c   3.46320075
_cell_angle_alpha   90.00000000
_cell_angle_beta   90.00000000
_cell_angle_gamma   90.00000000
_symmetry_Int_Tables_number   1
_chemical_formula_structural   CeFeB4
_chemical_formula_sum   'Ce4 Fe4 B16'
_cell_volume   237.46974306
_cell_formula_units_Z   4
loop_
 _symmetry_equiv_pos_site_id
 _symmetry_equiv_pos_as_xyz
  1  'x, y, z'
loop_
 _atom_site_type_symbol
 _atom_site_label
 _atom_site_symmetry_multiplicity
 _atom_site_fract_x
 _atom_site_fract_y
 _atom_site_fract_z
 _atom_site_occupancy
  Ce  Ce0  1  0.12634032  0.65017733  0.50000000  1.0
  Ce  Ce1  1  0.62634032  0.84982267  0.50000000  1.0
  Ce  Ce2  1  0.87365968  0.34982267  0.50000000  1.0
  Ce  Ce3  1  0.37365968  0.15017733  0.50000000  1.0
  Fe  Fe4  1  0.13367294  0.91039914  0.50000000  1.0
  Fe  Fe5  1  0.63367294  0.58960086  0.50000000  1.0
  Fe  Fe6  1  0.86632706  0.08960086  0.50000000  1.0
  Fe  Fe7  1  0.36632706  0.41039914  0.50000000  1.0
  B  B8  1  0.47647046  0.68828067  -0.00000000  1.0
  B  B9  1  0.97647046  0.81171933  -0.00000000  1.0
  B  B10  1  0.52352954  0.31171933  -0.00000000  1.0
  B  B11  1  0.02352954  0.18828067  -0.00000000  1.0
  B  B12  1  0.38930080  0.54504857  0.00000000  1.0
  B  B13  1  0.88930080  0.95495143  0.00000000  1.0
  B  B14  1  0.61069920  0.45495143  0.00000000  1.0
  B  B15  1  0.11069920  0.04504857  0.00000000  1.0
  B  B16  1  0.35837170  0.96663466  0.00000000  1.0
  B  B17  1  0.85837170  0.53336534  0.00000000  1.0
  B  B18  1  0.64162830  0.03336534  0.00000000  1.0
  B  B19  1  0.14162830  0.46663466  0.00000000  1.0
  B  B20  1  0.27892340  0.81671475  -0.00000000  1.0
  B  B21  1  0.77892340  0.68328525  0.00000000  1.0
  B  B22  1  0.72107660  0.18328525  -0.00000000  1.0
  B  B23  1  0.22107660  0.31671475  0.00000000  1.0
