# generated using pymatgen
data_Cs4SnO4
_symmetry_space_group_name_H-M   'P 1'
_cell_length_a   11.86181265
_cell_length_b   7.47575296
_cell_length_c   11.86467701
_cell_angle_alpha   90.00000000
_cell_angle_beta   111.05429555
_cell_angle_gamma   90.00000000
_symmetry_Int_Tables_number   1
_chemical_formula_structural   Cs4SnO4
_chemical_formula_sum   'Cs16 Sn4 O16'
_cell_volume   981.87331034
_cell_formula_units_Z   4
loop_
 _symmetry_equiv_pos_site_id
 _symmetry_equiv_pos_as_xyz
  1  'x, y, z'
loop_
 _atom_site_type_symbol
 _atom_site_label
 _atom_site_symmetry_multiplicity
 _atom_site_fract_x
 _atom_site_fract_y
 _atom_site_fract_z
 _atom_site_occupancy
  Cs  Cs0  1  0.92818361  0.82461926  0.79706636  1.0
  Cs  Cs1  1  0.92818361  0.67538074  0.29706636  1.0
  Cs  Cs2  1  0.07181639  0.32461926  0.70293364  1.0
  Cs  Cs3  1  0.07181639  0.17538074  0.20293364  1.0
  Cs  Cs4  1  0.86502545  0.34526336  0.89100901  1.0
  Cs  Cs5  1  0.86502545  0.15473664  0.39100901  1.0
  Cs  Cs6  1  0.13497455  0.84526336  0.60899099  1.0
  Cs  Cs7  1  0.13497455  0.65473664  0.10899099  1.0
  Cs  Cs8  1  0.55599866  0.59060825  0.69332355  1.0
  Cs  Cs9  1  0.55599866  0.90939175  0.19332355  1.0
  Cs  Cs10  1  0.44400134  0.09060825  0.80667645  1.0
  Cs  Cs11  1  0.44400134  0.40939175  0.30667645  1.0
  Cs  Cs12  1  0.34354656  0.61090466  0.90796833  1.0
  Cs  Cs13  1  0.34354656  0.88909534  0.40796833  1.0
  Cs  Cs14  1  0.65645344  0.11090466  0.59203167  1.0
  Cs  Cs15  1  0.65645344  0.38909534  0.09203167  1.0
  Sn  Sn16  1  0.74309543  0.86969124  0.99506666  1.0
  Sn  Sn17  1  0.74309543  0.63030876  0.49506666  1.0
  Sn  Sn18  1  0.25690457  0.36969124  0.50493334  1.0
  Sn  Sn19  1  0.25690457  0.13030876  0.00493334  1.0
  O  O20  1  0.86726243  0.82346496  0.51996505  1.0
  O  O21  1  0.86726243  0.67653504  0.01996505  1.0
  O  O22  1  0.13273757  0.32346496  0.98003495  1.0
  O  O23  1  0.13273757  0.17653504  0.48003495  1.0
  O  O24  1  0.79631716  0.47658402  0.64412688  1.0
  O  O25  1  0.79631716  0.02341598  0.14412688  1.0
  O  O26  1  0.20368284  0.97658402  0.85587312  1.0
  O  O27  1  0.20368284  0.52341598  0.35587312  1.0
  O  O28  1  0.72412124  0.49032723  0.34511986  1.0
  O  O29  1  0.72412124  0.00967277  0.84511986  1.0
  O  O30  1  0.27587876  0.99032723  0.15488014  1.0
  O  O31  1  0.27587876  0.50967277  0.65488014  1.0
  O  O32  1  0.58205010  0.75823857  0.97099963  1.0
  O  O33  1  0.58205010  0.74176143  0.47099963  1.0
  O  O34  1  0.41794990  0.25823857  0.52900037  1.0
  O  O35  1  0.41794990  0.24176143  0.02900037  1.0
