# generated using pymatgen
data_AlSBr3
_symmetry_space_group_name_H-M   'P 1'
_cell_length_a   7.67862467
_cell_length_b   7.67862467
_cell_length_c   7.50062916
_cell_angle_alpha   90.00000000
_cell_angle_beta   90.00000000
_cell_angle_gamma   120.00000000
_symmetry_Int_Tables_number   1
_chemical_formula_structural   AlSBr3
_chemical_formula_sum   'Al2 S2 Br6'
_cell_volume   382.99685298
_cell_formula_units_Z   2
loop_
 _symmetry_equiv_pos_site_id
 _symmetry_equiv_pos_as_xyz
  1  'x, y, z'
loop_
 _atom_site_type_symbol
 _atom_site_label
 _atom_site_symmetry_multiplicity
 _atom_site_fract_x
 _atom_site_fract_y
 _atom_site_fract_z
 _atom_site_occupancy
  Al  Al0  1  0.33333333  0.66666667  0.66073528  1.0
  Al  Al1  1  0.66666667  0.33333333  0.33926472  1.0
  S  S2  1  0.33333333  0.66666667  0.35274510  1.0
  S  S3  1  0.66666667  0.33333333  0.64725490  1.0
  Br  Br4  1  0.33367060  0.16683530  0.25720371  1.0
  Br  Br5  1  0.16683530  0.33367060  0.74279629  1.0
  Br  Br6  1  0.16683530  0.83316470  0.74279629  1.0
  Br  Br7  1  0.83316470  0.16683530  0.25720371  1.0
  Br  Br8  1  0.83316470  0.66632940  0.25720371  1.0
  Br  Br9  1  0.66632940  0.83316470  0.74279629  1.0
