# generated using pymatgen
data_In(TeMo)3
_symmetry_space_group_name_H-M   'P 1'
_cell_length_a   9.64280401
_cell_length_b   9.64280401
_cell_length_c   4.60185011
_cell_angle_alpha   90.00000000
_cell_angle_beta   90.00000000
_cell_angle_gamma   120.00000000
_symmetry_Int_Tables_number   1
_chemical_formula_structural   In(TeMo)3
_chemical_formula_sum   'In2 Te6 Mo6'
_cell_volume   370.56959270
_cell_formula_units_Z   2
loop_
 _symmetry_equiv_pos_site_id
 _symmetry_equiv_pos_as_xyz
  1  'x, y, z'
loop_
 _atom_site_type_symbol
 _atom_site_label
 _atom_site_symmetry_multiplicity
 _atom_site_fract_x
 _atom_site_fract_y
 _atom_site_fract_z
 _atom_site_occupancy
  In  In0  1  0.33333333  0.66666667  0.25000000  1.0
  In  In1  1  0.66666667  0.33333333  0.75000000  1.0
  Te  Te2  1  0.69110405  0.63347611  0.25000000  1.0
  Te  Te3  1  0.63347611  0.94237206  0.75000000  1.0
  Te  Te4  1  0.94237206  0.30889595  0.25000000  1.0
  Te  Te5  1  0.36652389  0.05762794  0.25000000  1.0
  Te  Te6  1  0.30889595  0.36652389  0.75000000  1.0
  Te  Te7  1  0.05762794  0.69110405  0.75000000  1.0
  Mo  Mo8  1  0.02639590  0.85627146  0.25000000  1.0
  Mo  Mo9  1  0.85627146  0.82987556  0.75000000  1.0
  Mo  Mo10  1  0.82987556  0.97360410  0.25000000  1.0
  Mo  Mo11  1  0.14372854  0.17012444  0.25000000  1.0
  Mo  Mo12  1  0.97360410  0.14372854  0.75000000  1.0
  Mo  Mo13  1  0.17012444  0.02639590  0.75000000  1.0
