# generated using pymatgen
data_CsInI4
_symmetry_space_group_name_H-M   'P 1'
_cell_length_a   8.04716923
_cell_length_b   19.64021346
_cell_length_c   8.84718924
_cell_angle_alpha   90.00000000
_cell_angle_beta   108.59271427
_cell_angle_gamma   90.00000000
_symmetry_Int_Tables_number   1
_chemical_formula_structural   CsInI4
_chemical_formula_sum   'Cs4 In4 I16'
_cell_volume   1325.30386890
_cell_formula_units_Z   4
loop_
 _symmetry_equiv_pos_site_id
 _symmetry_equiv_pos_as_xyz
  1  'x, y, z'
loop_
 _atom_site_type_symbol
 _atom_site_label
 _atom_site_symmetry_multiplicity
 _atom_site_fract_x
 _atom_site_fract_y
 _atom_site_fract_z
 _atom_site_occupancy
  Cs  Cs0  1  0.19162702  0.11986835  0.28077689  1.0
  Cs  Cs1  1  0.19162702  0.38013165  0.78077689  1.0
  Cs  Cs2  1  0.80837298  0.61986835  0.21922311  1.0
  Cs  Cs3  1  0.80837298  0.88013165  0.71922311  1.0
  In  In4  1  0.78192556  0.37063133  0.19941898  1.0
  In  In5  1  0.78192556  0.12936867  0.69941898  1.0
  In  In6  1  0.21807444  0.87063133  0.30058102  1.0
  In  In7  1  0.21807444  0.62936867  0.80058102  1.0
  I  I8  1  0.87269236  0.82671572  0.20098190  1.0
  I  I9  1  0.87269236  0.67328428  0.70098190  1.0
  I  I10  1  0.12730764  0.32671572  0.29901810  1.0
  I  I11  1  0.12730764  0.17328428  0.79901810  1.0
  I  I12  1  0.72849669  0.04767904  0.43193685  1.0
  I  I13  1  0.72849669  0.45232096  0.93193685  1.0
  I  I14  1  0.27150331  0.54767904  0.06806315  1.0
  I  I15  1  0.27150331  0.95232096  0.56806315  1.0
  I  I16  1  0.72904140  0.44654168  0.44303057  1.0
  I  I17  1  0.72904140  0.05345832  0.94303057  1.0
  I  I18  1  0.27095860  0.94654168  0.05696943  1.0
  I  I19  1  0.27095860  0.55345832  0.55696943  1.0
  I  I20  1  0.55422246  0.26301479  0.10764561  1.0
  I  I21  1  0.55422246  0.23698521  0.60764561  1.0
  I  I22  1  0.44577754  0.76301479  0.39235439  1.0
  I  I23  1  0.44577754  0.73698521  0.89235439  1.0
