# generated using pymatgen
data_Ba2YCu3SO6
_symmetry_space_group_name_H-M   'P 1'
_cell_length_a   3.81838633
_cell_length_b   4.14470060
_cell_length_c   12.30303081
_cell_angle_alpha   90.00000000
_cell_angle_beta   90.00000000
_cell_angle_gamma   90.00000000
_symmetry_Int_Tables_number   1
_chemical_formula_structural   Ba2YCu3SO6
_chemical_formula_sum   'Ba2 Y1 Cu3 S1 O6'
_cell_volume   194.70860362
_cell_formula_units_Z   1
loop_
 _symmetry_equiv_pos_site_id
 _symmetry_equiv_pos_as_xyz
  1  'x, y, z'
loop_
 _atom_site_type_symbol
 _atom_site_label
 _atom_site_symmetry_multiplicity
 _atom_site_fract_x
 _atom_site_fract_y
 _atom_site_fract_z
 _atom_site_occupancy
  Ba  Ba0  1  0.50000000  0.50000000  0.79708058  1.0
  Ba  Ba1  1  0.50000000  0.50000000  0.20291942  1.0
  Y  Y2  1  0.50000000  0.50000000  0.50000000  1.0
  Cu  Cu3  1  0.00000000  0.00000000  0.62980506  1.0
  Cu  Cu4  1  0.00000000  0.00000000  0.37019494  1.0
  Cu  Cu5  1  0.00000000  0.00000000  0.00000000  1.0
  S  S6  1  0.00000000  0.50000000  0.00000000  1.0
  O  O7  1  0.50000000  0.00000000  0.61375391  1.0
  O  O8  1  0.50000000  0.00000000  0.38624609  1.0
  O  O9  1  0.00000000  0.50000000  0.61775578  1.0
  O  O10  1  0.00000000  0.50000000  0.38224422  1.0
  O  O11  1  0.00000000  0.00000000  0.84400665  1.0
  O  O12  1  0.00000000  0.00000000  0.15599335  1.0
