# generated using pymatgen
data_SrTe3O8
_symmetry_space_group_name_H-M   'P 1'
_cell_length_a   7.03548816
_cell_length_b   7.03548816
_cell_length_c   6.94131918
_cell_angle_alpha   90.00000000
_cell_angle_beta   90.00000000
_cell_angle_gamma   90.00000000
_symmetry_Int_Tables_number   1
_chemical_formula_structural   SrTe3O8
_chemical_formula_sum   'Sr2 Te6 O16'
_cell_volume   343.58206729
_cell_formula_units_Z   2
loop_
 _symmetry_equiv_pos_site_id
 _symmetry_equiv_pos_as_xyz
  1  'x, y, z'
loop_
 _atom_site_type_symbol
 _atom_site_label
 _atom_site_symmetry_multiplicity
 _atom_site_fract_x
 _atom_site_fract_y
 _atom_site_fract_z
 _atom_site_occupancy
  Sr  Sr0  1  0.00000000  0.00000000  0.75000000  1.0
  Sr  Sr1  1  0.00000000  0.00000000  0.25000000  1.0
  Te  Te2  1  0.56613534  0.78385641  0.00000000  1.0
  Te  Te3  1  0.78385641  0.43386466  0.50000000  1.0
  Te  Te4  1  0.43386466  0.21614359  -0.00000000  1.0
  Te  Te5  1  0.21614359  0.56613534  0.50000000  1.0
  Te  Te6  1  -0.00000000  0.50000000  0.00000000  1.0
  Te  Te7  1  0.50000000  0.00000000  0.50000000  1.0
  O  O8  1  0.58826875  0.80603504  0.69347737  1.0
  O  O9  1  0.58826875  0.80603504  0.30652263  1.0
  O  O10  1  0.80603504  0.41173125  0.19347737  1.0
  O  O11  1  0.80603504  0.41173125  0.80652263  1.0
  O  O12  1  0.41173125  0.19396496  0.69347737  1.0
  O  O13  1  0.41173125  0.19396496  0.30652263  1.0
  O  O14  1  0.19396496  0.58826875  0.19347737  1.0
  O  O15  1  0.19396496  0.58826875  0.80652263  1.0
  O  O16  1  0.88437131  0.76174828  -0.00000000  1.0
  O  O17  1  0.76174828  0.11562869  0.50000000  1.0
  O  O18  1  0.11562869  0.23825172  0.00000000  1.0
  O  O19  1  0.23825172  0.88437131  0.50000000  1.0
  O  O20  1  0.31952591  0.95131300  0.00000000  1.0
  O  O21  1  0.95131300  0.68047409  0.50000000  1.0
  O  O22  1  0.68047409  0.04868700  0.00000000  1.0
  O  O23  1  0.04868700  0.31952591  0.50000000  1.0
