# generated using pymatgen
data_C
_symmetry_space_group_name_H-M   'P 1'
_cell_length_a   9.08445236
_cell_length_b   2.52450875
_cell_length_c   4.15463246
_cell_angle_alpha   90.00000000
_cell_angle_beta   90.00000000
_cell_angle_gamma   90.00000000
_symmetry_Int_Tables_number   1
_chemical_formula_structural   C
_chemical_formula_sum   C16
_cell_volume   95.28142470
_cell_formula_units_Z   16
loop_
 _symmetry_equiv_pos_site_id
 _symmetry_equiv_pos_as_xyz
  1  'x, y, z'
loop_
 _atom_site_type_symbol
 _atom_site_label
 _atom_site_symmetry_multiplicity
 _atom_site_fract_x
 _atom_site_fract_y
 _atom_site_fract_z
 _atom_site_occupancy
  C  C0  1  0.69489244  0.75000000  0.42574016  1.0
  C  C1  1  0.19489244  0.75000000  0.07425984  1.0
  C  C2  1  0.30510756  0.25000000  0.57425984  1.0
  C  C3  1  0.80510756  0.25000000  0.92574016  1.0
  C  C4  1  0.68952957  0.25000000  0.20014443  1.0
  C  C5  1  0.18952957  0.25000000  0.29985557  1.0
  C  C6  1  0.31047043  0.75000000  0.79985557  1.0
  C  C7  1  0.81047043  0.75000000  0.70014443  1.0
  C  C8  1  0.02073071  0.25000000  0.40842358  1.0
  C  C9  1  0.52073071  0.25000000  0.09157642  1.0
  C  C10  1  0.97926929  0.75000000  0.59157642  1.0
  C  C11  1  0.47926929  0.75000000  0.90842358  1.0
  C  C12  1  0.96348520  0.25000000  0.06854707  1.0
  C  C13  1  0.46348520  0.25000000  0.43145293  1.0
  C  C14  1  0.03651480  0.75000000  0.93145293  1.0
  C  C15  1  0.53651480  0.75000000  0.56854707  1.0
