# generated using pymatgen
data_ZrTe3O8
_symmetry_space_group_name_H-M   'P 1'
_cell_length_a   10.02551776
_cell_length_b   10.02551776
_cell_length_c   10.02551776
_cell_angle_alpha   109.47122063
_cell_angle_beta   109.47122063
_cell_angle_gamma   109.47122063
_symmetry_Int_Tables_number   1
_chemical_formula_structural   ZrTe3O8
_chemical_formula_sum   'Zr4 Te12 O32'
_cell_volume   775.70848392
_cell_formula_units_Z   4
loop_
 _symmetry_equiv_pos_site_id
 _symmetry_equiv_pos_as_xyz
  1  'x, y, z'
loop_
 _atom_site_type_symbol
 _atom_site_label
 _atom_site_symmetry_multiplicity
 _atom_site_fract_x
 _atom_site_fract_y
 _atom_site_fract_z
 _atom_site_occupancy
  Zr  Zr0  1  1.00000000  0.50000000  1.00000000  1.0
  Zr  Zr1  1  0.50000000  0.50000000  0.50000000  1.0
  Zr  Zr2  1  1.00000000  1.00000000  1.50000000  1.0
  Zr  Zr3  1  1.50000000  1.00000000  1.00000000  1.0
  Te  Te4  1  0.79612796  0.54612796  0.25000000  1.0
  Te  Te5  1  1.29612796  1.04612796  1.25000000  1.0
  Te  Te6  1  0.75000000  0.70387204  0.95387204  1.0
  Te  Te7  1  1.25000000  1.29612796  1.04612796  1.0
  Te  Te8  1  0.25000000  0.79612796  0.54612796  1.0
  Te  Te9  1  0.75000000  1.20387204  0.45387204  1.0
  Te  Te10  1  0.54612796  1.25000000  0.79612796  1.0
  Te  Te11  1  1.04612796  1.25000000  1.29612796  1.0
  Te  Te12  1  0.95387204  0.75000000  0.70387204  1.0
  Te  Te13  1  1.45387204  0.75000000  1.20387204  1.0
  Te  Te14  1  1.20387204  0.45387204  0.75000000  1.0
  Te  Te15  1  0.70387204  0.95387204  0.75000000  1.0
  O  O16  1  0.56949383  0.53402891  0.73563839  1.0
  O  O17  1  1.06949383  1.33385545  1.03546492  1.0
  O  O18  1  0.29839053  0.83385545  0.76436161  1.0
  O  O19  1  0.79839053  1.03402891  0.46453508  1.0
  O  O20  1  0.53546492  1.20160947  0.96597109  1.0
  O  O21  1  1.03546492  1.06949383  1.33385545  1.0
  O  O22  1  0.73563839  0.56949383  0.53402891  1.0
  O  O23  1  1.23563839  0.70160947  1.16614455  1.0
  O  O24  1  0.83385545  0.76436161  0.29839053  1.0
  O  O25  1  1.33385545  1.03546492  1.06949383  1.0
  O  O26  1  0.96597109  1.53546492  1.20160947  1.0
  O  O27  1  1.46597109  1.26436161  1.43050617  1.0
  O  O28  1  1.70160947  1.16614455  1.23563839  1.0
  O  O29  1  1.20160947  0.96597109  1.53546492  1.0
  O  O30  1  1.43050617  1.46597109  1.26436161  1.0
  O  O31  1  0.93050617  0.66614455  0.96453508  1.0
  O  O32  1  1.26436161  1.43050617  1.46597109  1.0
  O  O33  1  0.76436161  1.29839053  0.83385545  1.0
  O  O34  1  1.46453508  0.79839053  1.03402891  1.0
  O  O35  1  0.96453508  0.93050617  0.66614455  1.0
  O  O36  1  1.03402891  0.46453508  0.79839053  1.0
  O  O37  1  0.53402891  0.73563839  0.56949383  1.0
  O  O38  1  1.16614455  1.23563839  1.70160947  1.0
  O  O39  1  0.66614455  0.96453508  0.93050617  1.0
  O  O40  1  0.66273975  1.50000000  1.00000000  1.0
  O  O41  1  1.16273975  1.16273975  1.16273975  1.0
  O  O42  1  1.00000000  0.66273975  1.50000000  1.0
  O  O43  1  1.50000000  1.00000000  1.33726025  1.0
  O  O44  1  1.00000000  1.33726025  1.50000000  1.0
  O  O45  1  0.50000000  1.00000000  0.66273975  1.0
  O  O46  1  1.33726025  0.50000000  1.00000000  1.0
  O  O47  1  0.83726025  0.83726025  0.83726025  1.0
