# generated using pymatgen
data_H2S
_symmetry_space_group_name_H-M   'P 1'
_cell_length_a   4.41433813
_cell_length_b   13.62973168
_cell_length_c   6.86382775
_cell_angle_alpha   90.00000000
_cell_angle_beta   90.00000000
_cell_angle_gamma   90.00000000
_symmetry_Int_Tables_number   1
_chemical_formula_structural   H2S
_chemical_formula_sum   'H16 S8'
_cell_volume   412.97073635
_cell_formula_units_Z   8
loop_
 _symmetry_equiv_pos_site_id
 _symmetry_equiv_pos_as_xyz
  1  'x, y, z'
loop_
 _atom_site_type_symbol
 _atom_site_label
 _atom_site_symmetry_multiplicity
 _atom_site_fract_x
 _atom_site_fract_y
 _atom_site_fract_z
 _atom_site_occupancy
  H  H0  1  0.76257150  0.87013249  0.39414588  1.0
  H  H1  1  0.76257150  0.87013249  0.10585412  1.0
  H  H2  1  0.76257150  0.62986751  0.89414588  1.0
  H  H3  1  0.76257150  0.62986751  0.60585412  1.0
  H  H4  1  0.23742850  0.37013249  0.39414588  1.0
  H  H5  1  0.23742850  0.37013249  0.10585412  1.0
  H  H6  1  0.23742850  0.12986751  0.89414588  1.0
  H  H7  1  0.23742850  0.12986751  0.60585412  1.0
  H  H8  1  0.70609082  0.06325891  0.25000000  1.0
  H  H9  1  0.70609082  0.43674109  0.75000000  1.0
  H  H10  1  0.29390918  0.56325891  0.25000000  1.0
  H  H11  1  0.29390918  0.93674109  0.75000000  1.0
  H  H12  1  0.72013001  0.20866531  0.25000000  1.0
  H  H13  1  0.72013001  0.29133469  0.75000000  1.0
  H  H14  1  0.27986999  0.70866531  0.25000000  1.0
  H  H15  1  0.27986999  0.79133469  0.75000000  1.0
  S  S16  1  1.03207132  0.38674774  0.25000000  1.0
  S  S17  1  1.03207132  0.11325226  0.75000000  1.0
  S  S18  1  -0.03207132  0.88674774  0.25000000  1.0
  S  S19  1  -0.03207132  0.61325226  0.75000000  1.0
  S  S20  1  0.50195189  0.13822897  0.25000000  1.0
  S  S21  1  0.50195189  0.36177103  0.75000000  1.0
  S  S22  1  0.49804811  0.63822897  0.25000000  1.0
  S  S23  1  0.49804811  0.86177103  0.75000000  1.0
