# generated using pymatgen
data_ReC2(IO)2
_symmetry_space_group_name_H-M   'P 1'
_cell_length_a   13.49738006
_cell_length_b   13.49738006
_cell_length_c   13.49738006
_cell_angle_alpha   32.66626123
_cell_angle_beta   32.66626123
_cell_angle_gamma   32.66626123
_symmetry_Int_Tables_number   1
_chemical_formula_structural   ReC2(IO)2
_chemical_formula_sum   'Re3 C6 I6 O6'
_cell_volume   637.14679293
_cell_formula_units_Z   3
loop_
 _symmetry_equiv_pos_site_id
 _symmetry_equiv_pos_as_xyz
  1  'x, y, z'
loop_
 _atom_site_type_symbol
 _atom_site_label
 _atom_site_symmetry_multiplicity
 _atom_site_fract_x
 _atom_site_fract_y
 _atom_site_fract_z
 _atom_site_occupancy
  C  C0  1  0.32927714  -0.08574961  0.11125216  1.0
  C  C1  1  0.88874784  -0.32927714  0.08574961  1.0
  C  C2  1  1.08574961  -0.11125216  -0.32927714  1.0
  C  C3  1  0.67072286  0.08574961  -0.11125216  1.0
  C  C4  1  1.11125216  -0.67072286  -0.08574961  1.0
  C  C5  1  0.91425039  0.11125216  -0.67072286  1.0
  O  O6  1  0.19347646  0.87698989  -0.47585969  1.0
  O  O7  1  0.47585969  -0.19347646  0.12301011  1.0
  O  O8  1  1.12301011  -0.52414031  -0.19347646  1.0
  O  O9  1  0.80652354  0.12301011  -0.52414031  1.0
  O  O10  1  0.52414031  0.19347646  -0.12301011  1.0
  O  O11  1  0.87698989  0.52414031  -0.80652354  1.0
  Re  Re12  1  0.09006507  0.09006507  0.09006507  1.0
  Re  Re13  1  0.90993493  -0.09006507  -0.09006507  1.0
  Re  Re14  1  0.00000000  0.00000000  0.00000000  1.0
  I  I15  1  0.04929437  0.74855734  -0.66990349  1.0
  I  I16  1  0.66990349  -0.04929437  0.25144266  1.0
  I  I17  1  1.25144266  -0.33009651  -0.04929437  1.0
  I  I18  1  0.95070563  0.25144266  -0.33009651  1.0
  I  I19  1  0.33009651  0.04929437  -0.25144266  1.0
  I  I20  1  0.74855734  0.33009651  -0.95070563  1.0
