# generated using pymatgen
data_LiCr(GeO3)2
_symmetry_space_group_name_H-M   'P 1'
_cell_length_a   6.70281485
_cell_length_b   6.70281485
_cell_length_c   5.56025859
_cell_angle_alpha   73.90131096
_cell_angle_beta   106.09868904
_cell_angle_gamma   99.73073795
_symmetry_Int_Tables_number   1
_chemical_formula_structural   LiCr(GeO3)2
_chemical_formula_sum   'Li2 Cr2 Ge4 O12'
_cell_volume   229.45030799
_cell_formula_units_Z   2
loop_
 _symmetry_equiv_pos_site_id
 _symmetry_equiv_pos_as_xyz
  1  'x, y, z'
loop_
 _atom_site_type_symbol
 _atom_site_label
 _atom_site_symmetry_multiplicity
 _atom_site_fract_x
 _atom_site_fract_y
 _atom_site_fract_z
 _atom_site_occupancy
  Li  Li0  1  0.77518252  0.77518252  0.25000000  1.0
  Li  Li1  1  0.22481748  0.22481748  0.75000000  1.0
  Cr  Cr2  1  0.41308970  0.41308970  0.25000000  1.0
  Cr  Cr3  1  0.58691030  0.58691030  0.75000000  1.0
  Ge  Ge4  1  1.30604144  -0.11586027  0.25410092  1.0
  Ge  Ge5  1  1.11586027  -0.30604144  0.75410092  1.0
  Ge  Ge6  1  0.88413973  0.30604144  0.24589908  1.0
  Ge  Ge7  1  0.69395856  0.11586027  0.74589908  1.0
  O  O8  1  1.48950057  -0.30649663  0.35938494  1.0
  O  O9  1  1.30649663  -0.48950057  0.85938494  1.0
  O  O10  1  0.69350337  0.48950057  0.14061506  1.0
  O  O11  1  0.51049943  0.30649663  0.64061506  1.0
  O  O12  1  0.89391907  0.17167898  0.57586192  1.0
  O  O13  1  0.82832102  0.10608093  0.07586192  1.0
  O  O14  1  1.17167898  -0.10608093  0.92413808  1.0
  O  O15  1  1.10608093  -0.17167898  0.42413808  1.0
  O  O16  1  0.42357801  0.13927511  0.21462475  1.0
  O  O17  1  0.86072489  0.57642199  0.71462475  1.0
  O  O18  1  1.13927511  -0.57642199  0.28537525  1.0
  O  O19  1  1.57642199  -0.13927511  0.78537525  1.0
