# generated using pymatgen
data_CdHgAsBr
_symmetry_space_group_name_H-M   'P 1'
_cell_length_a   11.09360257
_cell_length_b   4.78411069
_cell_length_c   10.15398168
_cell_angle_alpha   90.00000000
_cell_angle_beta   90.00000000
_cell_angle_gamma   90.00000000
_symmetry_Int_Tables_number   1
_chemical_formula_structural   CdHgAsBr
_chemical_formula_sum   'Cd4 Hg4 As4 Br4'
_cell_volume   538.90249959
_cell_formula_units_Z   4
loop_
 _symmetry_equiv_pos_site_id
 _symmetry_equiv_pos_as_xyz
  1  'x, y, z'
loop_
 _atom_site_type_symbol
 _atom_site_label
 _atom_site_symmetry_multiplicity
 _atom_site_fract_x
 _atom_site_fract_y
 _atom_site_fract_z
 _atom_site_occupancy
  Cd  Cd0  1  0.92429681  0.50000000  0.28336039  1.0
  Cd  Cd1  1  0.42429681  0.50000000  0.71663961  1.0
  Cd  Cd2  1  0.07570319  0.50000000  0.71663961  1.0
  Cd  Cd3  1  0.57570319  0.50000000  0.28336039  1.0
  Hg  Hg4  1  0.75000000  0.00000000  0.73838267  1.0
  Hg  Hg5  1  0.25000000  0.00000000  0.26161733  1.0
  Hg  Hg6  1  0.00000000  0.00000000  0.00000000  1.0
  Hg  Hg7  1  0.50000000  0.00000000  0.00000000  1.0
  As  As8  1  0.47836469  0.00000000  0.25051034  1.0
  As  As9  1  -0.02163531  0.00000000  0.74948966  1.0
  As  As10  1  0.52163531  0.00000000  0.74948966  1.0
  As  As11  1  1.02163531  0.00000000  0.25051034  1.0
  Br  Br12  1  0.75000000  0.50000000  1.08142398  1.0
  Br  Br13  1  0.25000000  0.50000000  -0.08142398  1.0
  Br  Br14  1  0.75000000  0.50000000  0.47629757  1.0
  Br  Br15  1  0.25000000  0.50000000  0.52370243  1.0
