# generated using pymatgen
data_V3(H3O5)2
_symmetry_space_group_name_H-M   'P 1'
_cell_length_a   8.85221471
_cell_length_b   8.85221471
_cell_length_c   6.08381402
_cell_angle_alpha   90.00000000
_cell_angle_beta   90.00000000
_cell_angle_gamma   90.00000000
_symmetry_Int_Tables_number   1
_chemical_formula_structural   V3(H3O5)2
_chemical_formula_sum   'V6 H12 O20'
_cell_volume   476.73804090
_cell_formula_units_Z   2
loop_
 _symmetry_equiv_pos_site_id
 _symmetry_equiv_pos_as_xyz
  1  'x, y, z'
loop_
 _atom_site_type_symbol
 _atom_site_label
 _atom_site_symmetry_multiplicity
 _atom_site_fract_x
 _atom_site_fract_y
 _atom_site_fract_z
 _atom_site_occupancy
  V  V0  1  0.85985924  0.35985924  0.28252996  1.0
  V  V1  1  0.14014076  0.64014076  0.28252996  1.0
  V  V2  1  0.64014076  0.85985924  0.28252996  1.0
  V  V3  1  0.35985924  0.14014076  0.28252996  1.0
  V  V4  1  0.00000000  0.00000000  0.25014173  1.0
  V  V5  1  0.50000000  0.50000000  0.25014173  1.0
  O  O6  1  0.84422702  0.65577298  0.73508323  1.0
  O  O7  1  0.15577298  0.34422702  0.73508323  1.0
  O  O8  1  0.65577298  0.15577298  0.73508323  1.0
  O  O9  1  0.34422702  0.84422702  0.73508323  1.0
  O  O10  1  0.00000000  0.50000000  0.24107231  1.0
  O  O11  1  0.50000000  0.00000000  0.24107231  1.0
  O  O12  1  0.84245965  0.34245965  0.57141855  1.0
  O  O13  1  0.15754035  0.65754035  0.57141855  1.0
  O  O14  1  0.65754035  0.84245965  0.57141855  1.0
  O  O15  1  0.34245965  0.15754035  0.57141855  1.0
  O  O16  1  0.91489220  0.19381333  0.17165706  1.0
  O  O17  1  0.08510780  0.80618667  0.17165706  1.0
  O  O18  1  0.58510780  0.69381333  0.17165706  1.0
  O  O19  1  0.41489220  0.30618667  0.17165706  1.0
  O  O20  1  0.19381333  0.08510780  0.17165706  1.0
  O  O21  1  0.80618667  0.91489220  0.17165706  1.0
  O  O22  1  0.69381333  0.41489220  0.17165706  1.0
  O  O23  1  0.30618667  0.58510780  0.17165706  1.0
  O  O24  1  0.00000000  0.00000000  0.51135101  1.0
  O  O25  1  0.50000000  0.50000000  0.51135101  1.0
  H  H26  1  0.73437763  0.76562237  0.64087051  1.0
  H  H27  1  0.26562237  0.23437763  0.64087051  1.0
  H  H28  1  0.76562237  0.26562237  0.64087051  1.0
  H  H29  1  0.23437763  0.73437763  0.64087051  1.0
  H  H30  1  0.82540225  0.54942483  0.69765555  1.0
  H  H31  1  0.17459775  0.45057517  0.69765555  1.0
  H  H32  1  0.67459775  0.04942483  0.69765555  1.0
  H  H33  1  0.32540225  0.95057517  0.69765555  1.0
  H  H34  1  0.54942483  0.17459775  0.69765555  1.0
  H  H35  1  0.45057517  0.82540225  0.69765555  1.0
  H  H36  1  0.04942483  0.32540225  0.69765555  1.0
  H  H37  1  0.95057517  0.67459775  0.69765555  1.0
