# generated using pymatgen
data_KCO
_symmetry_space_group_name_H-M   'P 1'
_cell_length_a   7.02383915
_cell_length_b   7.02383915
_cell_length_c   7.02383915
_cell_angle_alpha   147.11338907
_cell_angle_beta   147.11338907
_cell_angle_gamma   47.19592048
_symmetry_Int_Tables_number   1
_chemical_formula_structural   KCO
_chemical_formula_sum   'K2 C2 O2'
_cell_volume   101.77348012
_cell_formula_units_Z   2
loop_
 _symmetry_equiv_pos_site_id
 _symmetry_equiv_pos_as_xyz
  1  'x, y, z'
loop_
 _atom_site_type_symbol
 _atom_site_label
 _atom_site_symmetry_multiplicity
 _atom_site_fract_x
 _atom_site_fract_y
 _atom_site_fract_z
 _atom_site_occupancy
  K  K0  1  0.64289687  0.64289687  1.00000000  1.0
  K  K1  1  0.35710313  0.35710313  -0.00000000  1.0
  C  C2  1  0.95185278  0.95185278  1.00000000  1.0
  C  C3  1  0.04814722  0.04814722  -0.00000000  1.0
  O  O4  1  0.85038802  0.85038802  1.00000000  1.0
  O  O5  1  0.14961198  0.14961198  -0.00000000  1.0
