# generated using pymatgen
data_EuAlGe
_symmetry_space_group_name_H-M   'P 1'
_cell_length_a   8.04773267
_cell_length_b   8.04773267
_cell_length_c   8.04773267
_cell_angle_alpha   148.96199684
_cell_angle_beta   148.96199684
_cell_angle_gamma   44.46724787
_symmetry_Int_Tables_number   1
_chemical_formula_structural   EuAlGe
_chemical_formula_sum   'Eu2 Al2 Ge2'
_cell_volume   138.15369139
_cell_formula_units_Z   2
loop_
 _symmetry_equiv_pos_site_id
 _symmetry_equiv_pos_as_xyz
  1  'x, y, z'
loop_
 _atom_site_type_symbol
 _atom_site_label
 _atom_site_symmetry_multiplicity
 _atom_site_fract_x
 _atom_site_fract_y
 _atom_site_fract_z
 _atom_site_occupancy
  Eu  Eu0  1  0.58245442  0.58245442  1.00000000  1.0
  Eu  Eu1  1  0.33245442  0.83245442  0.50000000  1.0
  Al  Al2  1  0.16510177  0.16510177  0.00000000  1.0
  Al  Al3  1  0.91510177  0.41510177  0.50000000  1.0
  Ge  Ge4  1  -0.00055619  -0.00055619  -0.00000000  1.0
  Ge  Ge5  1  0.74944381  0.24944381  0.50000000  1.0
