# generated using pymatgen
data_K4Hf5O12
_symmetry_space_group_name_H-M   'P 1'
_cell_length_a   5.82296507
_cell_length_b   5.82296507
_cell_length_c   10.44451635
_cell_angle_alpha   90.00000000
_cell_angle_beta   90.00000000
_cell_angle_gamma   120.00000000
_symmetry_Int_Tables_number   1
_chemical_formula_structural   K4Hf5O12
_chemical_formula_sum   'K4 Hf5 O12'
_cell_volume   306.69545213
_cell_formula_units_Z   1
loop_
 _symmetry_equiv_pos_site_id
 _symmetry_equiv_pos_as_xyz
  1  'x, y, z'
loop_
 _atom_site_type_symbol
 _atom_site_label
 _atom_site_symmetry_multiplicity
 _atom_site_fract_x
 _atom_site_fract_y
 _atom_site_fract_z
 _atom_site_occupancy
  K  K0  1  0.33333333  0.66666667  0.11272776  1.0
  K  K1  1  0.66666667  0.33333333  0.88727224  1.0
  K  K2  1  0.00000000  0.00000000  0.32182981  1.0
  K  K3  1  0.00000000  0.00000000  0.67817019  1.0
  Hf  Hf4  1  0.33333333  0.66666667  0.47624657  1.0
  Hf  Hf5  1  0.66666667  0.33333333  0.52375343  1.0
  Hf  Hf6  1  0.33333333  0.66666667  0.78401444  1.0
  Hf  Hf7  1  0.66666667  0.33333333  0.21598556  1.0
  Hf  Hf8  1  0.00000000  0.00000000  0.00000000  1.0
  O  O9  1  0.98095713  0.49047857  0.37761915  1.0
  O  O10  1  0.49047857  0.98095713  0.62238085  1.0
  O  O11  1  0.49047857  0.50952143  0.62238085  1.0
  O  O12  1  0.50952143  0.49047857  0.37761915  1.0
  O  O13  1  0.50952143  0.01904287  0.37761915  1.0
  O  O14  1  0.01904287  0.50952143  0.62238085  1.0
  O  O15  1  0.33045762  0.16522881  0.12109175  1.0
  O  O16  1  0.16522881  0.33045762  0.87890825  1.0
  O  O17  1  0.16522881  0.83477119  0.87890825  1.0
  O  O18  1  0.83477119  0.16522881  0.12109175  1.0
  O  O19  1  0.83477119  0.66954238  0.12109175  1.0
  O  O20  1  0.66954238  0.83477119  0.87890825  1.0
