# generated using pymatgen
data_Rb2MnCl6
_symmetry_space_group_name_H-M   'P 1'
_cell_length_a   7.16309384
_cell_length_b   7.16309384
_cell_length_c   7.16309384
_cell_angle_alpha   60.00000000
_cell_angle_beta   60.00000000
_cell_angle_gamma   60.00000000
_symmetry_Int_Tables_number   1
_chemical_formula_structural   Rb2MnCl6
_chemical_formula_sum   'Rb2 Mn1 Cl6'
_cell_volume   259.88841749
_cell_formula_units_Z   1
loop_
 _symmetry_equiv_pos_site_id
 _symmetry_equiv_pos_as_xyz
  1  'x, y, z'
loop_
 _atom_site_type_symbol
 _atom_site_label
 _atom_site_symmetry_multiplicity
 _atom_site_fract_x
 _atom_site_fract_y
 _atom_site_fract_z
 _atom_site_occupancy
  Rb  Rb0  1  0.75000000  0.75000000  -0.25000000  1.0
  Rb  Rb1  1  1.25000000  0.25000000  0.25000000  1.0
  Mn  Mn2  1  -0.00000000  -0.00000000  0.00000000  1.0
  Cl  Cl3  1  -0.77376534  0.77376534  0.77376534  1.0
  Cl  Cl4  1  -0.22623466  0.22623466  0.77376534  1.0
  Cl  Cl5  1  0.77376534  0.77376534  -0.77376534  1.0
  Cl  Cl6  1  0.22623466  1.22623466  -0.22623466  1.0
  Cl  Cl7  1  0.22623466  -0.22623466  1.22623466  1.0
  Cl  Cl8  1  -0.22623466  0.22623466  0.22623466  1.0
