# generated using pymatgen
data_As3Pb2ClO6
_symmetry_space_group_name_H-M   'P 1'
_cell_length_a   20.05341823
_cell_length_b   5.48924019
_cell_length_c   8.51463133
_cell_angle_alpha   90.00000000
_cell_angle_beta   90.00000000
_cell_angle_gamma   90.00000000
_symmetry_Int_Tables_number   1
_chemical_formula_structural   As3Pb2ClO6
_chemical_formula_sum   'As12 Pb8 Cl4 O24'
_cell_volume   937.27383671
_cell_formula_units_Z   4
loop_
 _symmetry_equiv_pos_site_id
 _symmetry_equiv_pos_as_xyz
  1  'x, y, z'
loop_
 _atom_site_type_symbol
 _atom_site_label
 _atom_site_symmetry_multiplicity
 _atom_site_fract_x
 _atom_site_fract_y
 _atom_site_fract_z
 _atom_site_occupancy
  As  As0  1  0.45411901  0.75000000  0.70072480  1.0
  As  As1  1  0.95411901  0.75000000  0.79927520  1.0
  As  As2  1  0.54588099  0.25000000  0.29927520  1.0
  As  As3  1  0.04588099  0.25000000  0.20072480  1.0
  As  As4  1  0.16428459  0.75000000  0.77392419  1.0
  As  As5  1  0.66428459  0.75000000  0.72607581  1.0
  As  As6  1  0.83571541  0.25000000  0.22607581  1.0
  As  As7  1  0.33571541  0.25000000  0.27392419  1.0
  As  As8  1  0.82502478  0.75000000  0.03210561  1.0
  As  As9  1  0.32502478  0.75000000  0.46789439  1.0
  As  As10  1  0.17497522  0.25000000  0.96789439  1.0
  As  As11  1  0.67497522  0.25000000  0.53210561  1.0
  Pb  Pb12  1  0.44256352  0.75000000  0.11359172  1.0
  Pb  Pb13  1  0.94256352  0.75000000  0.38640828  1.0
  Pb  Pb14  1  0.55743648  0.25000000  0.88640828  1.0
  Pb  Pb15  1  0.05743648  0.25000000  0.61359172  1.0
  Pb  Pb16  1  0.14290033  0.75000000  0.36181514  1.0
  Pb  Pb17  1  0.64290033  0.75000000  0.13818486  1.0
  Pb  Pb18  1  0.85709967  0.25000000  0.63818486  1.0
  Pb  Pb19  1  0.35709967  0.25000000  0.86181514  1.0
  Cl  Cl20  1  0.28951045  0.75000000  0.05726504  1.0
  Cl  Cl21  1  0.78951045  0.75000000  0.44273496  1.0
  Cl  Cl22  1  0.71048955  0.25000000  0.94273496  1.0
  Cl  Cl23  1  0.21048955  0.25000000  0.55726504  1.0
  O  O24  1  0.45124919  0.99179157  0.84568074  1.0
  O  O25  1  0.45124919  0.50820843  0.84568074  1.0
  O  O26  1  0.95124919  0.99179157  0.65431926  1.0
  O  O27  1  0.95124919  0.50820843  0.65431926  1.0
  O  O28  1  0.54875081  0.49179157  0.15431926  1.0
  O  O29  1  0.54875081  0.00820843  0.15431926  1.0
  O  O30  1  0.04875081  0.49179157  0.34568074  1.0
  O  O31  1  0.04875081  0.00820843  0.34568074  1.0
  O  O32  1  0.12210358  0.49687118  0.88684079  1.0
  O  O33  1  0.12210358  0.00312882  0.88684079  1.0
  O  O34  1  0.62210358  0.49687118  0.61315921  1.0
  O  O35  1  0.62210358  0.00312882  0.61315921  1.0
  O  O36  1  0.87789642  0.99687118  0.11315921  1.0
  O  O37  1  0.87789642  0.50312882  0.11315921  1.0
  O  O38  1  0.37789642  0.99687118  0.38684079  1.0
  O  O39  1  0.37789642  0.50312882  0.38684079  1.0
  O  O40  1  0.36082949  0.75000000  0.66499498  1.0
  O  O41  1  0.86082949  0.75000000  0.83500502  1.0
  O  O42  1  0.63917051  0.25000000  0.33500502  1.0
  O  O43  1  0.13917051  0.25000000  0.16499498  1.0
  O  O44  1  0.10348679  0.75000000  0.61955547  1.0
  O  O45  1  0.60348679  0.75000000  0.88044453  1.0
  O  O46  1  0.89651321  0.25000000  0.38044453  1.0
  O  O47  1  0.39651321  0.25000000  0.11955547  1.0
