# generated using pymatgen
data_Li6ZrBeF12
_symmetry_space_group_name_H-M   'P 1'
_cell_length_a   10.50870334
_cell_length_b   10.50870334
_cell_length_c   10.50870334
_cell_angle_alpha   143.11340408
_cell_angle_beta   143.11340408
_cell_angle_gamma   53.15515053
_symmetry_Int_Tables_number   1
_chemical_formula_structural   Li6ZrBeF12
_chemical_formula_sum   'Li12 Zr2 Be2 F24'
_cell_volume   415.51291038
_cell_formula_units_Z   2
loop_
 _symmetry_equiv_pos_site_id
 _symmetry_equiv_pos_as_xyz
  1  'x, y, z'
loop_
 _atom_site_type_symbol
 _atom_site_label
 _atom_site_symmetry_multiplicity
 _atom_site_fract_x
 _atom_site_fract_y
 _atom_site_fract_z
 _atom_site_occupancy
  Li  Li0  1  1.60854125  1.12500000  0.98354125  1.0
  Li  Li1  1  1.14145875  1.12500000  0.51645875  1.0
  Li  Li2  1  0.87500000  0.85854125  0.48354125  1.0
  Li  Li3  1  1.37500000  0.85854125  0.98354125  1.0
  Li  Li4  1  1.60854125  1.62500000  1.48354125  1.0
  Li  Li5  1  1.14145875  1.62500000  1.01645875  1.0
  Li  Li6  1  0.87500000  1.39145875  1.01645875  1.0
  Li  Li7  1  1.37500000  1.39145875  1.51645875  1.0
  Li  Li8  1  1.27117128  1.27117128  1.00000000  1.0
  Li  Li9  1  0.02117128  0.52117128  0.50000000  1.0
  Li  Li10  1  1.47882872  0.97882872  0.50000000  1.0
  Li  Li11  1  0.72882872  0.72882872  0.00000000  1.0
  Zr  Zr12  1  0.75000000  1.25000000  0.50000000  1.0
  Zr  Zr13  1  0.00000000  0.00000000  0.00000000  1.0
  Be  Be14  1  1.25000000  0.75000000  0.50000000  1.0
  Be  Be15  1  0.50000000  0.50000000  1.00000000  1.0
  F  F16  1  0.95426808  1.23818609  0.28391801  1.0
  F  F17  1  0.98818609  1.20426808  0.78391801  1.0
  F  F18  1  1.42035007  1.20426808  1.21608199  1.0
  F  F19  1  0.95426808  1.67035007  0.71608199  1.0
  F  F20  1  0.79573192  1.01181391  0.21608199  1.0
  F  F21  1  0.76181391  0.04573192  0.71608199  1.0
  F  F22  1  0.32964993  0.04573192  0.28391801  1.0
  F  F23  1  0.79573192  1.57964993  0.78391801  1.0
  F  F24  1  0.08548478  0.85874276  0.77325798  1.0
  F  F25  1  1.60874276  1.33548478  1.27325798  1.0
  F  F26  1  1.06222680  1.33548478  0.72674202  1.0
  F  F27  1  0.08548478  0.31222680  0.22674202  1.0
  F  F28  1  0.66451522  1.39125724  0.72674202  1.0
  F  F29  1  1.14125724  0.91451522  0.22674202  1.0
  F  F30  1  1.68777320  0.91451522  0.77325798  1.0
  F  F31  1  0.66451522  0.93777320  0.27325798  1.0
  F  F32  1  1.30029705  0.99194847  0.69165142  1.0
  F  F33  1  0.74194847  0.55029705  1.19165142  1.0
  F  F34  1  0.35864564  0.55029705  0.80834858  1.0
  F  F35  1  1.30029705  1.60864564  1.30834858  1.0
  F  F36  1  1.44970295  1.25805153  0.80834858  1.0
  F  F37  1  1.00805153  0.69970295  0.30834858  1.0
  F  F38  1  1.39135436  0.69970295  0.69165142  1.0
  F  F39  1  1.44970295  1.64135436  1.19165142  1.0
