# generated using pymatgen
data_RbZr6MnCl14
_symmetry_space_group_name_H-M   'P 1'
_cell_length_a   9.95173651
_cell_length_b   9.95173651
_cell_length_c   11.97208941
_cell_angle_alpha   90.00000000
_cell_angle_beta   90.00000000
_cell_angle_gamma   84.28157043
_symmetry_Int_Tables_number   1
_chemical_formula_structural   RbZr6MnCl14
_chemical_formula_sum   'Rb2 Zr12 Mn2 Cl28'
_cell_volume   1179.78007797
_cell_formula_units_Z   2
loop_
 _symmetry_equiv_pos_site_id
 _symmetry_equiv_pos_as_xyz
  1  'x, y, z'
loop_
 _atom_site_type_symbol
 _atom_site_label
 _atom_site_symmetry_multiplicity
 _atom_site_fract_x
 _atom_site_fract_y
 _atom_site_fract_z
 _atom_site_occupancy
  Rb  Rb0  1  0.00000000  1.00000000  0.50000000  1.0
  Rb  Rb1  1  -0.50000000  0.50000000  0.00000000  1.0
  Zr  Zr2  1  0.45349237  1.30858144  0.38203834  1.0
  Zr  Zr3  1  -0.04650763  0.80858144  0.11796166  1.0
  Zr  Zr4  1  0.30858144  1.45349237  0.61796166  1.0
  Zr  Zr5  1  -0.19141856  0.95349237  0.88203834  1.0
  Zr  Zr6  1  -0.30858144  0.54650763  0.38203834  1.0
  Zr  Zr7  1  0.19141856  1.04650763  0.11796166  1.0
  Zr  Zr8  1  -0.45349237  0.69141856  0.61796166  1.0
  Zr  Zr9  1  0.04650763  1.19141856  0.88203834  1.0
  Zr  Zr10  1  -0.14705321  1.14705321  0.11192771  1.0
  Zr  Zr11  1  0.35294679  0.64705321  0.38807229  1.0
  Zr  Zr12  1  0.14705321  0.85294679  0.88807229  1.0
  Zr  Zr13  1  -0.35294679  1.35294679  0.61192771  1.0
  Mn  Mn14  1  -0.50000000  0.50000000  0.50000000  1.0
  Mn  Mn15  1  0.00000000  1.00000000  0.00000000  1.0
  Cl  Cl16  1  -0.38353771  1.14154248  0.49467358  1.0
  Cl  Cl17  1  0.11646229  0.64154248  0.00532642  1.0
  Cl  Cl18  1  0.14154248  0.61646229  0.50532642  1.0
  Cl  Cl19  1  -0.35845752  1.11646229  0.99467358  1.0
  Cl  Cl20  1  -0.14154248  1.38353771  0.49467358  1.0
  Cl  Cl21  1  0.35845752  0.88353771  0.00532642  1.0
  Cl  Cl22  1  0.38353771  0.85845752  0.50532642  1.0
  Cl  Cl23  1  -0.11646229  1.35845752  0.99467358  1.0
  Cl  Cl24  1  -0.20204681  0.96163106  0.24957480  1.0
  Cl  Cl25  1  0.29795319  1.46163106  0.25042520  1.0
  Cl  Cl26  1  -0.03836894  0.79795319  0.75042520  1.0
  Cl  Cl27  1  0.46163106  1.29795319  0.74957480  1.0
  Cl  Cl28  1  0.03836894  1.20204681  0.24957480  1.0
  Cl  Cl29  1  -0.46163106  0.70204681  0.25042520  1.0
  Cl  Cl30  1  0.20204681  1.03836894  0.75042520  1.0
  Cl  Cl31  1  -0.29795319  0.53836894  0.74957480  1.0
  Cl  Cl32  1  -0.34282832  1.34282832  0.24338005  1.0
  Cl  Cl33  1  0.15717168  0.84282832  0.25661995  1.0
  Cl  Cl34  1  0.34282832  0.65717168  0.75661995  1.0
  Cl  Cl35  1  -0.15717168  1.15717168  0.74338005  1.0
  Cl  Cl36  1  0.39768703  1.10231297  0.25000000  1.0
  Cl  Cl37  1  -0.10231297  0.60231297  0.25000000  1.0
  Cl  Cl38  1  0.10231297  1.39768703  0.75000000  1.0
  Cl  Cl39  1  -0.39768703  0.89768703  0.75000000  1.0
  Cl  Cl40  1  0.25204790  1.25204790  0.50000000  1.0
  Cl  Cl41  1  -0.24795210  0.75204790  0.00000000  1.0
  Cl  Cl42  1  -0.25204790  0.74795210  0.50000000  1.0
  Cl  Cl43  1  0.24795210  1.24795210  0.00000000  1.0
