# generated using pymatgen
data_Sr2HoCu3(PbO4)2
_symmetry_space_group_name_H-M   'P 1'
_cell_length_a   3.83447231
_cell_length_b   3.83447231
_cell_length_c   15.99960737
_cell_angle_alpha   90.00000000
_cell_angle_beta   90.00000000
_cell_angle_gamma   89.99999037
_symmetry_Int_Tables_number   1
_chemical_formula_structural   Sr2HoCu3(PbO4)2
_chemical_formula_sum   'Sr2 Ho1 Cu3 Pb2 O8'
_cell_volume   235.24507395
_cell_formula_units_Z   1
loop_
 _symmetry_equiv_pos_site_id
 _symmetry_equiv_pos_as_xyz
  1  'x, y, z'
loop_
 _atom_site_type_symbol
 _atom_site_label
 _atom_site_symmetry_multiplicity
 _atom_site_fract_x
 _atom_site_fract_y
 _atom_site_fract_z
 _atom_site_occupancy
  Sr  Sr0  1  0.00000000  0.00000000  0.22107513  1.0
  Sr  Sr1  1  0.00000000  0.00000000  0.77892487  1.0
  Ho  Ho2  1  0.00000000  0.00000000  0.00000000  1.0
  Cu  Cu3  1  0.00000000  0.00000000  0.50000000  1.0
  Cu  Cu4  1  0.50000000  0.50000000  0.10356216  1.0
  Cu  Cu5  1  0.50000000  0.50000000  0.89643784  1.0
  Pb  Pb6  1  0.50000000  0.50000000  0.38767186  1.0
  Pb  Pb7  1  0.50000000  0.50000000  0.61232814  1.0
  O  O8  1  0.50000000  0.50000000  0.25082261  1.0
  O  O9  1  0.50000000  0.50000000  0.74917739  1.0
  O  O10  1  0.00000000  0.00000000  0.38382633  1.0
  O  O11  1  0.00000000  0.00000000  0.61617367  1.0
  O  O12  1  0.50000000  1.00000000  0.09185432  1.0
  O  O13  1  -0.00000000  1.50000000  0.90814568  1.0
  O  O14  1  0.50000000  1.00000000  0.90814568  1.0
  O  O15  1  -0.00000000  1.50000000  0.09185432  1.0
