# generated using pymatgen
data_Mg8B5IN10
_symmetry_space_group_name_H-M   'P 1'
_cell_length_a   10.01633975
_cell_length_b   10.01633975
_cell_length_c   10.01633975
_cell_angle_alpha   124.19488663
_cell_angle_beta   94.10008372
_cell_angle_gamma   111.49940321
_symmetry_Int_Tables_number   1
_chemical_formula_structural   Mg8B5IN10
_chemical_formula_sum   'Mg16 B10 I2 N20'
_cell_volume   721.34308879
_cell_formula_units_Z   2
loop_
 _symmetry_equiv_pos_site_id
 _symmetry_equiv_pos_as_xyz
  1  'x, y, z'
loop_
 _atom_site_type_symbol
 _atom_site_label
 _atom_site_symmetry_multiplicity
 _atom_site_fract_x
 _atom_site_fract_y
 _atom_site_fract_z
 _atom_site_occupancy
  Mg  Mg0  1  1.72452749  1.17790275  0.95337526  1.0
  Mg  Mg1  1  0.27547251  0.22884777  0.45337526  1.0
  Mg  Mg2  1  1.72452749  1.77115223  1.54662474  1.0
  Mg  Mg3  1  0.27547251  0.82209725  1.04662474  1.0
  Mg  Mg4  1  1.10476582  0.50000000  1.10476582  1.0
  Mg  Mg5  1  1.10476582  1.00000000  1.60476582  1.0
  Mg  Mg6  1  0.89523418  1.00000000  0.39523418  1.0
  Mg  Mg7  1  0.89523418  1.50000000  0.89523418  1.0
  Mg  Mg8  1  1.68435529  1.50000000  1.68435529  1.0
  Mg  Mg9  1  1.68435529  1.00000000  1.18435529  1.0
  Mg  Mg10  1  0.31564471  1.00000000  0.81564471  1.0
  Mg  Mg11  1  0.31564471  0.50000000  0.31564471  1.0
  Mg  Mg12  1  0.50000000  0.75102538  1.25102538  1.0
  Mg  Mg13  1  -0.00000000  0.75102538  0.75102538  1.0
  Mg  Mg14  1  0.50000000  0.24897462  0.74897462  1.0
  Mg  Mg15  1  -0.00000000  0.24897462  0.24897462  1.0
  B  B16  1  1.10407107  0.64831396  1.45575710  1.0
  B  B17  1  1.30744314  0.35168604  0.95575710  1.0
  B  B18  1  0.89592893  1.35168604  0.54424290  1.0
  B  B19  1  0.69255686  0.64831396  0.04424290  1.0
  B  B20  1  1.78646462  0.90043035  0.88603427  1.0
  B  B21  1  0.48560392  0.09956965  0.38603427  1.0
  B  B22  1  0.21353538  0.09956965  0.11396573  1.0
  B  B23  1  1.51439608  0.90043035  0.61396573  1.0
  B  B24  1  1.09664117  0.84664117  0.25000000  1.0
  B  B25  1  0.90335883  0.15335883  0.75000000  1.0
  I  I26  1  1.65114991  1.40114991  1.25000000  1.0
  I  I27  1  0.34885009  0.59885009  0.75000000  1.0
  N  N28  1  1.10675608  0.50741230  1.31413784  1.0
  N  N29  1  1.30672555  1.20738176  1.81413784  1.0
  N  N30  1  0.89324392  1.20738176  0.40065622  1.0
  N  N31  1  0.69327445  1.50741230  0.90065622  1.0
  N  N32  1  1.10675608  0.79261824  1.59934378  1.0
  N  N33  1  1.30672555  0.49258770  1.09934378  1.0
  N  N34  1  0.89324392  1.49258770  0.68586216  1.0
  N  N35  1  0.69327445  0.79261824  0.18586216  1.0
  N  N36  1  1.78762254  1.75938386  1.74141539  1.0
  N  N37  1  0.48203153  0.95379285  1.24141539  1.0
  N  N38  1  0.21237746  0.95379285  0.97176132  1.0
  N  N39  1  1.51796847  1.75938386  1.47176132  1.0
  N  N40  1  1.78762254  1.04620715  1.02823868  1.0
  N  N41  1  0.48203153  0.24061614  0.52823868  1.0
  N  N42  1  0.21237746  0.24061614  0.25858461  1.0
  N  N43  1  1.51796847  1.04620715  0.75858461  1.0
  N  N44  1  1.09932083  1.70652381  1.10720298  1.0
  N  N45  1  0.90067917  1.00788215  1.60720298  1.0
  N  N46  1  1.09932083  0.99211785  0.39279702  1.0
  N  N47  1  0.90067917  0.29347619  0.89279702  1.0
