# generated using pymatgen
data_Cu2SiNiS4
_symmetry_space_group_name_H-M   'P 1'
_cell_length_a   4.77553802
_cell_length_b   6.16784872
_cell_length_c   4.78880649
_cell_angle_alpha   90.00000000
_cell_angle_beta   86.29707571
_cell_angle_gamma   90.00000000
_symmetry_Int_Tables_number   1
_chemical_formula_structural   Cu2SiNiS4
_chemical_formula_sum   'Cu2 Si1 Ni1 S4'
_cell_volume   140.75884491
_cell_formula_units_Z   1
loop_
 _symmetry_equiv_pos_site_id
 _symmetry_equiv_pos_as_xyz
  1  'x, y, z'
loop_
 _atom_site_type_symbol
 _atom_site_label
 _atom_site_symmetry_multiplicity
 _atom_site_fract_x
 _atom_site_fract_y
 _atom_site_fract_z
 _atom_site_occupancy
  Cu  Cu0  1  0.50000000  0.50000000  0.00000000  1.0
  Cu  Cu1  1  0.00000000  0.50000000  0.50000000  1.0
  Si  Si2  1  0.00000000  0.00000000  0.00000000  1.0
  Ni  Ni3  1  0.50000000  0.00000000  0.50000000  1.0
  S  S4  1  0.25379390  0.75568889  0.74625299  1.0
  S  S5  1  0.25379390  0.24431111  0.74625299  1.0
  S  S6  1  0.74620610  0.24431111  0.25374701  1.0
  S  S7  1  0.74620610  0.75568889  0.25374701  1.0
