# generated using pymatgen
data_NaIO3
_symmetry_space_group_name_H-M   'P 1'
_cell_length_a   6.56334227
_cell_length_b   8.28174237
_cell_length_c   5.89994336
_cell_angle_alpha   90.00000000
_cell_angle_beta   90.00000000
_cell_angle_gamma   90.00000000
_symmetry_Int_Tables_number   1
_chemical_formula_structural   NaIO3
_chemical_formula_sum   'Na4 I4 O12'
_cell_volume   320.69678915
_cell_formula_units_Z   4
loop_
 _symmetry_equiv_pos_site_id
 _symmetry_equiv_pos_as_xyz
  1  'x, y, z'
loop_
 _atom_site_type_symbol
 _atom_site_label
 _atom_site_symmetry_multiplicity
 _atom_site_fract_x
 _atom_site_fract_y
 _atom_site_fract_z
 _atom_site_occupancy
  Na  Na0  1  0.50000000  -0.00000000  0.50000000  1.0
  Na  Na1  1  0.50000000  0.50000000  0.50000000  1.0
  Na  Na2  1  0.00000000  0.00000000  0.00000000  1.0
  Na  Na3  1  0.00000000  0.50000000  -0.00000000  1.0
  I  I4  1  0.48459244  0.75000000  0.00773215  1.0
  I  I5  1  0.98459244  0.75000000  0.49226785  1.0
  I  I6  1  0.51540756  0.25000000  0.99226785  1.0
  I  I7  1  0.01540756  0.25000000  0.50773215  1.0
  O  O8  1  0.33399063  0.92011107  0.13972815  1.0
  O  O9  1  0.33399063  0.57988893  0.13972815  1.0
  O  O10  1  0.83399063  0.92011107  0.36027185  1.0
  O  O11  1  0.83399063  0.57988893  0.36027185  1.0
  O  O12  1  0.66600937  0.42011107  0.86027185  1.0
  O  O13  1  0.66600937  0.07988893  0.86027185  1.0
  O  O14  1  0.16600937  0.42011107  0.63972815  1.0
  O  O15  1  0.16600937  0.07988893  0.63972815  1.0
  O  O16  1  0.40302854  0.75000000  0.70305074  1.0
  O  O17  1  0.90302854  0.75000000  0.79694926  1.0
  O  O18  1  0.59697146  0.25000000  0.29694926  1.0
  O  O19  1  0.09697146  0.25000000  0.20305074  1.0
