# generated using pymatgen
data_KIn(SeO3)2
_symmetry_space_group_name_H-M   'P 1'
_cell_length_a   13.47757419
_cell_length_b   5.64221096
_cell_length_c   8.67206619
_cell_angle_alpha   90.00000000
_cell_angle_beta   90.00000000
_cell_angle_gamma   90.00000000
_symmetry_Int_Tables_number   1
_chemical_formula_structural   KIn(SeO3)2
_chemical_formula_sum   'K4 In4 Se8 O24'
_cell_volume   659.45267649
_cell_formula_units_Z   4
loop_
 _symmetry_equiv_pos_site_id
 _symmetry_equiv_pos_as_xyz
  1  'x, y, z'
loop_
 _atom_site_type_symbol
 _atom_site_label
 _atom_site_symmetry_multiplicity
 _atom_site_fract_x
 _atom_site_fract_y
 _atom_site_fract_z
 _atom_site_occupancy
  K  K0  1  0.11774376  0.75000000  0.98880765  1.0
  K  K1  1  0.61774376  0.75000000  0.51119235  1.0
  K  K2  1  0.88225624  0.25000000  0.01119235  1.0
  K  K3  1  0.38225624  0.25000000  0.48880765  1.0
  In  In4  1  0.39525711  0.75000000  0.81317310  1.0
  In  In5  1  0.89525711  0.75000000  0.68682690  1.0
  In  In6  1  0.60474289  0.25000000  0.18682690  1.0
  In  In7  1  0.10474289  0.25000000  0.31317310  1.0
  Se  Se8  1  0.44118255  0.75000000  0.20525238  1.0
  Se  Se9  1  0.94118255  0.75000000  0.29474762  1.0
  Se  Se10  1  0.55881745  0.25000000  0.79474762  1.0
  Se  Se11  1  0.05881745  0.25000000  0.70525238  1.0
  Se  Se12  1  0.20847868  0.75000000  0.51481761  1.0
  Se  Se13  1  0.70847868  0.75000000  0.98518239  1.0
  Se  Se14  1  0.79152132  0.25000000  0.48518239  1.0
  Se  Se15  1  0.29152132  0.25000000  0.01481761  1.0
  O  O16  1  0.49692834  0.48634717  0.71183421  1.0
  O  O17  1  0.49692834  0.01365283  0.71183421  1.0
  O  O18  1  -0.00307166  0.48634717  0.78816579  1.0
  O  O19  1  -0.00307166  0.01365283  0.78816579  1.0
  O  O20  1  0.50307167  0.98634717  0.28816579  1.0
  O  O21  1  0.50307167  0.51365283  0.28816579  1.0
  O  O22  1  1.00307167  0.98634717  0.21183421  1.0
  O  O23  1  1.00307167  0.51365283  0.21183421  1.0
  O  O24  1  0.28425591  0.48855044  0.89001954  1.0
  O  O25  1  0.28425591  0.01144956  0.89001954  1.0
  O  O26  1  0.78425591  0.48855044  0.60998046  1.0
  O  O27  1  0.78425591  0.01144956  0.60998046  1.0
  O  O28  1  0.71574409  0.98855044  0.10998046  1.0
  O  O29  1  0.71574409  0.51144956  0.10998046  1.0
  O  O30  1  0.21574409  0.98855044  0.39001954  1.0
  O  O31  1  0.21574409  0.51144956  0.39001954  1.0
  O  O32  1  0.48544395  0.75000000  0.02040440  1.0
  O  O33  1  0.98544395  0.75000000  0.47959560  1.0
  O  O34  1  0.51455605  0.25000000  0.97959560  1.0
  O  O35  1  0.01455605  0.25000000  0.52040440  1.0
  O  O36  1  0.33027882  0.75000000  0.57872730  1.0
  O  O37  1  0.83027882  0.75000000  0.92127270  1.0
  O  O38  1  0.66972118  0.25000000  0.42127270  1.0
  O  O39  1  0.16972118  0.25000000  0.07872730  1.0
