# generated using pymatgen
data_Cs3Ca2Cl7
_symmetry_space_group_name_H-M   'P 1'
_cell_length_a   14.65788030
_cell_length_b   14.65788030
_cell_length_c   14.65788030
_cell_angle_alpha   158.55676921
_cell_angle_beta   158.55676921
_cell_angle_gamma   30.50775147
_symmetry_Int_Tables_number   1
_chemical_formula_structural   Cs3Ca2Cl7
_chemical_formula_sum   'Cs3 Ca2 Cl7'
_cell_volume   420.62700243
_cell_formula_units_Z   1
loop_
 _symmetry_equiv_pos_site_id
 _symmetry_equiv_pos_as_xyz
  1  'x, y, z'
loop_
 _atom_site_type_symbol
 _atom_site_label
 _atom_site_symmetry_multiplicity
 _atom_site_fract_x
 _atom_site_fract_y
 _atom_site_fract_z
 _atom_site_occupancy
  Cs  Cs0  1  0.68352027  0.68352027  1.00000000  1.0
  Cs  Cs1  1  0.31647973  0.31647973  0.00000000  1.0
  Cs  Cs2  1  0.50000000  0.50000000  1.00000000  1.0
  Ca  Ca3  1  0.90241150  0.90241150  1.00000000  1.0
  Ca  Ca4  1  0.09758850  0.09758850  0.00000000  1.0
  Cl  Cl5  1  0.40460538  0.90460538  0.50000000  1.0
  Cl  Cl6  1  0.59539462  0.09539462  0.50000000  1.0
  Cl  Cl7  1  0.90460538  0.40460538  0.50000000  1.0
  Cl  Cl8  1  0.09539462  0.59539462  0.50000000  1.0
  Cl  Cl9  1  0.80640004  0.80640004  1.00000000  1.0
  Cl  Cl10  1  0.19359996  0.19359996  0.00000000  1.0
  Cl  Cl11  1  0.00000000  0.00000000  0.00000000  1.0
