# generated using pymatgen
data_KHS
_symmetry_space_group_name_H-M   'P 1'
_cell_length_a   4.41925012
_cell_length_b   4.98796814
_cell_length_c   6.67657479
_cell_angle_alpha   90.00000000
_cell_angle_beta   100.65125583
_cell_angle_gamma   90.00000000
_symmetry_Int_Tables_number   1
_chemical_formula_structural   KHS
_chemical_formula_sum   'K2 H2 S2'
_cell_volume   144.63654436
_cell_formula_units_Z   2
loop_
 _symmetry_equiv_pos_site_id
 _symmetry_equiv_pos_as_xyz
  1  'x, y, z'
loop_
 _atom_site_type_symbol
 _atom_site_label
 _atom_site_symmetry_multiplicity
 _atom_site_fract_x
 _atom_site_fract_y
 _atom_site_fract_z
 _atom_site_occupancy
  K  K0  1  0.73173682  0.75000000  0.26305585  1.0
  K  K1  1  0.26826318  0.25000000  0.73694415  1.0
  H  H2  1  0.02461506  0.75000000  0.89247716  1.0
  H  H3  1  0.97538494  0.25000000  0.10752284  1.0
  S  S4  1  0.75617074  0.75000000  0.75635011  1.0
  S  S5  1  0.24382926  0.25000000  0.24364989  1.0
