# generated using pymatgen
data_Tl2CoI4
_symmetry_space_group_name_H-M   'P 1'
_cell_length_a   7.88452044
_cell_length_b   8.11443833
_cell_length_c   9.59520233
_cell_angle_alpha   90.00000000
_cell_angle_beta   107.90379262
_cell_angle_gamma   90.00000000
_symmetry_Int_Tables_number   1
_chemical_formula_structural   Tl2CoI4
_chemical_formula_sum   'Tl4 Co2 I8'
_cell_volume   584.15820018
_cell_formula_units_Z   2
loop_
 _symmetry_equiv_pos_site_id
 _symmetry_equiv_pos_as_xyz
  1  'x, y, z'
loop_
 _atom_site_type_symbol
 _atom_site_label
 _atom_site_symmetry_multiplicity
 _atom_site_fract_x
 _atom_site_fract_y
 _atom_site_fract_z
 _atom_site_occupancy
  Co  Co0  1  0.21722871  0.75000000  0.29746346  1.0
  Co  Co1  1  0.78277129  0.25000000  0.70253654  1.0
  I  I2  1  0.41471542  0.75000000  0.12653039  1.0
  I  I3  1  0.58528458  0.25000000  0.87346961  1.0
  I  I4  1  0.39809475  0.75000000  0.57236530  1.0
  I  I5  1  0.60190525  0.25000000  0.42763470  1.0
  I  I6  1  0.99813457  1.00098996  0.76300360  1.0
  I  I7  1  0.99813457  0.49901004  0.76300360  1.0
  I  I8  1  0.00186543  0.50098996  0.23699640  1.0
  I  I9  1  0.00186543  -0.00098996  0.23699640  1.0
  Tl  Tl10  1  0.76687038  0.75000000  0.44567923  1.0
  Tl  Tl11  1  0.23312962  0.25000000  0.55432077  1.0
  Tl  Tl12  1  0.74898727  0.75000000  0.93382571  1.0
  Tl  Tl13  1  0.25101273  0.25000000  0.06617429  1.0
