# generated using pymatgen
data_VH5Se2NO7
_symmetry_space_group_name_H-M   'P 1'
_cell_length_a   4.27194294
_cell_length_b   10.60278301
_cell_length_c   7.95135586
_cell_angle_alpha   90.00000000
_cell_angle_beta   97.04649992
_cell_angle_gamma   90.00000000
_symmetry_Int_Tables_number   1
_chemical_formula_structural   VH5Se2NO7
_chemical_formula_sum   'V2 H10 Se4 N2 O14'
_cell_volume   357.43229943
_cell_formula_units_Z   2
loop_
 _symmetry_equiv_pos_site_id
 _symmetry_equiv_pos_as_xyz
  1  'x, y, z'
loop_
 _atom_site_type_symbol
 _atom_site_label
 _atom_site_symmetry_multiplicity
 _atom_site_fract_x
 _atom_site_fract_y
 _atom_site_fract_z
 _atom_site_occupancy
  V  V0  1  0.93445652  0.25000000  0.95702632  1.0
  V  V1  1  0.06554348  0.75000000  0.04297368  1.0
  H  H2  1  0.52799487  0.32996504  0.47107443  1.0
  H  H3  1  0.52799487  0.17003496  0.47107443  1.0
  H  H4  1  0.47200513  0.82996504  0.52892557  1.0
  H  H5  1  0.47200513  0.67003496  0.52892557  1.0
  H  H6  1  0.26954194  0.25000000  0.58120116  1.0
  H  H7  1  0.73045806  0.75000000  0.41879884  1.0
  H  H8  1  0.22416692  0.25000000  0.36804824  1.0
  H  H9  1  0.77583308  0.75000000  0.63195176  1.0
  H  H10  1  -0.00000000  0.50000000  0.50000000  1.0
  H  H11  1  -0.00000000  0.00000000  0.50000000  1.0
  Se  Se12  1  0.80142921  0.48870377  0.19071497  1.0
  Se  Se13  1  0.80142921  0.01129623  0.19071497  1.0
  Se  Se14  1  0.19857079  0.98870377  0.80928503  1.0
  Se  Se15  1  0.19857079  0.51129623  0.80928503  1.0
  N  N16  1  0.38645619  0.25000000  0.47529560  1.0
  N  N17  1  0.61354381  0.75000000  0.52470440  1.0
  O  O18  1  0.98512545  0.37286982  0.77460286  1.0
  O  O19  1  0.98512545  0.12713018  0.77460286  1.0
  O  O20  1  0.01487455  0.87286982  0.22539714  1.0
  O  O21  1  0.01487455  0.62713018  0.22539714  1.0
  O  O22  1  0.91958898  0.88319669  0.86998057  1.0
  O  O23  1  0.91958898  0.61680331  0.86998057  1.0
  O  O24  1  0.08041102  0.38319669  0.13001943  1.0
  O  O25  1  0.08041102  0.11680331  0.13001943  1.0
  O  O26  1  0.80279051  0.44668079  0.40168389  1.0
  O  O27  1  0.80279051  0.05331921  0.40168389  1.0
  O  O28  1  0.19720949  0.94668079  0.59831611  1.0
  O  O29  1  0.19720949  0.55331921  0.59831611  1.0
  O  O30  1  0.55793619  0.25000000  0.96718738  1.0
  O  O31  1  0.44206381  0.75000000  0.03281262  1.0
