# generated using pymatgen
data_V4H3
_symmetry_space_group_name_H-M   'P 1'
_cell_length_a   4.44868551
_cell_length_b   6.17016374
_cell_length_c   4.42529009
_cell_angle_alpha   90.00000000
_cell_angle_beta   86.64551413
_cell_angle_gamma   90.00000000
_symmetry_Int_Tables_number   1
_chemical_formula_structural   V4H3
_chemical_formula_sum   'V8 H6'
_cell_volume   121.26218555
_cell_formula_units_Z   2
loop_
 _symmetry_equiv_pos_site_id
 _symmetry_equiv_pos_as_xyz
  1  'x, y, z'
loop_
 _atom_site_type_symbol
 _atom_site_label
 _atom_site_symmetry_multiplicity
 _atom_site_fract_x
 _atom_site_fract_y
 _atom_site_fract_z
 _atom_site_occupancy
  V  V0  1  0.74856223  0.85945451  -0.00536140  1.0
  V  V1  1  0.74856223  0.14054549  0.49463860  1.0
  V  V2  1  0.25143777  0.85945451  0.50536140  1.0
  V  V3  1  0.25143777  0.14054549  0.00536140  1.0
  V  V4  1  0.73387721  0.61644224  0.48488088  1.0
  V  V5  1  0.73387721  0.38355776  -0.01511912  1.0
  V  V6  1  0.26612279  0.61644224  0.01511912  1.0
  V  V7  1  0.26612279  0.38355776  0.51511912  1.0
  H  H8  1  0.50000000  1.00948016  0.25000000  1.0
  H  H9  1  0.50000000  -0.00948016  0.75000000  1.0
  H  H10  1  -0.00000000  0.96952872  0.25000000  1.0
  H  H11  1  0.00000000  0.03047128  0.75000000  1.0
  H  H12  1  -0.00000000  0.31896290  0.25000000  1.0
  H  H13  1  0.00000000  0.68103710  0.75000000  1.0
