# generated using pymatgen
data_Li2Si3Ir
_symmetry_space_group_name_H-M   'P 1'
_cell_length_a   5.00704021
_cell_length_b   5.00704021
_cell_length_c   7.91536705
_cell_angle_alpha   90.00000000
_cell_angle_beta   90.00000000
_cell_angle_gamma   120.00000000
_symmetry_Int_Tables_number   1
_chemical_formula_structural   Li2Si3Ir
_chemical_formula_sum   'Li4 Si6 Ir2'
_cell_volume   171.85566359
_cell_formula_units_Z   2
loop_
 _symmetry_equiv_pos_site_id
 _symmetry_equiv_pos_as_xyz
  1  'x, y, z'
loop_
 _atom_site_type_symbol
 _atom_site_label
 _atom_site_symmetry_multiplicity
 _atom_site_fract_x
 _atom_site_fract_y
 _atom_site_fract_z
 _atom_site_occupancy
  Li  Li0  1  0.33333333  0.66666667  0.94112910  1.0
  Li  Li1  1  0.33333333  0.66666667  0.55887090  1.0
  Li  Li2  1  0.66666667  0.33333333  0.44112910  1.0
  Li  Li3  1  0.66666667  0.33333333  0.05887090  1.0
  Si  Si4  1  0.17143678  0.82856322  0.25000000  1.0
  Si  Si5  1  0.17143678  0.34287355  0.25000000  1.0
  Si  Si6  1  0.82856322  0.17143678  0.75000000  1.0
  Si  Si7  1  0.82856322  0.65712645  0.75000000  1.0
  Si  Si8  1  0.65712645  0.82856322  0.25000000  1.0
  Si  Si9  1  0.34287355  0.17143678  0.75000000  1.0
  Ir  Ir10  1  0.00000000  0.00000000  0.50000000  1.0
  Ir  Ir11  1  0.00000000  0.00000000  0.00000000  1.0
