# generated using pymatgen
data_Cs2LaZr6MnCl18
_symmetry_space_group_name_H-M   'P 1'
_cell_length_a   10.96202643
_cell_length_b   10.96202643
_cell_length_c   10.96202643
_cell_angle_alpha   54.82385112
_cell_angle_beta   54.82385112
_cell_angle_gamma   54.82385112
_symmetry_Int_Tables_number   1
_chemical_formula_structural   Cs2LaZr6MnCl18
_chemical_formula_sum   'Cs2 La1 Zr6 Mn1 Cl18'
_cell_volume   819.18833669
_cell_formula_units_Z   1
loop_
 _symmetry_equiv_pos_site_id
 _symmetry_equiv_pos_as_xyz
  1  'x, y, z'
loop_
 _atom_site_type_symbol
 _atom_site_label
 _atom_site_symmetry_multiplicity
 _atom_site_fract_x
 _atom_site_fract_y
 _atom_site_fract_z
 _atom_site_occupancy
  Cs  Cs0  1  0.22309173  0.22309173  0.22309173  1.0
  Cs  Cs1  1  0.77690827  -0.22309173  -0.22309173  1.0
  La  La2  1  0.50000000  0.50000000  -0.50000000  1.0
  Zr  Zr3  1  0.21726906  0.83316419  -0.90102913  1.0
  Zr  Zr4  1  0.90102913  -0.21726906  0.16683581  1.0
  Zr  Zr5  1  1.16683581  -0.09897087  -0.21726906  1.0
  Zr  Zr6  1  0.78273094  0.16683581  -0.09897087  1.0
  Zr  Zr7  1  0.09897087  0.21726906  -0.16683581  1.0
  Zr  Zr8  1  0.83316419  0.09897087  -0.78273094  1.0
  Mn  Mn9  1  0.00000000  0.00000000  0.00000000  1.0
  Cl  Cl10  1  0.34518001  0.80053438  -0.47184713  1.0
  Cl  Cl11  1  0.47184713  0.65481999  -0.80053438  1.0
  Cl  Cl12  1  0.19946562  0.47184713  -0.34518001  1.0
  Cl  Cl13  1  0.65481999  0.19946562  -0.52815287  1.0
  Cl  Cl14  1  0.52815287  0.34518001  -0.19946562  1.0
  Cl  Cl15  1  0.80053438  0.52815287  -0.65481999  1.0
  Cl  Cl16  1  0.33680820  0.05593100  -0.07003679  1.0
  Cl  Cl17  1  1.07003679  -0.33680820  -0.05593100  1.0
  Cl  Cl18  1  0.94406900  0.07003679  -0.33680820  1.0
  Cl  Cl19  1  0.66319180  -0.05593100  0.07003679  1.0
  Cl  Cl20  1  0.92996321  -0.66319180  0.05593100  1.0
  Cl  Cl21  1  1.05593100  -0.07003679  -0.66319180  1.0
  Cl  Cl22  1  0.58968205  0.27743018  0.12963763  1.0
  Cl  Cl23  1  0.87036237  -0.58968205  -0.27743018  1.0
  Cl  Cl24  1  0.72256982  -0.12963763  -0.58968205  1.0
  Cl  Cl25  1  0.41031795  -0.27743018  -0.12963763  1.0
  Cl  Cl26  1  1.12963763  -0.41031795  0.27743018  1.0
  Cl  Cl27  1  1.27743018  0.12963763  -0.41031795  1.0
