# generated using pymatgen
data_Sr5Ta4O15
_symmetry_space_group_name_H-M   'P 1'
_cell_length_a   5.70167561
_cell_length_b   5.70167561
_cell_length_c   23.34043933
_cell_angle_alpha   90.00000000
_cell_angle_beta   90.00000000
_cell_angle_gamma   120.00000000
_symmetry_Int_Tables_number   1
_chemical_formula_structural   Sr5Ta4O15
_chemical_formula_sum   'Sr10 Ta8 O30'
_cell_volume   657.11997391
_cell_formula_units_Z   2
loop_
 _symmetry_equiv_pos_site_id
 _symmetry_equiv_pos_as_xyz
  1  'x, y, z'
loop_
 _atom_site_type_symbol
 _atom_site_label
 _atom_site_symmetry_multiplicity
 _atom_site_fract_x
 _atom_site_fract_y
 _atom_site_fract_z
 _atom_site_occupancy
  Sr  Sr0  1  0.33333333  0.66666667  0.02677718  1.0
  Sr  Sr1  1  0.33333333  0.66666667  0.52677718  1.0
  Sr  Sr2  1  0.66666667  0.33333333  0.47322282  1.0
  Sr  Sr3  1  0.66666667  0.33333333  0.97322282  1.0
  Sr  Sr4  1  0.33333333  0.66666667  0.36081415  1.0
  Sr  Sr5  1  0.33333333  0.66666667  0.86081415  1.0
  Sr  Sr6  1  0.66666667  0.33333333  0.13918585  1.0
  Sr  Sr7  1  0.66666667  0.33333333  0.63918585  1.0
  Sr  Sr8  1  0.00000000  0.00000000  0.25000000  1.0
  Sr  Sr9  1  0.00000000  0.00000000  0.75000000  1.0
  Ta  Ta10  1  0.33333333  0.66666667  0.19809851  1.0
  Ta  Ta11  1  0.33333333  0.66666667  0.69809851  1.0
  Ta  Ta12  1  0.66666667  0.33333333  0.30190149  1.0
  Ta  Ta13  1  0.66666667  0.33333333  0.80190149  1.0
  Ta  Ta14  1  0.00000000  0.00000000  0.09286939  1.0
  Ta  Ta15  1  0.00000000  0.00000000  0.59286939  1.0
  Ta  Ta16  1  0.00000000  0.00000000  0.40713061  1.0
  Ta  Ta17  1  0.00000000  0.00000000  0.90713061  1.0
  O  O18  1  0.11855487  0.78821882  0.15500798  1.0
  O  O19  1  0.11855487  0.33033604  0.65500798  1.0
  O  O20  1  0.78821882  0.11855487  0.34499202  1.0
  O  O21  1  0.78821882  0.66966396  0.84499202  1.0
  O  O22  1  0.66966396  0.78821882  0.65500798  1.0
  O  O23  1  0.66966396  0.88144513  0.15500798  1.0
  O  O24  1  0.21178118  0.88144513  0.65500798  1.0
  O  O25  1  0.21178118  0.33033604  0.15500798  1.0
  O  O26  1  0.88144513  0.66966396  0.34499202  1.0
  O  O27  1  0.88144513  0.21178118  0.84499202  1.0
  O  O28  1  0.33033604  0.11855487  0.84499202  1.0
  O  O29  1  0.33033604  0.21178118  0.34499202  1.0
  O  O30  1  0.76478485  0.66954419  0.05667297  1.0
  O  O31  1  0.76478485  0.09524066  0.55667297  1.0
  O  O32  1  0.66954419  0.76478485  0.44332703  1.0
  O  O33  1  0.66954419  0.90475934  0.94332703  1.0
  O  O34  1  0.90475934  0.66954419  0.55667297  1.0
  O  O35  1  0.90475934  0.23521515  0.05667297  1.0
  O  O36  1  0.33045581  0.23521515  0.55667297  1.0
  O  O37  1  0.33045581  0.09524066  0.05667297  1.0
  O  O38  1  0.23521515  0.90475934  0.44332703  1.0
  O  O39  1  0.23521515  0.33045581  0.94332703  1.0
  O  O40  1  0.09524066  0.76478485  0.94332703  1.0
  O  O41  1  0.09524066  0.33045581  0.44332703  1.0
  O  O42  1  0.54229967  0.54229967  0.25000000  1.0
  O  O43  1  0.54229967  0.00000000  0.75000000  1.0
  O  O44  1  0.00000000  0.54229967  0.75000000  1.0
  O  O45  1  -0.00000000  0.45770033  0.25000000  1.0
  O  O46  1  0.45770033  0.45770033  0.75000000  1.0
  O  O47  1  0.45770033  0.00000000  0.25000000  1.0
