# generated using pymatgen
data_ZnS
_symmetry_space_group_name_H-M   'P 1'
_cell_length_a   3.85015643
_cell_length_b   3.85015643
_cell_length_c   88.08084388
_cell_angle_alpha   90.00000000
_cell_angle_beta   90.00000000
_cell_angle_gamma   120.00000000
_symmetry_Int_Tables_number   1
_chemical_formula_structural   ZnS
_chemical_formula_sum   'Zn28 S28'
_cell_volume   1130.75586129
_cell_formula_units_Z   28
loop_
 _symmetry_equiv_pos_site_id
 _symmetry_equiv_pos_as_xyz
  1  'x, y, z'
loop_
 _atom_site_type_symbol
 _atom_site_label
 _atom_site_symmetry_multiplicity
 _atom_site_fract_x
 _atom_site_fract_y
 _atom_site_fract_z
 _atom_site_occupancy
  Zn  Zn0  1  0.00000000  0.00000000  0.00893135  1.0
  Zn  Zn1  1  0.00000000  0.00000000  0.11605810  1.0
  Zn  Zn2  1  0.00000000  0.00000000  0.25894883  1.0
  Zn  Zn3  1  0.00000000  0.00000000  0.36607387  1.0
  Zn  Zn4  1  -0.00000000  -0.00000000  0.47321637  1.0
  Zn  Zn5  1  0.00000000  0.00000000  0.58033957  1.0
  Zn  Zn6  1  0.00000000  0.00000000  0.72319913  1.0
  Zn  Zn7  1  0.00000000  0.00000000  0.79468620  1.0
  Zn  Zn8  1  -0.00000000  -0.00000000  0.90178460  1.0
  Zn  Zn9  1  0.66666667  0.33333333  0.08037112  1.0
  Zn  Zn10  1  0.66666667  0.33333333  0.18750374  1.0
  Zn  Zn11  1  0.66666667  0.33333333  0.29465085  1.0
  Zn  Zn12  1  0.66666667  0.33333333  0.40178975  1.0
  Zn  Zn13  1  0.66666667  0.33333333  0.50893033  1.0
  Zn  Zn14  1  0.66666667  0.33333333  0.61603732  1.0
  Zn  Zn15  1  0.66666667  0.33333333  0.68752261  1.0
  Zn  Zn16  1  0.66666667  0.33333333  0.83037798  1.0
  Zn  Zn17  1  0.66666667  0.33333333  0.93748411  1.0
  Zn  Zn18  1  0.33333333  0.66666667  0.04468363  1.0
  Zn  Zn19  1  0.33333333  0.66666667  0.15175534  1.0
  Zn  Zn20  1  0.33333333  0.66666667  0.22325593  1.0
  Zn  Zn21  1  0.33333333  0.66666667  0.33036120  1.0
  Zn  Zn22  1  0.33333333  0.66666667  0.43750349  1.0
  Zn  Zn23  1  0.33333333  0.66666667  0.54463923  1.0
  Zn  Zn24  1  0.33333333  0.66666667  0.65178331  1.0
  Zn  Zn25  1  0.33333333  0.66666667  0.75893682  1.0
  Zn  Zn26  1  0.33333333  0.66666667  0.86607785  1.0
  Zn  Zn27  1  0.33333333  0.66666667  0.97318208  1.0
  S  S28  1  0.00000000  0.00000000  0.03575093  1.0
  S  S29  1  -0.00000000  -0.00000000  0.14283059  1.0
  S  S30  1  0.00000000  0.00000000  0.28572277  1.0
  S  S31  1  0.00000000  0.00000000  0.39285428  1.0
  S  S32  1  0.00000000  0.00000000  0.49999612  1.0
  S  S33  1  0.00000000  0.00000000  0.60711392  1.0
  S  S34  1  0.00000000  0.00000000  0.74996583  1.0
  S  S35  1  0.00000000  0.00000000  0.82145274  1.0
  S  S36  1  0.00000000  0.00000000  0.92855872  1.0
  S  S37  1  0.66666667  0.33333333  0.10714034  1.0
  S  S38  1  0.66666667  0.33333333  0.21432309  1.0
  S  S39  1  0.66666667  0.33333333  0.32142858  1.0
  S  S40  1  0.66666667  0.33333333  0.42856958  1.0
  S  S41  1  0.66666667  0.33333333  0.53570839  1.0
  S  S42  1  0.66666667  0.33333333  0.64280877  1.0
  S  S43  1  0.66666667  0.33333333  0.71428333  1.0
  S  S44  1  0.66666667  0.33333333  0.85715197  1.0
  S  S45  1  0.66666667  0.33333333  0.96425766  1.0
  S  S46  1  0.33333333  0.66666667  -0.00004579  1.0
  S  S47  1  0.33333333  0.66666667  0.07144927  1.0
  S  S48  1  0.33333333  0.66666667  0.17852712  1.0
  S  S49  1  0.33333333  0.66666667  0.25002246  1.0
  S  S50  1  0.33333333  0.66666667  0.35714066  1.0
  S  S51  1  0.33333333  0.66666667  0.46428299  1.0
  S  S52  1  0.33333333  0.66666667  0.57141437  1.0
  S  S53  1  0.33333333  0.66666667  0.67859822  1.0
  S  S54  1  0.33333333  0.66666667  0.78575414  1.0
  S  S55  1  0.33333333  0.66666667  0.89285428  1.0
