# generated using pymatgen
data_K2SnTe5
_symmetry_space_group_name_H-M   'P 1'
_cell_length_a   9.88603584
_cell_length_b   9.88603584
_cell_length_c   9.88603584
_cell_angle_alpha   128.05409281
_cell_angle_beta   128.05409281
_cell_angle_gamma   76.53741631
_symmetry_Int_Tables_number   1
_chemical_formula_structural   K2SnTe5
_chemical_formula_sum   'K4 Sn2 Te10'
_cell_volume   581.97245093
_cell_formula_units_Z   2
loop_
 _symmetry_equiv_pos_site_id
 _symmetry_equiv_pos_as_xyz
  1  'x, y, z'
loop_
 _atom_site_type_symbol
 _atom_site_label
 _atom_site_symmetry_multiplicity
 _atom_site_fract_x
 _atom_site_fract_y
 _atom_site_fract_z
 _atom_site_occupancy
  K  K0  1  -0.00310446  -0.00310446  0.00000000  1.0
  K  K1  1  0.49689554  0.49689554  1.00000000  1.0
  K  K2  1  0.24678851  0.24678851  -0.00000000  1.0
  K  K3  1  0.74678851  0.74678851  1.00000000  1.0
  Sn  Sn4  1  0.24661993  0.74661993  0.50000000  1.0
  Sn  Sn5  1  0.74661993  0.24661993  0.50000000  1.0
  Te  Te6  1  0.45302484  0.95302483  1.13949291  1.0
  Te  Te7  1  0.31353192  0.45302484  0.50000000  1.0
  Te  Te8  1  0.95302483  0.81353192  1.50000000  1.0
  Te  Te9  1  0.81353192  0.31353192  0.86050709  1.0
  Te  Te10  1  1.17985422  0.67985422  1.13959337  1.0
  Te  Te11  1  1.04026085  1.17985422  1.50000000  1.0
  Te  Te12  1  0.67985422  0.54026085  0.50000000  1.0
  Te  Te13  1  0.54026085  1.04026085  0.86040663  1.0
  Te  Te14  1  -0.00337581  0.49662419  0.50000000  1.0
  Te  Te15  1  0.49662419  -0.00337581  0.50000000  1.0
