# generated using pymatgen
data_Tb2(Ga3Co)3
_symmetry_space_group_name_H-M   'P 1'
_cell_length_a   7.37795683
_cell_length_b   7.37795683
_cell_length_c   9.40147456
_cell_angle_alpha   90.00000000
_cell_angle_beta   90.00000000
_cell_angle_gamma   60.25107387
_symmetry_Int_Tables_number   1
_chemical_formula_structural   Tb2(Ga3Co)3
_chemical_formula_sum   'Tb4 Ga18 Co6'
_cell_volume   444.31608497
_cell_formula_units_Z   2
loop_
 _symmetry_equiv_pos_site_id
 _symmetry_equiv_pos_as_xyz
  1  'x, y, z'
loop_
 _atom_site_type_symbol
 _atom_site_label
 _atom_site_symmetry_multiplicity
 _atom_site_fract_x
 _atom_site_fract_y
 _atom_site_fract_z
 _atom_site_occupancy
  Tb  Tb0  1  -0.00273744  1.33168566  0.25000000  1.0
  Tb  Tb1  1  0.33168566  0.99726256  0.75000000  1.0
  Tb  Tb2  1  -0.33168566  1.00273744  0.25000000  1.0
  Tb  Tb3  1  0.00273744  0.66831434  0.75000000  1.0
  Ga  Ga4  1  0.00035784  0.66577187  0.42822974  1.0
  Ga  Ga5  1  0.00035784  0.66577187  0.07177026  1.0
  Ga  Ga6  1  -0.33422813  1.00035784  0.92822974  1.0
  Ga  Ga7  1  -0.33422813  1.00035784  0.57177026  1.0
  Ga  Ga8  1  0.33422813  0.99964216  0.42822974  1.0
  Ga  Ga9  1  0.33422813  0.99964216  0.07177026  1.0
  Ga  Ga10  1  -0.00035784  1.33422813  0.92822974  1.0
  Ga  Ga11  1  -0.00035784  1.33422813  0.57177026  1.0
  Ga  Ga12  1  0.33642199  0.45010728  0.25000000  1.0
  Ga  Ga13  1  -0.54989272  1.33642199  0.75000000  1.0
  Ga  Ga14  1  0.54989272  0.66357801  0.25000000  1.0
  Ga  Ga15  1  -0.33642199  1.54989272  0.75000000  1.0
  Ga  Ga16  1  0.33377991  0.66622009  0.94163605  1.0
  Ga  Ga17  1  0.33377991  0.66622009  0.55836395  1.0
  Ga  Ga18  1  -0.33377991  1.33377991  0.44163605  1.0
  Ga  Ga19  1  -0.33377991  1.33377991  0.05836395  1.0
  Ga  Ga20  1  0.12113200  0.87886800  0.25000000  1.0
  Ga  Ga21  1  -0.12113200  1.12113200  0.75000000  1.0
  Co  Co22  1  0.00000000  0.00000000  0.50000000  1.0
  Co  Co23  1  0.00000000  0.00000000  0.00000000  1.0
  Co  Co24  1  0.67054862  0.67054862  0.50000000  1.0
  Co  Co25  1  0.67054862  0.67054862  0.00000000  1.0
  Co  Co26  1  0.32945138  0.32945138  0.50000000  1.0
  Co  Co27  1  0.32945138  0.32945138  0.00000000  1.0
