# generated using pymatgen
data_CaFeF5
_symmetry_space_group_name_H-M   'P 1'
_cell_length_a   5.59054800
_cell_length_b   10.24942432
_cell_length_c   7.73132362
_cell_angle_alpha   90.00000000
_cell_angle_beta   109.96360963
_cell_angle_gamma   90.00000000
_symmetry_Int_Tables_number   1
_chemical_formula_structural   CaFeF5
_chemical_formula_sum   'Ca4 Fe4 F20'
_cell_volume   416.38379528
_cell_formula_units_Z   4
loop_
 _symmetry_equiv_pos_site_id
 _symmetry_equiv_pos_as_xyz
  1  'x, y, z'
loop_
 _atom_site_type_symbol
 _atom_site_label
 _atom_site_symmetry_multiplicity
 _atom_site_fract_x
 _atom_site_fract_y
 _atom_site_fract_z
 _atom_site_occupancy
  Fe  Fe0  1  0.60517516  0.24668153  0.39976666  1.0
  Fe  Fe1  1  0.60517516  0.25331847  0.89976666  1.0
  Fe  Fe2  1  0.39482484  0.74668153  0.10023334  1.0
  Fe  Fe3  1  0.39482484  0.75331847  0.60023334  1.0
  Ca  Ca4  1  0.97020840  0.48013258  0.24525697  1.0
  Ca  Ca5  1  0.97020840  0.01986742  0.74525697  1.0
  Ca  Ca6  1  0.02979160  0.98013258  0.25474303  1.0
  Ca  Ca7  1  0.02979160  0.51986742  0.75474303  1.0
  F  F8  1  0.88741729  0.11633133  0.44197366  1.0
  F  F9  1  0.88741729  0.38366867  0.94197366  1.0
  F  F10  1  0.11258271  0.61633133  0.05802634  1.0
  F  F11  1  0.11258271  0.88366867  0.55802634  1.0
  F  F12  1  0.85854902  0.38816300  0.49645393  1.0
  F  F13  1  0.85854902  0.11183700  0.99645393  1.0
  F  F14  1  0.14145098  0.88816300  0.00354607  1.0
  F  F15  1  0.14145098  0.61183700  0.50354607  1.0
  F  F16  1  0.65862364  0.29924313  0.16419236  1.0
  F  F17  1  0.65862364  0.20075687  0.66419236  1.0
  F  F18  1  0.34137636  0.79924313  0.33580764  1.0
  F  F19  1  0.34137636  0.70075687  0.83580764  1.0
  F  F20  1  0.33071011  0.36383022  0.36007286  1.0
  F  F21  1  0.33071011  0.13616978  0.86007286  1.0
  F  F22  1  0.66928989  0.86383022  0.13992714  1.0
  F  F23  1  0.66928989  0.63616978  0.63992714  1.0
  F  F24  1  0.37728978  0.10565027  0.31037478  1.0
  F  F25  1  0.37728978  0.39434973  0.81037478  1.0
  F  F26  1  0.62271022  0.60565027  0.18962522  1.0
  F  F27  1  0.62271022  0.89434973  0.68962522  1.0
