# generated using pymatgen
data_SeBr
_symmetry_space_group_name_H-M   'P 1'
_cell_length_a   4.46705512
_cell_length_b   4.46705512
_cell_length_c   15.32877717
_cell_angle_alpha   90.00000000
_cell_angle_beta   90.00000000
_cell_angle_gamma   72.64795893
_symmetry_Int_Tables_number   1
_chemical_formula_structural   SeBr
_chemical_formula_sum   'Se4 Br4'
_cell_volume   291.95885717
_cell_formula_units_Z   4
loop_
 _symmetry_equiv_pos_site_id
 _symmetry_equiv_pos_as_xyz
  1  'x, y, z'
loop_
 _atom_site_type_symbol
 _atom_site_label
 _atom_site_symmetry_multiplicity
 _atom_site_fract_x
 _atom_site_fract_y
 _atom_site_fract_z
 _atom_site_occupancy
  Se  Se0  1  0.38702082  0.37836997  0.45084336  1.0
  Se  Se1  1  0.12163003  0.11297918  0.95084336  1.0
  Se  Se2  1  0.62163003  0.61297918  0.54915664  1.0
  Se  Se3  1  0.88702082  0.87836997  0.04915664  1.0
  Br  Br4  1  -0.24111275  1.14233811  0.33740288  1.0
  Br  Br5  1  0.35766189  0.74111275  0.83740288  1.0
  Br  Br6  1  -0.14233811  1.24111275  0.66259712  1.0
  Br  Br7  1  0.25888725  0.64233811  0.16259712  1.0
