# generated using pymatgen
data_SeS2(NO)2
_symmetry_space_group_name_H-M   'P 1'
_cell_length_a   8.66080523
_cell_length_b   8.66080523
_cell_length_c   7.99071045
_cell_angle_alpha   85.53550048
_cell_angle_beta   94.46449952
_cell_angle_gamma   148.36302325
_symmetry_Int_Tables_number   1
_chemical_formula_structural   SeS2(NO)2
_chemical_formula_sum   'Se2 S4 N4 O4'
_cell_volume   313.36519350
_cell_formula_units_Z   2
loop_
 _symmetry_equiv_pos_site_id
 _symmetry_equiv_pos_as_xyz
  1  'x, y, z'
loop_
 _atom_site_type_symbol
 _atom_site_label
 _atom_site_symmetry_multiplicity
 _atom_site_fract_x
 _atom_site_fract_y
 _atom_site_fract_z
 _atom_site_occupancy
  Se  Se0  1  0.84890822  0.84890822  0.25000000  1.0
  Se  Se1  1  0.15109178  0.15109178  0.75000000  1.0
  S  S2  1  1.49116176  -0.19554101  0.36534961  1.0
  S  S3  1  1.19554101  -0.49116176  0.86534961  1.0
  S  S4  1  0.80445899  -0.50883824  0.13465039  1.0
  S  S5  1  1.50883824  0.19554101  0.63465039  1.0
  N  N6  1  1.50730535  -0.34552502  0.30158605  1.0
  N  N7  1  1.34552502  -0.50730535  0.80158605  1.0
  N  N8  1  0.65447498  -0.49269465  0.19841395  1.0
  N  N9  1  1.49269465  0.34552502  0.69841395  1.0
  O  O10  1  1.76990338  0.12762231  0.38758671  1.0
  O  O11  1  0.87237769  -0.76990338  0.88758671  1.0
  O  O12  1  1.12762231  -0.23009662  0.11241329  1.0
  O  O13  1  1.23009662  -0.12762231  0.61241329  1.0
