# generated using pymatgen
data_SrInPd
_symmetry_space_group_name_H-M   'P 1'
_cell_length_a   7.71609059
_cell_length_b   4.54467889
_cell_length_c   8.74135593
_cell_angle_alpha   90.00000000
_cell_angle_beta   90.00000000
_cell_angle_gamma   90.00000000
_symmetry_Int_Tables_number   1
_chemical_formula_structural   SrInPd
_chemical_formula_sum   'Sr4 In4 Pd4'
_cell_volume   306.53447448
_cell_formula_units_Z   4
loop_
 _symmetry_equiv_pos_site_id
 _symmetry_equiv_pos_as_xyz
  1  'x, y, z'
loop_
 _atom_site_type_symbol
 _atom_site_label
 _atom_site_symmetry_multiplicity
 _atom_site_fract_x
 _atom_site_fract_y
 _atom_site_fract_z
 _atom_site_occupancy
  Sr  Sr0  1  1.03206643  0.75000000  0.67992497  1.0
  Sr  Sr1  1  0.53206643  0.75000000  0.82007503  1.0
  Sr  Sr2  1  -0.03206643  0.25000000  0.32007503  1.0
  Sr  Sr3  1  0.46793357  0.25000000  0.17992497  1.0
  In  In4  1  0.64555942  0.75000000  0.43636947  1.0
  In  In5  1  0.14555942  0.75000000  0.06363053  1.0
  In  In6  1  0.35444058  0.25000000  0.56363053  1.0
  In  In7  1  0.85444058  0.25000000  0.93636947  1.0
  Pd  Pd8  1  0.77650812  0.75000000  0.12333242  1.0
  Pd  Pd9  1  0.27650812  0.75000000  0.37666758  1.0
  Pd  Pd10  1  0.22349188  0.25000000  0.87666758  1.0
  Pd  Pd11  1  0.72349188  0.25000000  0.62333242  1.0
