# generated using pymatgen
data_Re(Ni2Mo5)2
_symmetry_space_group_name_H-M   'P 1'
_cell_length_a   9.38335104
_cell_length_b   9.38335104
_cell_length_c   4.89561966
_cell_angle_alpha   90.00000000
_cell_angle_beta   90.00000000
_cell_angle_gamma   90.00000000
_symmetry_Int_Tables_number   1
_chemical_formula_structural   Re(Ni2Mo5)2
_chemical_formula_sum   'Re2 Ni8 Mo20'
_cell_volume   431.04597909
_cell_formula_units_Z   2
loop_
 _symmetry_equiv_pos_site_id
 _symmetry_equiv_pos_as_xyz
  1  'x, y, z'
loop_
 _atom_site_type_symbol
 _atom_site_label
 _atom_site_symmetry_multiplicity
 _atom_site_fract_x
 _atom_site_fract_y
 _atom_site_fract_z
 _atom_site_occupancy
  Re  Re0  1  0.50000000  0.50000000  0.50000000  1.0
  Re  Re1  1  0.00000000  0.00000000  0.00000000  1.0
  Ni  Ni2  1  0.42919412  0.24131460  0.50000000  1.0
  Ni  Ni3  1  0.57080588  0.75868540  0.50000000  1.0
  Ni  Ni4  1  0.07080588  0.74131460  0.00000000  1.0
  Ni  Ni5  1  0.92919412  0.25868540  0.00000000  1.0
  Ni  Ni6  1  0.24131460  0.42919412  0.50000000  1.0
  Ni  Ni7  1  0.75868540  0.57080588  0.50000000  1.0
  Ni  Ni8  1  0.74131460  0.07080588  0.00000000  1.0
  Ni  Ni9  1  0.25868540  0.92919412  0.00000000  1.0
  Mo  Mo10  1  0.10588988  0.89411012  0.50000000  1.0
  Mo  Mo11  1  0.89411012  0.10588988  0.50000000  1.0
  Mo  Mo12  1  0.39411012  0.39411012  0.00000000  1.0
  Mo  Mo13  1  0.60588988  0.60588988  0.00000000  1.0
  Mo  Mo14  1  0.37292631  0.96194365  0.50000000  1.0
  Mo  Mo15  1  0.62707369  0.03805635  0.50000000  1.0
  Mo  Mo16  1  0.12707369  0.46194365  0.00000000  1.0
  Mo  Mo17  1  0.87292631  0.53805635  0.00000000  1.0
  Mo  Mo18  1  0.96194365  0.37292631  0.50000000  1.0
  Mo  Mo19  1  0.03805635  0.62707369  0.50000000  1.0
  Mo  Mo20  1  0.46194365  0.12707369  0.00000000  1.0
  Mo  Mo21  1  0.53805635  0.87292631  0.00000000  1.0
  Mo  Mo22  1  0.31719977  0.68280023  0.25182013  1.0
  Mo  Mo23  1  0.68280023  0.31719977  0.25182013  1.0
  Mo  Mo24  1  0.18280023  0.18280023  0.75182013  1.0
  Mo  Mo25  1  0.81719977  0.81719977  0.75182013  1.0
  Mo  Mo26  1  0.68280023  0.31719977  0.74817987  1.0
  Mo  Mo27  1  0.31719977  0.68280023  0.74817987  1.0
  Mo  Mo28  1  0.81719977  0.81719977  0.24817987  1.0
  Mo  Mo29  1  0.18280023  0.18280023  0.24817987  1.0
