# generated using pymatgen
data_GdCl
_symmetry_space_group_name_H-M   'P 1'
_cell_length_a   10.30918515
_cell_length_b   10.30918515
_cell_length_c   10.30918515
_cell_angle_alpha   21.44815364
_cell_angle_beta   21.44815364
_cell_angle_gamma   21.44815364
_symmetry_Int_Tables_number   1
_chemical_formula_structural   GdCl
_chemical_formula_sum   'Gd2 Cl2'
_cell_volume   128.35028297
_cell_formula_units_Z   2
loop_
 _symmetry_equiv_pos_site_id
 _symmetry_equiv_pos_as_xyz
  1  'x, y, z'
loop_
 _atom_site_type_symbol
 _atom_site_label
 _atom_site_symmetry_multiplicity
 _atom_site_fract_x
 _atom_site_fract_y
 _atom_site_fract_z
 _atom_site_occupancy
  Gd  Gd0  1  0.71327250  0.71327250  0.71327250  1.0
  Gd  Gd1  1  1.28672750  1.28672750  0.28672750  1.0
  Cl  Cl2  1  0.89626827  0.89626827  0.89626827  1.0
  Cl  Cl3  1  1.10373173  1.10373173  0.10373173  1.0
