# generated using pymatgen
data_Rb3Na(WO4)2
_symmetry_space_group_name_H-M   'P 1'
_cell_length_a   6.29793232
_cell_length_b   6.29793232
_cell_length_c   8.04183632
_cell_angle_alpha   90.00000000
_cell_angle_beta   90.00000000
_cell_angle_gamma   120.00000000
_symmetry_Int_Tables_number   1
_chemical_formula_structural   Rb3Na(WO4)2
_chemical_formula_sum   'Rb3 Na1 W2 O8'
_cell_volume   276.23699405
_cell_formula_units_Z   1
loop_
 _symmetry_equiv_pos_site_id
 _symmetry_equiv_pos_as_xyz
  1  'x, y, z'
loop_
 _atom_site_type_symbol
 _atom_site_label
 _atom_site_symmetry_multiplicity
 _atom_site_fract_x
 _atom_site_fract_y
 _atom_site_fract_z
 _atom_site_occupancy
  Rb  Rb0  1  0.33333333  0.66666667  0.66530843  1.0
  Rb  Rb1  1  0.66666667  0.33333333  0.33469157  1.0
  Rb  Rb2  1  0.00000000  0.00000000  -0.00000000  1.0
  Na  Na3  1  -0.00000000  -0.00000000  0.50000000  1.0
  W  W4  1  0.33333333  0.66666667  0.22517718  1.0
  W  W5  1  0.66666667  0.33333333  0.77482282  1.0
  O  O6  1  0.64252123  0.82126061  0.30511990  1.0
  O  O7  1  0.82126061  0.64252123  0.69488010  1.0
  O  O8  1  0.82126061  0.17873939  0.69488010  1.0
  O  O9  1  0.17873939  0.82126061  0.30511990  1.0
  O  O10  1  0.17873939  0.35747877  0.30511990  1.0
  O  O11  1  0.35747877  0.17873939  0.69488010  1.0
  O  O12  1  0.33333333  0.66666667  1.00299064  1.0
  O  O13  1  0.66666667  0.33333333  -0.00299064  1.0
