# generated using pymatgen
data_SmPO4
_symmetry_space_group_name_H-M   'P 1'
_cell_length_a   7.09127965
_cell_length_b   7.09127965
_cell_length_c   6.40963853
_cell_angle_alpha   90.00000000
_cell_angle_beta   90.00000000
_cell_angle_gamma   120.00000000
_symmetry_Int_Tables_number   1
_chemical_formula_structural   SmPO4
_chemical_formula_sum   'Sm3 P3 O12'
_cell_volume   279.13442134
_cell_formula_units_Z   3
loop_
 _symmetry_equiv_pos_site_id
 _symmetry_equiv_pos_as_xyz
  1  'x, y, z'
loop_
 _atom_site_type_symbol
 _atom_site_label
 _atom_site_symmetry_multiplicity
 _atom_site_fract_x
 _atom_site_fract_y
 _atom_site_fract_z
 _atom_site_occupancy
  Sm  Sm0  1  0.50000000  0.50000000  0.33333333  1.0
  Sm  Sm1  1  0.50000000  0.00000000  0.00000000  1.0
  Sm  Sm2  1  -0.00000000  0.50000000  0.66666667  1.0
  P  P3  1  0.50000000  0.50000000  0.83333333  1.0
  P  P4  1  0.50000000  0.00000000  0.50000000  1.0
  P  P5  1  -0.00000000  0.50000000  0.16666667  1.0
  O  O6  1  0.30649145  0.86168286  0.64978725  1.0
  O  O7  1  0.30649145  0.44480859  0.68354608  1.0
  O  O8  1  0.86168286  0.30649145  0.01687942  1.0
  O  O9  1  0.86168286  0.55519141  0.31645392  1.0
  O  O10  1  0.55519141  0.86168286  0.35021275  1.0
  O  O11  1  0.55519141  0.69350855  0.98312058  1.0
  O  O12  1  0.13831714  0.69350855  0.01687942  1.0
  O  O13  1  0.13831714  0.44480859  0.31645392  1.0
  O  O14  1  0.69350855  0.55519141  0.68354608  1.0
  O  O15  1  0.69350855  0.13831714  0.64978725  1.0
  O  O16  1  0.44480859  0.30649145  0.98312058  1.0
  O  O17  1  0.44480859  0.13831714  0.35021275  1.0
