# generated using pymatgen
data_CsGa7
_symmetry_space_group_name_H-M   'P 1'
_cell_length_a   10.50846122
_cell_length_b   10.50846122
_cell_length_c   10.50846122
_cell_angle_alpha   37.46943206
_cell_angle_beta   37.46943206
_cell_angle_gamma   37.46943206
_symmetry_Int_Tables_number   1
_chemical_formula_structural   CsGa7
_chemical_formula_sum   'Cs2 Ga14'
_cell_volume   385.11549632
_cell_formula_units_Z   2
loop_
 _symmetry_equiv_pos_site_id
 _symmetry_equiv_pos_as_xyz
  1  'x, y, z'
loop_
 _atom_site_type_symbol
 _atom_site_label
 _atom_site_symmetry_multiplicity
 _atom_site_fract_x
 _atom_site_fract_y
 _atom_site_fract_z
 _atom_site_occupancy
  Cs  Cs0  1  0.69450500  0.69450500  0.69450500  1.0
  Cs  Cs1  1  1.30549500  1.30549500  0.30549500  1.0
  Ga  Ga2  1  0.95533153  0.95533153  0.95533153  1.0
  Ga  Ga3  1  1.04466847  1.04466847  0.04466847  1.0
  Ga  Ga4  1  1.28410283  0.28410283  0.70456697  1.0
  Ga  Ga5  1  1.28410283  0.70456697  0.28410283  1.0
  Ga  Ga6  1  1.29543303  0.71589717  0.71589717  1.0
  Ga  Ga7  1  1.71589717  0.29543303  0.71589717  1.0
  Ga  Ga8  1  1.71589717  0.71589717  0.29543303  1.0
  Ga  Ga9  1  1.70456697  0.28410283  0.28410283  1.0
  Ga  Ga10  1  1.31817438  1.31817438  -0.08088060  1.0
  Ga  Ga11  1  1.31817438  0.91911940  0.31817438  1.0
  Ga  Ga12  1  1.08088060  0.68182562  0.68182562  1.0
  Ga  Ga13  1  1.68182562  0.08088060  0.68182562  1.0
  Ga  Ga14  1  1.68182562  0.68182562  0.08088060  1.0
  Ga  Ga15  1  0.91911940  1.31817438  0.31817438  1.0
