# generated using pymatgen
data_Si
_symmetry_space_group_name_H-M   'P 1'
_cell_length_a   6.24243218
_cell_length_b   6.24243218
_cell_length_c   6.24243218
_cell_angle_alpha   105.14611898
_cell_angle_beta   105.14611898
_cell_angle_gamma   118.51813396
_symmetry_Int_Tables_number   1
_chemical_formula_structural   Si
_chemical_formula_sum   Si8
_cell_volume   183.70662277
_cell_formula_units_Z   8
loop_
 _symmetry_equiv_pos_site_id
 _symmetry_equiv_pos_as_xyz
  1  'x, y, z'
loop_
 _atom_site_type_symbol
 _atom_site_label
 _atom_site_symmetry_multiplicity
 _atom_site_fract_x
 _atom_site_fract_y
 _atom_site_fract_z
 _atom_site_occupancy
  Si  Si0  1  1.03929841  0.53929841  1.20567657  1.0
  Si  Si1  1  0.33362184  0.83362184  0.79432343  1.0
  Si  Si2  1  0.53929841  0.33362184  0.50000000  1.0
  Si  Si3  1  0.83362184  1.03929841  1.50000000  1.0
  Si  Si4  1  0.96070159  0.46070159  0.79432343  1.0
  Si  Si5  1  0.66637816  1.16637816  1.20567657  1.0
  Si  Si6  1  0.46070159  0.66637816  0.50000000  1.0
  Si  Si7  1  1.16637816  0.96070159  1.50000000  1.0
