# generated using pymatgen
data_Gd12InNi6
_symmetry_space_group_name_H-M   'P 1'
_cell_length_a   8.51036514
_cell_length_b   8.51036514
_cell_length_c   8.51036514
_cell_angle_alpha   109.47122063
_cell_angle_beta   109.47122063
_cell_angle_gamma   109.47122063
_symmetry_Int_Tables_number   1
_chemical_formula_structural   Gd12InNi6
_chemical_formula_sum   'Gd12 In1 Ni6'
_cell_volume   474.48522308
_cell_formula_units_Z   1
loop_
 _symmetry_equiv_pos_site_id
 _symmetry_equiv_pos_as_xyz
  1  'x, y, z'
loop_
 _atom_site_type_symbol
 _atom_site_label
 _atom_site_symmetry_multiplicity
 _atom_site_fract_x
 _atom_site_fract_y
 _atom_site_fract_z
 _atom_site_occupancy
  Gd  Gd0  1  0.81398361  1.30434074  1.11832435  1.0
  Gd  Gd1  1  0.81398361  0.69565926  0.50964287  1.0
  Gd  Gd2  1  0.18601639  0.30434074  0.49035713  1.0
  Gd  Gd3  1  0.18601639  0.69565926  0.88167565  1.0
  Gd  Gd4  1  0.50964287  0.81398361  0.69565926  1.0
  Gd  Gd5  1  1.11832435  0.81398361  1.30434074  1.0
  Gd  Gd6  1  0.69565926  0.88167565  0.18601639  1.0
  Gd  Gd7  1  0.69565926  0.50964287  0.81398361  1.0
  Gd  Gd8  1  0.88167565  0.18601639  0.69565926  1.0
  Gd  Gd9  1  0.49035713  0.18601639  0.30434074  1.0
  Gd  Gd10  1  0.30434074  0.49035713  0.18601639  1.0
  Gd  Gd11  1  1.30434074  1.11832435  0.81398361  1.0
  In  In12  1  0.00000000  0.00000000  0.00000000  1.0
  Ni  Ni13  1  0.87642045  0.37642045  0.50000000  1.0
  Ni  Ni14  1  0.50000000  0.12357955  0.62357955  1.0
  Ni  Ni15  1  0.50000000  0.87642045  0.37642045  1.0
  Ni  Ni16  1  0.37642045  0.50000000  0.87642045  1.0
  Ni  Ni17  1  0.62357955  0.50000000  0.12357955  1.0
  Ni  Ni18  1  0.12357955  0.62357955  0.50000000  1.0
