# generated using pymatgen
data_Sr5Cr3O12F
_symmetry_space_group_name_H-M   'P 1'
_cell_length_a   10.06418459
_cell_length_b   10.06418459
_cell_length_c   7.47922226
_cell_angle_alpha   90.00000000
_cell_angle_beta   90.00000000
_cell_angle_gamma   120.00000000
_symmetry_Int_Tables_number   1
_chemical_formula_structural   Sr5Cr3O12F
_chemical_formula_sum   'Sr10 Cr6 O24 F2'
_cell_volume   656.06105551
_cell_formula_units_Z   2
loop_
 _symmetry_equiv_pos_site_id
 _symmetry_equiv_pos_as_xyz
  1  'x, y, z'
loop_
 _atom_site_type_symbol
 _atom_site_label
 _atom_site_symmetry_multiplicity
 _atom_site_fract_x
 _atom_site_fract_y
 _atom_site_fract_z
 _atom_site_occupancy
  Sr  Sr0  1  0.00719881  0.75850477  0.25000000  1.0
  Sr  Sr1  1  0.75850477  0.75130596  0.75000000  1.0
  Sr  Sr2  1  0.75130596  0.99280119  0.25000000  1.0
  Sr  Sr3  1  0.24149523  0.24869404  0.25000000  1.0
  Sr  Sr4  1  0.99280119  0.24149523  0.75000000  1.0
  Sr  Sr5  1  0.24869404  0.00719881  0.75000000  1.0
  Sr  Sr6  1  0.33333333  0.66666667  0.50016004  1.0
  Sr  Sr7  1  0.33333333  0.66666667  -0.00016004  1.0
  Sr  Sr8  1  0.66666667  0.33333333  1.00016004  1.0
  Sr  Sr9  1  0.66666667  0.33333333  0.49983996  1.0
  Cr  Cr10  1  0.63154618  0.60120772  0.25000000  1.0
  Cr  Cr11  1  0.60120772  0.96966154  0.75000000  1.0
  Cr  Cr12  1  0.96966154  0.36845382  0.25000000  1.0
  Cr  Cr13  1  0.39879228  0.03033846  0.25000000  1.0
  Cr  Cr14  1  0.36845382  0.39879228  0.75000000  1.0
  Cr  Cr15  1  0.03033846  0.63154618  0.75000000  1.0
  O  O16  1  0.74849640  0.65781226  0.43235557  1.0
  O  O17  1  0.74849640  0.65781226  0.06764443  1.0
  O  O18  1  0.65781226  0.90931587  0.93235557  1.0
  O  O19  1  0.65781226  0.90931587  0.56764443  1.0
  O  O20  1  0.90931587  0.25150360  0.43235557  1.0
  O  O21  1  0.90931587  0.25150360  0.06764443  1.0
  O  O22  1  0.34218774  0.09068413  0.43235557  1.0
  O  O23  1  0.34218774  0.09068413  0.06764443  1.0
  O  O24  1  0.25150360  0.34218774  0.93235557  1.0
  O  O25  1  0.25150360  0.34218774  0.56764443  1.0
  O  O26  1  0.09068413  0.74849640  0.93235557  1.0
  O  O27  1  0.09068413  0.74849640  0.56764443  1.0
  O  O28  1  0.31599204  0.83480041  0.25000000  1.0
  O  O29  1  0.83480041  0.51880837  0.75000000  1.0
  O  O30  1  0.51880837  0.68400796  0.25000000  1.0
  O  O31  1  0.16519959  0.48119163  0.25000000  1.0
  O  O32  1  0.68400796  0.16519959  0.75000000  1.0
  O  O33  1  0.48119163  0.31599204  0.75000000  1.0
  O  O34  1  0.53112642  0.40430542  0.25000000  1.0
  O  O35  1  0.40430542  0.87317899  0.75000000  1.0
  O  O36  1  0.87317899  0.46887358  0.25000000  1.0
  O  O37  1  0.59569458  0.12682101  0.25000000  1.0
  O  O38  1  0.46887358  0.59569458  0.75000000  1.0
  O  O39  1  0.12682101  0.53112642  0.75000000  1.0
  F  F40  1  0.00000000  0.00000000  0.25000000  1.0
  F  F41  1  0.00000000  0.00000000  0.75000000  1.0
