# generated using pymatgen
data_GdVO2
_symmetry_space_group_name_H-M   'P 1'
_cell_length_a   7.29852301
_cell_length_b   7.29852301
_cell_length_c   7.29852301
_cell_angle_alpha   130.36227950
_cell_angle_beta   130.36227950
_cell_angle_gamma   72.82826201
_symmetry_Int_Tables_number   1
_chemical_formula_structural   GdVO2
_chemical_formula_sum   'Gd4 V4 O8'
_cell_volume   220.49957101
_cell_formula_units_Z   4
loop_
 _symmetry_equiv_pos_site_id
 _symmetry_equiv_pos_as_xyz
  1  'x, y, z'
loop_
 _atom_site_type_symbol
 _atom_site_label
 _atom_site_symmetry_multiplicity
 _atom_site_fract_x
 _atom_site_fract_y
 _atom_site_fract_z
 _atom_site_occupancy
  Gd  Gd0  1  0.37500000  0.62500000  0.75000000  1.0
  Gd  Gd1  1  0.87500000  0.62500000  1.25000000  1.0
  Gd  Gd2  1  0.37500000  1.12500000  0.75000000  1.0
  Gd  Gd3  1  0.37500000  0.62500000  0.25000000  1.0
  V  V4  1  0.87500000  0.12500000  0.75000000  1.0
  V  V5  1  0.37500000  0.12500000  0.25000000  1.0
  V  V6  1  0.87500000  0.62500000  0.75000000  1.0
  V  V7  1  0.87500000  1.12500000  1.25000000  1.0
  O  O8  1  1.17211225  0.95333603  1.78122044  1.0
  O  O9  1  0.57788441  0.85910818  1.28122044  1.0
  O  O10  1  1.04666397  0.82788441  1.21877623  1.0
  O  O11  1  1.14089182  1.42211225  1.71877623  1.0
  O  O12  1  0.17211559  0.39089182  0.21877956  1.0
  O  O13  1  0.57788775  0.29666397  0.71877956  1.0
  O  O14  1  0.60910818  0.82788775  0.78122377  1.0
  O  O15  1  0.70333603  0.42211559  0.28122377  1.0
