# generated using pymatgen
data_La2Co7
_symmetry_space_group_name_H-M   'P 1'
_cell_length_a   5.06328858
_cell_length_b   5.06328858
_cell_length_c   24.59521901
_cell_angle_alpha   90.00000000
_cell_angle_beta   90.00000000
_cell_angle_gamma   120.00000000
_symmetry_Int_Tables_number   1
_chemical_formula_structural   La2Co7
_chemical_formula_sum   'La8 Co28'
_cell_volume   546.06795009
_cell_formula_units_Z   4
loop_
 _symmetry_equiv_pos_site_id
 _symmetry_equiv_pos_as_xyz
  1  'x, y, z'
loop_
 _atom_site_type_symbol
 _atom_site_label
 _atom_site_symmetry_multiplicity
 _atom_site_fract_x
 _atom_site_fract_y
 _atom_site_fract_z
 _atom_site_occupancy
  La  La0  1  0.33333333  0.66666667  0.97242076  1.0
  La  La1  1  0.33333333  0.66666667  0.52757924  1.0
  La  La2  1  0.66666667  0.33333333  0.47242076  1.0
  La  La3  1  0.66666667  0.33333333  0.02757924  1.0
  La  La4  1  0.33333333  0.66666667  0.82723886  1.0
  La  La5  1  0.33333333  0.66666667  0.67276114  1.0
  La  La6  1  0.66666667  0.33333333  0.32723886  1.0
  La  La7  1  0.66666667  0.33333333  0.17276114  1.0
  Co  Co8  1  0.16455385  0.83544615  0.41069851  1.0
  Co  Co9  1  0.16455385  0.83544615  0.08930149  1.0
  Co  Co10  1  0.16455385  0.32910770  0.41069851  1.0
  Co  Co11  1  0.16455385  0.32910770  0.08930149  1.0
  Co  Co12  1  0.83544615  0.16455385  0.91069851  1.0
  Co  Co13  1  0.83544615  0.16455385  0.58930149  1.0
  Co  Co14  1  0.83544615  0.67089230  0.91069851  1.0
  Co  Co15  1  0.83544615  0.67089230  0.58930149  1.0
  Co  Co16  1  0.67089230  0.83544615  0.41069851  1.0
  Co  Co17  1  0.67089230  0.83544615  0.08930149  1.0
  Co  Co18  1  0.32910770  0.16455385  0.91069851  1.0
  Co  Co19  1  0.32910770  0.16455385  0.58930149  1.0
  Co  Co20  1  0.16644565  0.83355435  0.25000000  1.0
  Co  Co21  1  0.16644565  0.33289131  0.25000000  1.0
  Co  Co22  1  0.83355435  0.16644565  0.75000000  1.0
  Co  Co23  1  0.83355435  0.66710869  0.75000000  1.0
  Co  Co24  1  0.66710869  0.83355435  0.25000000  1.0
  Co  Co25  1  0.33289131  0.16644565  0.75000000  1.0
  Co  Co26  1  0.33333333  0.66666667  0.33137227  1.0
  Co  Co27  1  0.33333333  0.66666667  0.16862773  1.0
  Co  Co28  1  0.66666667  0.33333333  0.83137227  1.0
  Co  Co29  1  0.66666667  0.33333333  0.66862773  1.0
  Co  Co30  1  -0.00000000  -0.00000000  0.33048691  1.0
  Co  Co31  1  0.00000000  0.00000000  0.16951309  1.0
  Co  Co32  1  0.00000000  0.00000000  0.83048691  1.0
  Co  Co33  1  0.00000000  0.00000000  0.66951309  1.0
  Co  Co34  1  0.00000000  -0.00000000  0.50000000  1.0
  Co  Co35  1  0.00000000  0.00000000  -0.00000000  1.0
