# generated using pymatgen
data_GdCuPb
_symmetry_space_group_name_H-M   'P 1'
_cell_length_a   4.65199895
_cell_length_b   4.65199895
_cell_length_c   7.48290782
_cell_angle_alpha   90.00000000
_cell_angle_beta   90.00000000
_cell_angle_gamma   120.00000000
_symmetry_Int_Tables_number   1
_chemical_formula_structural   GdCuPb
_chemical_formula_sum   'Gd2 Cu2 Pb2'
_cell_volume   140.24269296
_cell_formula_units_Z   2
loop_
 _symmetry_equiv_pos_site_id
 _symmetry_equiv_pos_as_xyz
  1  'x, y, z'
loop_
 _atom_site_type_symbol
 _atom_site_label
 _atom_site_symmetry_multiplicity
 _atom_site_fract_x
 _atom_site_fract_y
 _atom_site_fract_z
 _atom_site_occupancy
  Gd  Gd0  1  0.00000000  0.00000000  0.01125469  1.0
  Gd  Gd1  1  -0.00000000  -0.00000000  0.51125469  1.0
  Cu  Cu2  1  0.33333333  0.66666667  0.68821701  1.0
  Cu  Cu3  1  0.66666667  0.33333333  0.18821701  1.0
  Pb  Pb4  1  0.33333333  0.66666667  0.28162830  1.0
  Pb  Pb5  1  0.66666667  0.33333333  0.78162830  1.0
