# generated using pymatgen
data_Sr5Ni2BiO8
_symmetry_space_group_name_H-M   'P 1'
_cell_length_a   9.62855558
_cell_length_b   9.62855558
_cell_length_c   9.62855558
_cell_angle_alpha   147.22027144
_cell_angle_beta   147.22027144
_cell_angle_gamma   47.03774475
_symmetry_Int_Tables_number   1
_chemical_formula_structural   Sr5Ni2BiO8
_chemical_formula_sum   'Sr5 Ni2 Bi1 O8'
_cell_volume   260.67899182
_cell_formula_units_Z   1
loop_
 _symmetry_equiv_pos_site_id
 _symmetry_equiv_pos_as_xyz
  1  'x, y, z'
loop_
 _atom_site_type_symbol
 _atom_site_label
 _atom_site_symmetry_multiplicity
 _atom_site_fract_x
 _atom_site_fract_y
 _atom_site_fract_z
 _atom_site_occupancy
  Sr  Sr0  1  0.34415860  0.84415860  0.50000000  1.0
  Sr  Sr1  1  0.65584140  0.15584140  0.50000000  1.0
  Sr  Sr2  1  0.84415860  0.34415860  0.50000000  1.0
  Sr  Sr3  1  0.15584140  0.65584140  0.50000000  1.0
  Sr  Sr4  1  0.50000000  0.50000000  1.00000000  1.0
  Ni  Ni5  1  0.74860046  0.74860046  1.00000000  1.0
  Ni  Ni6  1  0.25139954  0.25139954  0.00000000  1.0
  Bi  Bi7  1  0.00000000  0.00000000  0.00000000  1.0
  O  O8  1  0.50000000  0.50000000  0.50000000  1.0
  O  O9  1  1.00000000  1.00000000  1.50000000  1.0
  O  O10  1  1.00000000  0.50000000  1.00000000  1.0
  O  O11  1  0.50000000  1.00000000  1.00000000  1.0
  O  O12  1  0.86435734  0.86435734  1.00000000  1.0
  O  O13  1  0.13564266  0.13564266  0.00000000  1.0
  O  O14  1  0.63324789  0.63324789  1.00000000  1.0
  O  O15  1  0.36675211  0.36675211  0.00000000  1.0
