# generated using pymatgen
data_MgH6(CO3)2
_symmetry_space_group_name_H-M   'P 1'
_cell_length_a   8.71080787
_cell_length_b   7.19212867
_cell_length_c   9.47068092
_cell_angle_alpha   90.00000000
_cell_angle_beta   97.90251906
_cell_angle_gamma   90.00000000
_symmetry_Int_Tables_number   1
_chemical_formula_structural   MgH6(CO3)2
_chemical_formula_sum   'Mg4 H24 C8 O24'
_cell_volume   587.69645056
_cell_formula_units_Z   4
loop_
 _symmetry_equiv_pos_site_id
 _symmetry_equiv_pos_as_xyz
  1  'x, y, z'
loop_
 _atom_site_type_symbol
 _atom_site_label
 _atom_site_symmetry_multiplicity
 _atom_site_fract_x
 _atom_site_fract_y
 _atom_site_fract_z
 _atom_site_occupancy
  Mg  Mg0  1  0.00000000  0.00000000  0.00000000  1.0
  Mg  Mg1  1  0.00000000  0.50000000  0.50000000  1.0
  Mg  Mg2  1  0.50000000  0.50000000  -0.00000000  1.0
  Mg  Mg3  1  0.50000000  0.00000000  0.50000000  1.0
  H  H4  1  0.20746470  0.60872342  0.00352547  1.0
  H  H5  1  0.79253530  0.10872342  0.49647453  1.0
  H  H6  1  0.79253530  0.39127658  0.99647453  1.0
  H  H7  1  0.20746470  0.89127658  0.50352547  1.0
  H  H8  1  0.23239301  0.39292594  0.04065501  1.0
  H  H9  1  0.76760699  0.89292594  0.45934499  1.0
  H  H10  1  0.76760699  0.60707406  0.95934499  1.0
  H  H11  1  0.23239301  0.10707406  0.54065501  1.0
  H  H12  1  0.46881961  0.84717375  0.22281543  1.0
  H  H13  1  0.53118039  0.34717375  0.27718457  1.0
  H  H14  1  0.53118039  0.15282625  0.77718457  1.0
  H  H15  1  0.46881961  0.65282625  0.72281543  1.0
  H  H16  1  0.30358887  0.90011436  0.26355811  1.0
  H  H17  1  0.69641113  0.40011436  0.23644189  1.0
  H  H18  1  0.69641113  0.09988564  0.73644189  1.0
  H  H19  1  0.30358887  0.59988564  0.76355811  1.0
  H  H20  1  0.33007632  0.52496160  0.38298317  1.0
  H  H21  1  0.66992368  0.02496160  0.11701683  1.0
  H  H22  1  0.66992368  0.47503840  0.61701683  1.0
  H  H23  1  0.33007632  0.97503840  0.88298317  1.0
  H  H24  1  0.92880122  0.70427769  0.22134858  1.0
  H  H25  1  0.07119878  0.20427769  0.27865142  1.0
  H  H26  1  0.07119878  0.29572231  0.77865142  1.0
  H  H27  1  0.92880122  0.79572231  0.72134858  1.0
  C  C28  1  0.03506646  0.77403869  0.27223816  1.0
  C  C29  1  0.96493354  0.27403869  0.22776184  1.0
  C  C30  1  0.96493354  0.22596131  0.72776184  1.0
  C  C31  1  0.03506646  0.72596131  0.77223816  1.0
  C  C32  1  0.32568582  0.38548292  0.43156646  1.0
  C  C33  1  0.67431418  0.88548292  0.06843354  1.0
  C  C34  1  0.67431418  0.61451708  0.56843354  1.0
  C  C35  1  0.32568582  0.11451708  0.93156646  1.0
  O  O36  1  0.09777169  0.89285966  0.19975510  1.0
  O  O37  1  0.90222831  0.39285966  0.30024490  1.0
  O  O38  1  0.90222831  0.10714034  0.80024490  1.0
  O  O39  1  0.09777169  0.60714034  0.69975510  1.0
  O  O40  1  0.08582018  0.72878280  0.39962723  1.0
  O  O41  1  0.91417982  0.22878280  0.10037277  1.0
  O  O42  1  0.91417982  0.27121720  0.60037277  1.0
  O  O43  1  0.08582018  0.77121720  0.89962723  1.0
  O  O44  1  0.43671596  0.27556745  0.41972223  1.0
  O  O45  1  0.56328404  0.77556745  0.08027777  1.0
  O  O46  1  0.56328404  0.72443255  0.58027777  1.0
  O  O47  1  0.43671596  0.22443255  0.91972223  1.0
  O  O48  1  0.20879618  0.34706290  0.49372746  1.0
  O  O49  1  0.79120382  0.84706290  0.00627254  1.0
  O  O50  1  0.79120382  0.65293710  0.50627254  1.0
  O  O51  1  0.20879618  0.15293710  0.99372746  1.0
  O  O52  1  0.27768355  0.51887869  0.05965972  1.0
  O  O53  1  0.72231645  0.01887869  0.44034028  1.0
  O  O54  1  0.72231645  0.48112131  0.94034028  1.0
  O  O55  1  0.27768355  0.98112131  0.55965972  1.0
  O  O56  1  0.41437643  0.88984436  0.30241669  1.0
  O  O57  1  0.58562357  0.38984436  0.19758331  1.0
  O  O58  1  0.58562357  0.11015564  0.69758331  1.0
  O  O59  1  0.41437643  0.61015564  0.80241669  1.0
