# generated using pymatgen
data_Ni5W12C
_symmetry_space_group_name_H-M   'P 1'
_cell_length_a   9.68389459
_cell_length_b   9.68389459
_cell_length_c   9.68389459
_cell_angle_alpha   60.00000000
_cell_angle_beta   60.00000000
_cell_angle_gamma   60.00000000
_symmetry_Int_Tables_number   1
_chemical_formula_structural   Ni5W12C
_chemical_formula_sum   'Ni10 W24 C2'
_cell_volume   642.14804254
_cell_formula_units_Z   2
loop_
 _symmetry_equiv_pos_site_id
 _symmetry_equiv_pos_as_xyz
  1  'x, y, z'
loop_
 _atom_site_type_symbol
 _atom_site_label
 _atom_site_symmetry_multiplicity
 _atom_site_fract_x
 _atom_site_fract_y
 _atom_site_fract_z
 _atom_site_occupancy
  Ni  Ni0  1  0.66606656  -0.33393344  1.00180032  1.0
  Ni  Ni1  1  0.66606656  0.00180032  0.66606656  1.0
  Ni  Ni2  1  0.58393344  -0.41606656  0.58393344  1.0
  Ni  Ni3  1  1.24819968  -0.41606656  0.58393344  1.0
  Ni  Ni4  1  1.00180032  -0.33393344  0.66606656  1.0
  Ni  Ni5  1  0.66606656  -0.33393344  0.66606656  1.0
  Ni  Ni6  1  0.58393344  0.24819968  0.58393344  1.0
  Ni  Ni7  1  0.58393344  -0.41606656  1.24819968  1.0
  Ni  Ni8  1  0.50000000  0.50000000  -0.50000000  1.0
  Ni  Ni9  1  0.75000000  -0.25000000  0.75000000  1.0
  W  W10  1  0.95785284  -0.59732700  0.68162132  1.0
  W  W11  1  -0.04214716  0.68162132  0.40267300  1.0
  W  W12  1  -0.15267300  0.29214716  0.29214716  1.0
  W  W13  1  0.56837868  0.29214716  0.29214716  1.0
  W  W14  1  -0.59732700  0.95785284  0.68162132  1.0
  W  W15  1  0.95785284  -0.04214716  0.68162132  1.0
  W  W16  1  0.95785284  -0.31837868  0.95785284  1.0
  W  W17  1  -0.59732700  0.68162132  0.95785284  1.0
  W  W18  1  0.29214716  -0.15267300  0.29214716  1.0
  W  W19  1  0.29214716  0.29214716  -0.15267300  1.0
  W  W20  1  0.56837868  0.29214716  -0.15267300  1.0
  W  W21  1  0.56837868  -0.15267300  0.29214716  1.0
  W  W22  1  0.68162132  -0.04214716  0.95785284  1.0
  W  W23  1  -0.59732700  0.95785284  0.95785284  1.0
  W  W24  1  0.29214716  0.56837868  -0.15267300  1.0
  W  W25  1  0.29214716  -0.15267300  0.56837868  1.0
  W  W26  1  -0.31837868  0.95785284  0.40267300  1.0
  W  W27  1  0.68162132  -0.59732700  0.95785284  1.0
  W  W28  1  0.95785284  -0.59732700  0.95785284  1.0
  W  W29  1  -0.04214716  0.95785284  0.40267300  1.0
  W  W30  1  0.29214716  0.56837868  0.29214716  1.0
  W  W31  1  -0.15267300  0.56837868  0.29214716  1.0
  W  W32  1  -0.15267300  0.29214716  0.56837868  1.0
  W  W33  1  0.29214716  0.29214716  0.56837868  1.0
  C  C34  1  0.00000000  1.00000000  -0.00000000  1.0
  C  C35  1  0.25000000  0.25000000  0.25000000  1.0
