# generated using pymatgen
data_TiGeS3
_symmetry_space_group_name_H-M   'P 1'
_cell_length_a   9.30580880
_cell_length_b   3.48566323
_cell_length_c   13.89239939
_cell_angle_alpha   90.00000000
_cell_angle_beta   90.00000000
_cell_angle_gamma   90.00000000
_symmetry_Int_Tables_number   1
_chemical_formula_structural   TiGeS3
_chemical_formula_sum   'Ti4 Ge4 S12'
_cell_volume   450.62658567
_cell_formula_units_Z   4
loop_
 _symmetry_equiv_pos_site_id
 _symmetry_equiv_pos_as_xyz
  1  'x, y, z'
loop_
 _atom_site_type_symbol
 _atom_site_label
 _atom_site_symmetry_multiplicity
 _atom_site_fract_x
 _atom_site_fract_y
 _atom_site_fract_z
 _atom_site_occupancy
  Ti  Ti0  1  0.85446594  0.75000000  0.04725125  1.0
  Ti  Ti1  1  0.35446594  0.75000000  0.45274875  1.0
  Ti  Ti2  1  0.14553406  0.25000000  0.95274875  1.0
  Ti  Ti3  1  0.64553406  0.25000000  0.54725125  1.0
  Ge  Ge4  1  0.91305900  0.75000000  0.65341937  1.0
  Ge  Ge5  1  0.41305900  0.75000000  0.84658063  1.0
  Ge  Ge6  1  0.08694100  0.25000000  0.34658063  1.0
  Ge  Ge7  1  0.58694100  0.25000000  0.15341937  1.0
  S  S8  1  0.81135631  0.75000000  0.49213461  1.0
  S  S9  1  0.31135631  0.75000000  0.00786539  1.0
  S  S10  1  0.18864369  0.25000000  0.50786539  1.0
  S  S11  1  0.68864369  0.25000000  0.99213461  1.0
  S  S12  1  0.74546595  0.75000000  0.20722483  1.0
  S  S13  1  0.24546595  0.75000000  0.29277517  1.0
  S  S14  1  0.25453405  0.25000000  0.79277517  1.0
  S  S15  1  0.75453405  0.25000000  0.70722483  1.0
  S  S16  1  0.48260591  0.75000000  0.60456806  1.0
  S  S17  1  0.98260591  0.75000000  0.89543194  1.0
  S  S18  1  0.51739409  0.25000000  0.39543194  1.0
  S  S19  1  0.01739409  0.25000000  0.10456806  1.0
