# generated using pymatgen
data_Li3GaF6
_symmetry_space_group_name_H-M   'P 1'
_cell_length_a   9.71551339
_cell_length_b   8.51763888
_cell_length_c   5.03330497
_cell_angle_alpha   90.00000000
_cell_angle_beta   90.00000000
_cell_angle_gamma   90.00000000
_symmetry_Int_Tables_number   1
_chemical_formula_structural   Li3GaF6
_chemical_formula_sum   'Li12 Ga4 F24'
_cell_volume   416.52226738
_cell_formula_units_Z   4
loop_
 _symmetry_equiv_pos_site_id
 _symmetry_equiv_pos_as_xyz
  1  'x, y, z'
loop_
 _atom_site_type_symbol
 _atom_site_label
 _atom_site_symmetry_multiplicity
 _atom_site_fract_x
 _atom_site_fract_y
 _atom_site_fract_z
 _atom_site_occupancy
  Li  Li0  1  0.39779260  0.45315351  0.50011124  1.0
  Li  Li1  1  0.89779260  0.04684649  0.50011124  1.0
  Li  Li2  1  0.60220740  0.54684649  0.00011124  1.0
  Li  Li3  1  0.10220740  0.95315351  0.00011124  1.0
  Li  Li4  1  0.35121008  0.04749487  0.49460345  1.0
  Li  Li5  1  0.85121008  0.45250513  0.49460345  1.0
  Li  Li6  1  0.64878992  0.95250513  0.99460345  1.0
  Li  Li7  1  0.14878992  0.54749487  0.99460345  1.0
  Li  Li8  1  0.12527729  0.35388585  0.48878947  1.0
  Li  Li9  1  0.62527729  0.14611415  0.48878947  1.0
  Li  Li10  1  0.87472271  0.64611415  0.98878947  1.0
  Li  Li11  1  0.37472271  0.85388585  0.98878947  1.0
  Ga  Ga12  1  0.37139024  0.23957528  0.99725247  1.0
  Ga  Ga13  1  0.87139024  0.26042472  0.99725247  1.0
  Ga  Ga14  1  0.62860976  0.76042472  0.49725247  1.0
  Ga  Ga15  1  0.12860976  0.73957528  0.49725247  1.0
  F  F16  1  0.48974251  0.08639040  0.17331728  1.0
  F  F17  1  0.98974251  0.41360960  0.17331728  1.0
  F  F18  1  0.51025749  0.91360960  0.67331728  1.0
  F  F19  1  0.01025749  0.58639040  0.67331728  1.0
  F  F20  1  0.47690425  0.24507676  0.67513691  1.0
  F  F21  1  0.97690425  0.25492324  0.67513691  1.0
  F  F22  1  0.52309575  0.75492324  0.17513691  1.0
  F  F23  1  0.02309575  0.74507676  0.17513691  1.0
  F  F24  1  0.47362378  0.40706851  0.15211555  1.0
  F  F25  1  0.97362378  0.09293149  0.15211555  1.0
  F  F26  1  0.52637622  0.59293149  0.65211555  1.0
  F  F27  1  0.02637622  0.90706851  0.65211555  1.0
  F  F28  1  0.27367843  0.05985800  0.85269800  1.0
  F  F29  1  0.77367843  0.44014200  0.85269800  1.0
  F  F30  1  0.72632157  0.94014200  0.35269800  1.0
  F  F31  1  0.22632157  0.55985800  0.35269800  1.0
  F  F32  1  0.25983191  0.23044468  0.31071377  1.0
  F  F33  1  0.75983191  0.26955532  0.31071377  1.0
  F  F34  1  0.74016809  0.76955532  0.81071377  1.0
  F  F35  1  0.24016809  0.73044468  0.81071377  1.0
  F  F36  1  0.24922668  0.88534299  0.31676187  1.0
  F  F37  1  0.74922668  0.61465701  0.31676187  1.0
  F  F38  1  0.75077332  0.11465701  0.81676187  1.0
  F  F39  1  0.25077332  0.38534299  0.81676187  1.0
