# generated using pymatgen
data_HgP2(PdO4)2
_symmetry_space_group_name_H-M   'P 1'
_cell_length_a   9.91303277
_cell_length_b   8.72200193
_cell_length_c   6.87681632
_cell_angle_alpha   77.92441094
_cell_angle_beta   59.35961994
_cell_angle_gamma   42.71596912
_symmetry_Int_Tables_number   1
_chemical_formula_structural   HgP2(PdO4)2
_chemical_formula_sum   'Hg2 P4 Pd4 O16'
_cell_volume   332.82865451
_cell_formula_units_Z   2
loop_
 _symmetry_equiv_pos_site_id
 _symmetry_equiv_pos_as_xyz
  1  'x, y, z'
loop_
 _atom_site_type_symbol
 _atom_site_label
 _atom_site_symmetry_multiplicity
 _atom_site_fract_x
 _atom_site_fract_y
 _atom_site_fract_z
 _atom_site_occupancy
  Hg  Hg0  1  0.25000000  0.25000000  0.25000000  1.0
  Hg  Hg1  1  0.00000000  1.00000000  -0.00000000  1.0
  P  P2  1  0.45553329  0.45553329  0.04446671  1.0
  P  P3  1  0.04446671  1.04446671  0.45553329  1.0
  P  P4  1  -0.20553329  0.79446671  0.20553329  1.0
  P  P5  1  0.20553329  0.20553329  -0.20553329  1.0
  Pd  Pd6  1  -0.37500000  1.12500000  0.62500000  1.0
  Pd  Pd7  1  0.62500000  -0.37500000  1.12500000  1.0
  Pd  Pd8  1  -0.37500000  0.62500000  0.62500000  1.0
  Pd  Pd9  1  0.12500000  0.62500000  0.62500000  1.0
  O  O10  1  0.22334101  0.57047501  0.28244847  1.0
  O  O11  1  -0.07626449  1.28244847  0.57047501  1.0
  O  O12  1  0.28244847  0.92373551  0.22334101  1.0
  O  O13  1  0.57047501  0.22334101  -0.07626449  1.0
  O  O14  1  0.02665899  0.67952499  -0.03244847  1.0
  O  O15  1  0.32626449  -0.03244847  1.67952499  1.0
  O  O16  1  -0.03244847  0.32626449  0.02665899  1.0
  O  O17  1  0.67952499  0.02665899  1.32626449  1.0
  O  O18  1  0.62938977  0.39453582  1.08898032  1.0
  O  O19  1  -0.11290591  1.08898032  0.39453582  1.0
  O  O20  1  1.08898032  -0.11290591  0.62938977  1.0
  O  O21  1  0.39453582  0.62938977  -0.11290591  1.0
  O  O22  1  0.62061023  -0.14453582  0.16101968  1.0
  O  O23  1  0.36290591  0.16101968  -0.14453582  1.0
  O  O24  1  0.16101968  0.36290591  0.62061023  1.0
  O  O25  1  -0.14453582  0.62061023  0.36290591  1.0
