# generated using pymatgen
data_NaCuPO4
_symmetry_space_group_name_H-M   'P 1'
_cell_length_a   5.10985234
_cell_length_b   9.05625333
_cell_length_c   8.06982741
_cell_angle_alpha   90.00000000
_cell_angle_beta   119.47924096
_cell_angle_gamma   90.00000000
_symmetry_Int_Tables_number   1
_chemical_formula_structural   NaCuPO4
_chemical_formula_sum   'Na4 Cu4 P4 O16'
_cell_volume   325.09247895
_cell_formula_units_Z   4
loop_
 _symmetry_equiv_pos_site_id
 _symmetry_equiv_pos_as_xyz
  1  'x, y, z'
loop_
 _atom_site_type_symbol
 _atom_site_label
 _atom_site_symmetry_multiplicity
 _atom_site_fract_x
 _atom_site_fract_y
 _atom_site_fract_z
 _atom_site_occupancy
  Na  Na0  1  0.35393756  0.35603701  0.30829528  1.0
  Na  Na1  1  0.35393756  0.14396299  0.80829528  1.0
  Na  Na2  1  0.64606244  0.85603701  0.19170472  1.0
  Na  Na3  1  0.64606244  0.64396299  0.69170472  1.0
  Cu  Cu4  1  0.50000000  0.50000000  -0.00000000  1.0
  Cu  Cu5  1  0.50000000  0.00000000  0.50000000  1.0
  Cu  Cu6  1  0.00000000  0.50000000  0.50000000  1.0
  Cu  Cu7  1  0.00000000  0.00000000  0.00000000  1.0
  P  P8  1  0.85664694  0.17480943  0.30697374  1.0
  P  P9  1  0.85664694  0.32519057  0.80697374  1.0
  P  P10  1  0.14335306  0.67480943  0.19302626  1.0
  P  P11  1  0.14335306  0.82519057  0.69302626  1.0
  O  O12  1  0.85064257  0.34856775  0.28758984  1.0
  O  O13  1  0.85064257  0.15143225  0.78758984  1.0
  O  O14  1  0.14935743  0.84856775  0.21241016  1.0
  O  O15  1  0.14935743  0.65143225  0.71241016  1.0
  O  O16  1  0.79470435  0.10282082  0.11450512  1.0
  O  O17  1  0.79470435  0.39717918  0.61450512  1.0
  O  O18  1  0.20529565  0.60282082  0.38549488  1.0
  O  O19  1  0.20529565  0.89717918  0.88549488  1.0
  O  O20  1  0.58598943  0.12686456  0.33267945  1.0
  O  O21  1  0.58598943  0.37313544  0.83267945  1.0
  O  O22  1  0.41401057  0.62686456  0.16732055  1.0
  O  O23  1  0.41401057  0.87313544  0.66732055  1.0
  O  O24  1  0.17208941  0.13411283  0.47281625  1.0
  O  O25  1  0.17208941  0.36588717  0.97281625  1.0
  O  O26  1  0.82791059  0.63411283  0.02718375  1.0
  O  O27  1  0.82791059  0.86588717  0.52718375  1.0
