# generated using pymatgen
data_Li2GePbS4
_symmetry_space_group_name_H-M   'P 1'
_cell_length_a   6.10333856
_cell_length_b   6.10333856
_cell_length_c   6.10333856
_cell_angle_alpha   115.20333547
_cell_angle_beta   115.20333547
_cell_angle_gamma   98.53051165
_symmetry_Int_Tables_number   1
_chemical_formula_structural   Li2GePbS4
_chemical_formula_sum   'Li2 Ge1 Pb1 S4'
_cell_volume   170.36897877
_cell_formula_units_Z   1
loop_
 _symmetry_equiv_pos_site_id
 _symmetry_equiv_pos_as_xyz
  1  'x, y, z'
loop_
 _atom_site_type_symbol
 _atom_site_label
 _atom_site_symmetry_multiplicity
 _atom_site_fract_x
 _atom_site_fract_y
 _atom_site_fract_z
 _atom_site_occupancy
  Li  Li0  1  0.75000000  1.25000000  0.50000000  1.0
  Li  Li1  1  1.25000000  0.75000000  0.50000000  1.0
  Ge  Ge2  1  0.00000000  0.00000000  0.00000000  1.0
  Pb  Pb3  1  0.50000000  0.50000000  0.00000000  1.0
  S  S4  1  0.96400949  0.96400949  0.60429662  1.0
  S  S5  1  1.03599051  0.64028713  1.00000000  1.0
  S  S6  1  0.64028713  1.03599051  1.00000000  1.0
  S  S7  1  0.35971287  0.35971287  0.39570338  1.0
