# generated using pymatgen
data_Ca2RuO4
_symmetry_space_group_name_H-M   'P 1'
_cell_length_a   5.42760014
_cell_length_b   5.55524056
_cell_length_c   11.97330967
_cell_angle_alpha   90.00000000
_cell_angle_beta   90.00000000
_cell_angle_gamma   90.00000000
_symmetry_Int_Tables_number   1
_chemical_formula_structural   Ca2RuO4
_chemical_formula_sum   'Ca8 Ru4 O16'
_cell_volume   361.01473617
_cell_formula_units_Z   4
loop_
 _symmetry_equiv_pos_site_id
 _symmetry_equiv_pos_as_xyz
  1  'x, y, z'
loop_
 _atom_site_type_symbol
 _atom_site_label
 _atom_site_symmetry_multiplicity
 _atom_site_fract_x
 _atom_site_fract_y
 _atom_site_fract_z
 _atom_site_occupancy
  O  O0  1  0.42902170  0.02340674  0.66642766  1.0
  O  O1  1  0.42902170  0.47659326  0.16642766  1.0
  O  O2  1  0.92902170  0.02340674  0.83357234  1.0
  O  O3  1  0.92902170  0.47659326  0.33357234  1.0
  O  O4  1  0.57097830  0.52340674  0.83357234  1.0
  O  O5  1  0.57097830  0.97659326  0.33357234  1.0
  O  O6  1  0.07097830  0.52340674  0.66642766  1.0
  O  O7  1  0.07097830  0.97659326  0.16642766  1.0
  O  O8  1  0.19855788  0.79824356  0.47204113  1.0
  O  O9  1  0.19855788  0.70175644  0.97204113  1.0
  O  O10  1  0.69855788  0.79824356  0.02795887  1.0
  O  O11  1  0.69855788  0.70175644  0.52795887  1.0
  O  O12  1  0.80144212  0.29824356  0.02795887  1.0
  O  O13  1  0.80144212  0.20175644  0.52795887  1.0
  O  O14  1  0.30144212  0.29824356  0.47204113  1.0
  O  O15  1  0.30144212  0.20175644  0.97204113  1.0
  Ca  Ca16  1  0.51000280  0.94492438  0.84966324  1.0
  Ca  Ca17  1  0.51000280  0.55507562  0.34966324  1.0
  Ca  Ca18  1  0.01000280  0.94492438  0.65033676  1.0
  Ca  Ca19  1  0.01000280  0.55507562  0.15033676  1.0
  Ca  Ca20  1  0.48999720  0.44492438  0.65033676  1.0
  Ca  Ca21  1  0.48999720  0.05507562  0.15033676  1.0
  Ca  Ca22  1  0.98999720  0.44492438  0.84966324  1.0
  Ca  Ca23  1  0.98999720  0.05507562  0.34966324  1.0
  Ru  Ru24  1  0.50000000  0.00000000  0.50000000  1.0
  Ru  Ru25  1  0.50000000  0.50000000  0.00000000  1.0
  Ru  Ru26  1  0.00000000  0.00000000  0.00000000  1.0
  Ru  Ru27  1  0.00000000  0.50000000  0.50000000  1.0
