# generated using pymatgen
data_LuIn2Pd
_symmetry_space_group_name_H-M   'P 1'
_cell_length_a   10.73790333
_cell_length_b   10.73790333
_cell_length_c   10.73790333
_cell_angle_alpha   100.55656049
_cell_angle_beta   100.55656049
_cell_angle_gamma   129.31532674
_symmetry_Int_Tables_number   1
_chemical_formula_structural   LuIn2Pd
_chemical_formula_sum   'Lu10 In20 Pd10'
_cell_volume   865.70693857
_cell_formula_units_Z   10
loop_
 _symmetry_equiv_pos_site_id
 _symmetry_equiv_pos_as_xyz
  1  'x, y, z'
loop_
 _atom_site_type_symbol
 _atom_site_label
 _atom_site_symmetry_multiplicity
 _atom_site_fract_x
 _atom_site_fract_y
 _atom_site_fract_z
 _atom_site_occupancy
  Lu  Lu0  1  1.32910496  0.60792803  0.72117692  1.0
  Lu  Lu1  1  0.60792803  0.32910496  0.72117692  1.0
  Lu  Lu2  1  0.60792803  0.88675111  1.27882308  1.0
  Lu  Lu3  1  0.88675111  0.60792803  0.27882308  1.0
  Lu  Lu4  1  0.32358867  0.32358867  0.40321673  1.0
  Lu  Lu5  1  0.32358867  0.92037195  1.00000000  1.0
  Lu  Lu6  1  0.92037195  1.32358867  1.00000000  1.0
  Lu  Lu7  1  0.92037195  0.92037195  0.59678327  1.0
  Lu  Lu8  1  0.01435232  0.01435232  -0.00000000  1.0
  Lu  Lu9  1  0.53705767  0.53705767  -0.00000000  1.0
  In  In10  1  0.72875295  0.52232712  0.50840286  1.0
  In  In11  1  0.72875295  1.22035008  1.20642582  1.0
  In  In12  1  1.52232712  1.72875295  1.50840286  1.0
  In  In13  1  1.52232712  1.01392426  0.79357418  1.0
  In  In14  1  1.01392426  0.52232712  0.79357418  1.0
  In  In15  1  1.01392426  1.22035008  1.49159714  1.0
  In  In16  1  1.22035008  1.72875295  1.20642582  1.0
  In  In17  1  1.22035008  1.01392426  0.49159714  1.0
  In  In18  1  1.11950702  0.28225793  0.83724909  1.0
  In  In19  1  1.28225793  1.11950702  0.83724909  1.0
  In  In20  1  1.28225793  1.44500884  1.16275091  1.0
  In  In21  1  0.44500884  0.28225793  0.16275091  1.0
  In  In22  1  0.75143778  0.13465144  0.61678633  1.0
  In  In23  1  1.13465144  0.75143778  0.61678633  1.0
  In  In24  1  1.13465144  1.51786511  1.38321367  1.0
  In  In25  1  0.51786511  0.13465144  0.38321367  1.0
  In  In26  1  0.64658562  0.64658562  0.74364333  1.0
  In  In27  1  0.64658562  0.90294228  1.00000000  1.0
  In  In28  1  0.90294228  1.64658562  1.00000000  1.0
  In  In29  1  0.90294228  0.90294228  0.25635667  1.0
  Pd  Pd30  1  1.76479182  0.97709400  0.78769782  1.0
  Pd  Pd31  1  0.97709400  0.76479182  0.78769782  1.0
  Pd  Pd32  1  0.97709400  1.18939618  1.21230218  1.0
  Pd  Pd33  1  1.18939618  0.97709400  0.21230218  1.0
  Pd  Pd34  1  0.63118202  0.63118202  0.32246194  1.0
  Pd  Pd35  1  0.63118202  1.30872008  1.00000000  1.0
  Pd  Pd36  1  1.30872008  1.63118202  1.00000000  1.0
  Pd  Pd37  1  1.30872008  1.30872008  0.67753806  1.0
  Pd  Pd38  1  0.88513714  0.38513714  0.50000000  1.0
  Pd  Pd39  1  1.38513714  0.88513714  0.50000000  1.0
