# generated using pymatgen
data_K3Nb2AsSe11
_symmetry_space_group_name_H-M   'P 1'
_cell_length_a   10.16739411
_cell_length_b   10.16739411
_cell_length_c   10.04498051
_cell_angle_alpha   83.12337854
_cell_angle_beta   96.87662146
_cell_angle_gamma   97.21750958
_symmetry_Int_Tables_number   1
_chemical_formula_structural   K3Nb2AsSe11
_chemical_formula_sum   'K6 Nb4 As2 Se22'
_cell_volume   1016.97631230
_cell_formula_units_Z   2
loop_
 _symmetry_equiv_pos_site_id
 _symmetry_equiv_pos_as_xyz
  1  'x, y, z'
loop_
 _atom_site_type_symbol
 _atom_site_label
 _atom_site_symmetry_multiplicity
 _atom_site_fract_x
 _atom_site_fract_y
 _atom_site_fract_z
 _atom_site_occupancy
  K  K0  1  0.92855089  -0.06863090  0.49896836  1.0
  K  K1  1  1.06863090  0.07144911  -0.00103164  1.0
  K  K2  1  1.29549128  0.53725057  0.24331424  1.0
  K  K3  1  0.46274943  -0.29549128  0.74331424  1.0
  K  K4  1  1.68040391  0.17429896  0.84165962  1.0
  K  K5  1  0.82570104  -0.68040391  0.34165962  1.0
  Nb  Nb6  1  0.57081057  -0.02367681  0.22972401  1.0
  Nb  Nb7  1  1.02367681  0.42918943  0.72972401  1.0
  Nb  Nb8  1  1.31539007  0.09164972  0.41248435  1.0
  Nb  Nb9  1  0.90835028  -0.31539007  0.91248435  1.0
  As  As10  1  1.37537214  0.30758596  0.68310074  1.0
  As  As11  1  0.69241404  -0.37537214  0.18310074  1.0
  Se  Se12  1  0.59939374  -0.21097137  0.42683218  1.0
  Se  Se13  1  1.21097137  0.40060626  0.92683218  1.0
  Se  Se14  1  0.53378705  -0.22603763  0.07666257  1.0
  Se  Se15  1  1.22603763  0.46621295  0.57666257  1.0
  Se  Se16  1  1.78859145  0.05484150  0.17056106  1.0
  Se  Se17  1  0.94515850  -0.78859145  0.67056106  1.0
  Se  Se18  1  1.58399150  0.00941612  0.48753221  1.0
  Se  Se19  1  0.99058388  -0.58399150  0.98753221  1.0
  Se  Se20  1  0.23565925  -0.15919223  0.47407780  1.0
  Se  Se21  1  1.15919223  0.76434075  0.97407780  1.0
  Se  Se22  1  0.28912067  -0.09396994  0.24936200  1.0
  Se  Se23  1  1.09396994  0.71087933  0.74936200  1.0
  Se  Se24  1  1.41942571  0.07885351  0.02025370  1.0
  Se  Se25  1  0.92114649  -0.41942571  0.52025370  1.0
  Se  Se26  1  1.46609993  0.20796715  0.20894756  1.0
  Se  Se27  1  0.79203285  -0.46609993  0.70894756  1.0
  Se  Se28  1  0.91989966  -0.27910684  0.17031174  1.0
  Se  Se29  1  1.27910684  0.08010034  0.67031174  1.0
  Se  Se30  1  1.49996313  0.29402666  0.48845183  1.0
  Se  Se31  1  0.70597334  -0.49996313  0.98845183  1.0
  Se  Se32  1  1.12981467  0.20726119  0.32755602  1.0
  Se  Se33  1  0.79273881  -0.12981467  0.82755602  1.0
