# generated using pymatgen
data_Si
_symmetry_space_group_name_H-M   'P 1'
_cell_length_a   11.00121126
_cell_length_b   11.00121126
_cell_length_c   11.00121126
_cell_angle_alpha   60.00000000
_cell_angle_beta   60.00000000
_cell_angle_gamma   60.00000000
_symmetry_Int_Tables_number   1
_chemical_formula_structural   Si
_chemical_formula_sum   Si36
_cell_volume   941.47006640
_cell_formula_units_Z   36
loop_
 _symmetry_equiv_pos_site_id
 _symmetry_equiv_pos_as_xyz
  1  'x, y, z'
loop_
 _atom_site_type_symbol
 _atom_site_label
 _atom_site_symmetry_multiplicity
 _atom_site_fract_x
 _atom_site_fract_y
 _atom_site_fract_z
 _atom_site_occupancy
  Si  Si0  1  0.83357335  -0.16642665  1.05322995  1.0
  Si  Si1  1  -0.72037666  0.83357335  1.05322995  1.0
  Si  Si2  1  -0.72037666  1.05322995  0.83357335  1.0
  Si  Si3  1  0.83357335  0.05322995  0.83357335  1.0
  Si  Si4  1  0.41642665  0.41642665  -0.02962334  1.0
  Si  Si5  1  0.41642665  -0.02962334  0.41642665  1.0
  Si  Si6  1  0.19677005  -0.02962334  0.41642665  1.0
  Si  Si7  1  0.19677005  0.41642665  -0.02962334  1.0
  Si  Si8  1  0.83357335  -0.72037666  1.05322995  1.0
  Si  Si9  1  -0.16642665  1.05322995  0.27962334  1.0
  Si  Si10  1  -0.02962334  0.41642665  0.41642665  1.0
  Si  Si11  1  0.19677005  0.41642665  0.41642665  1.0
  Si  Si12  1  1.05322995  -0.72037666  0.83357335  1.0
  Si  Si13  1  0.05322995  0.83357335  0.27962334  1.0
  Si  Si14  1  -0.16642665  0.83357335  0.27962334  1.0
  Si  Si15  1  0.83357335  -0.72037666  0.83357335  1.0
  Si  Si16  1  -0.02962334  0.19677005  0.41642665  1.0
  Si  Si17  1  0.41642665  0.19677005  0.41642665  1.0
  Si  Si18  1  0.41642665  0.41642665  0.19677005  1.0
  Si  Si19  1  -0.02962334  0.41642665  0.19677005  1.0
  Si  Si20  1  1.05322995  -0.16642665  0.83357335  1.0
  Si  Si21  1  -0.72037666  0.83357335  0.83357335  1.0
  Si  Si22  1  0.41642665  0.19677005  -0.02962334  1.0
  Si  Si23  1  0.41642665  -0.02962334  0.19677005  1.0
  Si  Si24  1  0.69989340  -0.30010660  0.90031981  1.0
  Si  Si25  1  0.69989340  -0.09968019  0.69989340  1.0
  Si  Si26  1  0.55010660  -0.44989340  0.55010660  1.0
  Si  Si27  1  1.34968019  -0.44989340  0.55010660  1.0
  Si  Si28  1  0.90031981  -0.30010660  0.69989340  1.0
  Si  Si29  1  0.69989340  -0.30010660  0.69989340  1.0
  Si  Si30  1  0.55010660  0.34968019  0.55010660  1.0
  Si  Si31  1  0.55010660  -0.44989340  1.34968019  1.0
  Si  Si32  1  0.62500000  -0.37500000  1.12500000  1.0
  Si  Si33  1  0.62500000  0.12500000  0.62500000  1.0
  Si  Si34  1  0.62500000  -0.37500000  0.62500000  1.0
  Si  Si35  1  1.12500000  -0.37500000  0.62500000  1.0
