# generated using pymatgen
data_ZnAg2SnS4
_symmetry_space_group_name_H-M   'P 1'
_cell_length_a   6.90235982
_cell_length_b   6.90235982
_cell_length_c   6.90235982
_cell_angle_alpha   129.90072940
_cell_angle_beta   129.90072940
_cell_angle_gamma   73.56551493
_symmetry_Int_Tables_number   1
_chemical_formula_structural   ZnAg2SnS4
_chemical_formula_sum   'Zn1 Ag2 Sn1 S4'
_cell_volume   188.86249019
_cell_formula_units_Z   1
loop_
 _symmetry_equiv_pos_site_id
 _symmetry_equiv_pos_as_xyz
  1  'x, y, z'
loop_
 _atom_site_type_symbol
 _atom_site_label
 _atom_site_symmetry_multiplicity
 _atom_site_fract_x
 _atom_site_fract_y
 _atom_site_fract_z
 _atom_site_occupancy
  Zn  Zn0  1  0.75000000  0.25000000  0.50000000  1.0
  Ag  Ag1  1  0.25000000  0.75000000  0.50000000  1.0
  Ag  Ag2  1  0.00000000  0.00000000  0.00000000  1.0
  Sn  Sn3  1  0.50000000  0.50000000  1.00000000  1.0
  S  S4  1  0.40190530  0.88434408  1.02881755  1.0
  S  S5  1  1.11565592  1.14447347  1.51756122  1.0
  S  S6  1  0.85552653  0.37308775  0.97118245  1.0
  S  S7  1  0.62691225  0.59809470  0.48243878  1.0
