# generated using pymatgen
data_Fe3C
_symmetry_space_group_name_H-M   'P 1'
_cell_length_a   4.91024896
_cell_length_b   6.64581833
_cell_length_c   4.37780340
_cell_angle_alpha   90.00000000
_cell_angle_beta   90.00000000
_cell_angle_gamma   90.00000000
_symmetry_Int_Tables_number   1
_chemical_formula_structural   Fe3C
_chemical_formula_sum   'Fe12 C4'
_cell_volume   142.85920578
_cell_formula_units_Z   4
loop_
 _symmetry_equiv_pos_site_id
 _symmetry_equiv_pos_as_xyz
  1  'x, y, z'
loop_
 _atom_site_type_symbol
 _atom_site_label
 _atom_site_symmetry_multiplicity
 _atom_site_fract_x
 _atom_site_fract_y
 _atom_site_fract_z
 _atom_site_occupancy
  Fe  Fe0  1  0.18680168  -0.06709846  0.33579721  1.0
  Fe  Fe1  1  0.18680168  0.56709846  0.33579721  1.0
  Fe  Fe2  1  0.81319832  0.43290154  0.66420279  1.0
  Fe  Fe3  1  0.31319832  0.43290154  0.83579721  1.0
  Fe  Fe4  1  0.68680168  0.56709846  0.16420279  1.0
  Fe  Fe5  1  0.68680168  -0.06709846  0.16420279  1.0
  Fe  Fe6  1  0.31319832  1.06709846  0.83579721  1.0
  Fe  Fe7  1  0.81319832  1.06709846  0.66420279  1.0
  Fe  Fe8  1  -0.03792136  0.25000000  0.15336497  1.0
  Fe  Fe9  1  1.03792136  0.75000000  0.84663503  1.0
  Fe  Fe10  1  0.53792136  0.75000000  0.65336497  1.0
  Fe  Fe11  1  0.46207864  0.25000000  0.34663503  1.0
  C  C12  1  0.11855459  0.25000000  0.55913990  1.0
  C  C13  1  0.88144541  0.75000000  0.44086010  1.0
  C  C14  1  0.38144541  0.75000000  1.05913990  1.0
  C  C15  1  0.61855459  0.25000000  -0.05913990  1.0
