# generated using pymatgen
data_Sr2SiNO3
_symmetry_space_group_name_H-M   'P 1'
_cell_length_a   5.75412455
_cell_length_b   7.27309279
_cell_length_c   10.99876600
_cell_angle_alpha   90.00000000
_cell_angle_beta   115.32475020
_cell_angle_gamma   90.00000000
_symmetry_Int_Tables_number   1
_chemical_formula_structural   Sr2SiNO3
_chemical_formula_sum   'Sr8 Si4 N4 O12'
_cell_volume   416.06550065
_cell_formula_units_Z   4
loop_
 _symmetry_equiv_pos_site_id
 _symmetry_equiv_pos_as_xyz
  1  'x, y, z'
loop_
 _atom_site_type_symbol
 _atom_site_label
 _atom_site_symmetry_multiplicity
 _atom_site_fract_x
 _atom_site_fract_y
 _atom_site_fract_z
 _atom_site_occupancy
  N  N0  1  0.24582237  0.82244029  0.92856410  1.0
  N  N1  1  0.24582237  0.67755971  0.42856410  1.0
  N  N2  1  0.75417763  0.17755971  0.07143590  1.0
  N  N3  1  0.75417763  0.32244029  0.57143590  1.0
  O  O4  1  0.28525659  0.49064426  0.07129666  1.0
  O  O5  1  0.28525659  0.00935574  0.57129666  1.0
  O  O6  1  0.71474341  0.50935574  0.92870334  1.0
  O  O7  1  0.71474341  0.99064426  0.42870334  1.0
  O  O8  1  0.65837186  0.74347974  0.18353058  1.0
  O  O9  1  0.65837186  0.75652026  0.68353058  1.0
  O  O10  1  0.34162814  0.25652026  0.81646942  1.0
  O  O11  1  0.34162814  0.24347974  0.31646942  1.0
  O  O12  1  0.84188153  0.32548347  0.36393826  1.0
  O  O13  1  0.84188153  0.17451653  0.86393826  1.0
  O  O14  1  0.15811847  0.67451653  0.63606174  1.0
  O  O15  1  0.15811847  0.82548347  0.13606174  1.0
  Sr  Sr16  1  0.29637330  0.15641700  0.07120767  1.0
  Sr  Sr17  1  0.29637330  0.34358300  0.57120767  1.0
  Sr  Sr18  1  0.70362670  0.84358300  0.92879233  1.0
  Sr  Sr19  1  0.70362670  0.65641700  0.42879233  1.0
  Sr  Sr20  1  0.01690788  0.50682727  0.80242026  1.0
  Sr  Sr21  1  0.01690788  -0.00682727  0.30242026  1.0
  Sr  Sr22  1  0.98309212  0.49317273  0.19757974  1.0
  Sr  Sr23  1  0.98309212  1.00682727  0.69757974  1.0
  Si  Si24  1  0.35151094  0.71078968  0.08416791  1.0
  Si  Si25  1  0.35151094  0.78921032  0.58416791  1.0
  Si  Si26  1  0.64848906  0.28921032  0.91583209  1.0
  Si  Si27  1  0.64848906  0.21078968  0.41583209  1.0
