# generated using pymatgen
data_BaCu2(AsO4)2
_symmetry_space_group_name_H-M   'P 1'
_cell_length_a   4.77120272
_cell_length_b   8.90660553
_cell_length_c   10.07164141
_cell_angle_alpha   90.00000000
_cell_angle_beta   115.79288282
_cell_angle_gamma   90.00000000
_symmetry_Int_Tables_number   1
_chemical_formula_structural   BaCu2(AsO4)2
_chemical_formula_sum   'Ba2 Cu4 As4 O16'
_cell_volume   385.35652959
_cell_formula_units_Z   2
loop_
 _symmetry_equiv_pos_site_id
 _symmetry_equiv_pos_as_xyz
  1  'x, y, z'
loop_
 _atom_site_type_symbol
 _atom_site_label
 _atom_site_symmetry_multiplicity
 _atom_site_fract_x
 _atom_site_fract_y
 _atom_site_fract_z
 _atom_site_occupancy
  Ba  Ba0  1  -0.00000000  0.50000000  0.50000000  1.0
  Ba  Ba1  1  0.00000000  0.00000000  0.00000000  1.0
  Cu  Cu2  1  0.89534361  0.08271139  0.34736173  1.0
  Cu  Cu3  1  0.89534361  0.41728861  0.84736173  1.0
  Cu  Cu4  1  0.10465639  0.58271139  0.15263827  1.0
  Cu  Cu5  1  0.10465639  0.91728861  0.65263827  1.0
  As  As6  1  0.62798370  0.31578477  0.07832342  1.0
  As  As7  1  0.62798370  0.18421523  0.57832342  1.0
  As  As8  1  0.37201630  0.81578477  0.42167658  1.0
  As  As9  1  0.37201630  0.68421523  0.92167658  1.0
  O  O10  1  0.92034688  0.41645805  0.22064481  1.0
  O  O11  1  0.92034688  0.08354195  0.72064481  1.0
  O  O12  1  0.07965312  0.91645805  0.27935519  1.0
  O  O13  1  0.07965312  0.58354195  0.77935519  1.0
  O  O14  1  0.72580543  0.90367936  0.46289323  1.0
  O  O15  1  0.72580543  0.59632064  0.96289323  1.0
  O  O16  1  0.27419457  0.40367936  0.03710677  1.0
  O  O17  1  0.27419457  0.09632064  0.53710677  1.0
  O  O18  1  0.69197081  0.22690903  0.42389655  1.0
  O  O19  1  0.69197081  0.27309097  0.92389655  1.0
  O  O20  1  0.30802919  0.72690903  0.07610345  1.0
  O  O21  1  0.30802919  0.77309097  0.57610345  1.0
  O  O22  1  0.61352342  0.13082503  0.13838906  1.0
  O  O23  1  0.61352342  0.36917497  0.63838906  1.0
  O  O24  1  0.38647658  0.63082503  0.36161094  1.0
  O  O25  1  0.38647658  0.86917497  0.86161094  1.0
