# generated using pymatgen
data_CS2
_symmetry_space_group_name_H-M   'P 1'
_cell_length_a   5.12672659
_cell_length_b   5.12672659
_cell_length_c   7.42864878
_cell_angle_alpha   90.00000000
_cell_angle_beta   90.00000000
_cell_angle_gamma   90.00000000
_symmetry_Int_Tables_number   1
_chemical_formula_structural   CS2
_chemical_formula_sum   'C4 S8'
_cell_volume   195.24959411
_cell_formula_units_Z   4
loop_
 _symmetry_equiv_pos_site_id
 _symmetry_equiv_pos_as_xyz
  1  'x, y, z'
loop_
 _atom_site_type_symbol
 _atom_site_label
 _atom_site_symmetry_multiplicity
 _atom_site_fract_x
 _atom_site_fract_y
 _atom_site_fract_z
 _atom_site_occupancy
  C  C0  1  0.31136292  0.31136292  0.00000000  1.0
  C  C1  1  0.18863708  0.81136292  0.25000000  1.0
  C  C2  1  0.68863708  0.68863708  0.50000000  1.0
  C  C3  1  0.81136292  0.18863708  0.75000000  1.0
  S  S4  1  0.22879797  0.18184637  0.21957852  1.0
  S  S5  1  0.18184637  0.22879797  0.78042148  1.0
  S  S6  1  0.31815363  0.72879797  0.46957852  1.0
  S  S7  1  0.27120203  0.68184637  0.03042148  1.0
  S  S8  1  0.77120203  0.81815363  0.71957852  1.0
  S  S9  1  0.81815363  0.77120203  0.28042148  1.0
  S  S10  1  0.68184637  0.27120203  -0.03042148  1.0
  S  S11  1  0.72879797  0.31815363  0.53042148  1.0
