# generated using pymatgen
data_Bi2Pd3S2
_symmetry_space_group_name_H-M   'P 1'
_cell_length_a   7.30455047
_cell_length_b   7.30455047
_cell_length_c   7.30455047
_cell_angle_alpha   109.47122063
_cell_angle_beta   109.47122063
_cell_angle_gamma   109.47122063
_symmetry_Int_Tables_number   1
_chemical_formula_structural   Bi2Pd3S2
_chemical_formula_sum   'Bi4 Pd6 S4'
_cell_volume   300.02579239
_cell_formula_units_Z   2
loop_
 _symmetry_equiv_pos_site_id
 _symmetry_equiv_pos_as_xyz
  1  'x, y, z'
loop_
 _atom_site_type_symbol
 _atom_site_label
 _atom_site_symmetry_multiplicity
 _atom_site_fract_x
 _atom_site_fract_y
 _atom_site_fract_z
 _atom_site_occupancy
  Bi  Bi0  1  1.49270205  1.49270205  1.49270205  1.0
  Bi  Bi1  1  1.50000000  1.00000000  1.00729795  1.0
  Bi  Bi2  1  1.00000000  1.00729795  1.50000000  1.0
  Bi  Bi3  1  1.00729795  0.50000000  1.00000000  1.0
  Pd  Pd4  1  1.22106535  0.97106535  1.25000000  1.0
  Pd  Pd5  1  0.25000000  1.22106535  0.97106535  1.0
  Pd  Pd6  1  0.75000000  1.27893465  0.52893465  1.0
  Pd  Pd7  1  0.97106535  0.25000000  1.22106535  1.0
  Pd  Pd8  1  0.52893465  0.75000000  0.27893465  1.0
  Pd  Pd9  1  0.27893465  0.52893465  0.75000000  1.0
  S  S10  1  0.94613694  0.94613694  0.94613694  1.0
  S  S11  1  0.50000000  1.00000000  0.55386306  1.0
  S  S12  1  1.00000000  0.55386306  1.50000000  1.0
  S  S13  1  0.55386306  1.50000000  1.00000000  1.0
