# generated using pymatgen
data_FePRh
_symmetry_space_group_name_H-M   'P 1'
_cell_length_a   3.63865862
_cell_length_b   17.55113803
_cell_length_c   6.01664399
_cell_angle_alpha   90.00000000
_cell_angle_beta   90.00000000
_cell_angle_gamma   90.00000000
_symmetry_Int_Tables_number   1
_chemical_formula_structural   FePRh
_chemical_formula_sum   'Fe10 P10 Rh10'
_cell_volume   384.23852620
_cell_formula_units_Z   10
loop_
 _symmetry_equiv_pos_site_id
 _symmetry_equiv_pos_as_xyz
  1  'x, y, z'
loop_
 _atom_site_type_symbol
 _atom_site_label
 _atom_site_symmetry_multiplicity
 _atom_site_fract_x
 _atom_site_fract_y
 _atom_site_fract_z
 _atom_site_occupancy
  Fe  Fe0  1  0.50000000  0.18797433  0.53131000  1.0
  Fe  Fe1  1  0.50000000  0.81202567  0.53131000  1.0
  Fe  Fe2  1  0.00000000  0.68797433  0.46869000  1.0
  Fe  Fe3  1  0.00000000  0.31202567  0.46869000  1.0
  Fe  Fe4  1  0.50000000  0.11456163  0.02049828  1.0
  Fe  Fe5  1  0.50000000  0.88543837  0.02049828  1.0
  Fe  Fe6  1  0.00000000  0.61456163  0.97950172  1.0
  Fe  Fe7  1  0.00000000  0.38543837  0.97950172  1.0
  Fe  Fe8  1  0.50000000  0.00000000  0.61968652  1.0
  Fe  Fe9  1  0.00000000  0.50000000  0.38031348  1.0
  P  P10  1  0.50000000  0.70483300  0.74304244  1.0
  P  P11  1  0.50000000  0.29516700  0.74304244  1.0
  P  P12  1  0.00000000  0.20483300  0.25695756  1.0
  P  P13  1  0.00000000  0.79516700  0.25695756  1.0
  P  P14  1  0.50000000  0.60027559  0.27095354  1.0
  P  P15  1  0.50000000  0.39972441  0.27095354  1.0
  P  P16  1  0.00000000  0.10027559  0.72904646  1.0
  P  P17  1  0.00000000  0.89972441  0.72904646  1.0
  P  P18  1  0.50000000  0.00000000  0.22819472  1.0
  P  P19  1  0.00000000  0.50000000  0.77180528  1.0
  Rh  Rh20  1  0.50000000  0.72031334  0.14257954  1.0
  Rh  Rh21  1  0.50000000  0.27968666  0.14257954  1.0
  Rh  Rh22  1  0.00000000  0.22031334  0.85742046  1.0
  Rh  Rh23  1  0.00000000  0.77968666  0.85742046  1.0
  Rh  Rh24  1  0.50000000  0.58146132  0.63842332  1.0
  Rh  Rh25  1  0.50000000  0.41853868  0.63842332  1.0
  Rh  Rh26  1  0.00000000  0.08146132  0.36157668  1.0
  Rh  Rh27  1  0.00000000  0.91853868  0.36157668  1.0
  Rh  Rh28  1  0.50000000  0.50000000  0.03985094  1.0
  Rh  Rh29  1  0.00000000  0.00000000  0.96014906  1.0
