# generated using pymatgen
data_Y5Tl3
_symmetry_space_group_name_H-M   'P 1'
_cell_length_a   9.04787499
_cell_length_b   9.04787499
_cell_length_c   6.65677095
_cell_angle_alpha   90.00000000
_cell_angle_beta   90.00000000
_cell_angle_gamma   120.00000000
_symmetry_Int_Tables_number   1
_chemical_formula_structural   Y5Tl3
_chemical_formula_sum   'Y10 Tl6'
_cell_volume   471.94069609
_cell_formula_units_Z   2
loop_
 _symmetry_equiv_pos_site_id
 _symmetry_equiv_pos_as_xyz
  1  'x, y, z'
loop_
 _atom_site_type_symbol
 _atom_site_label
 _atom_site_symmetry_multiplicity
 _atom_site_fract_x
 _atom_site_fract_y
 _atom_site_fract_z
 _atom_site_occupancy
  Y  Y0  1  0.76393388  0.76393388  0.25000000  1.0
  Y  Y1  1  0.76393388  0.00000000  0.75000000  1.0
  Y  Y2  1  0.00000000  0.76393388  0.75000000  1.0
  Y  Y3  1  -0.00000000  0.23606612  0.25000000  1.0
  Y  Y4  1  0.23606612  0.23606612  0.75000000  1.0
  Y  Y5  1  0.23606612  0.00000000  0.25000000  1.0
  Y  Y6  1  0.33333333  0.66666667  0.50000000  1.0
  Y  Y7  1  0.33333333  0.66666667  0.00000000  1.0
  Y  Y8  1  0.66666667  0.33333333  0.50000000  1.0
  Y  Y9  1  0.66666667  0.33333333  0.00000000  1.0
  Tl  Tl10  1  0.40246654  0.40246654  0.25000000  1.0
  Tl  Tl11  1  0.40246654  0.00000000  0.75000000  1.0
  Tl  Tl12  1  -0.00000000  0.40246654  0.75000000  1.0
  Tl  Tl13  1  0.00000000  0.59753346  0.25000000  1.0
  Tl  Tl14  1  0.59753346  0.59753346  0.75000000  1.0
  Tl  Tl15  1  0.59753346  0.00000000  0.25000000  1.0
