# generated using pymatgen
data_Cs2AlF5
_symmetry_space_group_name_H-M   'P 1'
_cell_length_a   6.44630026
_cell_length_b   13.09590047
_cell_length_c   11.66155200
_cell_angle_alpha   90.00000000
_cell_angle_beta   90.00000000
_cell_angle_gamma   90.00000000
_symmetry_Int_Tables_number   1
_chemical_formula_structural   Cs2AlF5
_chemical_formula_sum   'Cs12 Al6 F30'
_cell_volume   984.46946327
_cell_formula_units_Z   6
loop_
 _symmetry_equiv_pos_site_id
 _symmetry_equiv_pos_as_xyz
  1  'x, y, z'
loop_
 _atom_site_type_symbol
 _atom_site_label
 _atom_site_symmetry_multiplicity
 _atom_site_fract_x
 _atom_site_fract_y
 _atom_site_fract_z
 _atom_site_occupancy
  Cs  Cs0  1  0.50000000  0.81157901  0.04908558  1.0
  Cs  Cs1  1  0.00000000  0.18842099  0.54908558  1.0
  Cs  Cs2  1  0.50000000  0.66391545  0.75250169  1.0
  Cs  Cs3  1  0.00000000  0.33608455  0.25250169  1.0
  Cs  Cs4  1  0.50000000  0.56338008  0.39456997  1.0
  Cs  Cs5  1  0.00000000  0.43661992  0.89456997  1.0
  Cs  Cs6  1  0.50000000  0.35676257  0.66281507  1.0
  Cs  Cs7  1  0.00000000  0.64323743  0.16281507  1.0
  Cs  Cs8  1  0.50000000  0.23362733  0.03659752  1.0
  Cs  Cs9  1  0.00000000  0.76637267  0.53659752  1.0
  Cs  Cs10  1  0.50000000  0.00521943  0.71417181  1.0
  Cs  Cs11  1  0.00000000  0.99478057  0.21417181  1.0
  Al  Al12  1  0.50000000  0.88133067  0.38323648  1.0
  Al  Al13  1  0.00000000  0.11866933  0.88323648  1.0
  Al  Al14  1  0.50000000  0.52134171  0.03512493  1.0
  Al  Al15  1  0.00000000  0.47865829  0.53512493  1.0
  Al  Al16  1  0.50000000  0.09116479  0.38077080  1.0
  Al  Al17  1  0.00000000  0.90883521  0.88077080  1.0
  F  F18  1  0.68549650  0.98625335  0.44161716  1.0
  F  F19  1  0.18549650  0.01374665  0.94161716  1.0
  F  F20  1  0.31450350  0.98625335  0.44161716  1.0
  F  F21  1  0.81450350  0.01374665  0.94161716  1.0
  F  F22  1  0.70851214  0.81598227  0.31694246  1.0
  F  F23  1  0.20851214  0.18401773  0.81694246  1.0
  F  F24  1  0.29148786  0.81598227  0.31694246  1.0
  F  F25  1  0.79148786  0.18401773  0.81694246  1.0
  F  F26  1  0.70299776  0.44128143  0.10175001  1.0
  F  F27  1  0.20299776  0.55871857  0.60175001  1.0
  F  F28  1  0.29700224  0.44128143  0.10175001  1.0
  F  F29  1  0.79700224  0.55871857  0.60175001  1.0
  F  F30  1  0.79782426  0.39806155  0.46852577  1.0
  F  F31  1  0.29782426  0.60193845  0.96852577  1.0
  F  F32  1  0.20217574  0.39806155  0.46852577  1.0
  F  F33  1  0.70217574  0.60193845  0.96852577  1.0
  F  F34  1  0.79118960  0.84463797  0.81450543  1.0
  F  F35  1  0.29118960  0.15536203  0.31450543  1.0
  F  F36  1  0.20881040  0.84463797  0.81450543  1.0
  F  F37  1  0.70881040  0.15536203  0.31450543  1.0
  F  F38  1  0.50000000  0.98527918  0.26321162  1.0
  F  F39  1  0.00000000  0.01472082  0.76321162  1.0
  F  F40  1  0.50000000  0.81439958  0.51550578  1.0
  F  F41  1  0.00000000  0.18560042  0.01550578  1.0
  F  F42  1  0.50000000  0.60928885  0.15820958  1.0
  F  F43  1  0.00000000  0.39071115  0.65820958  1.0
  F  F44  1  0.50000000  0.43668776  0.90710124  1.0
  F  F45  1  0.00000000  0.56331224  0.40710124  1.0
  F  F46  1  0.50000000  0.15577422  0.51441626  1.0
  F  F47  1  0.00000000  0.84422578  0.01441626  1.0
