# generated using pymatgen
data_Mg2SiSe4
_symmetry_space_group_name_H-M   'P 1'
_cell_length_a   13.51115396
_cell_length_b   7.89859726
_cell_length_c   6.29118900
_cell_angle_alpha   90.00000000
_cell_angle_beta   90.00000000
_cell_angle_gamma   90.00000000
_symmetry_Int_Tables_number   1
_chemical_formula_structural   Mg2SiSe4
_chemical_formula_sum   'Mg8 Si4 Se16'
_cell_volume   671.39042942
_cell_formula_units_Z   4
loop_
 _symmetry_equiv_pos_site_id
 _symmetry_equiv_pos_as_xyz
  1  'x, y, z'
loop_
 _atom_site_type_symbol
 _atom_site_label
 _atom_site_symmetry_multiplicity
 _atom_site_fract_x
 _atom_site_fract_y
 _atom_site_fract_z
 _atom_site_occupancy
  Mg  Mg0  1  0.00000000  0.50000000  0.00000000  1.0
  Mg  Mg1  1  0.50000000  0.00000000  0.50000000  1.0
  Mg  Mg2  1  0.00000000  0.00000000  0.00000000  1.0
  Mg  Mg3  1  0.50000000  0.50000000  0.50000000  1.0
  Mg  Mg4  1  0.23183557  0.75000000  0.49468835  1.0
  Mg  Mg5  1  0.73183557  0.75000000  0.00531165  1.0
  Mg  Mg6  1  0.76816443  0.25000000  0.50531165  1.0
  Mg  Mg7  1  0.26816443  0.25000000  0.99468835  1.0
  Si  Si8  1  0.41110933  0.75000000  0.90466668  1.0
  Si  Si9  1  0.91110933  0.75000000  0.59533332  1.0
  Si  Si10  1  0.58889067  0.25000000  0.09533332  1.0
  Si  Si11  1  0.08889067  0.25000000  0.40466668  1.0
  Se  Se12  1  0.40717082  0.75000000  0.26662491  1.0
  Se  Se13  1  0.90717082  0.75000000  0.23337509  1.0
  Se  Se14  1  0.59282918  0.25000000  0.73337509  1.0
  Se  Se15  1  0.09282918  0.25000000  0.76662491  1.0
  Se  Se16  1  0.56777007  0.75000000  0.75598210  1.0
  Se  Se17  1  0.06777007  0.75000000  0.74401790  1.0
  Se  Se18  1  0.43222993  0.25000000  0.24401790  1.0
  Se  Se19  1  0.93222993  0.25000000  0.25598210  1.0
  Se  Se20  1  0.33252638  0.52145997  0.74791110  1.0
  Se  Se21  1  0.83252638  0.97854003  0.75208890  1.0
  Se  Se22  1  0.66747362  0.02145997  0.25208890  1.0
  Se  Se23  1  0.16747362  0.47854003  0.24791110  1.0
  Se  Se24  1  0.66747362  0.47854003  0.25208890  1.0
  Se  Se25  1  0.16747362  0.02145997  0.24791110  1.0
  Se  Se26  1  0.33252638  0.97854003  0.74791110  1.0
  Se  Se27  1  0.83252638  0.52145997  0.75208890  1.0
