# generated using pymatgen
data_Al13Ru4
_symmetry_space_group_name_H-M   'P 1'
_cell_length_a   8.96288284
_cell_length_b   8.96288284
_cell_length_c   12.78928101
_cell_angle_alpha   74.28701858
_cell_angle_beta   105.71298142
_cell_angle_gamma   125.46921553
_symmetry_Int_Tables_number   1
_chemical_formula_structural   Al13Ru4
_chemical_formula_sum   'Al39 Ru12'
_cell_volume   796.96620145
_cell_formula_units_Z   3
loop_
 _symmetry_equiv_pos_site_id
 _symmetry_equiv_pos_as_xyz
  1  'x, y, z'
loop_
 _atom_site_type_symbol
 _atom_site_label
 _atom_site_symmetry_multiplicity
 _atom_site_fract_x
 _atom_site_fract_y
 _atom_site_fract_z
 _atom_site_occupancy
  Al  Al0  1  0.64140862  -0.08710165  0.48057059  1.0
  Al  Al1  1  1.08710165  0.35859138  0.48057059  1.0
  Al  Al2  1  0.91289835  0.64140862  0.51942941  1.0
  Al  Al3  1  0.35859138  0.08710165  0.51942941  1.0
  Al  Al4  1  0.54287759  -0.09961146  0.66472624  1.0
  Al  Al5  1  1.09961146  0.45712241  0.66472624  1.0
  Al  Al6  1  0.90038854  0.54287759  0.33527376  1.0
  Al  Al7  1  0.45712241  0.09961146  0.33527376  1.0
  Al  Al8  1  0.53423678  -0.09400957  0.89021568  1.0
  Al  Al9  1  1.09400957  0.46576322  0.89021568  1.0
  Al  Al10  1  0.90599043  0.53423678  0.10978432  1.0
  Al  Al11  1  0.46576322  0.09400957  0.10978432  1.0
  Al  Al12  1  0.34878967  0.08306405  0.89094790  1.0
  Al  Al13  1  0.91693595  0.65121033  0.89094790  1.0
  Al  Al14  1  1.08306405  0.34878967  0.10905210  1.0
  Al  Al15  1  0.65121033  -0.08306405  0.10905210  1.0
  Al  Al16  1  0.24209130  0.22355033  0.67058822  1.0
  Al  Al17  1  0.77644967  0.75790870  0.67058822  1.0
  Al  Al18  1  1.22355033  0.24209130  0.32941178  1.0
  Al  Al19  1  0.75790870  -0.22355033  0.32941178  1.0
  Al  Al20  1  0.98149229  0.01850771  0.82960651  1.0
  Al  Al21  1  0.01850771  -0.01850771  0.17039349  1.0
  Al  Al22  1  0.82249468  0.17750532  0.28340767  1.0
  Al  Al23  1  0.17750532  -0.17750532  0.71659233  1.0
  Al  Al24  1  0.81009773  0.18990227  0.77384552  1.0
  Al  Al25  1  0.18990227  -0.18990227  0.22615448  1.0
  Al  Al26  1  0.73943965  0.26056035  0.95685149  1.0
  Al  Al27  1  0.26056035  -0.26056035  0.04314851  1.0
  Al  Al28  1  0.73567186  0.26432814  0.53989803  1.0
  Al  Al29  1  0.26432814  -0.26432814  0.46010197  1.0
  Al  Al30  1  0.58253516  0.41746484  0.78589659  1.0
  Al  Al31  1  0.41746484  -0.41746484  0.21410341  1.0
  Al  Al32  1  0.57202217  0.42797783  0.58036404  1.0
  Al  Al33  1  0.42797783  -0.42797783  0.41963596  1.0
  Al  Al34  1  0.43258104  -0.43258104  0.82545996  1.0
  Al  Al35  1  0.56741896  0.43258104  0.17454004  1.0
  Al  Al36  1  0.75043859  0.75043859  -0.00000000  1.0
  Al  Al37  1  0.24956141  0.24956141  0.00000000  1.0
  Al  Al38  1  0.00000000  -0.00000000  0.50000000  1.0
  Ru  Ru39  1  0.47731207  0.11549638  0.72160556  1.0
  Ru  Ru40  1  0.88450362  0.52268793  0.72160556  1.0
  Ru  Ru41  1  1.11549638  0.47731207  0.27839444  1.0
  Ru  Ru42  1  0.52268793  -0.11549638  0.27839444  1.0
  Ru  Ru43  1  0.90050630  0.09949370  0.98457002  1.0
  Ru  Ru44  1  0.09949370  -0.09949370  0.01542998  1.0
  Ru  Ru45  1  0.90127945  0.09872055  0.62447339  1.0
  Ru  Ru46  1  0.09872055  -0.09872055  0.37552661  1.0
  Ru  Ru47  1  0.59190099  0.40809901  0.98761546  1.0
  Ru  Ru48  1  0.40809901  -0.40809901  0.01238454  1.0
  Ru  Ru49  1  0.41458773  -0.41458773  0.61684677  1.0
  Ru  Ru50  1  0.58541227  0.41458773  0.38315323  1.0
