# generated using pymatgen
data_Li2ZrF6
_symmetry_space_group_name_H-M   'P 1'
_cell_length_a   5.05378607
_cell_length_b   5.05378607
_cell_length_c   4.70071997
_cell_angle_alpha   90.00000000
_cell_angle_beta   90.00000000
_cell_angle_gamma   120.00000000
_symmetry_Int_Tables_number   1
_chemical_formula_structural   Li2ZrF6
_chemical_formula_sum   'Li2 Zr1 F6'
_cell_volume   103.97495011
_cell_formula_units_Z   1
loop_
 _symmetry_equiv_pos_site_id
 _symmetry_equiv_pos_as_xyz
  1  'x, y, z'
loop_
 _atom_site_type_symbol
 _atom_site_label
 _atom_site_symmetry_multiplicity
 _atom_site_fract_x
 _atom_site_fract_y
 _atom_site_fract_z
 _atom_site_occupancy
  Li  Li0  1  0.33333333  0.66666667  0.50000000  1.0
  Li  Li1  1  0.66666667  0.33333333  0.50000000  1.0
  Zr  Zr2  1  -0.00000000  -0.00000000  -0.00000000  1.0
  F  F3  1  0.67435172  0.67435172  0.25507027  1.0
  F  F4  1  0.67435172  -0.00000000  0.74492973  1.0
  F  F5  1  -0.00000000  0.67435172  0.74492973  1.0
  F  F6  1  0.00000000  0.32564828  0.25507027  1.0
  F  F7  1  0.32564828  0.32564828  0.74492973  1.0
  F  F8  1  0.32564828  0.00000000  0.25507027  1.0
