# generated using pymatgen
data_Zr(SiPd)3
_symmetry_space_group_name_H-M   'P 1'
_cell_length_a   8.08363097
_cell_length_b   8.08363097
_cell_length_c   7.11059801
_cell_angle_alpha   90.00000000
_cell_angle_beta   90.00000000
_cell_angle_gamma   152.58263056
_symmetry_Int_Tables_number   1
_chemical_formula_structural   Zr(SiPd)3
_chemical_formula_sum   'Zr2 Si6 Pd6'
_cell_volume   213.95350072
_cell_formula_units_Z   2
loop_
 _symmetry_equiv_pos_site_id
 _symmetry_equiv_pos_as_xyz
  1  'x, y, z'
loop_
 _atom_site_type_symbol
 _atom_site_label
 _atom_site_symmetry_multiplicity
 _atom_site_fract_x
 _atom_site_fract_y
 _atom_site_fract_z
 _atom_site_occupancy
  Zr  Zr0  1  -0.98940596  0.98940596  0.25000000  1.0
  Zr  Zr1  1  -0.01059404  1.01059404  0.75000000  1.0
  Si  Si2  1  -0.57350748  0.57350748  0.46781225  1.0
  Si  Si3  1  -0.57350748  0.57350748  0.03218775  1.0
  Si  Si4  1  -0.42649252  1.42649252  0.96781225  1.0
  Si  Si5  1  -0.42649252  1.42649252  0.53218775  1.0
  Si  Si6  1  -0.73813804  0.73813804  0.25000000  1.0
  Si  Si7  1  -0.26186196  1.26186196  0.75000000  1.0
  Pd  Pd8  1  -0.82461913  0.82461913  0.94701107  1.0
  Pd  Pd9  1  -0.82461913  0.82461913  0.55298893  1.0
  Pd  Pd10  1  -0.17538087  1.17538087  0.44701107  1.0
  Pd  Pd11  1  -0.17538087  1.17538087  0.05298893  1.0
  Pd  Pd12  1  -0.34034637  1.34034637  0.25000000  1.0
  Pd  Pd13  1  -0.65965363  0.65965363  0.75000000  1.0
