# generated using pymatgen
data_Na15Sn4
_symmetry_space_group_name_H-M   'P 1'
_cell_length_a   11.41344246
_cell_length_b   11.41344246
_cell_length_c   11.41344246
_cell_angle_alpha   109.47122063
_cell_angle_beta   109.47122063
_cell_angle_gamma   109.47122063
_symmetry_Int_Tables_number   1
_chemical_formula_structural   Na15Sn4
_chemical_formula_sum   'Na30 Sn8'
_cell_volume   1144.53234555
_cell_formula_units_Z   2
loop_
 _symmetry_equiv_pos_site_id
 _symmetry_equiv_pos_as_xyz
  1  'x, y, z'
loop_
 _atom_site_type_symbol
 _atom_site_label
 _atom_site_symmetry_multiplicity
 _atom_site_fract_x
 _atom_site_fract_y
 _atom_site_fract_z
 _atom_site_occupancy
  Na  Na0  1  1.08415054  0.30833686  0.97063636  1.0
  Na  Na1  1  0.83770050  1.11351418  0.52936364  1.0
  Na  Na2  1  0.80833686  0.58415054  0.47063636  1.0
  Na  Na3  1  1.61351418  1.33770050  1.02936364  1.0
  Na  Na4  1  0.97063636  1.08415054  0.30833686  1.0
  Na  Na5  1  1.27581368  0.66229950  1.19166314  1.0
  Na  Na6  1  1.58415054  1.47063636  1.80833686  1.0
  Na  Na7  1  0.16229950  0.77581368  0.69166314  1.0
  Na  Na8  1  1.30833686  0.97063636  1.08415054  1.0
  Na  Na9  1  1.38648582  1.22418632  1.41584946  1.0
  Na  Na10  1  0.47063636  0.80833686  0.58415054  1.0
  Na  Na11  1  0.72418632  0.88648582  0.91584946  1.0
  Na  Na12  1  1.66229950  1.19166314  1.27581368  1.0
  Na  Na13  1  1.41584946  1.38648582  1.22418632  1.0
  Na  Na14  1  0.88648582  0.91584946  0.72418632  1.0
  Na  Na15  1  0.69166314  1.16229950  0.77581368  1.0
  Na  Na16  1  1.22418632  1.41584946  1.38648582  1.0
  Na  Na17  1  1.52936364  0.83770050  1.11351418  1.0
  Na  Na18  1  1.33770050  1.02936364  1.61351418  1.0
  Na  Na19  1  0.91584946  0.72418632  0.88648582  1.0
  Na  Na20  1  1.11351418  1.52936364  0.83770050  1.0
  Na  Na21  1  1.19166314  1.27581368  1.66229950  1.0
  Na  Na22  1  0.77581368  0.69166314  0.16229950  1.0
  Na  Na23  1  1.02936364  0.61351418  1.33770050  1.0
  Na  Na24  1  1.12500000  0.87500000  1.25000000  1.0
  Na  Na25  1  0.37500000  0.62500000  0.75000000  1.0
  Na  Na26  1  0.25000000  1.12500000  0.87500000  1.0
  Na  Na27  1  0.75000000  1.37500000  0.62500000  1.0
  Na  Na28  1  0.62500000  0.75000000  0.37500000  1.0
  Na  Na29  1  0.87500000  0.25000000  1.12500000  1.0
  Sn  Sn30  1  1.08340126  1.08340126  1.08340126  1.0
  Sn  Sn31  1  1.50000000  1.00000000  1.41659874  1.0
  Sn  Sn32  1  0.58340126  0.58340126  0.58340126  1.0
  Sn  Sn33  1  0.50000000  1.00000000  0.91659874  1.0
  Sn  Sn34  1  1.00000000  1.41659874  1.50000000  1.0
  Sn  Sn35  1  1.41659874  0.50000000  1.00000000  1.0
  Sn  Sn36  1  1.00000000  0.91659874  1.50000000  1.0
  Sn  Sn37  1  0.91659874  1.50000000  1.00000000  1.0
