# generated using pymatgen
data_S7(N3O4)2
_symmetry_space_group_name_H-M   'P 1'
_cell_length_a   12.20320570
_cell_length_b   12.20320570
_cell_length_c   5.26861328
_cell_angle_alpha   90.00000000
_cell_angle_beta   90.00000000
_cell_angle_gamma   90.00000000
_symmetry_Int_Tables_number   1
_chemical_formula_structural   S7(N3O4)2
_chemical_formula_sum   'S14 N12 O16'
_cell_volume   784.59256084
_cell_formula_units_Z   2
loop_
 _symmetry_equiv_pos_site_id
 _symmetry_equiv_pos_as_xyz
  1  'x, y, z'
loop_
 _atom_site_type_symbol
 _atom_site_label
 _atom_site_symmetry_multiplicity
 _atom_site_fract_x
 _atom_site_fract_y
 _atom_site_fract_z
 _atom_site_occupancy
  S  S0  1  0.96290478  0.28993438  0.87385126  1.0
  S  S1  1  0.53709522  0.78993438  0.12614874  1.0
  S  S2  1  0.71006562  0.96290478  0.12614874  1.0
  S  S3  1  0.78993438  0.46290478  0.87385126  1.0
  S  S4  1  0.03709522  0.71006562  0.87385126  1.0
  S  S5  1  0.46290478  0.21006562  0.12614874  1.0
  S  S6  1  0.28993438  0.03709522  0.12614874  1.0
  S  S7  1  0.21006562  0.53709522  0.87385126  1.0
  S  S8  1  0.25517756  0.75517756  0.70412890  1.0
  S  S9  1  0.24482244  0.25517756  0.29587110  1.0
  S  S10  1  0.74482244  0.24482244  0.70412890  1.0
  S  S11  1  0.75517756  0.74482244  0.29587110  1.0
  S  S12  1  0.00000000  0.50000000  0.58790637  1.0
  S  S13  1  0.50000000  0.00000000  0.41209363  1.0
  N  N14  1  0.86551884  0.21023831  0.75462859  1.0
  N  N15  1  0.63448116  0.71023831  0.24537141  1.0
  N  N16  1  0.78976169  0.86551884  0.24537141  1.0
  N  N17  1  0.71023831  0.36551884  0.75462859  1.0
  N  N18  1  0.13448116  0.78976169  0.75462859  1.0
  N  N19  1  0.36551884  0.28976169  0.24537141  1.0
  N  N20  1  0.21023831  0.13448116  0.24537141  1.0
  N  N21  1  0.28976169  0.63448116  0.75462859  1.0
  N  N22  1  0.92144538  0.42144538  0.78081257  1.0
  N  N23  1  0.57855462  0.92144538  0.21918743  1.0
  N  N24  1  0.07855462  0.57855462  0.78081257  1.0
  N  N25  1  0.42144538  0.07855462  0.21918743  1.0
  O  O26  1  0.23303281  0.43732862  0.74047497  1.0
  O  O27  1  0.26696719  0.93732862  0.25952503  1.0
  O  O28  1  0.56267138  0.23303281  0.25952503  1.0
  O  O29  1  0.93732862  0.73303281  0.74047497  1.0
  O  O30  1  0.76696719  0.56267138  0.74047497  1.0
  O  O31  1  0.73303281  0.06267138  0.25952503  1.0
  O  O32  1  0.43732862  0.76696719  0.25952503  1.0
  O  O33  1  0.06267138  0.26696719  0.74047497  1.0
  O  O34  1  0.45756390  0.21674162  0.85353424  1.0
  O  O35  1  0.04243610  0.71674162  0.14646576  1.0
  O  O36  1  0.78325838  0.45756390  0.14646576  1.0
  O  O37  1  0.71674162  0.95756390  0.85353424  1.0
  O  O38  1  0.54243610  0.78325838  0.85353424  1.0
  O  O39  1  0.95756390  0.28325838  0.14646576  1.0
  O  O40  1  0.21674162  0.54243610  0.14646576  1.0
  O  O41  1  0.28325838  0.04243610  0.85353424  1.0
