# generated using pymatgen
data_NbBRu
_symmetry_space_group_name_H-M   'P 1'
_cell_length_a   10.92582599
_cell_length_b   3.16831379
_cell_length_c   6.38314557
_cell_angle_alpha   90.00000000
_cell_angle_beta   90.00000000
_cell_angle_gamma   90.00000000
_symmetry_Int_Tables_number   1
_chemical_formula_structural   NbBRu
_chemical_formula_sum   'Nb6 B6 Ru6'
_cell_volume   220.96180860
_cell_formula_units_Z   6
loop_
 _symmetry_equiv_pos_site_id
 _symmetry_equiv_pos_as_xyz
  1  'x, y, z'
loop_
 _atom_site_type_symbol
 _atom_site_label
 _atom_site_symmetry_multiplicity
 _atom_site_fract_x
 _atom_site_fract_y
 _atom_site_fract_z
 _atom_site_occupancy
  Nb  Nb0  1  0.45623357  0.00000000  0.27749765  1.0
  Nb  Nb1  1  0.95623357  0.00000000  0.72250235  1.0
  Nb  Nb2  1  0.54376643  0.00000000  0.72250235  1.0
  Nb  Nb3  1  0.04376643  0.00000000  0.27749765  1.0
  Nb  Nb4  1  0.25000000  0.00000000  0.64334625  1.0
  Nb  Nb5  1  0.75000000  0.00000000  0.35665375  1.0
  B  B6  1  0.41703649  0.50000000  0.54907757  1.0
  B  B7  1  0.91703649  0.50000000  0.45092243  1.0
  B  B8  1  0.58296351  0.50000000  0.45092243  1.0
  B  B9  1  0.08296351  0.50000000  0.54907757  1.0
  B  B10  1  0.25000000  0.00000000  0.04872123  1.0
  B  B11  1  0.75000000  0.00000000  0.95127877  1.0
  Ru  Ru12  1  0.87475279  0.50000000  0.07285176  1.0
  Ru  Ru13  1  0.37475279  0.50000000  0.92714824  1.0
  Ru  Ru14  1  0.12524721  0.50000000  0.92714824  1.0
  Ru  Ru15  1  0.62524721  0.50000000  0.07285176  1.0
  Ru  Ru16  1  0.25000000  0.50000000  0.29639056  1.0
  Ru  Ru17  1  0.75000000  0.50000000  0.70360944  1.0
