# generated using pymatgen
data_Cd3SiO5
_symmetry_space_group_name_H-M   'P 1'
_cell_length_a   6.90377320
_cell_length_b   6.90377320
_cell_length_c   5.07250598
_cell_angle_alpha   90.00000000
_cell_angle_beta   90.00000000
_cell_angle_gamma   90.00000000
_symmetry_Int_Tables_number   1
_chemical_formula_structural   Cd3SiO5
_chemical_formula_sum   'Cd6 Si2 O10'
_cell_volume   241.76620795
_cell_formula_units_Z   2
loop_
 _symmetry_equiv_pos_site_id
 _symmetry_equiv_pos_as_xyz
  1  'x, y, z'
loop_
 _atom_site_type_symbol
 _atom_site_label
 _atom_site_symmetry_multiplicity
 _atom_site_fract_x
 _atom_site_fract_y
 _atom_site_fract_z
 _atom_site_occupancy
  Cd  Cd0  1  0.25000000  0.25000000  0.50000000  1.0
  Cd  Cd1  1  0.75000000  0.75000000  0.50000000  1.0
  Cd  Cd2  1  0.75000000  0.25000000  0.50000000  1.0
  Cd  Cd3  1  0.25000000  0.75000000  0.50000000  1.0
  Cd  Cd4  1  0.00000000  0.50000000  0.03129464  1.0
  Cd  Cd5  1  0.50000000  0.00000000  -0.03129464  1.0
  Si  Si6  1  0.50000000  0.50000000  0.00000000  1.0
  Si  Si7  1  0.00000000  0.00000000  0.00000000  1.0
  O  O8  1  0.31052044  0.50000000  0.19849358  1.0
  O  O9  1  0.68947956  0.50000000  0.19849358  1.0
  O  O10  1  0.81052044  0.00000000  0.80150642  1.0
  O  O11  1  0.18947956  0.00000000  0.80150642  1.0
  O  O12  1  0.50000000  0.31052044  0.80150642  1.0
  O  O13  1  0.50000000  0.68947956  0.80150642  1.0
  O  O14  1  0.00000000  0.81052044  0.19849358  1.0
  O  O15  1  0.00000000  0.18947956  0.19849358  1.0
  O  O16  1  0.00000000  0.50000000  0.60556014  1.0
  O  O17  1  0.50000000  0.00000000  0.39443986  1.0
