# generated using pymatgen
data_RbPH3O4F
_symmetry_space_group_name_H-M   'P 1'
_cell_length_a   9.19158923
_cell_length_b   4.65984042
_cell_length_c   12.35401164
_cell_angle_alpha   90.00000000
_cell_angle_beta   90.00000000
_cell_angle_gamma   90.00000000
_symmetry_Int_Tables_number   1
_chemical_formula_structural   RbPH3O4F
_chemical_formula_sum   'Rb4 P4 H12 O16 F4'
_cell_volume   529.13886136
_cell_formula_units_Z   4
loop_
 _symmetry_equiv_pos_site_id
 _symmetry_equiv_pos_as_xyz
  1  'x, y, z'
loop_
 _atom_site_type_symbol
 _atom_site_label
 _atom_site_symmetry_multiplicity
 _atom_site_fract_x
 _atom_site_fract_y
 _atom_site_fract_z
 _atom_site_occupancy
  Rb  Rb0  1  0.15751391  0.14195853  0.25142100  1.0
  Rb  Rb1  1  0.65751391  0.35804147  0.25142100  1.0
  Rb  Rb2  1  0.84248609  0.85804147  0.75142100  1.0
  Rb  Rb3  1  0.34248609  0.64195853  0.75142100  1.0
  P  P4  1  0.47770482  0.91647300  0.00799006  1.0
  P  P5  1  0.97770482  0.58352700  0.00799006  1.0
  P  P6  1  0.52229518  0.08352700  0.50799006  1.0
  P  P7  1  0.02229518  0.41647300  0.50799006  1.0
  H  H8  1  0.40093789  0.76599374  0.35039149  1.0
  H  H9  1  0.90093789  0.73400626  0.35039149  1.0
  H  H10  1  0.59906211  0.23400626  0.85039149  1.0
  H  H11  1  0.09906211  0.26599374  0.85039149  1.0
  H  H12  1  0.21354656  0.68691507  0.04108293  1.0
  H  H13  1  0.71354656  0.81308493  0.04108293  1.0
  H  H14  1  0.78645344  0.31308493  0.54108293  1.0
  H  H15  1  0.28645344  0.18691507  0.54108293  1.0
  H  H16  1  0.10055730  0.86351847  0.54321676  1.0
  H  H17  1  0.60055730  0.63648153  0.54321676  1.0
  H  H18  1  0.89944270  0.13648153  0.04321676  1.0
  H  H19  1  0.39944270  0.36351847  0.04321676  1.0
  O  O20  1  0.47806891  0.97932138  0.39575905  1.0
  O  O21  1  0.97806891  0.52067862  0.39575905  1.0
  O  O22  1  0.52193109  0.02067862  0.89575905  1.0
  O  O23  1  0.02193109  0.47932138  0.89575905  1.0
  O  O24  1  0.40697943  0.16465104  0.07921963  1.0
  O  O25  1  0.90697943  0.33534896  0.07921963  1.0
  O  O26  1  0.59302057  0.83534896  0.57921963  1.0
  O  O27  1  0.09302057  0.66465104  0.57921963  1.0
  O  O28  1  0.36850798  0.66594222  0.00134344  1.0
  O  O29  1  0.86850798  0.83405778  0.00134344  1.0
  O  O30  1  0.63149202  0.33405778  0.50134344  1.0
  O  O31  1  0.13149202  0.16594222  0.50134344  1.0
  O  O32  1  0.11278593  0.68744844  0.07822763  1.0
  O  O33  1  0.61278593  0.81255156  0.07822763  1.0
  O  O34  1  0.88721407  0.31255156  0.57822763  1.0
  O  O35  1  0.38721407  0.18744844  0.57822763  1.0
  F  F36  1  0.34390747  0.61710893  0.30414799  1.0
  F  F37  1  0.84390747  0.88289107  0.30414799  1.0
  F  F38  1  0.65609253  0.38289107  0.80414799  1.0
  F  F39  1  0.15609253  0.11710893  0.80414799  1.0
