# generated using pymatgen
data_In2B(PO4)3
_symmetry_space_group_name_H-M   'P 1'
_cell_length_a   8.32644458
_cell_length_b   8.32644458
_cell_length_c   7.91268832
_cell_angle_alpha   90.00000000
_cell_angle_beta   90.00000000
_cell_angle_gamma   120.00000000
_symmetry_Int_Tables_number   1
_chemical_formula_structural   In2B(PO4)3
_chemical_formula_sum   'In4 B2 P6 O24'
_cell_volume   475.08780500
_cell_formula_units_Z   2
loop_
 _symmetry_equiv_pos_site_id
 _symmetry_equiv_pos_as_xyz
  1  'x, y, z'
loop_
 _atom_site_type_symbol
 _atom_site_label
 _atom_site_symmetry_multiplicity
 _atom_site_fract_x
 _atom_site_fract_y
 _atom_site_fract_z
 _atom_site_occupancy
  In  In0  1  0.33333333  0.66666667  0.45609719  1.0
  In  In1  1  0.33333333  0.66666667  0.04390281  1.0
  In  In2  1  0.66666667  0.33333333  0.95609719  1.0
  In  In3  1  0.66666667  0.33333333  0.54390281  1.0
  B  B4  1  0.00000000  0.00000000  0.25000000  1.0
  B  B5  1  0.00000000  0.00000000  0.75000000  1.0
  P  P6  1  0.69112841  0.64946958  0.25000000  1.0
  P  P7  1  0.64946958  0.95834118  0.75000000  1.0
  P  P8  1  0.95834118  0.30887159  0.25000000  1.0
  P  P9  1  0.35053042  0.04165882  0.25000000  1.0
  P  P10  1  0.30887159  0.35053042  0.75000000  1.0
  P  P11  1  0.04165882  0.69112841  0.75000000  1.0
  O  O12  1  0.73273475  0.58016347  0.41350004  1.0
  O  O13  1  0.73273475  0.58016347  0.08649996  1.0
  O  O14  1  0.58016347  0.84742872  0.91350004  1.0
  O  O15  1  0.58016347  0.84742872  0.58649996  1.0
  O  O16  1  0.84742872  0.26726525  0.41350004  1.0
  O  O17  1  0.84742872  0.26726525  0.08649996  1.0
  O  O18  1  0.41983653  0.15257128  0.41350004  1.0
  O  O19  1  0.41983653  0.15257128  0.08649996  1.0
  O  O20  1  0.26726525  0.41983653  0.91350004  1.0
  O  O21  1  0.26726525  0.41983653  0.58649996  1.0
  O  O22  1  0.15257128  0.73273475  0.91350004  1.0
  O  O23  1  0.15257128  0.73273475  0.58649996  1.0
  O  O24  1  0.12772722  0.94208070  0.25000000  1.0
  O  O25  1  0.94208070  0.81435348  0.75000000  1.0
  O  O26  1  0.81435348  0.87227278  0.25000000  1.0
  O  O27  1  0.05791930  0.18564652  0.25000000  1.0
  O  O28  1  0.87227278  0.05791930  0.75000000  1.0
  O  O29  1  0.18564652  0.12772722  0.75000000  1.0
  O  O30  1  0.38533239  0.87346944  0.25000000  1.0
  O  O31  1  0.87346944  0.48813705  0.75000000  1.0
  O  O32  1  0.48813705  0.61466761  0.25000000  1.0
  O  O33  1  0.12653056  0.51186295  0.25000000  1.0
  O  O34  1  0.61466761  0.12653056  0.75000000  1.0
  O  O35  1  0.51186295  0.38533239  0.75000000  1.0
