# generated using pymatgen
data_LiH2IO
_symmetry_space_group_name_H-M   'P 1'
_cell_length_a   6.44232692
_cell_length_b   4.39628751
_cell_length_c   5.60066504
_cell_angle_alpha   90.00000000
_cell_angle_beta   90.00000000
_cell_angle_gamma   90.00000000
_symmetry_Int_Tables_number   1
_chemical_formula_structural   LiH2IO
_chemical_formula_sum   'Li2 H4 I2 O2'
_cell_volume   158.62383501
_cell_formula_units_Z   2
loop_
 _symmetry_equiv_pos_site_id
 _symmetry_equiv_pos_as_xyz
  1  'x, y, z'
loop_
 _atom_site_type_symbol
 _atom_site_label
 _atom_site_symmetry_multiplicity
 _atom_site_fract_x
 _atom_site_fract_y
 _atom_site_fract_z
 _atom_site_occupancy
  Li  Li0  1  0.50000000  0.00000000  0.00000000  1.0
  Li  Li1  1  0.00000000  0.00000000  0.00000000  1.0
  H  H2  1  0.25000000  0.82453214  0.34347397  1.0
  H  H3  1  0.25000000  0.17546786  0.34347397  1.0
  H  H4  1  0.75000000  0.82453214  0.65652603  1.0
  H  H5  1  0.75000000  0.17546786  0.65652603  1.0
  I  I6  1  0.25000000  0.50000000  0.73997773  1.0
  I  I7  1  0.75000000  0.50000000  0.26002227  1.0
  O  O8  1  0.25000000  0.00000000  0.23306202  1.0
  O  O9  1  0.75000000  0.00000000  0.76693798  1.0
