# generated using pymatgen
data_SiO2
_symmetry_space_group_name_H-M   'P 1'
_cell_length_a   8.85947441
_cell_length_b   8.85947441
_cell_length_c   8.85947441
_cell_angle_alpha   109.47122063
_cell_angle_beta   109.47122063
_cell_angle_gamma   109.47122063
_symmetry_Int_Tables_number   1
_chemical_formula_structural   SiO2
_chemical_formula_sum   'Si12 O24'
_cell_volume   535.30584295
_cell_formula_units_Z   12
loop_
 _symmetry_equiv_pos_site_id
 _symmetry_equiv_pos_as_xyz
  1  'x, y, z'
loop_
 _atom_site_type_symbol
 _atom_site_label
 _atom_site_symmetry_multiplicity
 _atom_site_fract_x
 _atom_site_fract_y
 _atom_site_fract_z
 _atom_site_occupancy
  Si  Si0  1  1.25000000  1.12500000  0.87500000  1.0
  Si  Si1  1  0.75000000  1.37500000  0.62500000  1.0
  Si  Si2  1  1.12500000  0.87500000  0.25000000  1.0
  Si  Si3  1  0.37500000  0.62500000  0.75000000  1.0
  Si  Si4  1  0.87500000  1.25000000  1.12500000  1.0
  Si  Si5  1  0.62500000  0.75000000  0.37500000  1.0
  Si  Si6  1  0.75000000  0.87500000  0.12500000  1.0
  Si  Si7  1  1.25000000  1.62500000  1.37500000  1.0
  Si  Si8  1  0.87500000  1.12500000  0.75000000  1.0
  Si  Si9  1  0.62500000  0.37500000  0.25000000  1.0
  Si  Si10  1  0.12500000  0.75000000  0.87500000  1.0
  Si  Si11  1  0.37500000  0.25000000  0.62500000  1.0
  O  O12  1  0.31434713  0.40717357  0.65717357  1.0
  O  O13  1  0.25000000  0.65717357  0.84282643  1.0
  O  O14  1  1.25000000  1.09282643  0.40717357  1.0
  O  O15  1  1.18565287  0.84282643  1.09282643  1.0
  O  O16  1  0.40717357  0.65717357  0.31434713  1.0
  O  O17  1  0.65717357  0.84282643  0.25000000  1.0
  O  O18  1  1.09282643  1.40717357  1.25000000  1.0
  O  O19  1  1.84282643  1.09282643  1.18565287  1.0
  O  O20  1  1.65717357  1.31434713  1.40717357  1.0
  O  O21  1  0.84282643  1.25000000  0.65717357  1.0
  O  O22  1  0.40717357  1.25000000  1.09282643  1.0
  O  O23  1  1.09282643  1.18565287  0.84282643  1.0
  O  O24  1  0.68565287  0.59282643  0.34282643  1.0
  O  O25  1  0.75000000  1.34282643  1.15717357  1.0
  O  O26  1  0.75000000  0.90717357  0.59282643  1.0
  O  O27  1  0.81434713  0.15717357  0.90717357  1.0
  O  O28  1  0.59282643  0.34282643  0.68565287  1.0
  O  O29  1  1.34282643  1.15717357  0.75000000  1.0
  O  O30  1  0.90717357  1.59282643  0.75000000  1.0
  O  O31  1  1.15717357  0.90717357  0.81434713  1.0
  O  O32  1  1.34282643  1.68565287  1.59282643  1.0
  O  O33  1  1.15717357  1.75000000  1.34282643  1.0
  O  O34  1  0.59282643  0.75000000  0.90717357  1.0
  O  O35  1  0.90717357  0.81434713  0.15717357  1.0
