# generated using pymatgen
data_Na5SnAs3
_symmetry_space_group_name_H-M   'P 1'
_cell_length_a   8.63916312
_cell_length_b   7.68871233
_cell_length_c   16.19323467
_cell_angle_alpha   90.00000000
_cell_angle_beta   121.81885812
_cell_angle_gamma   90.00000000
_symmetry_Int_Tables_number   1
_chemical_formula_structural   Na5SnAs3
_chemical_formula_sum   'Na20 Sn4 As12'
_cell_volume   913.97502975
_cell_formula_units_Z   4
loop_
 _symmetry_equiv_pos_site_id
 _symmetry_equiv_pos_as_xyz
  1  'x, y, z'
loop_
 _atom_site_type_symbol
 _atom_site_label
 _atom_site_symmetry_multiplicity
 _atom_site_fract_x
 _atom_site_fract_y
 _atom_site_fract_z
 _atom_site_occupancy
  Na  Na0  1  0.99220962  0.33952306  0.41719824  1.0
  Na  Na1  1  0.99220962  0.16047694  0.91719824  1.0
  Na  Na2  1  0.00779038  0.83952306  0.08280176  1.0
  Na  Na3  1  0.00779038  0.66047694  0.58280176  1.0
  Na  Na4  1  0.90744416  0.00543591  0.24178805  1.0
  Na  Na5  1  0.90744416  0.49456409  0.74178805  1.0
  Na  Na6  1  0.09255584  0.50543591  0.25821195  1.0
  Na  Na7  1  0.09255584  0.99456409  0.75821195  1.0
  Na  Na8  1  0.74703604  0.97490809  0.41384039  1.0
  Na  Na9  1  0.74703604  0.52509191  0.91384039  1.0
  Na  Na10  1  0.25296396  0.47490809  0.08615961  1.0
  Na  Na11  1  0.25296396  0.02509191  0.58615961  1.0
  Na  Na12  1  0.58889172  0.45927914  0.41115152  1.0
  Na  Na13  1  0.58889172  0.04072086  0.91115152  1.0
  Na  Na14  1  0.41110828  0.95927914  0.08884848  1.0
  Na  Na15  1  0.41110828  0.54072086  0.58884848  1.0
  Na  Na16  1  0.31380128  0.14094913  0.24345409  1.0
  Na  Na17  1  0.31380128  0.35905087  0.74345409  1.0
  Na  Na18  1  0.68619872  0.64094913  0.25654591  1.0
  Na  Na19  1  0.68619872  0.85905087  0.75654591  1.0
  Sn  Sn20  1  0.66024104  0.35231686  0.09004805  1.0
  Sn  Sn21  1  0.66024104  0.14768314  0.59004805  1.0
  Sn  Sn22  1  0.33975896  0.85231686  0.40995195  1.0
  Sn  Sn23  1  0.33975896  0.64768314  0.90995195  1.0
  As  As24  1  0.93971343  0.23065015  0.08291082  1.0
  As  As25  1  0.93971343  0.26934985  0.58291082  1.0
  As  As26  1  0.06028657  0.73065015  0.41708918  1.0
  As  As27  1  0.06028657  0.76934985  0.91708918  1.0
  As  As28  1  0.63627713  0.25221782  0.23873730  1.0
  As  As29  1  0.63627713  0.24778218  0.73873730  1.0
  As  As30  1  0.36372287  0.75221782  0.26126270  1.0
  As  As31  1  0.36372287  0.74778218  0.76126270  1.0
  As  As32  1  0.33021865  0.20607415  0.42865756  1.0
  As  As33  1  0.33021865  0.29392585  0.92865756  1.0
  As  As34  1  0.66978135  0.70607415  0.07134244  1.0
  As  As35  1  0.66978135  0.79392585  0.57134244  1.0
