# generated using pymatgen
data_TiCoSi
_symmetry_space_group_name_H-M   'P 1'
_cell_length_a   6.11723801
_cell_length_b   3.70771221
_cell_length_c   6.88634061
_cell_angle_alpha   90.00000000
_cell_angle_beta   90.00000000
_cell_angle_gamma   90.00000000
_symmetry_Int_Tables_number   1
_chemical_formula_structural   TiCoSi
_chemical_formula_sum   'Ti4 Co4 Si4'
_cell_volume   156.18880243
_cell_formula_units_Z   4
loop_
 _symmetry_equiv_pos_site_id
 _symmetry_equiv_pos_as_xyz
  1  'x, y, z'
loop_
 _atom_site_type_symbol
 _atom_site_label
 _atom_site_symmetry_multiplicity
 _atom_site_fract_x
 _atom_site_fract_y
 _atom_site_fract_z
 _atom_site_occupancy
  Ti  Ti0  1  0.98477294  0.75000000  0.69141067  1.0
  Ti  Ti1  1  0.48477294  0.75000000  0.80858933  1.0
  Ti  Ti2  1  0.01522706  0.25000000  0.30858933  1.0
  Ti  Ti3  1  0.51522706  0.25000000  0.19141067  1.0
  Co  Co4  1  0.85464764  0.75000000  0.06559098  1.0
  Co  Co5  1  0.35464764  0.75000000  0.43440902  1.0
  Co  Co6  1  0.14535236  0.25000000  0.93440902  1.0
  Co  Co7  1  0.64535236  0.25000000  0.56559098  1.0
  Si  Si8  1  0.72701970  0.75000000  0.38615420  1.0
  Si  Si9  1  0.22701970  0.75000000  0.11384580  1.0
  Si  Si10  1  0.27298030  0.25000000  0.61384580  1.0
  Si  Si11  1  0.77298030  0.25000000  0.88615420  1.0
