# generated using pymatgen
data_LiTaF6
_symmetry_space_group_name_H-M   'P 1'
_cell_length_a   5.62640207
_cell_length_b   5.62640207
_cell_length_c   5.62640207
_cell_angle_alpha   59.97520530
_cell_angle_beta   59.97520530
_cell_angle_gamma   59.97520530
_symmetry_Int_Tables_number   1
_chemical_formula_structural   LiTaF6
_chemical_formula_sum   'Li1 Ta1 F6'
_cell_volume   125.87313396
_cell_formula_units_Z   1
loop_
 _symmetry_equiv_pos_site_id
 _symmetry_equiv_pos_as_xyz
  1  'x, y, z'
loop_
 _atom_site_type_symbol
 _atom_site_label
 _atom_site_symmetry_multiplicity
 _atom_site_fract_x
 _atom_site_fract_y
 _atom_site_fract_z
 _atom_site_occupancy
  Li  Li0  1  0.50000000  0.50000000  -0.50000000  1.0
  Ta  Ta1  1  0.00000000  0.00000000  0.00000000  1.0
  F  F2  1  0.24037641  0.75824479  -0.75686645  1.0
  F  F3  1  0.75686645  -0.24037641  0.24175521  1.0
  F  F4  1  1.24175521  -0.24313355  -0.24037641  1.0
  F  F5  1  0.75962359  0.24175521  -0.24313355  1.0
  F  F6  1  0.24313355  0.24037641  -0.24175521  1.0
  F  F7  1  0.75824479  0.24313355  -0.75962359  1.0
