# generated using pymatgen
data_Ga2O3
_symmetry_space_group_name_H-M   'P 1'
_cell_length_a   5.11351149
_cell_length_b   8.80444433
_cell_length_c   9.39713812
_cell_angle_alpha   90.00000000
_cell_angle_beta   90.00000000
_cell_angle_gamma   90.00000000
_symmetry_Int_Tables_number   1
_chemical_formula_structural   Ga2O3
_chemical_formula_sum   'Ga16 O24'
_cell_volume   423.07444970
_cell_formula_units_Z   8
loop_
 _symmetry_equiv_pos_site_id
 _symmetry_equiv_pos_as_xyz
  1  'x, y, z'
loop_
 _atom_site_type_symbol
 _atom_site_label
 _atom_site_symmetry_multiplicity
 _atom_site_fract_x
 _atom_site_fract_y
 _atom_site_fract_z
 _atom_site_occupancy
  Ga  Ga0  1  0.32284831  0.65219731  0.56064275  1.0
  Ga  Ga1  1  0.82284831  0.84780269  0.56064275  1.0
  Ga  Ga2  1  0.67715169  0.34780269  0.06064275  1.0
  Ga  Ga3  1  0.17715169  0.15219731  0.06064275  1.0
  Ga  Ga4  1  0.30761361  0.64991963  0.15067521  1.0
  Ga  Ga5  1  0.80761361  0.85008037  0.15067521  1.0
  Ga  Ga6  1  0.69238639  0.35008037  0.65067521  1.0
  Ga  Ga7  1  0.19238639  0.14991963  0.65067521  1.0
  Ga  Ga8  1  0.17878034  0.46793158  0.85815324  1.0
  Ga  Ga9  1  0.67878034  0.03206842  0.85815324  1.0
  Ga  Ga10  1  0.82121966  0.53206842  0.35815324  1.0
  Ga  Ga11  1  0.32121966  -0.03206842  0.35815324  1.0
  Ga  Ga12  1  0.18774085  0.83822840  0.87188001  1.0
  Ga  Ga13  1  0.68774085  0.66177160  0.87188001  1.0
  Ga  Ga14  1  0.81225915  0.16177160  0.37188001  1.0
  Ga  Ga15  1  0.31225915  0.33822840  0.37188001  1.0
  O  O16  1  0.52305641  0.48847083  0.49577918  1.0
  O  O17  1  0.02305641  0.01152917  0.49577918  1.0
  O  O18  1  0.47694359  0.51152917  -0.00422082  1.0
  O  O19  1  -0.02305641  -0.01152917  -0.00422082  1.0
  O  O20  1  0.48060587  0.83229331  0.50061579  1.0
  O  O21  1  -0.01939413  0.66770669  0.50061579  1.0
  O  O22  1  0.51939413  0.16770669  0.00061579  1.0
  O  O23  1  0.01939413  0.33229331  0.00061579  1.0
  O  O24  1  0.52929930  0.82434498  -0.01099325  1.0
  O  O25  1  0.02929930  0.67565502  -0.01099325  1.0
  O  O26  1  0.47070070  0.17565502  0.48900675  1.0
  O  O27  1  -0.02929930  0.32434498  0.48900675  1.0
  O  O28  1  0.34695711  0.65867134  0.76036261  1.0
  O  O29  1  0.84695711  0.84132866  0.76036261  1.0
  O  O30  1  0.65304289  0.34132866  0.26036261  1.0
  O  O31  1  0.15304289  0.15867134  0.26036261  1.0
  O  O32  1  0.34971538  -0.00244129  0.76667829  1.0
  O  O33  1  0.84971538  0.50244129  0.76667829  1.0
  O  O34  1  0.65028462  0.00244129  0.26667829  1.0
  O  O35  1  0.15028462  0.49755871  0.26667829  1.0
  O  O36  1  0.34923683  0.32861695  0.73370616  1.0
  O  O37  1  0.84923683  0.17138305  0.73370616  1.0
  O  O38  1  0.65076317  0.67138305  0.23370616  1.0
  O  O39  1  0.15076317  0.82861695  0.23370616  1.0
