# generated using pymatgen
data_Er6Zn23
_symmetry_space_group_name_H-M   'P 1'
_cell_length_a   9.00182575
_cell_length_b   9.00182575
_cell_length_c   9.00182575
_cell_angle_alpha   60.00000000
_cell_angle_beta   60.00000000
_cell_angle_gamma   60.00000000
_symmetry_Int_Tables_number   1
_chemical_formula_structural   Er6Zn23
_chemical_formula_sum   'Er6 Zn23'
_cell_volume   515.79461963
_cell_formula_units_Z   1
loop_
 _symmetry_equiv_pos_site_id
 _symmetry_equiv_pos_as_xyz
  1  'x, y, z'
loop_
 _atom_site_type_symbol
 _atom_site_label
 _atom_site_symmetry_multiplicity
 _atom_site_fract_x
 _atom_site_fract_y
 _atom_site_fract_z
 _atom_site_occupancy
  Er  Er0  1  -0.70660026  0.70660026  0.70660026  1.0
  Er  Er1  1  -0.29339974  0.29339974  0.70660026  1.0
  Er  Er2  1  0.70660026  0.70660026  -0.70660026  1.0
  Er  Er3  1  0.29339974  1.29339974  -0.29339974  1.0
  Er  Er4  1  0.29339974  -0.29339974  1.29339974  1.0
  Er  Er5  1  -0.29339974  0.29339974  0.29339974  1.0
  Zn  Zn6  1  0.00000000  0.00000000  0.00000000  1.0
  Zn  Zn7  1  0.87764794  0.87764794  -0.12235206  1.0
  Zn  Zn8  1  1.12235206  0.12235206  0.63294382  1.0
  Zn  Zn9  1  1.12235206  0.63294382  0.12235206  1.0
  Zn  Zn10  1  0.36705618  0.87764794  -0.12235206  1.0
  Zn  Zn11  1  1.63294382  0.12235206  0.12235206  1.0
  Zn  Zn12  1  0.87764794  0.36705618  -0.12235206  1.0
  Zn  Zn13  1  0.87764794  0.87764794  -0.63294382  1.0
  Zn  Zn14  1  1.12235206  0.12235206  0.12235206  1.0
  Zn  Zn15  1  0.67199399  0.67199399  -0.32800601  1.0
  Zn  Zn16  1  1.32800601  0.32800601  0.01598198  1.0
  Zn  Zn17  1  1.32800601  0.01598198  0.32800601  1.0
  Zn  Zn18  1  0.98401802  0.67199399  -0.32800601  1.0
  Zn  Zn19  1  1.01598198  0.32800601  0.32800601  1.0
  Zn  Zn20  1  0.67199399  0.98401802  -0.32800601  1.0
  Zn  Zn21  1  0.67199399  0.67199399  -0.01598198  1.0
  Zn  Zn22  1  1.32800601  0.32800601  0.32800601  1.0
  Zn  Zn23  1  1.50000000  0.00000000  -0.00000000  1.0
  Zn  Zn24  1  1.00000000  0.50000000  -0.50000000  1.0
  Zn  Zn25  1  0.00000000  1.50000000  -0.00000000  1.0
  Zn  Zn26  1  0.50000000  1.00000000  -0.50000000  1.0
  Zn  Zn27  1  0.00000000  -0.00000000  0.50000000  1.0
  Zn  Zn28  1  0.50000000  -0.50000000  1.00000000  1.0
