# generated using pymatgen
data_CuWO4
_symmetry_space_group_name_H-M   'P 1'
_cell_length_a   6.09210513
_cell_length_b   4.93433929
_cell_length_c   4.84454732
_cell_angle_alpha   85.24704668
_cell_angle_beta   79.42466962
_cell_angle_gamma   86.50974396
_symmetry_Int_Tables_number   1
_chemical_formula_structural   CuWO4
_chemical_formula_sum   'Cu2 W2 O8'
_cell_volume   142.50857742
_cell_formula_units_Z   2
loop_
 _symmetry_equiv_pos_site_id
 _symmetry_equiv_pos_as_xyz
  1  'x, y, z'
loop_
 _atom_site_type_symbol
 _atom_site_label
 _atom_site_symmetry_multiplicity
 _atom_site_fract_x
 _atom_site_fract_y
 _atom_site_fract_z
 _atom_site_occupancy
  W  W0  1  -0.83253388  -0.25619016  -0.98111917  1.0
  W  W1  1  -0.16746612  -0.74380984  -0.01888083  1.0
  O  O2  1  -0.92107349  -0.95553182  -0.78667616  1.0
  O  O3  1  -0.07892651  -0.04446818  -0.21332384  1.0
  O  O4  1  -0.65886758  -0.43504477  -0.75790544  1.0
  O  O5  1  -0.34113242  -0.56495523  -0.24209456  1.0
  O  O6  1  -0.87700557  -0.56878939  -0.20951586  1.0
  O  O7  1  -0.12299443  -0.43121061  -0.79048414  1.0
  O  O8  1  -0.37921537  -0.90446725  -0.72768767  1.0
  O  O9  1  -0.62078463  -0.09553275  -0.27231233  1.0
  Cu  Cu10  1  -0.65605991  -0.74394777  -0.49212944  1.0
  Cu  Cu11  1  -0.34394009  -0.25605223  -0.50787056  1.0
