# generated using pymatgen
data_RbGaS2
_symmetry_space_group_name_H-M   'P 1'
_cell_length_a   7.54088900
_cell_length_b   7.54088900
_cell_length_c   15.63464910
_cell_angle_alpha   83.06550973
_cell_angle_beta   96.93449027
_cell_angle_gamma   90.01159503
_symmetry_Int_Tables_number   1
_chemical_formula_structural   RbGaS2
_chemical_formula_sum   'Rb8 Ga8 S16'
_cell_volume   876.01149796
_cell_formula_units_Z   8
loop_
 _symmetry_equiv_pos_site_id
 _symmetry_equiv_pos_as_xyz
  1  'x, y, z'
loop_
 _atom_site_type_symbol
 _atom_site_label
 _atom_site_symmetry_multiplicity
 _atom_site_fract_x
 _atom_site_fract_y
 _atom_site_fract_z
 _atom_site_occupancy
  Rb  Rb0  1  0.65234886  0.22377799  0.60625468  1.0
  Rb  Rb1  1  0.77622201  0.34765114  0.10625468  1.0
  Rb  Rb2  1  1.22377799  -0.34765114  0.89374532  1.0
  Rb  Rb3  1  1.34765114  -0.22377799  0.39374532  1.0
  Rb  Rb4  1  0.22392957  0.15093345  0.89386795  1.0
  Rb  Rb5  1  0.84906655  0.77607043  0.39386795  1.0
  Rb  Rb6  1  1.15093345  -0.77607043  0.60613205  1.0
  Rb  Rb7  1  1.77607043  -0.15093345  0.10613205  1.0
  Ga  Ga8  1  1.70798502  -0.08660944  0.83202270  1.0
  Ga  Ga9  1  1.08660944  -0.70798502  0.33202270  1.0
  Ga  Ga10  1  0.91339056  0.70798502  0.66797730  1.0
  Ga  Ga11  1  0.29201498  0.08660944  0.16797730  1.0
  Ga  Ga12  1  1.42090613  -0.29197526  0.66764750  1.0
  Ga  Ga13  1  1.29197526  -0.42090613  0.16764750  1.0
  Ga  Ga14  1  0.70802474  0.42090613  0.83235250  1.0
  Ga  Ga15  1  0.57909387  0.29197526  0.33235250  1.0
  S  S16  1  1.64463604  -0.26937663  0.57646035  1.0
  S  S17  1  1.26937663  -0.64463604  0.07646035  1.0
  S  S18  1  0.73062337  0.64463604  0.92353965  1.0
  S  S19  1  0.35536396  0.26937663  0.42353965  1.0
  S  S20  1  0.72952325  0.14497765  0.91944217  1.0
  S  S21  1  0.85502235  0.27047675  0.41944217  1.0
  S  S22  1  1.14497765  -0.27047675  0.58055783  1.0
  S  S23  1  1.27047675  -0.14497765  0.08055783  1.0
  S  S24  1  1.43393382  -0.05850542  0.74962387  1.0
  S  S25  1  1.05850542  -0.43393382  0.24962387  1.0
  S  S26  1  0.94149458  0.43393382  0.75037613  1.0
  S  S27  1  0.56606618  0.05850542  0.25037613  1.0
  S  S28  1  0.94139263  0.94139263  0.75000000  1.0
  S  S29  1  0.05860737  0.05860737  0.25000000  1.0
  S  S30  1  0.43391657  0.43391657  0.75000000  1.0
  S  S31  1  0.56608343  0.56608343  0.25000000  1.0
