# generated using pymatgen
data_Cs3Bi2I9
_symmetry_space_group_name_H-M   'P 1'
_cell_length_a   8.60943728
_cell_length_b   8.60943728
_cell_length_c   22.14822129
_cell_angle_alpha   90.00000000
_cell_angle_beta   90.00000000
_cell_angle_gamma   120.00000000
_symmetry_Int_Tables_number   1
_chemical_formula_structural   Cs3Bi2I9
_chemical_formula_sum   'Cs6 Bi4 I18'
_cell_volume   1421.73619192
_cell_formula_units_Z   2
loop_
 _symmetry_equiv_pos_site_id
 _symmetry_equiv_pos_as_xyz
  1  'x, y, z'
loop_
 _atom_site_type_symbol
 _atom_site_label
 _atom_site_symmetry_multiplicity
 _atom_site_fract_x
 _atom_site_fract_y
 _atom_site_fract_z
 _atom_site_occupancy
  Cs  Cs0  1  0.00000000  0.00000000  0.25000000  1.0
  Cs  Cs1  1  0.00000000  0.00000000  0.75000000  1.0
  Cs  Cs2  1  0.33333333  0.66666667  0.43380056  1.0
  Cs  Cs3  1  0.33333333  0.66666667  0.06619944  1.0
  Cs  Cs4  1  0.66666667  0.33333333  0.93380056  1.0
  Cs  Cs5  1  0.66666667  0.33333333  0.56619944  1.0
  Bi  Bi6  1  0.33333333  0.66666667  0.84291498  1.0
  Bi  Bi7  1  0.33333333  0.66666667  0.65708502  1.0
  Bi  Bi8  1  0.66666667  0.33333333  0.34291498  1.0
  Bi  Bi9  1  0.66666667  0.33333333  0.15708502  1.0
  I  I10  1  0.16479087  0.83520913  0.91646992  1.0
  I  I11  1  0.16479087  0.83520913  0.58353008  1.0
  I  I12  1  0.16479087  0.32958175  0.91646992  1.0
  I  I13  1  0.16479087  0.32958175  0.58353008  1.0
  I  I14  1  0.83520913  0.16479087  0.41646992  1.0
  I  I15  1  0.83520913  0.16479087  0.08353008  1.0
  I  I16  1  0.83520913  0.67041825  0.41646992  1.0
  I  I17  1  0.83520913  0.67041825  0.08353008  1.0
  I  I18  1  0.67041825  0.83520913  0.91646992  1.0
  I  I19  1  0.67041825  0.83520913  0.58353008  1.0
  I  I20  1  0.32958175  0.16479087  0.41646992  1.0
  I  I21  1  0.32958175  0.16479087  0.08353008  1.0
  I  I22  1  0.49834064  0.50165936  0.25000000  1.0
  I  I23  1  0.49834064  0.99668129  0.25000000  1.0
  I  I24  1  0.50165936  0.49834064  0.75000000  1.0
  I  I25  1  0.50165936  0.00331871  0.75000000  1.0
  I  I26  1  0.00331871  0.50165936  0.25000000  1.0
  I  I27  1  0.99668129  0.49834064  0.75000000  1.0
