# generated using pymatgen
data_GaBiO3
_symmetry_space_group_name_H-M   'P 1'
_cell_length_a   5.50423635
_cell_length_b   5.18952487
_cell_length_c   10.12724494
_cell_angle_alpha   90.00000000
_cell_angle_beta   90.00000000
_cell_angle_gamma   90.00000000
_symmetry_Int_Tables_number   1
_chemical_formula_structural   GaBiO3
_chemical_formula_sum   'Ga4 Bi4 O12'
_cell_volume   289.27838603
_cell_formula_units_Z   4
loop_
 _symmetry_equiv_pos_site_id
 _symmetry_equiv_pos_as_xyz
  1  'x, y, z'
loop_
 _atom_site_type_symbol
 _atom_site_label
 _atom_site_symmetry_multiplicity
 _atom_site_fract_x
 _atom_site_fract_y
 _atom_site_fract_z
 _atom_site_occupancy
  Ga  Ga0  1  0.75000000  0.00000000  0.14445238  1.0
  Ga  Ga1  1  0.75000000  0.00000000  0.64445238  1.0
  Ga  Ga2  1  0.25000000  0.00000000  0.85554762  1.0
  Ga  Ga3  1  0.25000000  0.00000000  0.35554762  1.0
  Bi  Bi4  1  0.75000000  0.50000000  0.39150243  1.0
  Bi  Bi5  1  0.75000000  0.50000000  0.89150243  1.0
  Bi  Bi6  1  0.25000000  0.50000000  0.60849757  1.0
  Bi  Bi7  1  0.25000000  0.50000000  0.10849757  1.0
  O  O8  1  0.59657562  0.73161541  0.05419082  1.0
  O  O9  1  0.59657562  0.26838459  0.55419082  1.0
  O  O10  1  0.09657562  0.73161541  0.94580918  1.0
  O  O11  1  0.09657562  0.26838459  0.44580918  1.0
  O  O12  1  0.40342438  0.73161541  0.44580918  1.0
  O  O13  1  0.40342438  0.26838459  0.94580918  1.0
  O  O14  1  0.90342438  0.73161541  0.55419082  1.0
  O  O15  1  0.90342438  0.26838459  0.05419082  1.0
  O  O16  1  0.00000000  0.85392566  0.25000000  1.0
  O  O17  1  0.00000000  0.14607434  0.75000000  1.0
  O  O18  1  0.50000000  0.85392566  0.75000000  1.0
  O  O19  1  0.50000000  0.14607434  0.25000000  1.0
