# generated using pymatgen
data_K2MgF4
_symmetry_space_group_name_H-M   'P 1'
_cell_length_a   7.25584002
_cell_length_b   7.25584002
_cell_length_c   7.25584002
_cell_angle_alpha   147.72776668
_cell_angle_beta   147.72776668
_cell_angle_gamma   46.28739997
_symmetry_Int_Tables_number   1
_chemical_formula_structural   K2MgF4
_chemical_formula_sum   'K2 Mg1 F4'
_cell_volume   108.52393390
_cell_formula_units_Z   1
loop_
 _symmetry_equiv_pos_site_id
 _symmetry_equiv_pos_as_xyz
  1  'x, y, z'
loop_
 _atom_site_type_symbol
 _atom_site_label
 _atom_site_symmetry_multiplicity
 _atom_site_fract_x
 _atom_site_fract_y
 _atom_site_fract_z
 _atom_site_occupancy
  K  K0  1  0.64799456  0.64799456  1.00000000  1.0
  K  K1  1  0.35200544  0.35200544  -0.00000000  1.0
  Mg  Mg2  1  0.00000000  0.00000000  0.00000000  1.0
  F  F3  1  0.84818014  0.84818014  1.00000000  1.0
  F  F4  1  0.15181986  0.15181986  -0.00000000  1.0
  F  F5  1  0.50000000  0.00000000  0.50000000  1.0
  F  F6  1  -0.00000000  0.50000000  0.50000000  1.0
