# generated using pymatgen
data_Co2Ge
_symmetry_space_group_name_H-M   'P 1'
_cell_length_a   5.03588272
_cell_length_b   3.82511267
_cell_length_c   7.21748439
_cell_angle_alpha   90.00000000
_cell_angle_beta   90.00000000
_cell_angle_gamma   90.00000000
_symmetry_Int_Tables_number   1
_chemical_formula_structural   Co2Ge
_chemical_formula_sum   'Co8 Ge4'
_cell_volume   139.02909412
_cell_formula_units_Z   4
loop_
 _symmetry_equiv_pos_site_id
 _symmetry_equiv_pos_as_xyz
  1  'x, y, z'
loop_
 _atom_site_type_symbol
 _atom_site_label
 _atom_site_symmetry_multiplicity
 _atom_site_fract_x
 _atom_site_fract_y
 _atom_site_fract_z
 _atom_site_occupancy
  Co  Co0  1  0.96208137  0.75000000  0.72114860  1.0
  Co  Co1  1  0.46208137  0.75000000  0.77885140  1.0
  Co  Co2  1  0.03791863  0.25000000  0.27885140  1.0
  Co  Co3  1  0.53791863  0.25000000  0.22114860  1.0
  Co  Co4  1  0.82636385  0.75000000  0.06200963  1.0
  Co  Co5  1  0.32636385  0.75000000  0.43799037  1.0
  Co  Co6  1  0.17363615  0.25000000  0.93799037  1.0
  Co  Co7  1  0.67363615  0.25000000  0.56200963  1.0
  Ge  Ge8  1  0.79679812  0.75000000  0.39318518  1.0
  Ge  Ge9  1  0.29679812  0.75000000  0.10681482  1.0
  Ge  Ge10  1  0.20320188  0.25000000  0.60681482  1.0
  Ge  Ge11  1  0.70320188  0.25000000  0.89318518  1.0
