# generated using pymatgen
data_K2Si4O9
_symmetry_space_group_name_H-M   'P 1'
_cell_length_a   6.69888780
_cell_length_b   6.69888780
_cell_length_c   9.63353476
_cell_angle_alpha   90.00000000
_cell_angle_beta   90.00000000
_cell_angle_gamma   120.00000000
_symmetry_Int_Tables_number   1
_chemical_formula_structural   K2Si4O9
_chemical_formula_sum   'K4 Si8 O18'
_cell_volume   374.38781680
_cell_formula_units_Z   2
loop_
 _symmetry_equiv_pos_site_id
 _symmetry_equiv_pos_as_xyz
  1  'x, y, z'
loop_
 _atom_site_type_symbol
 _atom_site_label
 _atom_site_symmetry_multiplicity
 _atom_site_fract_x
 _atom_site_fract_y
 _atom_site_fract_z
 _atom_site_occupancy
  K  K0  1  0.33333333  0.66666667  0.44160843  1.0
  K  K1  1  0.33333333  0.66666667  0.05839157  1.0
  K  K2  1  0.66666667  0.33333333  0.94160843  1.0
  K  K3  1  0.66666667  0.33333333  0.55839157  1.0
  Si  Si4  1  0.76786068  0.63434478  0.25000000  1.0
  Si  Si5  1  0.63434478  0.86648410  0.75000000  1.0
  Si  Si6  1  0.86648410  0.23213932  0.25000000  1.0
  Si  Si7  1  0.36565522  0.13351590  0.25000000  1.0
  Si  Si8  1  0.23213932  0.36565522  0.75000000  1.0
  Si  Si9  1  0.13351590  0.76786068  0.75000000  1.0
  Si  Si10  1  0.00000000  0.00000000  0.50000000  1.0
  Si  Si11  1  0.00000000  0.00000000  0.00000000  1.0
  O  O12  1  0.79193179  0.76694889  0.39413935  1.0
  O  O13  1  0.79193179  0.76694889  0.10586065  1.0
  O  O14  1  0.76694889  0.97501711  0.89413935  1.0
  O  O15  1  0.76694889  0.97501711  0.60586065  1.0
  O  O16  1  0.97501711  0.20806821  0.39413935  1.0
  O  O17  1  0.97501711  0.20806821  0.10586065  1.0
  O  O18  1  0.23305111  0.02498289  0.39413935  1.0
  O  O19  1  0.23305111  0.02498289  0.10586065  1.0
  O  O20  1  0.20806821  0.23305111  0.89413935  1.0
  O  O21  1  0.20806821  0.23305111  0.60586065  1.0
  O  O22  1  0.02498289  0.79193179  0.89413935  1.0
  O  O23  1  0.02498289  0.79193179  0.60586065  1.0
  O  O24  1  0.49252800  0.41961779  0.25000000  1.0
  O  O25  1  0.41961779  0.92708979  0.75000000  1.0
  O  O26  1  0.92708979  0.50747200  0.25000000  1.0
  O  O27  1  0.58038221  0.07291021  0.25000000  1.0
  O  O28  1  0.50747200  0.58038221  0.75000000  1.0
  O  O29  1  0.07291021  0.49252800  0.75000000  1.0
