# generated using pymatgen
data_Cs3AlGe2O7
_symmetry_space_group_name_H-M   'P 1'
_cell_length_a   10.08523902
_cell_length_b   10.08523902
_cell_length_c   7.77874349
_cell_angle_alpha   72.98584884
_cell_angle_beta   107.01415116
_cell_angle_gamma   58.15093004
_symmetry_Int_Tables_number   1
_chemical_formula_structural   Cs3AlGe2O7
_chemical_formula_sum   'Cs6 Al2 Ge4 O14'
_cell_volume   536.58419576
_cell_formula_units_Z   2
loop_
 _symmetry_equiv_pos_site_id
 _symmetry_equiv_pos_as_xyz
  1  'x, y, z'
loop_
 _atom_site_type_symbol
 _atom_site_label
 _atom_site_symmetry_multiplicity
 _atom_site_fract_x
 _atom_site_fract_y
 _atom_site_fract_z
 _atom_site_occupancy
  Cs  Cs0  1  1.40670529  -0.01625116  0.73189182  1.0
  Cs  Cs1  1  1.01625116  0.59329471  0.23189182  1.0
  Cs  Cs2  1  0.98374884  0.40670529  0.76810818  1.0
  Cs  Cs3  1  1.59329471  0.01625116  0.26810818  1.0
  Cs  Cs4  1  0.98818533  0.98818533  0.75000000  1.0
  Cs  Cs5  1  1.01181467  0.01181467  0.25000000  1.0
  Al  Al6  1  0.55672713  0.55672713  0.75000000  1.0
  Al  Al7  1  1.44327287  0.44327287  0.25000000  1.0
  Ge  Ge8  1  1.56235732  0.23896905  0.73899544  1.0
  Ge  Ge9  1  0.76103095  0.43764268  0.23899544  1.0
  Ge  Ge10  1  1.23896905  0.56235732  0.76100456  1.0
  Ge  Ge11  1  1.43764268  -0.23896905  0.26100456  1.0
  O  O12  1  1.52240322  -0.28318571  0.52582364  1.0
  O  O13  1  1.28318571  0.47759678  0.02582364  1.0
  O  O14  1  0.71681429  0.52240322  0.97417636  1.0
  O  O15  1  1.47759678  0.28318571  0.47417636  1.0
  O  O16  1  1.72248764  0.00281245  0.93685824  1.0
  O  O17  1  0.99718755  0.27751236  0.43685824  1.0
  O  O18  1  1.00281245  0.72248764  0.56314176  1.0
  O  O19  1  1.27751236  -0.00281245  0.06314176  1.0
  O  O20  1  1.33981979  -0.33805742  0.72675364  1.0
  O  O21  1  1.33805742  0.66018021  0.22675364  1.0
  O  O22  1  0.66194258  0.33981979  0.77324636  1.0
  O  O23  1  1.66018021  0.33805742  0.27324636  1.0
  O  O24  1  1.35483593  0.35483593  0.75000000  1.0
  O  O25  1  0.64516407  0.64516407  0.25000000  1.0
