# generated using pymatgen
data_Fe2(PO3)3
_symmetry_space_group_name_H-M   'P 1'
_cell_length_a   8.71276848
_cell_length_b   8.71276848
_cell_length_c   7.55647325
_cell_angle_alpha   90.00000000
_cell_angle_beta   90.00000000
_cell_angle_gamma   120.00000000
_symmetry_Int_Tables_number   1
_chemical_formula_structural   Fe2(PO3)3
_chemical_formula_sum   'Fe4 P6 O18'
_cell_volume   496.77774181
_cell_formula_units_Z   2
loop_
 _symmetry_equiv_pos_site_id
 _symmetry_equiv_pos_as_xyz
  1  'x, y, z'
loop_
 _atom_site_type_symbol
 _atom_site_label
 _atom_site_symmetry_multiplicity
 _atom_site_fract_x
 _atom_site_fract_y
 _atom_site_fract_z
 _atom_site_occupancy
  Fe  Fe0  1  0.33333333  0.66666667  0.44920775  1.0
  Fe  Fe1  1  0.33333333  0.66666667  0.05079225  1.0
  Fe  Fe2  1  0.66666667  0.33333333  0.94920775  1.0
  Fe  Fe3  1  0.66666667  0.33333333  0.55079225  1.0
  P  P4  1  0.65921885  0.61494984  0.25000000  1.0
  P  P5  1  0.61494984  0.95573098  0.75000000  1.0
  P  P6  1  0.95573098  0.34078115  0.25000000  1.0
  P  P7  1  0.38505016  0.04426902  0.25000000  1.0
  P  P8  1  0.34078115  0.38505016  0.75000000  1.0
  P  P9  1  0.04426902  0.65921885  0.75000000  1.0
  O  O10  1  0.67993079  0.53621395  0.42396805  1.0
  O  O11  1  0.67993079  0.53621395  0.07603195  1.0
  O  O12  1  0.53621395  0.85628317  0.92396805  1.0
  O  O13  1  0.53621395  0.85628317  0.57603195  1.0
  O  O14  1  0.85628317  0.32006921  0.42396805  1.0
  O  O15  1  0.85628317  0.32006921  0.07603195  1.0
  O  O16  1  0.46378605  0.14371683  0.42396805  1.0
  O  O17  1  0.46378605  0.14371683  0.07603195  1.0
  O  O18  1  0.32006921  0.46378605  0.92396805  1.0
  O  O19  1  0.32006921  0.46378605  0.57603195  1.0
  O  O20  1  0.14371683  0.67993079  0.92396805  1.0
  O  O21  1  0.14371683  0.67993079  0.57603195  1.0
  O  O22  1  0.34781782  0.84973750  0.25000000  1.0
  O  O23  1  0.84973750  0.50191968  0.75000000  1.0
  O  O24  1  0.50191968  0.65218218  0.25000000  1.0
  O  O25  1  0.15026250  0.49808032  0.25000000  1.0
  O  O26  1  0.65218218  0.15026250  0.75000000  1.0
  O  O27  1  0.49808032  0.34781782  0.75000000  1.0
