# generated using pymatgen
data_Ba2MnGe2O7
_symmetry_space_group_name_H-M   'P 1'
_cell_length_a   8.57690977
_cell_length_b   8.57690977
_cell_length_c   5.59315506
_cell_angle_alpha   90.00000000
_cell_angle_beta   90.00000000
_cell_angle_gamma   90.00000000
_symmetry_Int_Tables_number   1
_chemical_formula_structural   Ba2MnGe2O7
_chemical_formula_sum   'Ba4 Mn2 Ge4 O14'
_cell_volume   411.45139781
_cell_formula_units_Z   2
loop_
 _symmetry_equiv_pos_site_id
 _symmetry_equiv_pos_as_xyz
  1  'x, y, z'
loop_
 _atom_site_type_symbol
 _atom_site_label
 _atom_site_symmetry_multiplicity
 _atom_site_fract_x
 _atom_site_fract_y
 _atom_site_fract_z
 _atom_site_occupancy
  Ba  Ba0  1  0.83379941  0.33379941  0.49177584  1.0
  Ba  Ba1  1  0.66620059  0.83379941  0.50822416  1.0
  Ba  Ba2  1  0.16620059  0.66620059  0.49177584  1.0
  Ba  Ba3  1  0.33379941  0.16620059  0.50822416  1.0
  Mn  Mn4  1  0.50000000  0.50000000  0.00000000  1.0
  Mn  Mn5  1  0.00000000  0.00000000  0.00000000  1.0
  Ge  Ge6  1  0.36072626  0.86072626  0.04255815  1.0
  Ge  Ge7  1  0.13927374  0.36072626  0.95744185  1.0
  Ge  Ge8  1  0.63927374  0.13927374  0.04255815  1.0
  Ge  Ge9  1  0.86072626  0.63927374  0.95744185  1.0
  O  O10  1  0.00000000  0.50000000  0.83360421  1.0
  O  O11  1  0.50000000  0.00000000  0.16639579  1.0
  O  O12  1  0.31297455  0.42087716  0.80857069  1.0
  O  O13  1  0.18702545  0.92087716  0.19142931  1.0
  O  O14  1  0.57912284  0.31297455  0.19142931  1.0
  O  O15  1  0.92087716  0.81297455  0.80857069  1.0
  O  O16  1  0.68702545  0.57912284  0.80857069  1.0
  O  O17  1  0.81297455  0.07912284  0.19142931  1.0
  O  O18  1  0.42087716  0.68702545  0.19142931  1.0
  O  O19  1  0.07912284  0.18702545  0.80857069  1.0
  O  O20  1  0.36259008  0.86259008  0.73070069  1.0
  O  O21  1  0.13740992  0.36259008  0.26929931  1.0
  O  O22  1  0.63740992  0.13740992  0.73070069  1.0
  O  O23  1  0.86259008  0.63740992  0.26929931  1.0
