# generated using pymatgen
data_Zr2Ni12P7
_symmetry_space_group_name_H-M   'P 1'
_cell_length_a   9.01350063
_cell_length_b   9.01350063
_cell_length_c   3.59563734
_cell_angle_alpha   90.00000000
_cell_angle_beta   90.00000000
_cell_angle_gamma   120.00000000
_symmetry_Int_Tables_number   1
_chemical_formula_structural   Zr2Ni12P7
_chemical_formula_sum   'Zr2 Ni12 P7'
_cell_volume   252.98425919
_cell_formula_units_Z   1
loop_
 _symmetry_equiv_pos_site_id
 _symmetry_equiv_pos_as_xyz
  1  'x, y, z'
loop_
 _atom_site_type_symbol
 _atom_site_label
 _atom_site_symmetry_multiplicity
 _atom_site_fract_x
 _atom_site_fract_y
 _atom_site_fract_z
 _atom_site_occupancy
  Zr  Zr0  1  0.00000000  0.00000000  0.50000000  1.0
  Zr  Zr1  1  0.66666667  0.33333333  0.00000000  1.0
  Ni  Ni2  1  0.72101541  0.61961025  0.50000000  1.0
  Ni  Ni3  1  0.89859484  0.27898459  0.50000000  1.0
  Ni  Ni4  1  0.38038975  0.10140516  0.50000000  1.0
  Ni  Ni5  1  0.24215109  0.44701464  0.50000000  1.0
  Ni  Ni6  1  0.20486355  0.75784891  0.50000000  1.0
  Ni  Ni7  1  0.55298536  0.79513645  0.50000000  1.0
  Ni  Ni8  1  0.49079745  0.54742617  0.00000000  1.0
  Ni  Ni9  1  0.05662872  0.50920255  0.00000000  1.0
  Ni  Ni10  1  0.45257383  0.94337128  0.00000000  1.0
  Ni  Ni11  1  0.27192903  0.23294823  -0.00000000  1.0
  Ni  Ni12  1  0.96101920  0.72807097  0.00000000  1.0
  Ni  Ni13  1  0.76705177  0.03898080  -0.00000000  1.0
  P  P14  1  0.45336446  0.37553619  0.50000000  1.0
  P  P15  1  0.92217173  0.54663554  0.50000000  1.0
  P  P16  1  0.62446381  0.07782827  0.50000000  1.0
  P  P17  1  0.03965328  0.25375068  -0.00000000  1.0
  P  P18  1  0.21409740  0.96034672  0.00000000  1.0
  P  P19  1  0.74624932  0.78590260  -0.00000000  1.0
  P  P20  1  0.33333333  0.66666667  0.00000000  1.0
