# generated using pymatgen
data_BeF2
_symmetry_space_group_name_H-M   'P 1'
_cell_length_a   9.03354281
_cell_length_b   9.03354281
_cell_length_c   9.03354281
_cell_angle_alpha   94.30141222
_cell_angle_beta   94.30141222
_cell_angle_gamma   94.30141222
_symmetry_Int_Tables_number   1
_chemical_formula_structural   BeF2
_chemical_formula_sum   'Be12 F24'
_cell_volume   730.62056966
_cell_formula_units_Z   12
loop_
 _symmetry_equiv_pos_site_id
 _symmetry_equiv_pos_as_xyz
  1  'x, y, z'
loop_
 _atom_site_type_symbol
 _atom_site_label
 _atom_site_symmetry_multiplicity
 _atom_site_fract_x
 _atom_site_fract_y
 _atom_site_fract_z
 _atom_site_occupancy
  Be  Be0  1  1.12391515  0.66754034  -0.10453595  1.0
  Be  Be1  1  0.66754034  0.89546405  0.12391515  1.0
  Be  Be2  1  0.89546405  1.12391515  -0.33245966  1.0
  Be  Be3  1  1.12391515  0.89546405  -0.33245966  1.0
  Be  Be4  1  0.89546405  0.66754034  0.12391515  1.0
  Be  Be5  1  0.66754034  1.12391515  -0.10453595  1.0
  Be  Be6  1  0.87608485  0.33245966  0.10453595  1.0
  Be  Be7  1  1.33245966  0.10453595  -0.12391515  1.0
  Be  Be8  1  1.10453595  -0.12391515  0.33245966  1.0
  Be  Be9  1  0.87608485  0.10453595  0.33245966  1.0
  Be  Be10  1  1.10453595  0.33245966  -0.12391515  1.0
  Be  Be11  1  1.33245966  -0.12391515  0.10453595  1.0
  F  F12  1  1.11040876  0.75004370  -0.24995630  1.0
  F  F13  1  0.75004370  0.75004370  0.11040876  1.0
  F  F14  1  0.75004370  1.11040876  -0.24995630  1.0
  F  F15  1  0.88959124  0.24995630  0.24995630  1.0
  F  F16  1  1.24995630  0.24995630  -0.11040876  1.0
  F  F17  1  1.24995630  -0.11040876  0.24995630  1.0
  F  F18  1  1.14468233  0.50000000  -0.14468233  1.0
  F  F19  1  0.50000000  0.85531767  0.14468233  1.0
  F  F20  1  0.85531767  0.14468233  0.50000000  1.0
  F  F21  1  1.14468233  -0.14468233  0.50000000  1.0
  F  F22  1  0.85531767  0.50000000  0.14468233  1.0
  F  F23  1  0.50000000  1.14468233  -0.14468233  1.0
  F  F24  1  0.97853737  1.68284284  -0.02146263  1.0
  F  F25  1  1.68284284  0.97853737  -0.02146263  1.0
  F  F26  1  0.97853737  0.97853737  0.68284284  1.0
  F  F27  1  1.02146263  -0.68284284  0.02146263  1.0
  F  F28  1  0.31715716  0.02146263  0.02146263  1.0
  F  F29  1  1.02146263  0.02146263  -0.68284284  1.0
  F  F30  1  1.26122126  -0.26122126  -0.00000000  1.0
  F  F31  1  0.73877874  -0.00000000  0.26122126  1.0
  F  F32  1  1.00000000  0.26122126  -0.26122126  1.0
  F  F33  1  1.26122126  0.00000000  -0.26122126  1.0
  F  F34  1  1.00000000  -0.26122126  0.26122126  1.0
  F  F35  1  0.73877874  0.26122126  -0.00000000  1.0
