# generated using pymatgen
data_Bi6As4PbO20
_symmetry_space_group_name_H-M   'P 1'
_cell_length_a   7.24766762
_cell_length_b   9.51240955
_cell_length_c   8.03564204
_cell_angle_alpha   106.44363241
_cell_angle_beta   111.63721889
_cell_angle_gamma   94.08149070
_symmetry_Int_Tables_number   1
_chemical_formula_structural   Bi6As4PbO20
_chemical_formula_sum   'Bi6 As4 Pb1 O20'
_cell_volume   484.23033038
_cell_formula_units_Z   1
loop_
 _symmetry_equiv_pos_site_id
 _symmetry_equiv_pos_as_xyz
  1  'x, y, z'
loop_
 _atom_site_type_symbol
 _atom_site_label
 _atom_site_symmetry_multiplicity
 _atom_site_fract_x
 _atom_site_fract_y
 _atom_site_fract_z
 _atom_site_occupancy
  Bi  Bi0  1  -0.66206554  -0.48453371  -0.87677653  1.0
  Bi  Bi1  1  -0.33793446  -0.51546629  -0.12322347  1.0
  Bi  Bi2  1  -0.55766701  -0.91310180  -0.19742565  1.0
  Bi  Bi3  1  -0.44233299  -0.08689820  -0.80257435  1.0
  Bi  Bi4  1  -0.20122698  -0.67560210  -0.71148888  1.0
  Bi  Bi5  1  -0.79877302  -0.32439790  -0.28851112  1.0
  As  As6  1  -0.65017584  -0.74268796  -0.60307873  1.0
  As  As7  1  -0.34982416  -0.25731204  -0.39692127  1.0
  As  As8  1  -0.95445777  -0.24414661  -0.72851242  1.0
  As  As9  1  -0.04554223  -0.75585339  -0.27148758  1.0
  Pb  Pb10  1  0.00000000  0.00000000  0.00000000  1.0
  O  O11  1  -0.92932396  -0.56817282  -0.19309405  1.0
  O  O12  1  -0.07067604  -0.43182718  -0.80690595  1.0
  O  O13  1  -0.87344966  -0.86009607  -0.17665875  1.0
  O  O14  1  -0.12655034  -0.13990393  -0.82334125  1.0
  O  O15  1  -0.88326955  -0.71899082  -0.74949398  1.0
  O  O16  1  -0.11673045  -0.28100918  -0.25050602  1.0
  O  O17  1  -0.84389886  -0.17197837  -0.48215588  1.0
  O  O18  1  -0.15610114  -0.82802163  -0.51784412  1.0
  O  O19  1  -0.77636190  -0.24780428  -0.82907599  1.0
  O  O20  1  -0.22363810  -0.75219572  -0.17092401  1.0
  O  O21  1  -0.64988353  -0.93182573  -0.69266307  1.0
  O  O22  1  -0.35011647  -0.06817427  -0.30733693  1.0
  O  O23  1  -0.62333071  -0.69402539  -0.36873164  1.0
  O  O24  1  -0.37666929  -0.30597461  -0.63126836  1.0
  O  O25  1  -0.46189217  -0.62987017  -0.61995998  1.0
  O  O26  1  -0.53810783  -0.37012983  -0.38004002  1.0
  O  O27  1  -0.45238126  -0.63740639  -0.97621420  1.0
  O  O28  1  -0.54761874  -0.36259361  -0.02378580  1.0
  O  O29  1  -0.33335871  -0.89768541  -0.90678554  1.0
  O  O30  1  -0.66664129  -0.10231459  -0.09321446  1.0
