# generated using pymatgen
data_Ba(BrO3)2
_symmetry_space_group_name_H-M   'P 1'
_cell_length_a   7.51879056
_cell_length_b   7.51879056
_cell_length_c   8.48898652
_cell_angle_alpha   59.25687935
_cell_angle_beta   120.74312065
_cell_angle_gamma   110.93393148
_symmetry_Int_Tables_number   1
_chemical_formula_structural   Ba(BrO3)2
_chemical_formula_sum   'Ba2 Br4 O12'
_cell_volume   351.49082961
_cell_formula_units_Z   2
loop_
 _symmetry_equiv_pos_site_id
 _symmetry_equiv_pos_as_xyz
  1  'x, y, z'
loop_
 _atom_site_type_symbol
 _atom_site_label
 _atom_site_symmetry_multiplicity
 _atom_site_fract_x
 _atom_site_fract_y
 _atom_site_fract_z
 _atom_site_occupancy
  Ba  Ba0  1  1.34176427  0.34176427  0.75000000  1.0
  Ba  Ba1  1  0.65823573  0.65823573  0.25000000  1.0
  Br  Br2  1  1.79543095  0.17946057  0.80867816  1.0
  Br  Br3  1  0.82053943  0.20456905  0.30867816  1.0
  Br  Br4  1  1.17946057  0.79543095  0.69132184  1.0
  Br  Br5  1  1.20456905  -0.17946057  0.19132184  1.0
  O  O6  1  1.74306845  -0.05305782  0.41349734  1.0
  O  O7  1  1.05305782  0.25693155  0.91349734  1.0
  O  O8  1  0.94694218  0.74306845  0.08650266  1.0
  O  O9  1  1.25693155  0.05305782  0.58650266  1.0
  O  O10  1  0.40224679  -0.31868024  0.85460511  1.0
  O  O11  1  1.31868024  0.59775321  0.35460511  1.0
  O  O12  1  0.68131976  0.40224679  0.64539489  1.0
  O  O13  1  0.59775321  0.31868024  0.14539489  1.0
  O  O14  1  1.70868065  0.08795532  0.99064179  1.0
  O  O15  1  0.91204468  0.29131935  0.49064179  1.0
  O  O16  1  1.08795532  0.70868065  0.50935821  1.0
  O  O17  1  1.29131935  -0.08795532  0.00935821  1.0
