# generated using pymatgen
data_CsGeI3
_symmetry_space_group_name_H-M   'P 1'
_cell_length_a   6.10536365
_cell_length_b   6.10536365
_cell_length_c   6.10536365
_cell_angle_alpha   88.21577739
_cell_angle_beta   88.21577739
_cell_angle_gamma   88.21577739
_symmetry_Int_Tables_number   1
_chemical_formula_structural   CsGeI3
_chemical_formula_sum   'Cs1 Ge1 I3'
_cell_volume   227.25597767
_cell_formula_units_Z   1
loop_
 _symmetry_equiv_pos_site_id
 _symmetry_equiv_pos_as_xyz
  1  'x, y, z'
loop_
 _atom_site_type_symbol
 _atom_site_label
 _atom_site_symmetry_multiplicity
 _atom_site_fract_x
 _atom_site_fract_y
 _atom_site_fract_z
 _atom_site_occupancy
  Cs  Cs0  1  -0.00071283  -0.00071283  -0.00071283  1.0
  Ge  Ge1  1  0.46699592  0.46699592  -0.53300408  1.0
  I  I2  1  0.01135284  0.50518203  -0.49481797  1.0
  I  I3  1  0.50518203  0.01135284  -0.49481797  1.0
  I  I4  1  0.50518203  0.50518203  -0.98864716  1.0
