# generated using pymatgen
data_CsSrN9
_symmetry_space_group_name_H-M   'P 1'
_cell_length_a   6.97290064
_cell_length_b   6.97290064
_cell_length_c   9.08816212
_cell_angle_alpha   70.79188746
_cell_angle_beta   109.20811254
_cell_angle_gamma   84.46052170
_symmetry_Int_Tables_number   1
_chemical_formula_structural   CsSrN9
_chemical_formula_sum   'Cs2 Sr2 N18'
_cell_volume   383.51955960
_cell_formula_units_Z   2
loop_
 _symmetry_equiv_pos_site_id
 _symmetry_equiv_pos_as_xyz
  1  'x, y, z'
loop_
 _atom_site_type_symbol
 _atom_site_label
 _atom_site_symmetry_multiplicity
 _atom_site_fract_x
 _atom_site_fract_y
 _atom_site_fract_z
 _atom_site_occupancy
  Cs  Cs0  1  1.28611372  0.28611372  0.75000000  1.0
  Cs  Cs1  1  0.71388628  -0.28611372  0.25000000  1.0
  Sr  Sr2  1  0.73864839  -0.26135161  0.75000000  1.0
  Sr  Sr3  1  1.26135161  0.26135161  0.25000000  1.0
  N  N4  1  0.84316773  -0.05264696  0.95097461  1.0
  N  N5  1  1.05264696  0.15683227  0.45097461  1.0
  N  N6  1  0.94735304  -0.15683227  0.54902539  1.0
  N  N7  1  1.15683227  0.05264696  0.04902539  1.0
  N  N8  1  0.41358239  -0.24673589  0.85078069  1.0
  N  N9  1  1.24673589  0.58641761  0.35078069  1.0
  N  N10  1  0.75326411  -0.58641761  0.64921931  1.0
  N  N11  1  1.58641761  0.24673589  0.14921931  1.0
  N  N12  1  1.59608659  0.16610648  0.55742929  1.0
  N  N13  1  0.83389352  -0.59608659  0.05742929  1.0
  N  N14  1  1.16610648  0.59608659  0.94257071  1.0
  N  N15  1  0.40391341  -0.16610648  0.44257071  1.0
  N  N16  1  1.67537686  0.29026229  0.60306985  1.0
  N  N17  1  0.70973771  -0.67537686  0.10306985  1.0
  N  N18  1  1.29026229  0.67537686  0.89693015  1.0
  N  N19  1  0.32462314  -0.29026229  0.39693015  1.0
  N  N20  1  0.00000000  -0.00000000  0.00000000  1.0
  N  N21  1  0.00000000  -0.00000000  0.50000000  1.0
