# generated using pymatgen
data_Nb3B3C
_symmetry_space_group_name_H-M   'P 1'
_cell_length_a   14.48513738
_cell_length_b   14.48513738
_cell_length_c   3.13222107
_cell_angle_alpha   90.00000000
_cell_angle_beta   90.00000000
_cell_angle_gamma   167.04984015
_symmetry_Int_Tables_number   1
_chemical_formula_structural   Nb3B3C
_chemical_formula_sum   'Nb6 B6 C2'
_cell_volume   147.28077780
_cell_formula_units_Z   2
loop_
 _symmetry_equiv_pos_site_id
 _symmetry_equiv_pos_as_xyz
  1  'x, y, z'
loop_
 _atom_site_type_symbol
 _atom_site_label
 _atom_site_symmetry_multiplicity
 _atom_site_fract_x
 _atom_site_fract_y
 _atom_site_fract_z
 _atom_site_occupancy
  Nb  Nb0  1  0.13801527  0.86198473  0.75000000  1.0
  Nb  Nb1  1  -0.13801527  0.13801527  0.25000000  1.0
  Nb  Nb2  1  0.28718911  0.71281089  0.75000000  1.0
  Nb  Nb3  1  -0.28718911  0.28718911  0.25000000  1.0
  Nb  Nb4  1  -0.04682414  0.04682414  0.75000000  1.0
  Nb  Nb5  1  0.04682414  0.95317586  0.25000000  1.0
  B  B6  1  0.38801230  0.61198770  0.75000000  1.0
  B  B7  1  -0.38801230  0.38801230  0.25000000  1.0
  B  B8  1  -0.48454933  0.48454933  0.75000000  1.0
  B  B9  1  0.48454933  0.51545067  0.25000000  1.0
  B  B10  1  -0.42099822  0.42099822  0.75000000  1.0
  B  B11  1  0.42099822  0.57900178  0.25000000  1.0
  C  C12  1  0.21218859  0.78781141  0.75000000  1.0
  C  C13  1  -0.21218859  0.21218859  0.25000000  1.0
