# generated using pymatgen
data_GdI3O11
_symmetry_space_group_name_H-M   'P 1'
_cell_length_a   11.22271928
_cell_length_b   7.15879927
_cell_length_c   7.31859912
_cell_angle_alpha   108.03487080
_cell_angle_beta   105.95393292
_cell_angle_gamma   92.65011031
_symmetry_Int_Tables_number   1
_chemical_formula_structural   GdI3O11
_chemical_formula_sum   'Gd2 I6 O22'
_cell_volume   531.98607074
_cell_formula_units_Z   2
loop_
 _symmetry_equiv_pos_site_id
 _symmetry_equiv_pos_as_xyz
  1  'x, y, z'
loop_
 _atom_site_type_symbol
 _atom_site_label
 _atom_site_symmetry_multiplicity
 _atom_site_fract_x
 _atom_site_fract_y
 _atom_site_fract_z
 _atom_site_occupancy
  I  I0  1  -0.98744181  -0.81251961  -0.77042991  1.0
  I  I1  1  -0.01255819  -0.18748039  -0.22957009  1.0
  I  I2  1  -0.45059304  -0.65761446  -0.69621091  1.0
  I  I3  1  -0.54940696  -0.34238554  -0.30378909  1.0
  I  I4  1  -0.67047131  -0.85864516  -0.28724073  1.0
  I  I5  1  -0.32952869  -0.14135484  -0.71275927  1.0
  O  O6  1  -0.88051716  -0.89167196  -0.93628811  1.0
  O  O7  1  -0.11948284  -0.10832804  -0.06371189  1.0
  O  O8  1  -0.38022949  -0.64580207  -0.89977312  1.0
  O  O9  1  -0.61977051  -0.35419793  -0.10022688  1.0
  O  O10  1  -0.61858848  -0.75238187  -0.86103235  1.0
  O  O11  1  -0.38141152  -0.24761813  -0.13896765  1.0
  O  O12  1  -0.24241609  -0.94523359  -0.77088061  1.0
  O  O13  1  -0.75758391  -0.05476641  -0.22911939  1.0
  O  O14  1  -0.71782374  -0.98886285  -0.57355965  1.0
  O  O15  1  -0.28217626  -0.01113715  -0.42644035  1.0
  O  O16  1  -0.53113131  -0.62483934  -0.39005066  1.0
  O  O17  1  -0.46886869  -0.37516066  -0.60994934  1.0
  O  O18  1  -0.52015876  -0.98881050  -0.24727207  1.0
  O  O19  1  -0.47984124  -0.01118950  -0.75272793  1.0
  O  O20  1  -0.85877743  -0.80754780  -0.42499827  1.0
  O  O21  1  -0.14122257  -0.19245220  -0.57500173  1.0
  O  O22  1  -0.67781377  -0.33501757  -0.71917461  1.0
  O  O23  1  -0.32218623  -0.66498243  -0.28082539  1.0
  O  O24  1  -0.87737767  -0.58219975  -0.57412647  1.0
  O  O25  1  -0.12262233  -0.41780025  -0.42587353  1.0
  O  O26  1  -0.10279384  -0.69135937  -0.91887544  1.0
  O  O27  1  -0.89720616  -0.30864063  -0.08112456  1.0
  Gd  Gd28  1  -0.70214217  -0.09181376  -0.90469686  1.0
  Gd  Gd29  1  -0.29785783  -0.90818624  -0.09530314  1.0
