# generated using pymatgen
data_NaPO3
_symmetry_space_group_name_H-M   'P 1'
_cell_length_a   9.93585152
_cell_length_b   9.93585152
_cell_length_c   9.93585152
_cell_angle_alpha   95.28424399
_cell_angle_beta   95.28424399
_cell_angle_gamma   144.66718194
_symmetry_Int_Tables_number   1
_chemical_formula_structural   NaPO3
_chemical_formula_sum   'Na8 P8 O24'
_cell_volume   540.51409839
_cell_formula_units_Z   8
loop_
 _symmetry_equiv_pos_site_id
 _symmetry_equiv_pos_as_xyz
  1  'x, y, z'
loop_
 _atom_site_type_symbol
 _atom_site_label
 _atom_site_symmetry_multiplicity
 _atom_site_fract_x
 _atom_site_fract_y
 _atom_site_fract_z
 _atom_site_occupancy
  Na  Na0  1  1.36159461  0.84852728  1.30559476  1.0
  Na  Na1  1  0.54293252  1.05599985  0.69440524  1.0
  Na  Na2  1  1.59852728  0.79293252  0.98693266  1.0
  Na  Na3  1  0.80599985  1.61159461  1.01306734  1.0
  Na  Na4  1  0.38840539  0.40147272  0.19440524  1.0
  Na  Na5  1  1.20706748  1.19400015  1.80559476  1.0
  Na  Na6  1  1.15147272  1.45706748  0.51306734  1.0
  Na  Na7  1  1.94400015  1.63840539  1.48693266  1.0
  P  P8  1  0.81888786  1.27928515  1.18843252  1.0
  P  P9  1  0.09085263  0.63045534  0.81156748  1.0
  P  P10  1  1.02928515  1.34085263  0.96039729  1.0
  P  P11  1  0.38045534  1.06888786  1.03960271  1.0
  P  P12  1  0.93111214  0.97071485  1.31156748  1.0
  P  P13  1  1.65914737  1.61954466  1.68843252  1.0
  P  P14  1  1.72071485  1.90914737  1.53960271  1.0
  P  P15  1  1.36954466  1.18111214  1.46039729  1.0
  O  O16  1  0.67145653  1.28195711  1.10384961  1.0
  O  O17  1  0.17810750  0.56760692  0.89615039  1.0
  O  O18  1  1.03195711  1.42810750  1.11050058  1.0
  O  O19  1  0.31760692  0.92145653  0.88949942  1.0
  O  O20  1  1.07854347  0.96804289  1.39615039  1.0
  O  O21  1  1.57189250  1.68239308  1.60384961  1.0
  O  O22  1  1.71804289  1.82189250  1.38949942  1.0
  O  O23  1  1.43239308  1.32854347  1.61050058  1.0
  O  O24  1  0.95813800  0.45304507  1.33481788  1.0
  O  O25  1  0.11822719  0.62332012  0.66518212  1.0
  O  O26  1  1.20304507  0.36822719  0.99490707  1.0
  O  O27  1  0.37332012  1.20813800  1.00509293  1.0
  O  O28  1  0.79186200  0.79695493  0.16518212  1.0
  O  O29  1  1.63177281  1.62667988  1.83481788  1.0
  O  O30  1  0.54695493  0.88177281  0.50509293  1.0
  O  O31  1  1.37667988  1.04186200  1.49490707  1.0
  O  O32  1  0.23051065  0.89909416  1.12820447  1.0
  O  O33  1  0.77088969  1.10230618  0.87179553  1.0
  O  O34  1  0.64909416  1.02088969  1.16858351  1.0
  O  O35  1  -0.14769382  0.48051065  0.83141649  1.0
  O  O36  1  1.51948935  1.35090584  1.37179553  1.0
  O  O37  1  1.97911031  2.14769382  1.62820447  1.0
  O  O38  1  1.10090584  1.22911031  1.33141649  1.0
  O  O39  1  1.89769382  1.76948935  1.66858351  1.0
