# generated using pymatgen
data_Ta2Se3
_symmetry_space_group_name_H-M   'P 1'
_cell_length_a   6.62606585
_cell_length_b   3.40460982
_cell_length_c   9.27726763
_cell_angle_alpha   90.00000000
_cell_angle_beta   104.23842064
_cell_angle_gamma   90.00000000
_symmetry_Int_Tables_number   1
_chemical_formula_structural   Ta2Se3
_chemical_formula_sum   'Ta4 Se6'
_cell_volume   202.85827015
_cell_formula_units_Z   2
loop_
 _symmetry_equiv_pos_site_id
 _symmetry_equiv_pos_as_xyz
  1  'x, y, z'
loop_
 _atom_site_type_symbol
 _atom_site_label
 _atom_site_symmetry_multiplicity
 _atom_site_fract_x
 _atom_site_fract_y
 _atom_site_fract_z
 _atom_site_occupancy
  Ta  Ta0  1  0.38708508  0.25000000  0.86536059  1.0
  Ta  Ta1  1  0.61291492  0.75000000  0.13463941  1.0
  Ta  Ta2  1  0.17985604  0.25000000  0.49950583  1.0
  Ta  Ta3  1  0.82014396  0.75000000  0.50049417  1.0
  Se  Se4  1  0.97785849  0.25000000  0.70611266  1.0
  Se  Se5  1  0.02214151  0.75000000  0.29388734  1.0
  Se  Se6  1  0.77304924  0.25000000  0.98616501  1.0
  Se  Se7  1  0.22695076  0.75000000  0.01383499  1.0
  Se  Se8  1  0.52680402  0.25000000  0.34262832  1.0
  Se  Se9  1  0.47319598  0.75000000  0.65737168  1.0
