# generated using pymatgen
data_Mg2C3
_symmetry_space_group_name_H-M   'P 1'
_cell_length_a   12.82517016
_cell_length_b   3.77540125
_cell_length_c   5.31988328
_cell_angle_alpha   90.00000000
_cell_angle_beta   90.00000000
_cell_angle_gamma   90.00000000
_symmetry_Int_Tables_number   1
_chemical_formula_structural   Mg2C3
_chemical_formula_sum   'Mg8 C12'
_cell_volume   257.58961758
_cell_formula_units_Z   4
loop_
 _symmetry_equiv_pos_site_id
 _symmetry_equiv_pos_as_xyz
  1  'x, y, z'
loop_
 _atom_site_type_symbol
 _atom_site_label
 _atom_site_symmetry_multiplicity
 _atom_site_fract_x
 _atom_site_fract_y
 _atom_site_fract_z
 _atom_site_occupancy
  Mg  Mg0  1  0.73079430  0.75000000  0.97825196  1.0
  Mg  Mg1  1  0.23079430  0.75000000  0.52174804  1.0
  Mg  Mg2  1  0.26920570  0.25000000  0.02174804  1.0
  Mg  Mg3  1  0.76920570  0.25000000  0.47825196  1.0
  Mg  Mg4  1  0.97773465  0.25000000  0.69997354  1.0
  Mg  Mg5  1  0.47773465  0.25000000  0.80002646  1.0
  Mg  Mg6  1  0.02226535  0.75000000  0.30002646  1.0
  Mg  Mg7  1  0.52226535  0.75000000  0.19997354  1.0
  C  C8  1  0.43242796  0.25000000  0.20868270  1.0
  C  C9  1  0.93242796  0.25000000  0.29131730  1.0
  C  C10  1  0.56757204  0.75000000  0.79131730  1.0
  C  C11  1  0.06757204  0.75000000  0.70868270  1.0
  C  C12  1  0.31542774  0.25000000  0.62187335  1.0
  C  C13  1  0.81542774  0.25000000  0.87812665  1.0
  C  C14  1  0.68457226  0.75000000  0.37812665  1.0
  C  C15  1  0.18457226  0.75000000  0.12187335  1.0
  C  C16  1  0.62495378  0.75000000  0.58292263  1.0
  C  C17  1  0.12495378  0.75000000  0.91707737  1.0
  C  C18  1  0.37504622  0.25000000  0.41707737  1.0
  C  C19  1  0.87504622  0.25000000  0.08292263  1.0
