# generated using pymatgen
data_Ba3(GaS3)2
_symmetry_space_group_name_H-M   'P 1'
_cell_length_a   8.60099477
_cell_length_b   8.60099477
_cell_length_c   9.19645815
_cell_angle_alpha   89.16054433
_cell_angle_beta   90.83945567
_cell_angle_gamma   64.37613504
_symmetry_Int_Tables_number   1
_chemical_formula_structural   Ba3(GaS3)2
_chemical_formula_sum   'Ba6 Ga4 S12'
_cell_volume   613.18684827
_cell_formula_units_Z   2
loop_
 _symmetry_equiv_pos_site_id
 _symmetry_equiv_pos_as_xyz
  1  'x, y, z'
loop_
 _atom_site_type_symbol
 _atom_site_label
 _atom_site_symmetry_multiplicity
 _atom_site_fract_x
 _atom_site_fract_y
 _atom_site_fract_z
 _atom_site_occupancy
  Ba  Ba0  1  0.76609026  -0.04072292  0.49120131  1.0
  Ba  Ba1  1  1.04072292  0.23390974  0.99120131  1.0
  Ba  Ba2  1  0.95927708  -0.23390974  0.00879869  1.0
  Ba  Ba3  1  1.23390974  0.04072292  0.50879869  1.0
  Ba  Ba4  1  0.53501722  -0.46498278  0.25000000  1.0
  Ba  Ba5  1  1.46498278  0.46498278  0.75000000  1.0
  Ga  Ga6  1  1.51958577  0.15439935  0.06840367  1.0
  Ga  Ga7  1  0.84560065  -0.51958577  0.56840367  1.0
  Ga  Ga8  1  1.15439935  0.51958577  0.43159633  1.0
  Ga  Ga9  1  0.48041423  -0.15439935  0.93159633  1.0
  S  S10  1  1.77051944  0.13093920  0.16881753  1.0
  S  S11  1  0.86906080  -0.77051944  0.66881753  1.0
  S  S12  1  1.13093920  0.77051944  0.33118247  1.0
  S  S13  1  0.22948056  -0.13093920  0.83118247  1.0
  S  S14  1  0.41157235  -0.02909812  0.16516652  1.0
  S  S15  1  1.02909812  0.58842765  0.66516652  1.0
  S  S16  1  0.97090188  -0.58842765  0.33483348  1.0
  S  S17  1  1.58842765  0.02909812  0.83483348  1.0
  S  S18  1  1.42028392  0.29714024  0.46003746  1.0
  S  S19  1  0.70285976  -0.42028392  0.96003746  1.0
  S  S20  1  1.29714024  0.42028392  0.03996254  1.0
  S  S21  1  0.57971608  -0.29714024  0.53996254  1.0
