# generated using pymatgen
data_LiBH4
_symmetry_space_group_name_H-M   'P 1'
_cell_length_a   7.45543548
_cell_length_b   4.38386239
_cell_length_c   6.51532292
_cell_angle_alpha   90.00000000
_cell_angle_beta   90.00000000
_cell_angle_gamma   90.00000000
_symmetry_Int_Tables_number   1
_chemical_formula_structural   LiBH4
_chemical_formula_sum   'Li4 B4 H16'
_cell_volume   212.94422876
_cell_formula_units_Z   4
loop_
 _symmetry_equiv_pos_site_id
 _symmetry_equiv_pos_as_xyz
  1  'x, y, z'
loop_
 _atom_site_type_symbol
 _atom_site_label
 _atom_site_symmetry_multiplicity
 _atom_site_fract_x
 _atom_site_fract_y
 _atom_site_fract_z
 _atom_site_occupancy
  Li  Li0  1  0.15458698  0.75000000  0.88875439  1.0
  Li  Li1  1  0.65458698  0.75000000  0.61124561  1.0
  Li  Li2  1  0.84541302  0.25000000  0.11124561  1.0
  Li  Li3  1  0.34541302  0.25000000  0.38875439  1.0
  B  B4  1  0.31910129  0.75000000  0.58462888  1.0
  B  B5  1  0.81910129  0.75000000  0.91537112  1.0
  B  B6  1  0.68089871  0.25000000  0.41537112  1.0
  B  B7  1  0.18089871  0.25000000  0.08462888  1.0
  H  H8  1  0.22161263  0.97469805  0.58778064  1.0
  H  H9  1  0.22161263  0.52530195  0.58778064  1.0
  H  H10  1  0.72161263  0.97469805  0.91221936  1.0
  H  H11  1  0.72161263  0.52530195  0.91221936  1.0
  H  H12  1  0.77838737  0.47469805  0.41221936  1.0
  H  H13  1  0.77838737  0.02530195  0.41221936  1.0
  H  H14  1  0.27838737  0.47469805  0.08778064  1.0
  H  H15  1  0.27838737  0.02530195  0.08778064  1.0
  H  H16  1  0.41213055  0.75000000  0.74007678  1.0
  H  H17  1  0.91213055  0.75000000  0.75992322  1.0
  H  H18  1  0.58786945  0.25000000  0.25992322  1.0
  H  H19  1  0.08786945  0.25000000  0.24007678  1.0
  H  H20  1  0.91176762  0.75000000  0.07026185  1.0
  H  H21  1  0.41176762  0.75000000  0.42973815  1.0
  H  H22  1  0.08823238  0.25000000  0.92973815  1.0
  H  H23  1  0.58823238  0.25000000  0.57026185  1.0
