# generated using pymatgen
data_InAgP2(HO4)2
_symmetry_space_group_name_H-M   'P 1'
_cell_length_a   6.74392858
_cell_length_b   14.79180998
_cell_length_c   6.74194914
_cell_angle_alpha   90.00000000
_cell_angle_beta   96.22115833
_cell_angle_gamma   90.00000000
_symmetry_Int_Tables_number   1
_chemical_formula_structural   InAgP2(HO4)2
_chemical_formula_sum   'In4 Ag4 P8 H8 O32'
_cell_volume   668.58193652
_cell_formula_units_Z   4
loop_
 _symmetry_equiv_pos_site_id
 _symmetry_equiv_pos_as_xyz
  1  'x, y, z'
loop_
 _atom_site_type_symbol
 _atom_site_label
 _atom_site_symmetry_multiplicity
 _atom_site_fract_x
 _atom_site_fract_y
 _atom_site_fract_z
 _atom_site_occupancy
  In  In0  1  0.73319315  0.89170860  0.87899631  1.0
  In  In1  1  0.73319315  0.60829140  0.37899631  1.0
  In  In2  1  0.26680685  0.39170860  0.62100369  1.0
  In  In3  1  0.26680685  0.10829140  0.12100369  1.0
  Ag  Ag4  1  0.70909998  0.06913417  0.48494069  1.0
  Ag  Ag5  1  0.70909998  0.43086583  0.98494069  1.0
  Ag  Ag6  1  0.29090002  0.56913417  0.01505931  1.0
  Ag  Ag7  1  0.29090002  0.93086583  0.51505931  1.0
  P  P8  1  0.77695748  0.84507167  0.38114898  1.0
  P  P9  1  0.77695748  0.65492833  0.88114898  1.0
  P  P10  1  0.22304252  0.34507167  0.11885102  1.0
  P  P11  1  0.22304252  0.15492833  0.61885102  1.0
  P  P12  1  0.74466590  0.38261838  0.49344559  1.0
  P  P13  1  0.74466590  0.11738162  0.99344559  1.0
  P  P14  1  0.25533410  0.88261838  0.00655441  1.0
  P  P15  1  0.25533410  0.61738162  0.50655441  1.0
  H  H16  1  0.95742894  0.25867048  0.08297181  1.0
  H  H17  1  0.95742894  0.24132952  0.58297181  1.0
  H  H18  1  0.04257106  0.75867048  0.41702819  1.0
  H  H19  1  0.04257106  0.74132952  0.91702819  1.0
  H  H20  1  0.54693693  0.28410240  0.29891813  1.0
  H  H21  1  0.54693693  0.21589760  0.79891813  1.0
  H  H22  1  0.45306307  0.78410240  0.20108187  1.0
  H  H23  1  0.45306307  0.71589760  0.70108187  1.0
  O  O24  1  0.99161938  0.32403251  0.06268695  1.0
  O  O25  1  0.99161938  0.17596749  0.56268695  1.0
  O  O26  1  0.00838062  0.82403251  0.43731305  1.0
  O  O27  1  0.00838062  0.67596749  0.93731305  1.0
  O  O28  1  0.95077043  0.14441249  0.10203992  1.0
  O  O29  1  0.95077043  0.35558751  0.60203992  1.0
  O  O30  1  0.04922957  0.64441249  0.39796008  1.0
  O  O31  1  0.04922957  0.85558751  0.89796008  1.0
  O  O32  1  0.75797485  0.46313496  0.34796480  1.0
  O  O33  1  0.75797485  0.03686504  0.84796480  1.0
  O  O34  1  0.24202515  0.96313496  0.15203520  1.0
  O  O35  1  0.24202515  0.53686504  0.65203520  1.0
  O  O36  1  0.74669135  0.90481860  0.19448748  1.0
  O  O37  1  0.74669135  0.59518140  0.69448748  1.0
  O  O38  1  0.25330865  0.40481860  0.30551252  1.0
  O  O39  1  0.25330865  0.09518140  0.80551252  1.0
  O  O40  1  0.68479262  0.29441587  0.36572094  1.0
  O  O41  1  0.68479262  0.20558413  0.86572094  1.0
  O  O42  1  0.31520738  0.79441587  0.13427906  1.0
  O  O43  1  0.31520738  0.70558413  0.63427906  1.0
  O  O44  1  0.59440476  0.09961127  0.14794380  1.0
  O  O45  1  0.59440476  0.40038873  0.64794380  1.0
  O  O46  1  0.40559524  0.59961127  0.35205620  1.0
  O  O47  1  0.40559524  0.90038873  0.85205620  1.0
  O  O48  1  0.33422979  0.25389042  0.15219865  1.0
  O  O49  1  0.33422979  0.24610958  0.65219865  1.0
  O  O50  1  0.66577021  0.75389042  0.34780135  1.0
  O  O51  1  0.66577021  0.74610958  0.84780135  1.0
  O  O52  1  0.29426104  0.09885652  0.44493973  1.0
  O  O53  1  0.29426104  0.40114348  0.94493973  1.0
  O  O54  1  0.70573896  0.59885652  0.05506027  1.0
  O  O55  1  0.70573896  0.90114348  0.55506027  1.0
