# generated using pymatgen
data_Li(CO)2
_symmetry_space_group_name_H-M   'P 1'
_cell_length_a   6.06202288
_cell_length_b   6.06202288
_cell_length_c   3.38244396
_cell_angle_alpha   80.95844519
_cell_angle_beta   99.04155481
_cell_angle_gamma   75.33992328
_symmetry_Int_Tables_number   1
_chemical_formula_structural   Li(CO)2
_chemical_formula_sum   'Li2 C4 O4'
_cell_volume   116.20778149
_cell_formula_units_Z   2
loop_
 _symmetry_equiv_pos_site_id
 _symmetry_equiv_pos_as_xyz
  1  'x, y, z'
loop_
 _atom_site_type_symbol
 _atom_site_label
 _atom_site_symmetry_multiplicity
 _atom_site_fract_x
 _atom_site_fract_y
 _atom_site_fract_z
 _atom_site_occupancy
  Li  Li0  1  0.64672739  -0.35327261  0.50000000  1.0
  Li  Li1  1  1.35327261  0.35327261  0.50000000  1.0
  C  C2  1  0.85984111  -0.85984111  0.83565641  1.0
  C  C3  1  0.14015889  -0.14015889  0.16434359  1.0
  C  C4  1  0.89152136  -0.10847864  0.00000000  1.0
  C  C5  1  1.10847864  0.10847864  0.00000000  1.0
  O  O6  1  0.69098497  -0.69098497  0.63869536  1.0
  O  O7  1  0.30901503  -0.30901503  0.36130464  1.0
  O  O8  1  0.75977525  -0.24022475  0.00000000  1.0
  O  O9  1  1.24022475  0.24022475  0.00000000  1.0
