# generated using pymatgen
data_Sr2Re6S11
_symmetry_space_group_name_H-M   'P 1'
_cell_length_a   11.81828766
_cell_length_b   11.81828766
_cell_length_c   11.81828766
_cell_angle_alpha   45.68981686
_cell_angle_beta   45.68981686
_cell_angle_gamma   45.68981686
_symmetry_Int_Tables_number   1
_chemical_formula_structural   Sr2Re6S11
_chemical_formula_sum   'Sr4 Re12 S22'
_cell_volume   770.42703266
_cell_formula_units_Z   2
loop_
 _symmetry_equiv_pos_site_id
 _symmetry_equiv_pos_as_xyz
  1  'x, y, z'
loop_
 _atom_site_type_symbol
 _atom_site_label
 _atom_site_symmetry_multiplicity
 _atom_site_fract_x
 _atom_site_fract_y
 _atom_site_fract_z
 _atom_site_occupancy
  Sr  Sr0  1  0.81011616  0.81011616  -0.18988384  1.0
  Sr  Sr1  1  0.31011616  0.31011616  0.31011616  1.0
  Sr  Sr2  1  0.68988384  0.68988384  -0.31011616  1.0
  Sr  Sr3  1  0.18988384  0.18988384  0.18988384  1.0
  Re  Re4  1  0.78829428  0.11467619  -0.00584357  1.0
  Re  Re5  1  1.28829428  0.49415643  -0.38532381  1.0
  Re  Re6  1  0.50584357  0.38532381  -0.28829428  1.0
  Re  Re7  1  1.00584357  0.21170572  -0.11467619  1.0
  Re  Re8  1  0.88532381  0.00584357  0.21170572  1.0
  Re  Re9  1  0.38532381  0.71170572  -0.49415643  1.0
  Re  Re10  1  1.21170572  -0.11467619  0.00584357  1.0
  Re  Re11  1  0.71170572  0.50584357  -0.61467619  1.0
  Re  Re12  1  0.99415643  -0.21170572  0.11467619  1.0
  Re  Re13  1  0.49415643  0.61467619  0.28829428  1.0
  Re  Re14  1  0.61467619  1.28829428  -0.50584357  1.0
  Re  Re15  1  1.11467619  -0.00584357  -0.21170572  1.0
  S  S16  1  0.91663228  0.29731077  -0.30526656  1.0
  S  S17  1  1.41663228  0.19473344  -0.20268923  1.0
  S  S18  1  0.80526656  0.20268923  -0.41663228  1.0
  S  S19  1  1.30526656  0.08336772  -0.29731077  1.0
  S  S20  1  0.70268923  0.30526656  0.08336772  1.0
  S  S21  1  0.20268923  0.58336772  -0.19473344  1.0
  S  S22  1  1.08336772  -0.29731077  0.30526656  1.0
  S  S23  1  0.58336772  0.80526656  -0.79731077  1.0
  S  S24  1  0.69473344  -0.08336772  0.29731077  1.0
  S  S25  1  1.19473344  -0.20268923  0.41663228  1.0
  S  S26  1  0.79731077  0.41663228  0.19473344  1.0
  S  S27  1  1.29731077  -0.30526656  -0.08336772  1.0
  S  S28  1  0.90733115  -0.09266885  -0.09266885  1.0
  S  S29  1  0.40733115  0.40733115  0.40733115  1.0
  S  S30  1  0.59266885  0.59266885  -0.40733115  1.0
  S  S31  1  1.09266885  0.09266885  0.09266885  1.0
  S  S32  1  0.49501801  0.75000000  0.00498199  1.0
  S  S33  1  0.99501801  -0.49501801  0.25000000  1.0
  S  S34  1  0.25000000  0.99501801  -0.49501801  1.0
  S  S35  1  0.75000000  1.00498199  -0.50498199  1.0
  S  S36  1  0.50498199  0.25000000  -0.00498199  1.0
  S  S37  1  1.00498199  0.49501801  -0.25000000  1.0
