# generated using pymatgen
data_YAgTe2
_symmetry_space_group_name_H-M   'P 1'
_cell_length_a   4.49631201
_cell_length_b   4.49631201
_cell_length_c   7.37514565
_cell_angle_alpha   90.00000000
_cell_angle_beta   90.00000000
_cell_angle_gamma   120.00000000
_symmetry_Int_Tables_number   1
_chemical_formula_structural   YAgTe2
_chemical_formula_sum   'Y1 Ag1 Te2'
_cell_volume   129.12612348
_cell_formula_units_Z   1
loop_
 _symmetry_equiv_pos_site_id
 _symmetry_equiv_pos_as_xyz
  1  'x, y, z'
loop_
 _atom_site_type_symbol
 _atom_site_label
 _atom_site_symmetry_multiplicity
 _atom_site_fract_x
 _atom_site_fract_y
 _atom_site_fract_z
 _atom_site_occupancy
  Y  Y0  1  0.33333333  0.66666667  0.40889424  1.0
  Ag  Ag1  1  -0.00000000  -0.00000000  0.00575475  1.0
  Te  Te2  1  0.66666667  0.33333333  0.16408502  1.0
  Te  Te3  1  0.00000000  0.00000000  0.62886599  1.0
