# generated using pymatgen
data_TiNiH
_symmetry_space_group_name_H-M   'P 1'
_cell_length_a   5.02006845
_cell_length_b   5.02006845
_cell_length_c   4.02091008
_cell_angle_alpha   90.00000000
_cell_angle_beta   90.00000000
_cell_angle_gamma   145.10584016
_symmetry_Int_Tables_number   1
_chemical_formula_structural   TiNiH
_chemical_formula_sum   'Ti2 Ni2 H2'
_cell_volume   57.96781699
_cell_formula_units_Z   2
loop_
 _symmetry_equiv_pos_site_id
 _symmetry_equiv_pos_as_xyz
  1  'x, y, z'
loop_
 _atom_site_type_symbol
 _atom_site_label
 _atom_site_symmetry_multiplicity
 _atom_site_fract_x
 _atom_site_fract_y
 _atom_site_fract_z
 _atom_site_occupancy
  Ti  Ti0  1  -0.14608528  1.14608528  0.75000000  1.0
  Ti  Ti1  1  -0.85391472  0.85391472  0.25000000  1.0
  Ni  Ni2  1  -0.42492898  1.42492898  0.75000000  1.0
  Ni  Ni3  1  -0.57507102  0.57507102  0.25000000  1.0
  H  H4  1  -0.79740562  0.79740562  0.75000000  1.0
  H  H5  1  -0.20259438  1.20259438  0.25000000  1.0
