# generated using pymatgen
data_TiTl2(GeO3)3
_symmetry_space_group_name_H-M   'P 1'
_cell_length_a   7.09857476
_cell_length_b   7.09857476
_cell_length_c   10.48146456
_cell_angle_alpha   90.00000000
_cell_angle_beta   90.00000000
_cell_angle_gamma   120.00000000
_symmetry_Int_Tables_number   1
_chemical_formula_structural   TiTl2(GeO3)3
_chemical_formula_sum   'Ti2 Tl4 Ge6 O18'
_cell_volume   457.39869717
_cell_formula_units_Z   2
loop_
 _symmetry_equiv_pos_site_id
 _symmetry_equiv_pos_as_xyz
  1  'x, y, z'
loop_
 _atom_site_type_symbol
 _atom_site_label
 _atom_site_symmetry_multiplicity
 _atom_site_fract_x
 _atom_site_fract_y
 _atom_site_fract_z
 _atom_site_occupancy
  Ti  Ti0  1  0.00000000  0.00000000  0.50000000  1.0
  Ti  Ti1  1  0.00000000  0.00000000  0.00000000  1.0
  Tl  Tl2  1  0.33333333  0.66666667  0.44262055  1.0
  Tl  Tl3  1  0.33333333  0.66666667  0.05737945  1.0
  Tl  Tl4  1  0.66666667  0.33333333  0.94262055  1.0
  Tl  Tl5  1  0.66666667  0.33333333  0.55737945  1.0
  Ge  Ge6  1  0.75822019  0.63269280  0.25000000  1.0
  Ge  Ge7  1  0.63269280  0.87447262  0.75000000  1.0
  Ge  Ge8  1  0.87447262  0.24177981  0.25000000  1.0
  Ge  Ge9  1  0.36730720  0.12552738  0.25000000  1.0
  Ge  Ge10  1  0.24177981  0.36730720  0.75000000  1.0
  Ge  Ge11  1  0.12552738  0.75822019  0.75000000  1.0
  O  O12  1  0.77540399  0.76759049  0.39269428  1.0
  O  O13  1  0.77540399  0.76759049  0.10730572  1.0
  O  O14  1  0.76759049  0.99218650  0.89269428  1.0
  O  O15  1  0.76759049  0.99218650  0.60730572  1.0
  O  O16  1  0.99218650  0.22459601  0.39269428  1.0
  O  O17  1  0.99218650  0.22459601  0.10730572  1.0
  O  O18  1  0.23240951  0.00781350  0.39269428  1.0
  O  O19  1  0.23240951  0.00781350  0.10730572  1.0
  O  O20  1  0.22459601  0.23240951  0.89269428  1.0
  O  O21  1  0.22459601  0.23240951  0.60730572  1.0
  O  O22  1  0.00781350  0.77540399  0.89269428  1.0
  O  O23  1  0.00781350  0.77540399  0.60730572  1.0
  O  O24  1  0.47791059  0.41403454  0.25000000  1.0
  O  O25  1  0.41403454  0.93612395  0.75000000  1.0
  O  O26  1  0.93612395  0.52208941  0.25000000  1.0
  O  O27  1  0.58596546  0.06387605  0.25000000  1.0
  O  O28  1  0.52208941  0.58596546  0.75000000  1.0
  O  O29  1  0.06387605  0.47791059  0.75000000  1.0
