# generated using pymatgen
data_LuB4Rh
_symmetry_space_group_name_H-M   'P 1'
_cell_length_a   5.91664393
_cell_length_b   11.46848530
_cell_length_c   3.51082306
_cell_angle_alpha   90.00000000
_cell_angle_beta   90.00000000
_cell_angle_gamma   90.00000000
_symmetry_Int_Tables_number   1
_chemical_formula_structural   LuB4Rh
_chemical_formula_sum   'Lu4 B16 Rh4'
_cell_volume   238.22670172
_cell_formula_units_Z   4
loop_
 _symmetry_equiv_pos_site_id
 _symmetry_equiv_pos_as_xyz
  1  'x, y, z'
loop_
 _atom_site_type_symbol
 _atom_site_label
 _atom_site_symmetry_multiplicity
 _atom_site_fract_x
 _atom_site_fract_y
 _atom_site_fract_z
 _atom_site_occupancy
  Lu  Lu0  1  0.13189606  0.64863685  0.50000000  1.0
  Lu  Lu1  1  0.63189606  0.85136315  0.50000000  1.0
  Lu  Lu2  1  0.86810394  0.35136315  0.50000000  1.0
  Lu  Lu3  1  0.36810394  0.14863685  0.50000000  1.0
  B  B4  1  0.36526049  0.96986440  0.00000000  1.0
  B  B5  1  0.86526049  0.53013560  0.00000000  1.0
  B  B6  1  0.63473951  0.03013560  0.00000000  1.0
  B  B7  1  0.13473951  0.46986440  0.00000000  1.0
  B  B8  1  0.47811360  0.69382002  0.00000000  1.0
  B  B9  1  0.97811360  0.80617998  0.00000000  1.0
  B  B10  1  0.52188640  0.30617998  0.00000000  1.0
  B  B11  1  0.02188640  0.19382002  0.00000000  1.0
  B  B12  1  0.38682830  0.54759405  0.00000000  1.0
  B  B13  1  0.88682830  0.95240595  0.00000000  1.0
  B  B14  1  0.61317170  0.45240595  0.00000000  1.0
  B  B15  1  0.11317170  0.04759405  0.00000000  1.0
  B  B16  1  0.29259900  0.81244303  0.00000000  1.0
  B  B17  1  0.79259900  0.68755697  0.00000000  1.0
  B  B18  1  0.70740100  0.18755697  0.00000000  1.0
  B  B19  1  0.20740100  0.31244303  0.00000000  1.0
  Rh  Rh20  1  0.14263635  0.90515479  0.50000000  1.0
  Rh  Rh21  1  0.64263635  0.59484521  0.50000000  1.0
  Rh  Rh22  1  0.85736365  0.09484521  0.50000000  1.0
  Rh  Rh23  1  0.35736365  0.40515479  0.50000000  1.0
