# generated using pymatgen
data_ReN2
_symmetry_space_group_name_H-M   'P 1'
_cell_length_a   3.98454965
_cell_length_b   2.88387231
_cell_length_c   5.07342924
_cell_angle_alpha   90.00000000
_cell_angle_beta   93.10825727
_cell_angle_gamma   90.00000000
_symmetry_Int_Tables_number   1
_chemical_formula_structural   ReN2
_chemical_formula_sum   'Re2 N4'
_cell_volume   58.21266772
_cell_formula_units_Z   2
loop_
 _symmetry_equiv_pos_site_id
 _symmetry_equiv_pos_as_xyz
  1  'x, y, z'
loop_
 _atom_site_type_symbol
 _atom_site_label
 _atom_site_symmetry_multiplicity
 _atom_site_fract_x
 _atom_site_fract_y
 _atom_site_fract_z
 _atom_site_occupancy
  Re  Re0  1  0.43797417  0.50000000  0.77876474  1.0
  Re  Re1  1  1.01398821  0.00000000  0.21900395  1.0
  N  N2  1  0.39897116  0.50000000  0.18656817  1.0
  N  N3  1  0.66949861  0.50000000  0.36251035  1.0
  N  N4  1  0.22679421  0.00000000  0.56872206  1.0
  N  N5  1  0.91777364  0.50000000  0.91543073  1.0
