# generated using pymatgen
data_EuOF
_symmetry_space_group_name_H-M   'P 1'
_cell_length_a   6.28437509
_cell_length_b   3.76581796
_cell_length_c   6.94397351
_cell_angle_alpha   90.00000000
_cell_angle_beta   90.00000000
_cell_angle_gamma   90.00000000
_symmetry_Int_Tables_number   1
_chemical_formula_structural   EuOF
_chemical_formula_sum   'Eu4 O4 F4'
_cell_volume   164.33477546
_cell_formula_units_Z   4
loop_
 _symmetry_equiv_pos_site_id
 _symmetry_equiv_pos_as_xyz
  1  'x, y, z'
loop_
 _atom_site_type_symbol
 _atom_site_label
 _atom_site_symmetry_multiplicity
 _atom_site_fract_x
 _atom_site_fract_y
 _atom_site_fract_z
 _atom_site_occupancy
  Eu  Eu0  1  0.27875904  0.25000000  0.60372054  1.0
  Eu  Eu1  1  0.77875904  0.25000000  0.89627946  1.0
  Eu  Eu2  1  0.72124096  0.75000000  0.39627946  1.0
  Eu  Eu3  1  0.22124096  0.75000000  0.10372054  1.0
  O  O4  1  0.14605463  0.25000000  0.92172223  1.0
  O  O5  1  0.64605463  0.25000000  0.57827777  1.0
  O  O6  1  0.85394537  0.75000000  0.07827777  1.0
  O  O7  1  0.35394537  0.75000000  0.42172223  1.0
  F  F8  1  0.02693599  0.25000000  0.33771375  1.0
  F  F9  1  0.52693599  0.25000000  0.16228625  1.0
  F  F10  1  0.97306401  0.75000000  0.66228625  1.0
  F  F11  1  0.47306401  0.75000000  0.83771375  1.0
