# generated using pymatgen
data_Ca(InP)2
_symmetry_space_group_name_H-M   'P 1'
_cell_length_a   4.07692683
_cell_length_b   4.07692683
_cell_length_c   17.57012890
_cell_angle_alpha   90.00000000
_cell_angle_beta   90.00000000
_cell_angle_gamma   120.00000000
_symmetry_Int_Tables_number   1
_chemical_formula_structural   Ca(InP)2
_chemical_formula_sum   'Ca2 In4 P4'
_cell_volume   252.91315110
_cell_formula_units_Z   2
loop_
 _symmetry_equiv_pos_site_id
 _symmetry_equiv_pos_as_xyz
  1  'x, y, z'
loop_
 _atom_site_type_symbol
 _atom_site_label
 _atom_site_symmetry_multiplicity
 _atom_site_fract_x
 _atom_site_fract_y
 _atom_site_fract_z
 _atom_site_occupancy
  Ca  Ca0  1  0.00000000  0.00000000  0.50000000  1.0
  Ca  Ca1  1  0.00000000  0.00000000  0.00000000  1.0
  In  In2  1  0.33333333  0.66666667  0.33024881  1.0
  In  In3  1  0.33333333  0.66666667  0.16975119  1.0
  In  In4  1  0.66666667  0.33333333  0.83024881  1.0
  In  In5  1  0.66666667  0.33333333  0.66975119  1.0
  P  P6  1  0.33333333  0.66666667  0.89823038  1.0
  P  P7  1  0.33333333  0.66666667  0.60176962  1.0
  P  P8  1  0.66666667  0.33333333  0.39823038  1.0
  P  P9  1  0.66666667  0.33333333  0.10176962  1.0
