# generated using pymatgen
data_K3V5O14
_symmetry_space_group_name_H-M   'P 1'
_cell_length_a   8.70786713
_cell_length_b   8.70786713
_cell_length_c   5.31346853
_cell_angle_alpha   90.00000000
_cell_angle_beta   90.00000000
_cell_angle_gamma   120.00000000
_symmetry_Int_Tables_number   1
_chemical_formula_structural   K3V5O14
_chemical_formula_sum   'K3 V5 O14'
_cell_volume   348.92519643
_cell_formula_units_Z   1
loop_
 _symmetry_equiv_pos_site_id
 _symmetry_equiv_pos_as_xyz
  1  'x, y, z'
loop_
 _atom_site_type_symbol
 _atom_site_label
 _atom_site_symmetry_multiplicity
 _atom_site_fract_x
 _atom_site_fract_y
 _atom_site_fract_z
 _atom_site_occupancy
  K  K0  1  0.39228156  0.39228156  0.78501247  1.0
  K  K1  1  -0.00000000  0.60771844  0.78501247  1.0
  K  K2  1  0.60771844  0.00000000  0.78501247  1.0
  V  V3  1  0.77166507  0.77166507  0.31512824  1.0
  V  V4  1  0.00000000  0.22833493  0.31512824  1.0
  V  V5  1  0.22833493  -0.00000000  0.31512824  1.0
  V  V6  1  0.33333333  0.66666667  0.32236151  1.0
  V  V7  1  0.66666667  0.33333333  0.32236151  1.0
  O  O8  1  0.29267245  0.83102056  0.43748224  1.0
  O  O9  1  0.83102056  0.29267245  0.43748224  1.0
  O  O10  1  0.53834811  0.70732755  0.43748224  1.0
  O  O11  1  0.16897944  0.46165189  0.43748224  1.0
  O  O12  1  0.70732755  0.53834811  0.43748224  1.0
  O  O13  1  0.46165189  0.16897944  0.43748224  1.0
  O  O14  1  0.75387879  0.75387879  1.01355098  1.0
  O  O15  1  0.00000000  0.24612121  1.01355098  1.0
  O  O16  1  0.24612121  -0.00000000  1.01355098  1.0
  O  O17  1  0.16736131  0.16736131  0.38540980  1.0
  O  O18  1  0.00000000  0.83263869  0.38540980  1.0
  O  O19  1  0.83263869  -0.00000000  0.38540980  1.0
  O  O20  1  0.33333333  0.66666667  0.01348952  1.0
  O  O21  1  0.66666667  0.33333333  0.01348952  1.0
