# generated using pymatgen
data_KFeBr4
_symmetry_space_group_name_H-M   'P 1'
_cell_length_a   7.71579872
_cell_length_b   10.86395574
_cell_length_c   10.70662851
_cell_angle_alpha   90.00000000
_cell_angle_beta   90.00000000
_cell_angle_gamma   90.00000000
_symmetry_Int_Tables_number   1
_chemical_formula_structural   KFeBr4
_chemical_formula_sum   'K4 Fe4 Br16'
_cell_volume   897.47345388
_cell_formula_units_Z   4
loop_
 _symmetry_equiv_pos_site_id
 _symmetry_equiv_pos_as_xyz
  1  'x, y, z'
loop_
 _atom_site_type_symbol
 _atom_site_label
 _atom_site_symmetry_multiplicity
 _atom_site_fract_x
 _atom_site_fract_y
 _atom_site_fract_z
 _atom_site_occupancy
  K  K0  1  0.67259376  0.25000000  0.75000000  1.0
  K  K1  1  0.17259376  0.25000000  0.25000000  1.0
  K  K2  1  0.32740624  0.75000000  0.25000000  1.0
  K  K3  1  0.82740624  0.75000000  0.75000000  1.0
  Fe  Fe4  1  0.75000000  0.50000000  0.17922979  1.0
  Fe  Fe5  1  0.75000000  0.00000000  0.32077021  1.0
  Fe  Fe6  1  0.25000000  0.50000000  0.82077021  1.0
  Fe  Fe7  1  0.25000000  0.00000000  0.67922979  1.0
  Br  Br8  1  0.81406749  0.32590533  0.05649989  1.0
  Br  Br9  1  0.81406749  0.17409467  0.44350011  1.0
  Br  Br10  1  0.31406749  0.32590533  0.94350011  1.0
  Br  Br11  1  0.31406749  0.17409467  0.55649989  1.0
  Br  Br12  1  0.18593251  0.82590533  0.55649989  1.0
  Br  Br13  1  0.18593251  0.67409467  0.94350011  1.0
  Br  Br14  1  0.68593251  0.82590533  0.44350011  1.0
  Br  Br15  1  0.68593251  0.67409467  0.05649989  1.0
  Br  Br16  1  1.00618789  0.46382905  0.69127458  1.0
  Br  Br17  1  1.00618789  0.03617095  0.80872542  1.0
  Br  Br18  1  0.50618789  0.46382905  0.30872542  1.0
  Br  Br19  1  0.50618789  0.03617095  0.19127458  1.0
  Br  Br20  1  -0.00618789  0.96382905  0.19127458  1.0
  Br  Br21  1  -0.00618789  0.53617095  0.30872542  1.0
  Br  Br22  1  0.49381211  0.96382905  0.80872542  1.0
  Br  Br23  1  0.49381211  0.53617095  0.69127458  1.0
