# generated using pymatgen
data_Na4Ga3Ge3IO12
_symmetry_space_group_name_H-M   'P 1'
_cell_length_a   9.37317624
_cell_length_b   9.37317624
_cell_length_c   9.37317624
_cell_angle_alpha   90.00000000
_cell_angle_beta   90.00000000
_cell_angle_gamma   90.00000000
_symmetry_Int_Tables_number   1
_chemical_formula_structural   Na4Ga3Ge3IO12
_chemical_formula_sum   'Na8 Ga6 Ge6 I2 O24'
_cell_volume   823.49382798
_cell_formula_units_Z   2
loop_
 _symmetry_equiv_pos_site_id
 _symmetry_equiv_pos_as_xyz
  1  'x, y, z'
loop_
 _atom_site_type_symbol
 _atom_site_label
 _atom_site_symmetry_multiplicity
 _atom_site_fract_x
 _atom_site_fract_y
 _atom_site_fract_z
 _atom_site_occupancy
  Na  Na0  1  0.31307989  0.31307989  0.68692011  1.0
  Na  Na1  1  0.31307989  0.68692011  0.31307989  1.0
  Na  Na2  1  0.81307989  0.81307989  0.18692011  1.0
  Na  Na3  1  0.81307989  0.18692011  0.81307989  1.0
  Na  Na4  1  0.68692011  0.31307989  0.31307989  1.0
  Na  Na5  1  0.68692011  0.68692011  0.68692011  1.0
  Na  Na6  1  0.18692011  0.81307989  0.81307989  1.0
  Na  Na7  1  0.18692011  0.18692011  0.18692011  1.0
  Ga  Ga8  1  0.25000000  0.00000000  0.50000000  1.0
  Ga  Ga9  1  0.75000000  0.00000000  0.50000000  1.0
  Ga  Ga10  1  0.50000000  0.25000000  -0.00000000  1.0
  Ga  Ga11  1  0.50000000  0.75000000  -0.00000000  1.0
  Ga  Ga12  1  -0.00000000  0.50000000  0.25000000  1.0
  Ga  Ga13  1  -0.00000000  0.50000000  0.75000000  1.0
  Ge  Ge14  1  0.25000000  0.50000000  -0.00000000  1.0
  Ge  Ge15  1  0.75000000  0.50000000  -0.00000000  1.0
  Ge  Ge16  1  -0.00000000  0.25000000  0.50000000  1.0
  Ge  Ge17  1  -0.00000000  0.75000000  0.50000000  1.0
  Ge  Ge18  1  0.50000000  0.00000000  0.25000000  1.0
  Ge  Ge19  1  0.50000000  0.00000000  0.75000000  1.0
  I  I20  1  0.50000000  0.50000000  0.50000000  1.0
  I  I21  1  0.00000000  0.00000000  0.00000000  1.0
  O  O22  1  0.35795123  0.07335046  0.64908024  1.0
  O  O23  1  0.35795123  0.92664954  0.35091976  1.0
  O  O24  1  0.85795123  0.85091976  0.42664954  1.0
  O  O25  1  0.85795123  0.14908024  0.57335046  1.0
  O  O26  1  0.35091976  0.35795123  0.92664954  1.0
  O  O27  1  0.35091976  0.64204877  0.07335046  1.0
  O  O28  1  0.85091976  0.57335046  0.14204877  1.0
  O  O29  1  0.85091976  0.42664954  0.85795123  1.0
  O  O30  1  0.07335046  0.35091976  0.64204877  1.0
  O  O31  1  0.07335046  0.64908024  0.35795123  1.0
  O  O32  1  0.57335046  0.85795123  0.14908024  1.0
  O  O33  1  0.57335046  0.14204877  0.85091976  1.0
  O  O34  1  0.64204877  0.07335046  0.35091976  1.0
  O  O35  1  0.64204877  0.92664954  0.64908024  1.0
  O  O36  1  0.14204877  0.85091976  0.57335046  1.0
  O  O37  1  0.14204877  0.14908024  0.42664954  1.0
  O  O38  1  0.64908024  0.35795123  0.07335046  1.0
  O  O39  1  0.64908024  0.64204877  0.92664954  1.0
  O  O40  1  0.14908024  0.57335046  0.85795123  1.0
  O  O41  1  0.14908024  0.42664954  0.14204877  1.0
  O  O42  1  0.92664954  0.35091976  0.35795123  1.0
  O  O43  1  0.92664954  0.64908024  0.64204877  1.0
  O  O44  1  0.42664954  0.85795123  0.85091976  1.0
  O  O45  1  0.42664954  0.14204877  0.14908024  1.0
