# generated using pymatgen
data_Sc6Ga16Ir7
_symmetry_space_group_name_H-M   'P 1'
_cell_length_a   8.81027025
_cell_length_b   8.81027025
_cell_length_c   8.81027025
_cell_angle_alpha   60.00000000
_cell_angle_beta   60.00000000
_cell_angle_gamma   60.00000000
_symmetry_Int_Tables_number   1
_chemical_formula_structural   Sc6Ga16Ir7
_chemical_formula_sum   'Sc6 Ga16 Ir7'
_cell_volume   483.56258829
_cell_formula_units_Z   1
loop_
 _symmetry_equiv_pos_site_id
 _symmetry_equiv_pos_as_xyz
  1  'x, y, z'
loop_
 _atom_site_type_symbol
 _atom_site_label
 _atom_site_symmetry_multiplicity
 _atom_site_fract_x
 _atom_site_fract_y
 _atom_site_fract_z
 _atom_site_occupancy
  Sc  Sc0  1  -0.72092216  0.72092216  0.72092216  1.0
  Sc  Sc1  1  -0.27907784  0.27907784  0.72092216  1.0
  Sc  Sc2  1  0.72092216  0.72092216  -0.72092216  1.0
  Sc  Sc3  1  0.27907784  1.27907784  -0.27907784  1.0
  Sc  Sc4  1  0.27907784  -0.27907784  1.27907784  1.0
  Sc  Sc5  1  -0.27907784  0.27907784  0.27907784  1.0
  Ga  Ga6  1  0.87594544  0.87594544  -0.12405456  1.0
  Ga  Ga7  1  1.12405456  0.12405456  0.62783632  1.0
  Ga  Ga8  1  1.12405456  0.62783632  0.12405456  1.0
  Ga  Ga9  1  0.37216368  0.87594544  -0.12405456  1.0
  Ga  Ga10  1  1.62783632  0.12405456  0.12405456  1.0
  Ga  Ga11  1  0.87594544  0.37216368  -0.12405456  1.0
  Ga  Ga12  1  0.87594544  0.87594544  -0.62783632  1.0
  Ga  Ga13  1  1.12405456  0.12405456  0.12405456  1.0
  Ga  Ga14  1  0.65371018  0.65371018  -0.34628982  1.0
  Ga  Ga15  1  1.34628982  0.34628982  -0.03886945  1.0
  Ga  Ga16  1  1.34628982  -0.03886945  0.34628982  1.0
  Ga  Ga17  1  1.03886945  0.65371018  -0.34628982  1.0
  Ga  Ga18  1  0.96113055  0.34628982  0.34628982  1.0
  Ga  Ga19  1  0.65371018  1.03886945  -0.34628982  1.0
  Ga  Ga20  1  0.65371018  0.65371018  0.03886945  1.0
  Ga  Ga21  1  1.34628982  0.34628982  0.34628982  1.0
  Ir  Ir22  1  1.50000000  0.00000000  -0.00000000  1.0
  Ir  Ir23  1  1.00000000  0.50000000  -0.50000000  1.0
  Ir  Ir24  1  0.00000000  1.50000000  -0.00000000  1.0
  Ir  Ir25  1  0.50000000  1.00000000  -0.50000000  1.0
  Ir  Ir26  1  -0.00000000  0.00000000  0.50000000  1.0
  Ir  Ir27  1  0.50000000  -0.50000000  1.00000000  1.0
  Ir  Ir28  1  0.00000000  0.00000000  0.00000000  1.0
