# generated using pymatgen
data_HCN
_symmetry_space_group_name_H-M   'P 1'
_cell_length_a   3.97085352
_cell_length_b   3.97085352
_cell_length_c   3.97085352
_cell_angle_alpha   106.89345394
_cell_angle_beta   106.89345394
_cell_angle_gamma   114.75974869
_symmetry_Int_Tables_number   1
_chemical_formula_structural   HCN
_chemical_formula_sum   'H1 C1 N1'
_cell_volume   47.88721984
_cell_formula_units_Z   1
loop_
 _symmetry_equiv_pos_site_id
 _symmetry_equiv_pos_as_xyz
  1  'x, y, z'
loop_
 _atom_site_type_symbol
 _atom_site_label
 _atom_site_symmetry_multiplicity
 _atom_site_fract_x
 _atom_site_fract_y
 _atom_site_fract_z
 _atom_site_occupancy
  H  H0  1  0.25107615  0.25107615  -0.00000000  1.0
  C  C1  1  -0.00409585  -0.00409585  -0.00000000  1.0
  N  N2  1  0.72531971  0.72531971  -0.00000000  1.0
