# generated using pymatgen
data_YbCu5Sn
_symmetry_space_group_name_H-M   'P 1'
_cell_length_a   8.30302638
_cell_length_b   5.03307881
_cell_length_c   10.54156412
_cell_angle_alpha   90.00000000
_cell_angle_beta   90.00000000
_cell_angle_gamma   90.00000000
_symmetry_Int_Tables_number   1
_chemical_formula_structural   YbCu5Sn
_chemical_formula_sum   'Yb4 Cu20 Sn4'
_cell_volume   440.52970997
_cell_formula_units_Z   4
loop_
 _symmetry_equiv_pos_site_id
 _symmetry_equiv_pos_as_xyz
  1  'x, y, z'
loop_
 _atom_site_type_symbol
 _atom_site_label
 _atom_site_symmetry_multiplicity
 _atom_site_fract_x
 _atom_site_fract_y
 _atom_site_fract_z
 _atom_site_occupancy
  Yb  Yb0  1  0.74641720  0.75000000  0.56204404  1.0
  Yb  Yb1  1  0.24641720  0.75000000  0.93795596  1.0
  Yb  Yb2  1  0.25358280  0.25000000  0.43795596  1.0
  Yb  Yb3  1  0.75358280  0.25000000  0.06204404  1.0
  Cu  Cu4  1  0.93052243  0.49931400  0.31224399  1.0
  Cu  Cu5  1  0.93052243  0.00068600  0.31224399  1.0
  Cu  Cu6  1  0.43052243  0.49931400  0.18775601  1.0
  Cu  Cu7  1  0.43052243  0.00068600  0.18775601  1.0
  Cu  Cu8  1  0.06947757  0.99931400  0.68775601  1.0
  Cu  Cu9  1  0.06947757  0.50068600  0.68775601  1.0
  Cu  Cu10  1  0.56947757  0.99931400  0.81224399  1.0
  Cu  Cu11  1  0.56947757  0.50068600  0.81224399  1.0
  Cu  Cu12  1  0.93941145  0.75000000  0.10290060  1.0
  Cu  Cu13  1  0.43941145  0.75000000  0.39709940  1.0
  Cu  Cu14  1  0.06058855  0.25000000  0.89709940  1.0
  Cu  Cu15  1  0.56058855  0.25000000  0.60290060  1.0
  Cu  Cu16  1  0.68265235  0.75000000  0.24328571  1.0
  Cu  Cu17  1  0.18265235  0.75000000  0.25671429  1.0
  Cu  Cu18  1  0.31734765  0.25000000  0.75671429  1.0
  Cu  Cu19  1  0.81734765  0.25000000  0.74328571  1.0
  Cu  Cu20  1  0.58275965  0.75000000  0.01699005  1.0
  Cu  Cu21  1  0.08275965  0.75000000  0.48300995  1.0
  Cu  Cu22  1  0.41724035  0.25000000  0.98300995  1.0
  Cu  Cu23  1  0.91724035  0.25000000  0.51699005  1.0
  Sn  Sn24  1  0.86167795  0.75000000  0.86105090  1.0
  Sn  Sn25  1  0.36167795  0.75000000  0.63894910  1.0
  Sn  Sn26  1  0.13832205  0.25000000  0.13894910  1.0
  Sn  Sn27  1  0.63832205  0.25000000  0.36105090  1.0
