# generated using pymatgen
data_Ba3SiO
_symmetry_space_group_name_H-M   'P 1'
_cell_length_a   7.71849504
_cell_length_b   10.80956175
_cell_length_c   7.55065012
_cell_angle_alpha   90.00000000
_cell_angle_beta   90.00000000
_cell_angle_gamma   90.00000000
_symmetry_Int_Tables_number   1
_chemical_formula_structural   Ba3SiO
_chemical_formula_sum   'Ba12 Si4 O4'
_cell_volume   629.97753471
_cell_formula_units_Z   4
loop_
 _symmetry_equiv_pos_site_id
 _symmetry_equiv_pos_as_xyz
  1  'x, y, z'
loop_
 _atom_site_type_symbol
 _atom_site_label
 _atom_site_symmetry_multiplicity
 _atom_site_fract_x
 _atom_site_fract_y
 _atom_site_fract_z
 _atom_site_occupancy
  Ba  Ba0  1  0.29115461  0.95844091  0.79144136  1.0
  Ba  Ba1  1  0.29115461  0.54155909  0.79144136  1.0
  Ba  Ba2  1  0.79115461  0.95844091  0.70855864  1.0
  Ba  Ba3  1  0.79115461  0.54155909  0.70855864  1.0
  Ba  Ba4  1  0.70884539  0.45844091  0.20855864  1.0
  Ba  Ba5  1  0.70884539  0.04155909  0.20855864  1.0
  Ba  Ba6  1  0.20884539  0.45844091  0.29144136  1.0
  Ba  Ba7  1  0.20884539  0.04155909  0.29144136  1.0
  Ba  Ba8  1  0.97942556  0.75000000  0.07917260  1.0
  Ba  Ba9  1  0.47942556  0.75000000  0.42082740  1.0
  Ba  Ba10  1  0.02057444  0.25000000  0.92082740  1.0
  Ba  Ba11  1  0.52057444  0.25000000  0.57917260  1.0
  Si  Si12  1  0.04172620  0.75000000  0.51309520  1.0
  Si  Si13  1  0.54172620  0.75000000  0.98690480  1.0
  Si  Si14  1  0.95827380  0.25000000  0.48690480  1.0
  Si  Si15  1  0.45827380  0.25000000  0.01309520  1.0
  O  O16  1  0.50000000  0.00000000  0.50000000  1.0
  O  O17  1  0.50000000  0.50000000  0.50000000  1.0
  O  O18  1  0.00000000  0.00000000  0.00000000  1.0
  O  O19  1  0.00000000  0.50000000  0.00000000  1.0
