# generated using pymatgen
data_Lu5(ReO6)2
_symmetry_space_group_name_H-M   'P 1'
_cell_length_a   6.74559883
_cell_length_b   6.74559883
_cell_length_c   7.43416028
_cell_angle_alpha   73.83824480
_cell_angle_beta   106.16175520
_cell_angle_gamma   130.82187324
_symmetry_Int_Tables_number   1
_chemical_formula_structural   Lu5(ReO6)2
_chemical_formula_sum   'Lu5 Re2 O12'
_cell_volume   243.70143876
_cell_formula_units_Z   1
loop_
 _symmetry_equiv_pos_site_id
 _symmetry_equiv_pos_as_xyz
  1  'x, y, z'
loop_
 _atom_site_type_symbol
 _atom_site_label
 _atom_site_symmetry_multiplicity
 _atom_site_fract_x
 _atom_site_fract_y
 _atom_site_fract_z
 _atom_site_occupancy
  Lu  Lu0  1  0.69796847  0.30203153  0.35962199  1.0
  Lu  Lu1  1  0.30203153  -0.30203153  0.64037801  1.0
  Lu  Lu2  1  0.68589068  0.31410932  0.82241679  1.0
  Lu  Lu3  1  0.31410932  -0.31410932  0.17758321  1.0
  Lu  Lu4  1  -0.00000000  0.00000000  0.50000000  1.0
  Re  Re5  1  0.78528457  0.78528457  -0.00000000  1.0
  Re  Re6  1  0.21471543  0.21471543  -0.00000000  1.0
  O  O7  1  0.57953696  -0.08662167  0.91233453  1.0
  O  O8  1  1.08662167  0.42046304  0.91233453  1.0
  O  O9  1  0.91337833  0.57953696  0.08766547  1.0
  O  O10  1  0.42046304  0.08662167  0.08766547  1.0
  O  O11  1  0.40552461  0.09922599  0.57205959  1.0
  O  O12  1  0.90077401  0.59447539  0.57205959  1.0
  O  O13  1  1.09922599  0.40552461  0.42794041  1.0
  O  O14  1  0.59447539  -0.09922599  0.42794041  1.0
  O  O15  1  1.00262496  -0.00262496  0.79249308  1.0
  O  O16  1  -0.00262496  0.00262496  0.20750692  1.0
  O  O17  1  0.49964363  -0.49964363  0.82032614  1.0
  O  O18  1  0.50035637  0.49964363  0.17967386  1.0
