# generated using pymatgen
data_Ba3B6O11F2
_symmetry_space_group_name_H-M   'P 1'
_cell_length_a   6.63986436
_cell_length_b   8.57346437
_cell_length_c   9.82985342
_cell_angle_alpha   90.00000000
_cell_angle_beta   101.57409411
_cell_angle_gamma   90.00000000
_symmetry_Int_Tables_number   1
_chemical_formula_structural   Ba3B6O11F2
_chemical_formula_sum   'Ba6 B12 O22 F4'
_cell_volume   548.20205819
_cell_formula_units_Z   2
loop_
 _symmetry_equiv_pos_site_id
 _symmetry_equiv_pos_as_xyz
  1  'x, y, z'
loop_
 _atom_site_type_symbol
 _atom_site_label
 _atom_site_symmetry_multiplicity
 _atom_site_fract_x
 _atom_site_fract_y
 _atom_site_fract_z
 _atom_site_occupancy
  Ba  Ba0  1  0.93752515  0.89076577  0.96738319  1.0
  Ba  Ba1  1  0.06247485  0.39076577  0.03261681  1.0
  Ba  Ba2  1  0.93996812  0.38955219  0.45540757  1.0
  Ba  Ba3  1  0.06003188  0.88955219  0.54459243  1.0
  Ba  Ba4  1  0.50516600  0.73842817  0.23770560  1.0
  Ba  Ba5  1  0.49483400  0.23842817  0.76229440  1.0
  B  B6  1  0.80561125  0.59929681  0.73424837  1.0
  B  B7  1  0.19438875  0.09929681  0.26575163  1.0
  B  B8  1  0.58845181  0.83568594  0.63657046  1.0
  B  B9  1  0.41154819  0.33568594  0.36342954  1.0
  B  B10  1  0.57912432  0.59113916  0.93300342  1.0
  B  B11  1  0.42087568  0.09113916  0.06699658  1.0
  B  B12  1  0.49549571  0.56064325  0.54604291  1.0
  B  B13  1  0.50450429  0.06064325  0.45395709  1.0
  B  B14  1  0.42032512  0.86651055  0.86470774  1.0
  B  B15  1  0.57967488  0.36651055  0.13529226  1.0
  B  B16  1  0.20788040  0.62173744  0.79919884  1.0
  B  B17  1  0.79211960  0.12173744  0.20080116  1.0
  O  O18  1  0.97389825  0.04734973  0.26057499  1.0
  O  O19  1  0.02610175  0.54734973  0.73942501  1.0
  O  O20  1  0.78433020  0.76443649  0.69856385  1.0
  O  O21  1  0.21566980  0.26443649  0.30143615  1.0
  O  O22  1  0.75629233  0.55759080  0.86750633  1.0
  O  O23  1  0.24370767  0.05759080  0.13249367  1.0
  O  O24  1  0.67644091  0.50149231  0.62261703  1.0
  O  O25  1  0.32355909  0.00149231  0.37738297  1.0
  O  O26  1  0.63882111  0.96208506  0.53907997  1.0
  O  O27  1  0.36117889  0.46208506  0.46092003  1.0
  O  O28  1  0.55794463  0.76075428  0.95750823  1.0
  O  O29  1  0.44205537  0.26075428  0.04249177  1.0
  O  O30  1  0.48810993  0.91505289  0.73525403  1.0
  O  O31  1  0.51189007  0.41505289  0.26474597  1.0
  O  O32  1  0.44488797  0.71632995  0.55209070  1.0
  O  O33  1  0.55511203  0.21632995  0.44790930  1.0
  O  O34  1  0.37934826  0.53065453  0.84261579  1.0
  O  O35  1  0.62065174  0.03065453  0.15738421  1.0
  O  O36  1  0.38111231  0.01245576  0.93159533  1.0
  O  O37  1  0.61888769  0.51245576  0.06840467  1.0
  O  O38  1  0.21411849  0.78151134  0.81538936  1.0
  O  O39  1  0.78588151  0.28151134  0.18461064  1.0
  F  F40  1  0.86884077  0.67702704  0.38666742  1.0
  F  F41  1  0.13115923  0.17702704  0.61333258  1.0
  F  F42  1  0.85927742  0.17170054  0.88586750  1.0
  F  F43  1  0.14072258  0.67170054  0.11413250  1.0
