# generated using pymatgen
data_LuAlPd
_symmetry_space_group_name_H-M   'P 1'
_cell_length_a   6.77969254
_cell_length_b   4.38662184
_cell_length_c   7.74160063
_cell_angle_alpha   90.00000000
_cell_angle_beta   90.00000000
_cell_angle_gamma   90.00000000
_symmetry_Int_Tables_number   1
_chemical_formula_structural   LuAlPd
_chemical_formula_sum   'Lu4 Al4 Pd4'
_cell_volume   230.23479550
_cell_formula_units_Z   4
loop_
 _symmetry_equiv_pos_site_id
 _symmetry_equiv_pos_as_xyz
  1  'x, y, z'
loop_
 _atom_site_type_symbol
 _atom_site_label
 _atom_site_symmetry_multiplicity
 _atom_site_fract_x
 _atom_site_fract_y
 _atom_site_fract_z
 _atom_site_occupancy
  Lu  Lu0  1  0.97076396  0.75000000  0.68133692  1.0
  Lu  Lu1  1  0.47076396  0.75000000  0.81866308  1.0
  Lu  Lu2  1  0.02923604  0.25000000  0.31866308  1.0
  Lu  Lu3  1  0.52923604  0.25000000  0.18133692  1.0
  Al  Al4  1  0.85343568  0.75000000  0.06169216  1.0
  Al  Al5  1  0.35343568  0.75000000  0.43830784  1.0
  Al  Al6  1  0.14656432  0.25000000  0.93830784  1.0
  Al  Al7  1  0.64656432  0.25000000  0.56169216  1.0
  Pd  Pd8  1  0.73082337  0.75000000  0.38145963  1.0
  Pd  Pd9  1  0.23082337  0.75000000  0.11854037  1.0
  Pd  Pd10  1  0.26917663  0.25000000  0.61854037  1.0
  Pd  Pd11  1  0.76917663  0.25000000  0.88145963  1.0
