# generated using pymatgen
data_Tc(NF3)2
_symmetry_space_group_name_H-M   'P 1'
_cell_length_a   6.55059341
_cell_length_b   6.55059341
_cell_length_c   5.30596438
_cell_angle_alpha   90.00000000
_cell_angle_beta   90.00000000
_cell_angle_gamma   120.00000000
_symmetry_Int_Tables_number   1
_chemical_formula_structural   Tc(NF3)2
_chemical_formula_sum   'Tc1 N2 F6'
_cell_volume   197.17699772
_cell_formula_units_Z   1
loop_
 _symmetry_equiv_pos_site_id
 _symmetry_equiv_pos_as_xyz
  1  'x, y, z'
loop_
 _atom_site_type_symbol
 _atom_site_label
 _atom_site_symmetry_multiplicity
 _atom_site_fract_x
 _atom_site_fract_y
 _atom_site_fract_z
 _atom_site_occupancy
  Tc  Tc0  1  0.00000000  0.00000000  0.00000000  1.0
  N  N1  1  0.33333333  0.66666667  0.32120323  1.0
  N  N2  1  0.66666667  0.33333333  0.67879677  1.0
  F  F3  1  0.26700584  0.13350292  0.19991027  1.0
  F  F4  1  0.13350292  0.26700584  0.80008973  1.0
  F  F5  1  0.13350292  0.86649708  0.80008973  1.0
  F  F6  1  0.86649708  0.13350292  0.19991027  1.0
  F  F7  1  0.86649708  0.73299416  0.19991027  1.0
  F  F8  1  0.73299416  0.86649708  0.80008973  1.0
