# generated using pymatgen
data_BaCaPb
_symmetry_space_group_name_H-M   'P 1'
_cell_length_a   8.96168610
_cell_length_b   5.35515391
_cell_length_c   9.86797304
_cell_angle_alpha   90.00000000
_cell_angle_beta   90.00000000
_cell_angle_gamma   90.00000000
_symmetry_Int_Tables_number   1
_chemical_formula_structural   BaCaPb
_chemical_formula_sum   'Ba4 Ca4 Pb4'
_cell_volume   473.57595002
_cell_formula_units_Z   4
loop_
 _symmetry_equiv_pos_site_id
 _symmetry_equiv_pos_as_xyz
  1  'x, y, z'
loop_
 _atom_site_type_symbol
 _atom_site_label
 _atom_site_symmetry_multiplicity
 _atom_site_fract_x
 _atom_site_fract_y
 _atom_site_fract_z
 _atom_site_occupancy
  Ba  Ba0  1  0.97847965  0.75000000  0.68129877  1.0
  Ba  Ba1  1  0.47847965  0.75000000  0.81870123  1.0
  Ba  Ba2  1  0.02152035  0.25000000  0.31870123  1.0
  Ba  Ba3  1  0.52152035  0.25000000  0.18129877  1.0
  Ca  Ca4  1  0.85608165  0.75000000  0.07048531  1.0
  Ca  Ca5  1  0.35608165  0.75000000  0.42951469  1.0
  Ca  Ca6  1  0.14391835  0.25000000  0.92951469  1.0
  Ca  Ca7  1  0.64391835  0.25000000  0.57048531  1.0
  Pb  Pb8  1  0.72661121  0.75000000  0.39070980  1.0
  Pb  Pb9  1  0.22661121  0.75000000  0.10929020  1.0
  Pb  Pb10  1  0.27338879  0.25000000  0.60929020  1.0
  Pb  Pb11  1  0.77338879  0.25000000  0.89070980  1.0
