# generated using pymatgen
data_Co
_symmetry_space_group_name_H-M   'P 1'
_cell_length_a   7.86514685
_cell_length_b   7.86514685
_cell_length_c   9.54736667
_cell_angle_alpha   90.00000000
_cell_angle_beta   90.00000000
_cell_angle_gamma   120.00000000
_symmetry_Int_Tables_number   1
_chemical_formula_structural   Co
_chemical_formula_sum   Co46
_cell_volume   511.47911542
_cell_formula_units_Z   46
loop_
 _symmetry_equiv_pos_site_id
 _symmetry_equiv_pos_as_xyz
  1  'x, y, z'
loop_
 _atom_site_type_symbol
 _atom_site_label
 _atom_site_symmetry_multiplicity
 _atom_site_fract_x
 _atom_site_fract_y
 _atom_site_fract_z
 _atom_site_occupancy
  Co  Co0  1  0.68338209  0.84169104  0.33897954  1.0
  Co  Co1  1  0.84169104  0.68338209  0.83897954  1.0
  Co  Co2  1  0.84169104  0.15830896  0.83897954  1.0
  Co  Co3  1  0.15830896  0.84169104  0.33897954  1.0
  Co  Co4  1  0.15830896  0.31661791  0.33897954  1.0
  Co  Co5  1  0.31661791  0.15830896  0.83897954  1.0
  Co  Co6  1  0.66926686  0.83463343  0.07420625  1.0
  Co  Co7  1  0.83463343  0.66926686  0.57420625  1.0
  Co  Co8  1  0.83463343  0.16536657  0.57420625  1.0
  Co  Co9  1  0.16536657  0.83463343  0.07420625  1.0
  Co  Co10  1  0.16536657  0.33073314  0.07420625  1.0
  Co  Co11  1  0.33073314  0.16536657  0.57420625  1.0
  Co  Co12  1  0.02990987  0.51495494  0.46752600  1.0
  Co  Co13  1  0.51495494  0.02990987  0.96752600  1.0
  Co  Co14  1  0.51495494  0.48504506  0.96752600  1.0
  Co  Co15  1  0.48504506  0.51495494  0.46752600  1.0
  Co  Co16  1  0.48504506  0.97009013  0.46752600  1.0
  Co  Co17  1  0.97009013  0.48504506  0.96752600  1.0
  Co  Co18  1  1.02992070  0.51496035  0.21044952  1.0
  Co  Co19  1  0.51496035  1.02992070  0.71044952  1.0
  Co  Co20  1  0.51496035  0.48503965  0.71044952  1.0
  Co  Co21  1  0.48503965  0.51496035  0.21044952  1.0
  Co  Co22  1  0.48503965  -0.02992070  0.21044952  1.0
  Co  Co23  1  -0.02992070  0.48503965  0.71044952  1.0
  Co  Co24  1  0.44863105  0.22431553  0.33898288  1.0
  Co  Co25  1  0.22431553  0.44863105  0.83898288  1.0
  Co  Co26  1  0.22431553  0.77568447  0.83898288  1.0
  Co  Co27  1  0.77568447  0.22431553  0.33898288  1.0
  Co  Co28  1  0.77568447  0.55136895  0.33898288  1.0
  Co  Co29  1  0.55136895  0.77568447  0.83898288  1.0
  Co  Co30  1  0.33074888  0.16537444  0.10375155  1.0
  Co  Co31  1  0.16537444  0.33074888  0.60375155  1.0
  Co  Co32  1  0.16537444  0.83462556  0.60375155  1.0
  Co  Co33  1  0.83462556  0.16537444  0.10375155  1.0
  Co  Co34  1  0.83462556  0.66925112  0.10375155  1.0
  Co  Co35  1  0.66925112  0.83462556  0.60375155  1.0
  Co  Co36  1  0.33333333  0.66666667  0.05421679  1.0
  Co  Co37  1  0.66666667  0.33333333  0.55421679  1.0
  Co  Co38  1  0.33333333  0.66666667  0.33900710  1.0
  Co  Co39  1  0.66666667  0.33333333  0.83900710  1.0
  Co  Co40  1  0.33333333  0.66666667  0.62377513  1.0
  Co  Co41  1  0.66666667  0.33333333  0.12377513  1.0
  Co  Co42  1  0.00000000  -0.00000000  -0.03869753  1.0
  Co  Co43  1  0.00000000  -0.00000000  0.46130247  1.0
  Co  Co44  1  -0.00000000  -0.00000000  0.21661131  1.0
  Co  Co45  1  -0.00000000  -0.00000000  0.71661131  1.0
