# generated using pymatgen
data_Hf(AlC)4
_symmetry_space_group_name_H-M   'P 1'
_cell_length_a   3.34077175
_cell_length_b   3.34077175
_cell_length_c   22.04069864
_cell_angle_alpha   90.00000000
_cell_angle_beta   90.00000000
_cell_angle_gamma   120.00000000
_symmetry_Int_Tables_number   1
_chemical_formula_structural   Hf(AlC)4
_chemical_formula_sum   'Hf2 Al8 C8'
_cell_volume   213.03433093
_cell_formula_units_Z   2
loop_
 _symmetry_equiv_pos_site_id
 _symmetry_equiv_pos_as_xyz
  1  'x, y, z'
loop_
 _atom_site_type_symbol
 _atom_site_label
 _atom_site_symmetry_multiplicity
 _atom_site_fract_x
 _atom_site_fract_y
 _atom_site_fract_z
 _atom_site_occupancy
  Hf  Hf0  1  0.33333333  0.66666667  0.56042802  1.0
  Hf  Hf1  1  0.66666667  0.33333333  0.43957198  1.0
  Al  Al2  1  0.33333333  0.66666667  0.23311337  1.0
  Al  Al3  1  0.66666667  0.33333333  0.76688663  1.0
  Al  Al4  1  0.33333333  0.66666667  0.04548061  1.0
  Al  Al5  1  0.66666667  0.33333333  0.95451939  1.0
  Al  Al6  1  0.00000000  0.00000000  0.33587903  1.0
  Al  Al7  1  0.00000000  0.00000000  0.66412097  1.0
  Al  Al8  1  0.00000000  0.00000000  0.14881549  1.0
  Al  Al9  1  0.00000000  0.00000000  0.85118451  1.0
  C  C10  1  0.33333333  0.66666667  0.13304871  1.0
  C  C11  1  0.66666667  0.33333333  0.86695129  1.0
  C  C12  1  0.00000000  0.00000000  0.00000000  1.0
  C  C13  1  0.00000000  0.00000000  0.50000000  1.0
  C  C14  1  0.00000000  0.00000000  0.24748895  1.0
  C  C15  1  0.00000000  0.00000000  0.75251105  1.0
  C  C16  1  0.33333333  0.66666667  0.37704534  1.0
  C  C17  1  0.66666667  0.33333333  0.62295466  1.0
