# generated using pymatgen
data_TaTl(CuS2)2
_symmetry_space_group_name_H-M   'P 1'
_cell_length_a   9.89167226
_cell_length_b   9.89167226
_cell_length_c   7.54513147
_cell_angle_alpha   90.00000000
_cell_angle_beta   90.00000000
_cell_angle_gamma   32.79352370
_symmetry_Int_Tables_number   1
_chemical_formula_structural   TaTl(CuS2)2
_chemical_formula_sum   'Ta2 Tl2 Cu4 S8'
_cell_volume   399.84851298
_cell_formula_units_Z   2
loop_
 _symmetry_equiv_pos_site_id
 _symmetry_equiv_pos_as_xyz
  1  'x, y, z'
loop_
 _atom_site_type_symbol
 _atom_site_label
 _atom_site_symmetry_multiplicity
 _atom_site_fract_x
 _atom_site_fract_y
 _atom_site_fract_z
 _atom_site_occupancy
  Ta  Ta0  1  0.06757371  1.14872758  0.25000000  1.0
  Ta  Ta1  1  0.85127242  0.93242629  0.75000000  1.0
  Tl  Tl2  1  0.62725467  1.01234642  0.25000000  1.0
  Tl  Tl3  1  -0.01234642  1.37274533  0.75000000  1.0
  Cu  Cu4  1  0.56456242  0.64379811  0.25000000  1.0
  Cu  Cu5  1  0.35620189  1.43543758  0.75000000  1.0
  Cu  Cu6  1  -0.02509855  0.02509855  0.50000000  1.0
  Cu  Cu7  1  -0.02509855  0.02509855  0.00000000  1.0
  S  S8  1  0.10018054  1.69346988  0.50272943  1.0
  S  S9  1  0.30653012  0.89981946  1.00272943  1.0
  S  S10  1  0.30653012  0.89981946  0.49727057  1.0
  S  S11  1  0.10018054  1.69346988  -0.00272943  1.0
  S  S12  1  -0.27004812  1.28327349  0.25000000  1.0
  S  S13  1  0.71672651  1.27004812  0.75000000  1.0
  S  S14  1  -0.08772688  1.49469442  0.25000000  1.0
  S  S15  1  0.50530558  1.08772688  0.75000000  1.0
