# generated using pymatgen
data_Fe5C2
_symmetry_space_group_name_H-M   'P 1'
_cell_length_a   6.21731941
_cell_length_b   6.21731941
_cell_length_c   4.98694997
_cell_angle_alpha   82.93362229
_cell_angle_beta   97.06637771
_cell_angle_gamma   137.48320456
_symmetry_Int_Tables_number   1
_chemical_formula_structural   Fe5C2
_chemical_formula_sum   'Fe10 C4'
_cell_volume   129.13578681
_cell_formula_units_Z   2
loop_
 _symmetry_equiv_pos_site_id
 _symmetry_equiv_pos_as_xyz
  1  'x, y, z'
loop_
 _atom_site_type_symbol
 _atom_site_label
 _atom_site_symmetry_multiplicity
 _atom_site_fract_x
 _atom_site_fract_y
 _atom_site_fract_z
 _atom_site_occupancy
  Fe  Fe0  1  1.70410701  0.13265893  0.18919605  1.0
  Fe  Fe1  1  0.86734107  -0.70410701  0.68919605  1.0
  Fe  Fe2  1  1.13265893  -0.29589299  0.31080395  1.0
  Fe  Fe3  1  1.29589299  -0.13265893  0.81080395  1.0
  Fe  Fe4  1  1.51537692  0.31899839  0.41695843  1.0
  Fe  Fe5  1  0.68100161  -0.51537692  0.91695843  1.0
  Fe  Fe6  1  1.31899839  -0.48462308  0.08304157  1.0
  Fe  Fe7  1  1.48462308  -0.31899839  0.58304157  1.0
  Fe  Fe8  1  0.93149951  0.93149951  0.25000000  1.0
  Fe  Fe9  1  0.06850049  0.06850049  0.75000000  1.0
  C  C10  1  1.70104868  -0.07274486  0.92091159  1.0
  C  C11  1  1.07274486  -0.70104868  0.42091159  1.0
  C  C12  1  0.92725514  -0.29895132  0.57908841  1.0
  C  C13  1  1.29895132  0.07274486  0.07908841  1.0
