# generated using pymatgen
data_La4Se3O4
_symmetry_space_group_name_H-M   'P 1'
_cell_length_a   6.97419060
_cell_length_b   6.97419060
_cell_length_c   8.57539972
_cell_angle_alpha   90.00000000
_cell_angle_beta   90.00000000
_cell_angle_gamma   145.60379769
_symmetry_Int_Tables_number   1
_chemical_formula_structural   La4Se3O4
_chemical_formula_sum   'La4 Se3 O4'
_cell_volume   235.62590553
_cell_formula_units_Z   1
loop_
 _symmetry_equiv_pos_site_id
 _symmetry_equiv_pos_as_xyz
  1  'x, y, z'
loop_
 _atom_site_type_symbol
 _atom_site_label
 _atom_site_symmetry_multiplicity
 _atom_site_fract_x
 _atom_site_fract_y
 _atom_site_fract_z
 _atom_site_occupancy
  La  La0  1  0.31443279  0.68556721  0.76195232  1.0
  La  La1  1  0.31443279  0.68556721  0.23804768  1.0
  La  La2  1  -0.01709462  0.01709462  0.50000000  1.0
  La  La3  1  -0.00222303  0.00222303  0.00000000  1.0
  Se  Se4  1  -0.35755329  0.35755329  0.64814206  1.0
  Se  Se5  1  -0.35755329  0.35755329  0.35185794  1.0
  Se  Se6  1  -0.31447485  0.31447485  0.00000000  1.0
  O  O7  1  -0.09068764  0.09068764  0.75565910  1.0
  O  O8  1  -0.09068764  0.09068764  0.24434090  1.0
  O  O9  1  0.38537339  0.61462661  0.50000000  1.0
  O  O10  1  0.41103539  0.58896461  0.00000000  1.0
