# generated using pymatgen
data_Rb2TiOF5
_symmetry_space_group_name_H-M   'P 1'
_cell_length_a   7.31219321
_cell_length_b   7.31219321
_cell_length_c   7.68748481
_cell_angle_alpha   90.00000000
_cell_angle_beta   90.00000000
_cell_angle_gamma   82.77781264
_symmetry_Int_Tables_number   1
_chemical_formula_structural   Rb2TiOF5
_chemical_formula_sum   'Rb4 Ti2 O2 F10'
_cell_volume   407.77462180
_cell_formula_units_Z   2
loop_
 _symmetry_equiv_pos_site_id
 _symmetry_equiv_pos_as_xyz
  1  'x, y, z'
loop_
 _atom_site_type_symbol
 _atom_site_label
 _atom_site_symmetry_multiplicity
 _atom_site_fract_x
 _atom_site_fract_y
 _atom_site_fract_z
 _atom_site_occupancy
  Rb  Rb0  1  0.53575265  0.81967805  0.75000000  1.0
  Rb  Rb1  1  -0.18032195  1.53575265  0.25000000  1.0
  Rb  Rb2  1  -0.53575265  1.18032195  0.25000000  1.0
  Rb  Rb3  1  0.18032195  0.46424735  0.75000000  1.0
  Ti  Ti4  1  0.00000000  0.00000000  0.00000000  1.0
  Ti  Ti5  1  0.00000000  0.00000000  0.50000000  1.0
  O  O6  1  0.45062816  0.54937184  0.25000000  1.0
  O  O7  1  -0.45062816  1.45062816  0.75000000  1.0
  F  F8  1  0.82837827  0.82837827  0.00000000  1.0
  F  F9  1  0.82837827  0.82837827  0.50000000  1.0
  F  F10  1  0.17162173  0.17162173  0.00000000  1.0
  F  F11  1  0.17162173  0.17162173  0.50000000  1.0
  F  F12  1  0.18552487  0.81447513  -0.05931063  1.0
  F  F13  1  -0.18552487  1.18552487  1.05931063  1.0
  F  F14  1  0.18552487  0.81447513  0.55931063  1.0
  F  F15  1  -0.18552487  1.18552487  0.44068937  1.0
  F  F16  1  -0.04998608  1.04998608  0.75000000  1.0
  F  F17  1  0.04998608  0.95001392  0.25000000  1.0
