# generated using pymatgen
data_GaAg(SO4)2
_symmetry_space_group_name_H-M   'P 1'
_cell_length_a   4.82279520
_cell_length_b   4.82279520
_cell_length_c   7.56157242
_cell_angle_alpha   91.42005190
_cell_angle_beta   88.57994810
_cell_angle_gamma   114.99042877
_symmetry_Int_Tables_number   1
_chemical_formula_structural   GaAg(SO4)2
_chemical_formula_sum   'Ga1 Ag1 S2 O8'
_cell_volume   159.34252816
_cell_formula_units_Z   1
loop_
 _symmetry_equiv_pos_site_id
 _symmetry_equiv_pos_as_xyz
  1  'x, y, z'
loop_
 _atom_site_type_symbol
 _atom_site_label
 _atom_site_symmetry_multiplicity
 _atom_site_fract_x
 _atom_site_fract_y
 _atom_site_fract_z
 _atom_site_occupancy
  Ga  Ga0  1  0.00000000  0.00000000  0.00000000  1.0
  Ag  Ag1  1  0.00000000  -0.00000000  0.50000000  1.0
  S  S2  1  0.65194120  -0.65194120  0.79262375  1.0
  S  S3  1  0.34805880  -0.34805880  0.20737625  1.0
  O  O4  1  1.30682617  0.22215738  0.81045844  1.0
  O  O5  1  0.77784262  -0.30682617  0.81045844  1.0
  O  O6  1  1.22215738  0.30682617  0.18954156  1.0
  O  O7  1  0.69317383  -0.22215738  0.18954156  1.0
  O  O8  1  0.76639557  -0.76639557  0.94323834  1.0
  O  O9  1  0.23360443  -0.23360443  0.05676166  1.0
  O  O10  1  0.73115369  -0.73115369  0.61691498  1.0
  O  O11  1  0.26884631  -0.26884631  0.38308502  1.0
