# generated using pymatgen
data_Cr5S8
_symmetry_space_group_name_H-M   'P 1'
_cell_length_a   6.55807994
_cell_length_b   6.55807994
_cell_length_c   8.06266427
_cell_angle_alpha   54.99358297
_cell_angle_beta   125.00641703
_cell_angle_gamma   116.75927737
_symmetry_Int_Tables_number   1
_chemical_formula_structural   Cr5S8
_chemical_formula_sum   'Cr5 S8'
_cell_volume   228.82021705
_cell_formula_units_Z   1
loop_
 _symmetry_equiv_pos_site_id
 _symmetry_equiv_pos_as_xyz
  1  'x, y, z'
loop_
 _atom_site_type_symbol
 _atom_site_label
 _atom_site_symmetry_multiplicity
 _atom_site_fract_x
 _atom_site_fract_y
 _atom_site_fract_z
 _atom_site_occupancy
  S  S0  1  0.54900492  -0.02156241  0.83073033  1.0
  S  S1  1  1.02156241  0.45099508  0.83073033  1.0
  S  S2  1  0.97843759  0.54900492  0.16926967  1.0
  S  S3  1  0.45099508  0.02156241  0.16926967  1.0
  S  S4  1  0.45570799  -0.45570799  0.66745257  1.0
  S  S5  1  0.54429201  0.45570799  0.33254743  1.0
  S  S6  1  0.98447155  0.01552845  0.68128216  1.0
  S  S7  1  0.01552845  -0.01552845  0.31871784  1.0
  Cr  Cr8  1  0.00000000  0.00000000  0.00000000  1.0
  Cr  Cr9  1  0.72593849  -0.72593849  0.99178854  1.0
  Cr  Cr10  1  1.27406151  -0.27406151  0.00821146  1.0
  Cr  Cr11  1  0.72673150  0.72673150  0.50000000  1.0
  Cr  Cr12  1  1.27326850  0.27326850  0.50000000  1.0
