# generated using pymatgen
data_ZnPH5CNClO3
_symmetry_space_group_name_H-M   'P 1'
_cell_length_a   4.78040682
_cell_length_b   15.92738753
_cell_length_c   8.36359446
_cell_angle_alpha   90.00000000
_cell_angle_beta   108.20265328
_cell_angle_gamma   90.00000000
_symmetry_Int_Tables_number   1
_chemical_formula_structural   ZnPH5CNClO3
_chemical_formula_sum   'Zn4 P4 H20 C4 N4 Cl4 O12'
_cell_volume   604.93203807
_cell_formula_units_Z   4
loop_
 _symmetry_equiv_pos_site_id
 _symmetry_equiv_pos_as_xyz
  1  'x, y, z'
loop_
 _atom_site_type_symbol
 _atom_site_label
 _atom_site_symmetry_multiplicity
 _atom_site_fract_x
 _atom_site_fract_y
 _atom_site_fract_z
 _atom_site_occupancy
  Zn  Zn0  1  0.42216653  0.68145982  0.32832020  1.0
  Zn  Zn1  1  0.57783347  0.18145982  0.17167980  1.0
  Zn  Zn2  1  0.57783347  0.31854018  0.67167980  1.0
  Zn  Zn3  1  0.42216653  0.81854018  0.82832020  1.0
  P  P4  1  0.06205181  0.66413050  0.58264299  1.0
  P  P5  1  0.93794819  0.16413050  0.91735701  1.0
  P  P6  1  0.93794819  0.33586950  0.41735701  1.0
  P  P7  1  0.06205181  0.83586950  0.08264299  1.0
  H  H8  1  0.97555185  0.62349648  0.91614958  1.0
  H  H9  1  0.02444815  0.12349648  0.58385042  1.0
  H  H10  1  0.02444815  0.37650352  0.08385042  1.0
  H  H11  1  0.97555185  0.87650352  0.41614958  1.0
  H  H12  1  0.63842185  0.64498387  0.78013449  1.0
  H  H13  1  0.36157815  0.14498387  0.71986551  1.0
  H  H14  1  0.36157815  0.35501613  0.21986551  1.0
  H  H15  1  0.63842185  0.85501613  0.28013449  1.0
  H  H16  1  0.72286751  0.54723068  0.85606807  1.0
  H  H17  1  0.27713249  0.04723068  0.64393193  1.0
  H  H18  1  0.27713249  0.45276932  0.14393193  1.0
  H  H19  1  0.72286751  0.95276932  0.35606807  1.0
  H  H20  1  0.09984550  0.52921826  0.72659622  1.0
  H  H21  1  0.90015450  0.02921826  0.77340378  1.0
  H  H22  1  0.90015450  0.47078174  0.27340378  1.0
  H  H23  1  0.09984550  0.97078174  0.22659622  1.0
  H  H24  1  0.74574697  0.54304127  0.57928053  1.0
  H  H25  1  0.25425303  0.04304127  0.92071946  1.0
  H  H26  1  0.25425303  0.45695873  0.42071947  1.0
  H  H27  1  0.74574697  0.95695873  0.07928053  1.0
  C  C28  1  0.92292302  0.57502116  0.67549438  1.0
  C  C29  1  0.07707698  0.07502116  0.82450562  1.0
  C  C30  1  0.07707698  0.42497884  0.32450562  1.0
  C  C31  1  0.92292302  0.92497884  0.17549438  1.0
  N  N32  1  0.80756583  0.60037497  0.81500606  1.0
  N  N33  1  0.19243417  0.10037497  0.68499394  1.0
  N  N34  1  0.19243417  0.39962503  0.18499394  1.0
  N  N35  1  0.80756583  0.89962503  0.31500606  1.0
  Cl  Cl36  1  0.43433580  0.58555301  0.12882081  1.0
  Cl  Cl37  1  0.56566420  0.08555301  0.37117919  1.0
  Cl  Cl38  1  0.56566420  0.41444699  0.87117919  1.0
  Cl  Cl39  1  0.43433580  0.91444699  0.62882081  1.0
  O  O40  1  0.21635949  0.62255191  0.46643411  1.0
  O  O41  1  0.78364051  0.12255191  0.03356589  1.0
  O  O42  1  0.78364051  0.37744809  0.53356589  1.0
  O  O43  1  0.21635949  0.87744809  0.96643411  1.0
  O  O44  1  0.28680049  0.79239051  0.23511589  1.0
  O  O45  1  0.71319951  0.29239051  0.26488411  1.0
  O  O46  1  0.71319951  0.20760949  0.76488411  1.0
  O  O47  1  0.28680049  0.70760949  0.73511589  1.0
  O  O48  1  0.80012683  0.72075498  0.49150452  1.0
  O  O49  1  0.19987317  0.22075498  0.00849548  1.0
  O  O50  1  0.19987317  0.27924502  0.50849548  1.0
  O  O51  1  0.80012683  0.77924502  0.99150452  1.0
