# generated using pymatgen
data_Li3SbS3
_symmetry_space_group_name_H-M   'P 1'
_cell_length_a   8.02868726
_cell_length_b   6.81055666
_cell_length_c   10.20209705
_cell_angle_alpha   90.00000000
_cell_angle_beta   90.00000000
_cell_angle_gamma   90.00000000
_symmetry_Int_Tables_number   1
_chemical_formula_structural   Li3SbS3
_chemical_formula_sum   'Li12 Sb4 S12'
_cell_volume   557.84892675
_cell_formula_units_Z   4
loop_
 _symmetry_equiv_pos_site_id
 _symmetry_equiv_pos_as_xyz
  1  'x, y, z'
loop_
 _atom_site_type_symbol
 _atom_site_label
 _atom_site_symmetry_multiplicity
 _atom_site_fract_x
 _atom_site_fract_y
 _atom_site_fract_z
 _atom_site_occupancy
  Li  Li0  1  0.43624767  0.54661859  0.04534166  1.0
  Li  Li1  1  0.93624767  0.95338141  0.04534166  1.0
  Li  Li2  1  0.56375233  0.45338141  0.54534166  1.0
  Li  Li3  1  0.06375233  0.04661859  0.54534166  1.0
  Li  Li4  1  0.40950712  0.84394387  0.50078357  1.0
  Li  Li5  1  0.90950712  0.65605613  0.50078357  1.0
  Li  Li6  1  0.59049288  0.15605613  1.00078357  1.0
  Li  Li7  1  0.09049288  0.34394387  1.00078357  1.0
  Li  Li8  1  0.25443679  0.87626839  0.19991913  1.0
  Li  Li9  1  0.75443679  0.62373161  0.19991913  1.0
  Li  Li10  1  0.74556321  0.12373161  0.69991913  1.0
  Li  Li11  1  0.24556321  0.37626839  0.69991913  1.0
  Sb  Sb12  1  0.26353628  0.89590553  0.81796115  1.0
  Sb  Sb13  1  0.76353628  0.60409447  0.81796115  1.0
  Sb  Sb14  1  0.73646372  0.10409447  0.31796115  1.0
  Sb  Sb15  1  0.23646372  0.39590553  0.31796115  1.0
  S  S16  1  0.46188938  0.64420267  0.30689858  1.0
  S  S17  1  0.96188938  0.85579733  0.30689858  1.0
  S  S18  1  0.53811062  0.35579733  0.80689858  1.0
  S  S19  1  0.03811062  0.14420267  0.80689858  1.0
  S  S20  1  0.17669661  0.70499223  0.62366826  1.0
  S  S21  1  0.67669661  0.79500777  0.62366826  1.0
  S  S22  1  0.82330339  0.29500777  0.12366826  1.0
  S  S23  1  0.32330339  0.20499223  0.12366826  1.0
  S  S24  1  0.15664360  0.69666971  0.00082764  1.0
  S  S25  1  0.65664360  0.80333029  0.00082764  1.0
  S  S26  1  0.84335640  0.30333029  0.50082764  1.0
  S  S27  1  0.34335640  0.19666971  0.50082764  1.0
