# generated using pymatgen
data_CsLi3I4
_symmetry_space_group_name_H-M   'P 1'
_cell_length_a   11.33995811
_cell_length_b   4.67186832
_cell_length_c   11.60222036
_cell_angle_alpha   90.00000000
_cell_angle_beta   85.68385936
_cell_angle_gamma   90.00000000
_symmetry_Int_Tables_number   1
_chemical_formula_structural   CsLi3I4
_chemical_formula_sum   'Cs2 Li6 I8'
_cell_volume   612.92838183
_cell_formula_units_Z   2
loop_
 _symmetry_equiv_pos_site_id
 _symmetry_equiv_pos_as_xyz
  1  'x, y, z'
loop_
 _atom_site_type_symbol
 _atom_site_label
 _atom_site_symmetry_multiplicity
 _atom_site_fract_x
 _atom_site_fract_y
 _atom_site_fract_z
 _atom_site_occupancy
  Cs  Cs0  1  0.86076681  0.50000000  0.15418388  1.0
  Cs  Cs1  1  0.39508488  0.50000000  0.29750671  1.0
  Li  Li2  1  0.92799974  0.50000000  0.76525402  1.0
  Li  Li3  1  0.54277869  0.50000000  0.94206952  1.0
  Li  Li4  1  0.64504071  0.00000000  0.61370139  1.0
  Li  Li5  1  1.01202675  0.00000000  0.44639062  1.0
  Li  Li6  1  0.29597074  0.50000000  0.66350652  1.0
  Li  Li7  1  0.18591772  0.00000000  0.98253068  1.0
  I  I8  1  0.57936230  0.00000000  0.07425344  1.0
  I  I9  1  0.68604509  0.50000000  0.73887399  1.0
  I  I10  1  0.07680467  0.50000000  0.56328885  1.0
  I  I11  1  0.30187750  0.50000000  0.90400637  1.0
  I  I12  1  0.96862526  0.00000000  0.89032425  1.0
  I  I13  1  0.77789980  0.00000000  0.40818491  1.0
  I  I14  1  0.13871995  0.00000000  0.22353071  1.0
  I  I15  1  0.40513940  0.00000000  0.57063413  1.0
