# generated using pymatgen
data_Rb3NbS4
_symmetry_space_group_name_H-M   'P 1'
_cell_length_a   9.69627425
_cell_length_b   11.27815664
_cell_length_c   9.86699218
_cell_angle_alpha   90.00000000
_cell_angle_beta   90.00000000
_cell_angle_gamma   90.00000000
_symmetry_Int_Tables_number   1
_chemical_formula_structural   Rb3NbS4
_chemical_formula_sum   'Rb12 Nb4 S16'
_cell_volume   1079.01578244
_cell_formula_units_Z   4
loop_
 _symmetry_equiv_pos_site_id
 _symmetry_equiv_pos_as_xyz
  1  'x, y, z'
loop_
 _atom_site_type_symbol
 _atom_site_label
 _atom_site_symmetry_multiplicity
 _atom_site_fract_x
 _atom_site_fract_y
 _atom_site_fract_z
 _atom_site_occupancy
  Rb  Rb0  1  0.44530322  0.95609189  0.78865126  1.0
  Rb  Rb1  1  0.44530322  0.54390811  0.78865126  1.0
  Rb  Rb2  1  0.94530322  0.95609189  0.71134874  1.0
  Rb  Rb3  1  0.94530322  0.54390811  0.71134874  1.0
  Rb  Rb4  1  0.55469678  0.45609189  0.21134874  1.0
  Rb  Rb5  1  0.55469678  0.04390811  0.21134874  1.0
  Rb  Rb6  1  0.05469678  0.45609189  0.28865126  1.0
  Rb  Rb7  1  0.05469678  0.04390811  0.28865126  1.0
  Rb  Rb8  1  0.13969018  0.75000000  0.07662490  1.0
  Rb  Rb9  1  0.63969018  0.75000000  0.42337510  1.0
  Rb  Rb10  1  0.86030982  0.25000000  0.92337510  1.0
  Rb  Rb11  1  0.36030982  0.25000000  0.57662490  1.0
  Nb  Nb12  1  0.21765386  0.75000000  0.51300657  1.0
  Nb  Nb13  1  0.71765386  0.75000000  0.98699343  1.0
  Nb  Nb14  1  0.78234614  0.25000000  0.48699343  1.0
  Nb  Nb15  1  0.28234614  0.25000000  0.01300657  1.0
  S  S16  1  0.16666024  0.41764894  0.94965378  1.0
  S  S17  1  0.16666024  0.08235106  0.94965378  1.0
  S  S18  1  0.66666024  0.41764894  0.55034622  1.0
  S  S19  1  0.66666024  0.08235106  0.55034622  1.0
  S  S20  1  0.83333976  0.91764894  0.05034622  1.0
  S  S21  1  0.83333976  0.58235106  0.05034622  1.0
  S  S22  1  0.33333976  0.91764894  0.44965378  1.0
  S  S23  1  0.33333976  0.58235106  0.44965378  1.0
  S  S24  1  0.50149385  0.75000000  0.08138186  1.0
  S  S25  1  0.00149385  0.75000000  0.41861814  1.0
  S  S26  1  0.49850615  0.25000000  0.91861814  1.0
  S  S27  1  0.99850615  0.25000000  0.58138186  1.0
  S  S28  1  0.19697466  0.75000000  0.74443052  1.0
  S  S29  1  0.69697466  0.75000000  0.75556948  1.0
  S  S30  1  0.80302534  0.25000000  0.25556948  1.0
  S  S31  1  0.30302534  0.25000000  0.24443052  1.0
