# generated using pymatgen
data_La2Ge5Ru3
_symmetry_space_group_name_H-M   'P 1'
_cell_length_a   8.60903016
_cell_length_b   8.60903016
_cell_length_c   8.60903016
_cell_angle_alpha   108.29926872
_cell_angle_beta   85.69385225
_cell_angle_gamma   139.56174330
_symmetry_Int_Tables_number   1
_chemical_formula_structural   La2Ge5Ru3
_chemical_formula_sum   'La4 Ge10 Ru6'
_cell_volume   378.76574536
_cell_formula_units_Z   2
loop_
 _symmetry_equiv_pos_site_id
 _symmetry_equiv_pos_as_xyz
  1  'x, y, z'
loop_
 _atom_site_type_symbol
 _atom_site_label
 _atom_site_symmetry_multiplicity
 _atom_site_fract_x
 _atom_site_fract_y
 _atom_site_fract_z
 _atom_site_occupancy
  La  La0  1  0.63651674  0.73072424  0.36724098  1.0
  La  La1  1  0.86348326  0.23072424  1.09420749  1.0
  La  La2  1  0.13651674  0.76927576  0.90579251  1.0
  La  La3  1  1.36348326  1.26927576  1.63275902  1.0
  Ge  Ge4  1  0.90883413  0.66886974  1.57770387  1.0
  Ge  Ge5  1  0.59116587  1.16886974  0.76003561  1.0
  Ge  Ge6  1  1.40883413  0.83113026  1.23996439  1.0
  Ge  Ge7  1  0.09116587  0.33113026  0.42229613  1.0
  Ge  Ge8  1  0.46077915  0.75000000  0.71077915  1.0
  Ge  Ge9  1  0.96077915  1.25000000  0.71077915  1.0
  Ge  Ge10  1  1.53922085  1.25000000  1.28922085  1.0
  Ge  Ge11  1  1.03922085  0.75000000  1.28922085  1.0
  Ge  Ge12  1  0.75000000  0.75000000  -0.00000000  1.0
  Ge  Ge13  1  0.25000000  0.25000000  0.00000000  1.0
  Ru  Ru14  1  0.85450926  0.90620306  0.76071231  1.0
  Ru  Ru15  1  0.64549074  0.40620306  1.05169380  1.0
  Ru  Ru16  1  0.35450926  0.59379694  0.94830620  1.0
  Ru  Ru17  1  1.14549074  1.09379694  1.23928769  1.0
  Ru  Ru18  1  0.75000000  1.25000000  0.50000000  1.0
  Ru  Ru19  1  0.25000000  0.75000000  0.50000000  1.0
