# generated using pymatgen
data_K3In2As3
_symmetry_space_group_name_H-M   'P 1'
_cell_length_a   10.62638398
_cell_length_b   10.62638398
_cell_length_c   15.03536224
_cell_angle_alpha   90.00000000
_cell_angle_beta   90.00000000
_cell_angle_gamma   37.78969615
_symmetry_Int_Tables_number   1
_chemical_formula_structural   K3In2As3
_chemical_formula_sum   'K12 In8 As12'
_cell_volume   1040.34843432
_cell_formula_units_Z   4
loop_
 _symmetry_equiv_pos_site_id
 _symmetry_equiv_pos_as_xyz
  1  'x, y, z'
loop_
 _atom_site_type_symbol
 _atom_site_label
 _atom_site_symmetry_multiplicity
 _atom_site_fract_x
 _atom_site_fract_y
 _atom_site_fract_z
 _atom_site_occupancy
  K  K0  1  0.11164271  0.57324363  0.82463944  1.0
  K  K1  1  -0.38835729  1.07324363  0.67536056  1.0
  K  K2  1  -0.42675637  1.11164271  0.17536056  1.0
  K  K3  1  0.07324363  0.61164271  0.32463944  1.0
  K  K4  1  -0.57324363  0.88835729  0.82463944  1.0
  K  K5  1  -0.07324363  0.38835729  0.67536056  1.0
  K  K6  1  -0.11164271  0.42675637  0.17536056  1.0
  K  K7  1  -0.61164271  0.92675637  0.32463944  1.0
  K  K8  1  -0.84895585  0.84895585  0.63825123  1.0
  K  K9  1  -0.34895585  0.34895585  0.86174877  1.0
  K  K10  1  -0.15104415  0.15104415  0.36174877  1.0
  K  K11  1  -0.65104415  0.65104415  0.13825123  1.0
  In  In12  1  -0.08319138  0.91680862  0.00000000  1.0
  In  In13  1  0.41680862  0.41680862  0.50000000  1.0
  In  In14  1  0.08319138  0.08319138  0.00000000  1.0
  In  In15  1  -0.41680862  0.58319138  0.50000000  1.0
  In  In16  1  -0.26085390  0.73914610  0.00000000  1.0
  In  In17  1  0.23914610  0.23914610  0.50000000  1.0
  In  In18  1  0.26085390  0.26085390  0.00000000  1.0
  In  In19  1  -0.23914610  0.76085390  0.50000000  1.0
  As  As20  1  -0.05102759  0.39939969  0.90201556  1.0
  As  As21  1  -0.55102759  0.89939969  0.59798444  1.0
  As  As22  1  -0.60060031  0.94897241  0.09798444  1.0
  As  As23  1  -0.10060031  0.44897241  0.40201556  1.0
  As  As24  1  -0.39939969  1.05102759  0.90201556  1.0
  As  As25  1  0.10060031  0.55102759  0.59798444  1.0
  As  As26  1  0.05102759  0.60060031  0.09798444  1.0
  As  As27  1  -0.44897241  1.10060031  0.40201556  1.0
  As  As28  1  -0.83920705  0.83920705  0.88042546  1.0
  As  As29  1  -0.33920705  0.33920705  0.61957454  1.0
  As  As30  1  -0.16079295  0.16079295  0.11957454  1.0
  As  As31  1  -0.66079295  0.66079295  0.38042546  1.0
