# generated using pymatgen
data_Y12(MnC3)5
_symmetry_space_group_name_H-M   'P 1'
_cell_length_a   10.46564438
_cell_length_b   10.46564438
_cell_length_c   5.05007447
_cell_angle_alpha   90.00000000
_cell_angle_beta   90.00000000
_cell_angle_gamma   120.00000000
_symmetry_Int_Tables_number   1
_chemical_formula_structural   Y12(MnC3)5
_chemical_formula_sum   'Y12 Mn5 C15'
_cell_volume   479.02740612
_cell_formula_units_Z   1
loop_
 _symmetry_equiv_pos_site_id
 _symmetry_equiv_pos_as_xyz
  1  'x, y, z'
loop_
 _atom_site_type_symbol
 _atom_site_label
 _atom_site_symmetry_multiplicity
 _atom_site_fract_x
 _atom_site_fract_y
 _atom_site_fract_z
 _atom_site_occupancy
  Y  Y0  1  0.18594508  0.73105795  0.00000000  1.0
  Y  Y1  1  0.73105795  0.18594508  0.00000000  1.0
  Y  Y2  1  0.54511287  0.81405492  0.00000000  1.0
  Y  Y3  1  0.26894205  0.45488713  0.00000000  1.0
  Y  Y4  1  0.81405492  0.54511287  0.00000000  1.0
  Y  Y5  1  0.45488713  0.26894205  0.00000000  1.0
  Y  Y6  1  0.56934176  0.56934176  0.50000000  1.0
  Y  Y7  1  0.00000000  0.43065824  0.50000000  1.0
  Y  Y8  1  0.43065824  0.00000000  0.50000000  1.0
  Y  Y9  1  0.20606865  0.20606865  0.50000000  1.0
  Y  Y10  1  -0.00000000  0.79393135  0.50000000  1.0
  Y  Y11  1  0.79393135  0.00000000  0.50000000  1.0
  C  C12  1  0.19492255  0.71767460  0.50000000  1.0
  C  C13  1  0.71767460  0.19492255  0.50000000  1.0
  C  C14  1  0.52275205  0.80507745  0.50000000  1.0
  C  C15  1  0.28232540  0.47724795  0.50000000  1.0
  C  C16  1  0.80507745  0.52275205  0.50000000  1.0
  C  C17  1  0.47724795  0.28232540  0.50000000  1.0
  C  C18  1  0.67567358  0.67567358  0.00000000  1.0
  C  C19  1  -0.00000000  0.32432642  0.00000000  1.0
  C  C20  1  0.32432642  0.00000000  0.00000000  1.0
  C  C21  1  0.54604067  0.54604067  0.00000000  1.0
  C  C22  1  -0.00000000  0.45395933  0.00000000  1.0
  C  C23  1  0.45395933  0.00000000  0.00000000  1.0
  C  C24  1  0.20012378  0.20012378  0.00000000  1.0
  C  C25  1  -0.00000000  0.79987622  0.00000000  1.0
  C  C26  1  0.79987622  0.00000000  0.00000000  1.0
  Mn  Mn27  1  0.84664106  0.84664106  0.00000000  1.0
  Mn  Mn28  1  -0.00000000  0.15335894  0.00000000  1.0
  Mn  Mn29  1  0.15335894  0.00000000  0.00000000  1.0
  Mn  Mn30  1  0.33333333  0.66666667  0.50000000  1.0
  Mn  Mn31  1  0.66666667  0.33333333  0.50000000  1.0
