# generated using pymatgen
data_ScN
_symmetry_space_group_name_H-M   'P 1'
_cell_length_a   3.72706081
_cell_length_b   3.72706081
_cell_length_c   4.50292209
_cell_angle_alpha   90.00000000
_cell_angle_beta   90.00000000
_cell_angle_gamma   120.00000000
_symmetry_Int_Tables_number   1
_chemical_formula_structural   ScN
_chemical_formula_sum   'Sc2 N2'
_cell_volume   54.16989832
_cell_formula_units_Z   2
loop_
 _symmetry_equiv_pos_site_id
 _symmetry_equiv_pos_as_xyz
  1  'x, y, z'
loop_
 _atom_site_type_symbol
 _atom_site_label
 _atom_site_symmetry_multiplicity
 _atom_site_fract_x
 _atom_site_fract_y
 _atom_site_fract_z
 _atom_site_occupancy
  Sc  Sc0  1  0.66666667  0.33333333  0.43749555  1.0
  Sc  Sc1  1  0.33333333  0.66666667  -0.06250445  1.0
  N  N2  1  0.66666667  0.33333333  0.93750445  1.0
  N  N3  1  0.33333333  0.66666667  0.43750445  1.0
