# generated using pymatgen
data_Ba3In2O6
_symmetry_space_group_name_H-M   'P 1'
_cell_length_a   11.34606472
_cell_length_b   11.34606472
_cell_length_c   11.34606472
_cell_angle_alpha   158.40520088
_cell_angle_beta   158.40520088
_cell_angle_gamma   30.72607970
_symmetry_Int_Tables_number   1
_chemical_formula_structural   Ba3In2O6
_chemical_formula_sum   'Ba3 In2 O6'
_cell_volume   197.71459233
_cell_formula_units_Z   1
loop_
 _symmetry_equiv_pos_site_id
 _symmetry_equiv_pos_as_xyz
  1  'x, y, z'
loop_
 _atom_site_type_symbol
 _atom_site_label
 _atom_site_symmetry_multiplicity
 _atom_site_fract_x
 _atom_site_fract_y
 _atom_site_fract_z
 _atom_site_occupancy
  Ba  Ba0  1  0.81688209  0.81688209  1.00000000  1.0
  Ba  Ba1  1  0.18311791  0.18311791  -0.00000000  1.0
  Ba  Ba2  1  0.00000000  0.00000000  0.00000000  1.0
  In  In3  1  0.60283565  0.60283565  1.00000000  1.0
  In  In4  1  0.39716435  0.39716435  -0.00000000  1.0
  O  O5  1  0.41622591  0.91622591  0.50000000  1.0
  O  O6  1  0.58377409  0.08377409  0.50000000  1.0
  O  O7  1  0.91622591  0.41622591  0.50000000  1.0
  O  O8  1  0.08377409  0.58377409  0.50000000  1.0
  O  O9  1  0.69903472  0.69903472  1.00000000  1.0
  O  O10  1  0.30096528  0.30096528  -0.00000000  1.0
