# generated using pymatgen
data_Gd6Cd23Pb
_symmetry_space_group_name_H-M   'P 1'
_cell_length_a   10.06205728
_cell_length_b   10.06205728
_cell_length_c   10.06205728
_cell_angle_alpha   60.00000000
_cell_angle_beta   60.00000000
_cell_angle_gamma   60.00000000
_symmetry_Int_Tables_number   1
_chemical_formula_structural   Gd6Cd23Pb
_chemical_formula_sum   'Gd6 Cd23 Pb1'
_cell_volume   720.35298068
_cell_formula_units_Z   1
loop_
 _symmetry_equiv_pos_site_id
 _symmetry_equiv_pos_as_xyz
  1  'x, y, z'
loop_
 _atom_site_type_symbol
 _atom_site_label
 _atom_site_symmetry_multiplicity
 _atom_site_fract_x
 _atom_site_fract_y
 _atom_site_fract_z
 _atom_site_occupancy
  Gd  Gd0  1  0.72795592  0.72795592  -0.72795592  1.0
  Gd  Gd1  1  0.27204408  -0.27204408  1.27204408  1.0
  Gd  Gd2  1  -0.27204408  0.27204408  0.27204408  1.0
  Gd  Gd3  1  0.27204408  1.27204408  -0.27204408  1.0
  Gd  Gd4  1  -0.27204408  0.27204408  0.72795592  1.0
  Gd  Gd5  1  -0.72795592  0.72795592  0.72795592  1.0
  Cd  Cd6  1  0.65151434  0.65151434  1.04545697  1.0
  Cd  Cd7  1  0.65151434  1.04545697  -0.34848566  1.0
  Cd  Cd8  1  1.04545697  0.65151434  0.65151434  1.0
  Cd  Cd9  1  0.65151434  0.65151434  -0.34848566  1.0
  Cd  Cd10  1  0.34848566  1.34848566  -0.04545697  1.0
  Cd  Cd11  1  1.34848566  -0.04545697  0.34848566  1.0
  Cd  Cd12  1  -0.04545697  1.34848566  0.34848566  1.0
  Cd  Cd13  1  1.34848566  0.34848566  0.34848566  1.0
  Cd  Cd14  1  0.87326083  0.87326083  -0.61978248  1.0
  Cd  Cd15  1  0.87326083  0.38021752  -0.12673917  1.0
  Cd  Cd16  1  0.38021752  0.87326083  -0.12673917  1.0
  Cd  Cd17  1  0.87326083  0.87326083  -0.12673917  1.0
  Cd  Cd18  1  1.12673917  0.12673917  0.61978248  1.0
  Cd  Cd19  1  1.12673917  0.61978248  0.12673917  1.0
  Cd  Cd20  1  1.61978248  0.12673917  0.12673917  1.0
  Cd  Cd21  1  1.12673917  0.12673917  0.12673917  1.0
  Cd  Cd22  1  0.00000000  0.00000000  0.50000000  1.0
  Cd  Cd23  1  0.50000000  1.00000000  -0.50000000  1.0
  Cd  Cd24  1  1.00000000  0.50000000  -0.50000000  1.0
  Cd  Cd25  1  0.50000000  -0.50000000  1.00000000  1.0
  Cd  Cd26  1  0.00000000  1.50000000  -0.00000000  1.0
  Cd  Cd27  1  1.50000000  0.00000000  -0.00000000  1.0
  Cd  Cd28  1  0.00000000  -0.00000000  -0.00000000  1.0
  Pb  Pb29  1  -0.50000000  0.50000000  0.50000000  1.0
