# generated using pymatgen
data_Sr2(ZnAu2)3
_symmetry_space_group_name_H-M   'P 1'
_cell_length_a   8.83633499
_cell_length_b   8.83633499
_cell_length_c   8.83633499
_cell_angle_alpha   57.65441211
_cell_angle_beta   57.65441211
_cell_angle_gamma   57.65441211
_symmetry_Int_Tables_number   1
_chemical_formula_structural   Sr2(ZnAu2)3
_chemical_formula_sum   'Sr4 Zn6 Au12'
_cell_volume   461.56911287
_cell_formula_units_Z   2
loop_
 _symmetry_equiv_pos_site_id
 _symmetry_equiv_pos_as_xyz
  1  'x, y, z'
loop_
 _atom_site_type_symbol
 _atom_site_label
 _atom_site_symmetry_multiplicity
 _atom_site_fract_x
 _atom_site_fract_y
 _atom_site_fract_z
 _atom_site_occupancy
  Sr  Sr0  1  0.90733504  -0.09266496  -0.09266496  1.0
  Sr  Sr1  1  0.40733504  0.40733504  0.40733504  1.0
  Sr  Sr2  1  0.59266496  0.59266496  -0.40733504  1.0
  Sr  Sr3  1  1.09266496  0.09266496  0.09266496  1.0
  Zn  Zn4  1  0.56120195  0.75000000  -0.06120195  1.0
  Zn  Zn5  1  1.06120195  -0.56120195  0.25000000  1.0
  Zn  Zn6  1  0.25000000  1.06120195  -0.56120195  1.0
  Zn  Zn7  1  0.75000000  0.93879805  -0.43879805  1.0
  Zn  Zn8  1  0.43879805  0.25000000  0.06120195  1.0
  Zn  Zn9  1  0.93879805  0.56120195  -0.25000000  1.0
  Au  Au10  1  0.63791309  0.02038492  0.29339915  1.0
  Au  Au11  1  1.13791309  0.79339915  -0.47961508  1.0
  Au  Au12  1  0.20660085  0.47961508  -0.13791309  1.0
  Au  Au13  1  0.70660085  0.36208691  -0.02038492  1.0
  Au  Au14  1  0.97961508  0.70660085  -0.63791309  1.0
  Au  Au15  1  0.47961508  0.86208691  -0.79339915  1.0
  Au  Au16  1  0.36208691  0.97961508  -0.29339915  1.0
  Au  Au17  1  0.86208691  0.20660085  -0.52038492  1.0
  Au  Au18  1  1.29339915  -0.36208691  0.02038492  1.0
  Au  Au19  1  0.79339915  0.52038492  0.13791309  1.0
  Au  Au20  1  0.52038492  1.13791309  -0.20660085  1.0
  Au  Au21  1  1.02038492  0.29339915  -0.36208691  1.0
