# generated using pymatgen
data_Zr3(FeSn)4
_symmetry_space_group_name_H-M   'P 1'
_cell_length_a   8.20374977
_cell_length_b   8.92987064
_cell_length_c   10.76208436
_cell_angle_alpha   90.00000000
_cell_angle_beta   90.00000000
_cell_angle_gamma   90.00000000
_symmetry_Int_Tables_number   1
_chemical_formula_structural   Zr3(FeSn)4
_chemical_formula_sum   'Zr12 Fe16 Sn16'
_cell_volume   788.41334175
_cell_formula_units_Z   4
loop_
 _symmetry_equiv_pos_site_id
 _symmetry_equiv_pos_as_xyz
  1  'x, y, z'
loop_
 _atom_site_type_symbol
 _atom_site_label
 _atom_site_symmetry_multiplicity
 _atom_site_fract_x
 _atom_site_fract_y
 _atom_site_fract_z
 _atom_site_occupancy
  Zr  Zr0  1  0.44548169  0.44969175  0.63506897  1.0
  Zr  Zr1  1  0.44548169  0.05030825  0.63506897  1.0
  Zr  Zr2  1  0.94548169  0.44969175  0.86493103  1.0
  Zr  Zr3  1  0.94548169  0.05030825  0.86493103  1.0
  Zr  Zr4  1  0.55451831  0.94969175  0.36493103  1.0
  Zr  Zr5  1  0.55451831  0.55030825  0.36493103  1.0
  Zr  Zr6  1  0.05451831  0.94969175  0.13506897  1.0
  Zr  Zr7  1  0.05451831  0.55030825  0.13506897  1.0
  Zr  Zr8  1  0.44416231  0.75000000  0.05241689  1.0
  Zr  Zr9  1  0.94416231  0.75000000  0.44758311  1.0
  Zr  Zr10  1  0.55583769  0.25000000  0.94758311  1.0
  Zr  Zr11  1  0.05583769  0.25000000  0.55241689  1.0
  Fe  Fe12  1  0.29443228  0.99260703  0.90382698  1.0
  Fe  Fe13  1  0.29443228  0.50739297  0.90382698  1.0
  Fe  Fe14  1  0.79443228  0.99260703  0.59617302  1.0
  Fe  Fe15  1  0.79443228  0.50739297  0.59617302  1.0
  Fe  Fe16  1  0.70556772  0.49260703  0.09617302  1.0
  Fe  Fe17  1  0.70556772  0.00739297  0.09617302  1.0
  Fe  Fe18  1  0.20556772  0.49260703  0.40382698  1.0
  Fe  Fe19  1  0.20556772  0.00739297  0.40382698  1.0
  Fe  Fe20  1  0.36380613  0.75000000  0.76501840  1.0
  Fe  Fe21  1  0.86380613  0.75000000  0.73498160  1.0
  Fe  Fe22  1  0.63619387  0.25000000  0.23498160  1.0
  Fe  Fe23  1  0.13619387  0.25000000  0.26501840  1.0
  Fe  Fe24  1  0.30751597  0.75000000  0.52356943  1.0
  Fe  Fe25  1  0.80751597  0.75000000  0.97643057  1.0
  Fe  Fe26  1  0.69248403  0.25000000  0.47643057  1.0
  Fe  Fe27  1  0.19248403  0.25000000  0.02356943  1.0
  Sn  Sn28  1  0.11241181  0.92963866  0.64472883  1.0
  Sn  Sn29  1  0.11241181  0.57036134  0.64472883  1.0
  Sn  Sn30  1  0.61241181  0.92963866  0.85527117  1.0
  Sn  Sn31  1  0.61241181  0.57036134  0.85527117  1.0
  Sn  Sn32  1  0.88758819  0.42963866  0.35527117  1.0
  Sn  Sn33  1  0.88758819  0.07036134  0.35527117  1.0
  Sn  Sn34  1  0.38758819  0.42963866  0.14472883  1.0
  Sn  Sn35  1  0.38758819  0.07036134  0.14472883  1.0
  Sn  Sn36  1  0.26251908  0.75000000  0.28967151  1.0
  Sn  Sn37  1  0.76251908  0.75000000  0.21032849  1.0
  Sn  Sn38  1  0.73748092  0.25000000  0.71032849  1.0
  Sn  Sn39  1  0.23748092  0.25000000  0.78967151  1.0
  Sn  Sn40  1  0.11099229  0.75000000  0.91760226  1.0
  Sn  Sn41  1  0.61099229  0.75000000  0.58239774  1.0
  Sn  Sn42  1  0.88900771  0.25000000  0.08239774  1.0
  Sn  Sn43  1  0.38900771  0.25000000  0.41760226  1.0
