# generated using pymatgen
data_AgCNO
_symmetry_space_group_name_H-M   'P 1'
_cell_length_a   3.57200634
_cell_length_b   6.38113649
_cell_length_c   5.56348339
_cell_angle_alpha   90.00000000
_cell_angle_beta   90.00000000
_cell_angle_gamma   90.00000000
_symmetry_Int_Tables_number   1
_chemical_formula_structural   AgCNO
_chemical_formula_sum   'Ag2 C2 N2 O2'
_cell_volume   126.81103605
_cell_formula_units_Z   2
loop_
 _symmetry_equiv_pos_site_id
 _symmetry_equiv_pos_as_xyz
  1  'x, y, z'
loop_
 _atom_site_type_symbol
 _atom_site_label
 _atom_site_symmetry_multiplicity
 _atom_site_fract_x
 _atom_site_fract_y
 _atom_site_fract_z
 _atom_site_occupancy
  Ag  Ag0  1  0.50000000  0.00000000  0.60214287  1.0
  Ag  Ag1  1  0.00000000  0.50000000  0.39785713  1.0
  C  C2  1  0.00000000  0.00000000  0.83318565  1.0
  C  C3  1  0.50000000  0.50000000  0.16681435  1.0
  N  N4  1  0.00000000  0.00000000  0.04690454  1.0
  N  N5  1  0.50000000  0.50000000  0.95309546  1.0
  O  O6  1  0.00000000  0.00000000  0.27075499  1.0
  O  O7  1  0.50000000  0.50000000  0.72924501  1.0
