# generated using pymatgen
data_Sr3TaGa3(SiO7)2
_symmetry_space_group_name_H-M   'P 1'
_cell_length_a   8.39825609
_cell_length_b   8.39825609
_cell_length_c   5.12218431
_cell_angle_alpha   90.00000000
_cell_angle_beta   90.00000000
_cell_angle_gamma   120.00000000
_symmetry_Int_Tables_number   1
_chemical_formula_structural   Sr3TaGa3(SiO7)2
_chemical_formula_sum   'Sr3 Ta1 Ga3 Si2 O14'
_cell_volume   312.87009939
_cell_formula_units_Z   1
loop_
 _symmetry_equiv_pos_site_id
 _symmetry_equiv_pos_as_xyz
  1  'x, y, z'
loop_
 _atom_site_type_symbol
 _atom_site_label
 _atom_site_symmetry_multiplicity
 _atom_site_fract_x
 _atom_site_fract_y
 _atom_site_fract_z
 _atom_site_occupancy
  Sr  Sr0  1  0.42615463  0.42615463  0.00000000  1.0
  Sr  Sr1  1  0.00000000  0.57384537  -0.00000000  1.0
  Sr  Sr2  1  0.57384537  -0.00000000  0.00000000  1.0
  Ta  Ta3  1  0.00000000  -0.00000000  0.00000000  1.0
  Ga  Ga4  1  0.74453696  0.74453696  0.50000000  1.0
  Ga  Ga5  1  0.00000000  0.25546304  0.50000000  1.0
  Ga  Ga6  1  0.25546304  0.00000000  0.50000000  1.0
  Si  Si7  1  0.33333333  0.66666667  0.53597379  1.0
  Si  Si8  1  0.66666667  0.33333333  0.46402621  1.0
  O  O9  1  0.09525575  0.87367766  0.22991558  1.0
  O  O10  1  0.87367766  0.09525575  0.77008442  1.0
  O  O11  1  0.77842191  0.90474425  0.22991558  1.0
  O  O12  1  0.12632234  0.22157809  0.22991558  1.0
  O  O13  1  0.90474425  0.77842191  0.77008442  1.0
  O  O14  1  0.22157809  0.12632234  0.77008442  1.0
  O  O15  1  0.68951939  0.52402780  0.32871776  1.0
  O  O16  1  0.52402780  0.68951939  0.67128224  1.0
  O  O17  1  0.83450841  0.31048061  0.32871776  1.0
  O  O18  1  0.47597220  0.16549159  0.32871776  1.0
  O  O19  1  0.31048061  0.83450841  0.67128224  1.0
  O  O20  1  0.16549159  0.47597220  0.67128224  1.0
  O  O21  1  0.33333333  0.66666667  0.22156502  1.0
  O  O22  1  0.66666667  0.33333333  0.77843498  1.0
