# generated using pymatgen
data_RbNa2NiO2
_symmetry_space_group_name_H-M   'P 1'
_cell_length_a   5.83421700
_cell_length_b   5.83421700
_cell_length_c   5.83421700
_cell_angle_alpha   132.42881762
_cell_angle_beta   132.42881762
_cell_angle_gamma   69.55259347
_symmetry_Int_Tables_number   1
_chemical_formula_structural   RbNa2NiO2
_chemical_formula_sum   'Rb1 Na2 Ni1 O2'
_cell_volume   106.13137173
_cell_formula_units_Z   1
loop_
 _symmetry_equiv_pos_site_id
 _symmetry_equiv_pos_as_xyz
  1  'x, y, z'
loop_
 _atom_site_type_symbol
 _atom_site_label
 _atom_site_symmetry_multiplicity
 _atom_site_fract_x
 _atom_site_fract_y
 _atom_site_fract_z
 _atom_site_occupancy
  Rb  Rb0  1  0.50000000  0.50000000  1.00000000  1.0
  Na  Na1  1  0.25000000  0.75000000  0.50000000  1.0
  Na  Na2  1  0.75000000  0.25000000  0.50000000  1.0
  Ni  Ni3  1  0.00000000  0.00000000  0.00000000  1.0
  O  O4  1  0.81485619  0.81485619  1.00000000  1.0
  O  O5  1  0.18514381  0.18514381  -0.00000000  1.0
