# generated using pymatgen
data_Zr6BI12
_symmetry_space_group_name_H-M   'P 1'
_cell_length_a   9.30511077
_cell_length_b   9.30511077
_cell_length_c   9.30511077
_cell_angle_alpha   106.83582846
_cell_angle_beta   106.83582846
_cell_angle_gamma   106.83582846
_symmetry_Int_Tables_number   1
_chemical_formula_structural   Zr6BI12
_chemical_formula_sum   'Zr6 B1 I12'
_cell_volume   673.96355012
_cell_formula_units_Z   1
loop_
 _symmetry_equiv_pos_site_id
 _symmetry_equiv_pos_as_xyz
  1  'x, y, z'
loop_
 _atom_site_type_symbol
 _atom_site_label
 _atom_site_symmetry_multiplicity
 _atom_site_fract_x
 _atom_site_fract_y
 _atom_site_fract_z
 _atom_site_occupancy
  Zr  Zr0  1  0.27051668  0.08791872  0.02575561  1.0
  Zr  Zr1  1  1.02575561  -0.72948332  0.08791872  1.0
  Zr  Zr2  1  1.08791872  0.02575561  -0.72948332  1.0
  Zr  Zr3  1  1.72948332  0.91208128  -0.02575561  1.0
  Zr  Zr4  1  0.97424439  1.72948332  -0.08791872  1.0
  Zr  Zr5  1  0.91208128  0.97424439  0.72948332  1.0
  B  B6  1  0.00000000  0.00000000  0.00000000  1.0
  I  I7  1  0.36413522  0.43865059  0.14013527  1.0
  I  I8  1  1.14013527  0.36413522  -0.56134941  1.0
  I  I9  1  0.43865059  1.14013527  -0.63586478  1.0
  I  I10  1  1.63586478  0.56134941  -0.14013527  1.0
  I  I11  1  0.85986473  0.63586478  0.56134941  1.0
  I  I12  1  1.56134941  -0.14013527  0.63586478  1.0
  I  I13  1  0.22406391  0.07865953  -0.30706755  1.0
  I  I14  1  0.69293245  0.22406391  -0.92134047  1.0
  I  I15  1  0.07865953  0.69293245  -0.77593609  1.0
  I  I16  1  1.77593609  0.92134047  0.30706755  1.0
  I  I17  1  1.30706755  0.77593609  0.92134047  1.0
  I  I18  1  1.92134047  0.30706755  0.77593609  1.0
