# generated using pymatgen
data_CaBe2(PO4)2
_symmetry_space_group_name_H-M   'P 1'
_cell_length_a   7.88257211
_cell_length_b   8.88169479
_cell_length_c   8.43711826
_cell_angle_alpha   90.00000000
_cell_angle_beta   90.45142343
_cell_angle_gamma   90.00000000
_symmetry_Int_Tables_number   1
_chemical_formula_structural   CaBe2(PO4)2
_chemical_formula_sum   'Ca4 Be8 P8 O32'
_cell_volume   590.66937484
_cell_formula_units_Z   4
loop_
 _symmetry_equiv_pos_site_id
 _symmetry_equiv_pos_as_xyz
  1  'x, y, z'
loop_
 _atom_site_type_symbol
 _atom_site_label
 _atom_site_symmetry_multiplicity
 _atom_site_fract_x
 _atom_site_fract_y
 _atom_site_fract_z
 _atom_site_occupancy
  Ca  Ca0  1  0.74399089  0.08500405  0.38686784  1.0
  Ca  Ca1  1  0.74399089  0.41499595  0.88686784  1.0
  Ca  Ca2  1  0.25600911  0.58500405  0.11313216  1.0
  Ca  Ca3  1  0.25600911  0.91499595  0.61313216  1.0
  Be  Be4  1  0.92947875  0.69485074  0.44346092  1.0
  Be  Be5  1  0.92947875  0.80514926  0.94346092  1.0
  Be  Be6  1  0.07052125  0.19485074  0.05653908  1.0
  Be  Be7  1  0.07052125  0.30514926  0.55653908  1.0
  Be  Be8  1  0.56960084  0.42066463  0.26938446  1.0
  Be  Be9  1  0.56960084  0.07933537  0.76938446  1.0
  Be  Be10  1  0.43039916  0.92066463  0.23061554  1.0
  Be  Be11  1  0.43039916  0.57933537  0.73061554  1.0
  P  P12  1  0.93927974  0.41694634  0.26382565  1.0
  P  P13  1  0.93927974  0.08305366  0.76382565  1.0
  P  P14  1  0.06072026  0.91694634  0.23617435  1.0
  P  P15  1  0.06072026  0.58305366  0.73617435  1.0
  P  P16  1  0.43907368  0.19799598  0.05995865  1.0
  P  P17  1  0.43907368  0.30200402  0.55995865  1.0
  P  P18  1  0.56092632  0.69799598  0.44004135  1.0
  P  P19  1  0.56092632  0.80200402  0.94004135  1.0
  O  O20  1  0.99441756  0.07391953  0.18641143  1.0
  O  O21  1  0.99441756  0.42608047  0.68641143  1.0
  O  O22  1  0.00558244  0.57391953  0.31358857  1.0
  O  O23  1  0.00558244  0.92608047  0.81358857  1.0
  O  O24  1  0.93679869  0.30519831  0.40475677  1.0
  O  O25  1  0.93679869  0.19480169  0.90475677  1.0
  O  O26  1  0.06320131  0.80519831  0.09524323  1.0
  O  O27  1  0.06320131  0.69480169  0.59524323  1.0
  O  O28  1  0.93713069  0.86686599  0.37018763  1.0
  O  O29  1  0.93713069  0.63313401  0.87018763  1.0
  O  O30  1  0.06286931  0.36686599  0.12981237  1.0
  O  O31  1  0.06286931  0.13313401  0.62981237  1.0
  O  O32  1  0.75827717  0.42004591  0.18659390  1.0
  O  O33  1  0.75827717  0.07995409  0.68659390  1.0
  O  O34  1  0.24172283  0.92004591  0.31340610  1.0
  O  O35  1  0.24172283  0.57995409  0.81340610  1.0
  O  O36  1  0.73972274  0.84398907  0.99649913  1.0
  O  O37  1  0.73972274  0.65601093  0.49649913  1.0
  O  O38  1  0.26027726  0.34398907  0.50350087  1.0
  O  O39  1  0.26027726  0.15601093  0.00350087  1.0
  O  O40  1  0.56760735  0.30696161  0.42042274  1.0
  O  O41  1  0.56760735  0.19303839  0.92042274  1.0
  O  O42  1  0.43239265  0.80696161  0.07957726  1.0
  O  O43  1  0.43239265  0.69303839  0.57957726  1.0
  O  O44  1  0.50447407  0.08705312  0.19076972  1.0
  O  O45  1  0.50447407  0.41294688  0.69076972  1.0
  O  O46  1  0.49552593  0.58705312  0.30923028  1.0
  O  O47  1  0.49552593  0.91294688  0.80923028  1.0
  O  O48  1  0.44383427  0.36330581  0.12501669  1.0
  O  O49  1  0.44383427  0.13669419  0.62501669  1.0
  O  O50  1  0.55616573  0.86330581  0.37498331  1.0
  O  O51  1  0.55616573  0.63669419  0.87498331  1.0
