# generated using pymatgen
data_K3GaO3
_symmetry_space_group_name_H-M   'P 1'
_cell_length_a   6.66659908
_cell_length_b   6.66659908
_cell_length_c   6.57513983
_cell_angle_alpha   83.72600133
_cell_angle_beta   96.27399867
_cell_angle_gamma   64.94404210
_symmetry_Int_Tables_number   1
_chemical_formula_structural   K3GaO3
_chemical_formula_sum   'K6 Ga2 O6'
_cell_volume   259.18073342
_cell_formula_units_Z   2
loop_
 _symmetry_equiv_pos_site_id
 _symmetry_equiv_pos_as_xyz
  1  'x, y, z'
loop_
 _atom_site_type_symbol
 _atom_site_label
 _atom_site_symmetry_multiplicity
 _atom_site_fract_x
 _atom_site_fract_y
 _atom_site_fract_z
 _atom_site_occupancy
  K  K0  1  0.62665156  -0.62665156  0.85094093  1.0
  K  K1  1  0.37334844  -0.37334844  0.14905907  1.0
  K  K2  1  0.74171209  -0.25828791  0.50000000  1.0
  K  K3  1  1.25828791  0.25828791  0.50000000  1.0
  K  K4  1  0.80503820  -0.19496180  0.00000000  1.0
  K  K5  1  1.19496180  0.19496180  -0.00000000  1.0
  Ga  Ga6  1  0.82956717  -0.82956717  0.35197966  1.0
  Ga  Ga7  1  0.17043283  -0.17043283  0.64802034  1.0
  O  O8  1  0.42896327  -0.15614187  0.76606686  1.0
  O  O9  1  1.15614187  0.57103673  0.76606686  1.0
  O  O10  1  0.84385813  -0.57103673  0.23393314  1.0
  O  O11  1  1.57103673  0.15614187  0.23393314  1.0
  O  O12  1  0.89944317  -0.89944317  0.65532073  1.0
  O  O13  1  0.10055683  -0.10055683  0.34467927  1.0
