# generated using pymatgen
data_Hg2NO4
_symmetry_space_group_name_H-M   'P 1'
_cell_length_a   5.62274975
_cell_length_b   6.75891181
_cell_length_c   12.31190446
_cell_angle_alpha   90.00000000
_cell_angle_beta   95.27132024
_cell_angle_gamma   90.00000000
_symmetry_Int_Tables_number   1
_chemical_formula_structural   Hg2NO4
_chemical_formula_sum   'Hg8 N4 O16'
_cell_volume   465.91872269
_cell_formula_units_Z   4
loop_
 _symmetry_equiv_pos_site_id
 _symmetry_equiv_pos_as_xyz
  1  'x, y, z'
loop_
 _atom_site_type_symbol
 _atom_site_label
 _atom_site_symmetry_multiplicity
 _atom_site_fract_x
 _atom_site_fract_y
 _atom_site_fract_z
 _atom_site_occupancy
  Hg  Hg0  1  0.99574868  0.69138163  0.75799324  1.0
  Hg  Hg1  1  0.99574868  0.80861837  0.25799324  1.0
  Hg  Hg2  1  0.00425132  0.19138163  0.74200676  1.0
  Hg  Hg3  1  0.00425132  0.30861837  0.24200676  1.0
  Hg  Hg4  1  0.67425761  0.98597754  0.94022761  1.0
  Hg  Hg5  1  0.67425761  0.51402246  0.44022761  1.0
  Hg  Hg6  1  0.32574239  0.48597754  0.55977239  1.0
  Hg  Hg7  1  0.32574239  0.01402246  0.05977239  1.0
  N  N8  1  0.46977777  0.97592850  0.63969428  1.0
  N  N9  1  0.46977777  0.52407150  0.13969428  1.0
  N  N10  1  0.53022223  0.47592850  0.86030572  1.0
  N  N11  1  0.53022223  0.02407150  0.36030572  1.0
  O  O12  1  0.98216151  0.95152622  0.84751888  1.0
  O  O13  1  0.98216151  0.54847378  0.34751888  1.0
  O  O14  1  0.01783849  0.45152622  0.65248112  1.0
  O  O15  1  0.01783849  0.04847378  0.15248112  1.0
  O  O16  1  0.73172410  0.39771390  0.88726421  1.0
  O  O17  1  0.73172410  0.10228610  0.38726421  1.0
  O  O18  1  0.26827590  0.89771390  0.61273579  1.0
  O  O19  1  0.26827590  0.60228610  0.11273579  1.0
  O  O20  1  0.65734010  0.90714745  0.60705929  1.0
  O  O21  1  0.65734010  0.59285255  0.10705929  1.0
  O  O22  1  0.34265990  0.40714745  0.89294071  1.0
  O  O23  1  0.34265990  0.09285255  0.39294071  1.0
  O  O24  1  0.51997863  0.62900968  0.79888702  1.0
  O  O25  1  0.51997863  0.87099032  0.29888702  1.0
  O  O26  1  0.48002137  0.12900968  0.70111298  1.0
  O  O27  1  0.48002137  0.37099032  0.20111298  1.0
