# generated using pymatgen
data_V8O15
_symmetry_space_group_name_H-M   'P 1'
_cell_length_a   5.45095012
_cell_length_b   13.18329159
_cell_length_c   7.05973528
_cell_angle_alpha   100.06894914
_cell_angle_beta   109.27424783
_cell_angle_gamma   95.57407828
_symmetry_Int_Tables_number   1
_chemical_formula_structural   V8O15
_chemical_formula_sum   'V16 O30'
_cell_volume   464.92150677
_cell_formula_units_Z   2
loop_
 _symmetry_equiv_pos_site_id
 _symmetry_equiv_pos_as_xyz
  1  'x, y, z'
loop_
 _atom_site_type_symbol
 _atom_site_label
 _atom_site_symmetry_multiplicity
 _atom_site_fract_x
 _atom_site_fract_y
 _atom_site_fract_z
 _atom_site_occupancy
  V  V0  1  -0.99522049  -0.69123888  -0.19137589  1.0
  V  V1  1  -0.00477951  -0.30876112  -0.80862411  1.0
  V  V2  1  -0.97861758  -0.68656568  -0.68919083  1.0
  V  V3  1  -0.02138242  -0.31343432  -0.31080917  1.0
  V  V4  1  -0.67225697  -0.43224966  -0.60476001  1.0
  V  V5  1  -0.32774303  -0.56775034  -0.39523999  1.0
  V  V6  1  -0.65189386  -0.81979004  -0.98151986  1.0
  V  V7  1  -0.34810614  -0.18020996  -0.01848014  1.0
  V  V8  1  -0.65499784  -0.81783734  -0.48432187  1.0
  V  V9  1  -0.34500216  -0.18216266  -0.51567813  1.0
  V  V10  1  -0.33217849  -0.56270130  -0.89600924  1.0
  V  V11  1  -0.66782151  -0.43729870  -0.10399076  1.0
  V  V12  1  -0.27977306  -0.95231108  -0.28028898  1.0
  V  V13  1  -0.72022694  -0.04768892  -0.71971102  1.0
  V  V14  1  -0.28363607  -0.94753412  -0.78078841  1.0
  V  V15  1  -0.71636393  -0.05246588  -0.21921159  1.0
  O  O16  1  -0.63589251  -0.28707819  -0.63813371  1.0
  O  O17  1  -0.36410749  -0.71292181  -0.36186629  1.0
  O  O18  1  -0.98115162  -0.15617732  -0.84529313  1.0
  O  O19  1  -0.01884838  -0.84382268  -0.15470687  1.0
  O  O20  1  -0.96066198  -0.55199809  -0.22118763  1.0
  O  O21  1  -0.03933802  -0.44800191  -0.77881237  1.0
  O  O22  1  -0.93874921  -0.95311767  -0.65742539  1.0
  O  O23  1  -0.06125079  -0.04688233  -0.34257461  1.0
  O  O24  1  -0.89942299  -0.74132448  -0.43136797  1.0
  O  O25  1  -0.10057701  -0.25867552  -0.56863203  1.0
  O  O26  1  -0.76896936  -0.39097467  -0.36430234  1.0
  O  O27  1  -0.23103064  -0.60902533  -0.63569766  1.0
  O  O28  1  -0.73812683  -0.78304228  -0.74291216  1.0
  O  O29  1  -0.26187317  -0.21695772  -0.25708784  1.0
  O  O30  1  -0.69358581  -0.57682673  -0.57073263  1.0
  O  O31  1  -0.30641419  -0.42317327  -0.42926737  1.0
  O  O32  1  -0.68758922  -0.97660175  -0.94555885  1.0
  O  O33  1  -0.31241078  -0.02339825  -0.05444115  1.0
  O  O34  1  -0.58283436  -0.88930425  -0.24120486  1.0
  O  O35  1  -0.41716564  -0.11069575  -0.75879514  1.0
  O  O36  1  -0.57260375  -0.47526361  -0.84212904  1.0
  O  O37  1  -0.42739625  -0.52473639  -0.15787096  1.0
  O  O38  1  -0.41314879  -0.91976057  -0.55202779  1.0
  O  O39  1  -0.58685121  -0.08023943  -0.44797221  1.0
  O  O40  1  -0.37819059  -0.31412061  -0.98043533  1.0
  O  O41  1  -0.62180941  -0.68587939  -0.01956467  1.0
  O  O42  1  -0.27745821  -0.81764607  -0.81982426  1.0
  O  O43  1  -0.72254179  -0.18235393  -0.18017574  1.0
  O  O44  1  -0.08436747  -0.65505836  -0.94972146  1.0
  O  O45  1  -0.91563253  -0.34494164  -0.05027854  1.0
