# generated using pymatgen
data_K2FeP2O7
_symmetry_space_group_name_H-M   'P 1'
_cell_length_a   8.19090267
_cell_length_b   8.19090267
_cell_length_c   5.63723535
_cell_angle_alpha   90.00000000
_cell_angle_beta   90.00000000
_cell_angle_gamma   90.00000000
_symmetry_Int_Tables_number   1
_chemical_formula_structural   K2FeP2O7
_chemical_formula_sum   'K4 Fe2 P4 O14'
_cell_volume   378.20711679
_cell_formula_units_Z   2
loop_
 _symmetry_equiv_pos_site_id
 _symmetry_equiv_pos_as_xyz
  1  'x, y, z'
loop_
 _atom_site_type_symbol
 _atom_site_label
 _atom_site_symmetry_multiplicity
 _atom_site_fract_x
 _atom_site_fract_y
 _atom_site_fract_z
 _atom_site_occupancy
  K  K0  1  0.83293013  0.33293013  0.51027858  1.0
  K  K1  1  0.33293013  0.16706987  0.48972142  1.0
  K  K2  1  0.16706987  0.66706987  0.51027858  1.0
  K  K3  1  0.66706987  0.83293013  0.48972142  1.0
  Fe  Fe4  1  0.50000000  0.50000000  0.00000000  1.0
  Fe  Fe5  1  0.00000000  0.00000000  0.00000000  1.0
  P  P6  1  0.13354016  0.36645984  1.03343416  1.0
  P  P7  1  0.63354016  0.13354016  -0.03343416  1.0
  P  P8  1  0.86645984  0.63354016  1.03343416  1.0
  P  P9  1  0.36645984  0.86645984  -0.03343416  1.0
  O  O10  1  0.00000000  0.50000000  1.13490210  1.0
  O  O11  1  0.50000000  0.00000000  -0.13490210  1.0
  O  O12  1  0.57689945  0.29427604  0.84451019  1.0
  O  O13  1  0.07689945  0.20572396  0.15548981  1.0
  O  O14  1  0.42310055  0.70572396  0.84451019  1.0
  O  O15  1  0.92310055  0.79427604  0.15548981  1.0
  O  O16  1  0.70572396  0.57689945  0.15548981  1.0
  O  O17  1  0.20572396  0.92310055  0.84451019  1.0
  O  O18  1  0.29427604  0.42310055  0.15548981  1.0
  O  O19  1  0.79427604  0.07689945  0.84451019  1.0
  O  O20  1  0.13477519  0.36522481  0.76513713  1.0
  O  O21  1  0.63477519  0.13477519  0.23486287  1.0
  O  O22  1  0.86522481  0.63477519  0.76513713  1.0
  O  O23  1  0.36522481  0.86522481  0.23486287  1.0
