# generated using pymatgen
data_Hf6Al16Ir7
_symmetry_space_group_name_H-M   'P 1'
_cell_length_a   8.70529776
_cell_length_b   8.70529776
_cell_length_c   8.70529776
_cell_angle_alpha   60.00000000
_cell_angle_beta   60.00000000
_cell_angle_gamma   60.00000000
_symmetry_Int_Tables_number   1
_chemical_formula_structural   Hf6Al16Ir7
_chemical_formula_sum   'Hf6 Al16 Ir7'
_cell_volume   466.48307772
_cell_formula_units_Z   1
loop_
 _symmetry_equiv_pos_site_id
 _symmetry_equiv_pos_as_xyz
  1  'x, y, z'
loop_
 _atom_site_type_symbol
 _atom_site_label
 _atom_site_symmetry_multiplicity
 _atom_site_fract_x
 _atom_site_fract_y
 _atom_site_fract_z
 _atom_site_occupancy
  Hf  Hf0  1  -0.68476933  0.68476933  0.68476933  1.0
  Hf  Hf1  1  -0.31523067  0.31523067  0.68476933  1.0
  Hf  Hf2  1  0.68476933  0.68476933  -0.68476933  1.0
  Hf  Hf3  1  0.31523067  1.31523067  -0.31523067  1.0
  Hf  Hf4  1  0.31523067  -0.31523067  1.31523067  1.0
  Hf  Hf5  1  -0.31523067  0.31523067  0.31523067  1.0
  Al  Al6  1  0.88010607  0.88010607  -0.11989393  1.0
  Al  Al7  1  1.11989393  0.11989393  0.64031822  1.0
  Al  Al8  1  1.11989393  0.64031822  0.11989393  1.0
  Al  Al9  1  0.35968178  0.88010607  -0.11989393  1.0
  Al  Al10  1  1.64031822  0.11989393  0.11989393  1.0
  Al  Al11  1  0.88010607  0.35968178  -0.11989393  1.0
  Al  Al12  1  0.88010607  0.88010607  -0.64031822  1.0
  Al  Al13  1  1.11989393  0.11989393  0.11989393  1.0
  Al  Al14  1  0.66181047  0.66181047  -0.33818953  1.0
  Al  Al15  1  1.33818953  0.33818953  -0.01456859  1.0
  Al  Al16  1  1.33818953  -0.01456859  0.33818953  1.0
  Al  Al17  1  1.01456859  0.66181047  -0.33818953  1.0
  Al  Al18  1  0.98543141  0.33818953  0.33818953  1.0
  Al  Al19  1  0.66181047  1.01456859  -0.33818953  1.0
  Al  Al20  1  0.66181047  0.66181047  0.01456859  1.0
  Al  Al21  1  1.33818953  0.33818953  0.33818953  1.0
  Ir  Ir22  1  1.50000000  0.00000000  -0.00000000  1.0
  Ir  Ir23  1  1.00000000  0.50000000  -0.50000000  1.0
  Ir  Ir24  1  0.00000000  1.50000000  -0.00000000  1.0
  Ir  Ir25  1  0.50000000  1.00000000  -0.50000000  1.0
  Ir  Ir26  1  -0.00000000  0.00000000  0.50000000  1.0
  Ir  Ir27  1  0.50000000  -0.50000000  1.00000000  1.0
  Ir  Ir28  1  0.00000000  0.00000000  0.00000000  1.0
