# generated using pymatgen
data_ZnS
_symmetry_space_group_name_H-M   'P 1'
_cell_length_a   3.85030625
_cell_length_b   3.85030625
_cell_length_c   56.61679065
_cell_angle_alpha   90.00000000
_cell_angle_beta   90.00000000
_cell_angle_gamma   120.00000000
_symmetry_Int_Tables_number   1
_chemical_formula_structural   ZnS
_chemical_formula_sum   'Zn18 S18'
_cell_volume   726.88620697
_cell_formula_units_Z   18
loop_
 _symmetry_equiv_pos_site_id
 _symmetry_equiv_pos_as_xyz
  1  'x, y, z'
loop_
 _atom_site_type_symbol
 _atom_site_label
 _atom_site_symmetry_multiplicity
 _atom_site_fract_x
 _atom_site_fract_y
 _atom_site_fract_z
 _atom_site_occupancy
  Zn  Zn0  1  -0.00000000  -0.00000000  0.05555304  1.0
  Zn  Zn1  1  -0.00000000  -0.00000000  0.22222790  1.0
  Zn  Zn2  1  -0.00000000  -0.00000000  0.38888018  1.0
  Zn  Zn3  1  -0.00000000  -0.00000000  0.55555065  1.0
  Zn  Zn4  1  0.00000000  0.00000000  0.72222518  1.0
  Zn  Zn5  1  0.00000000  0.00000000  0.88887973  1.0
  Zn  Zn6  1  0.66666667  0.33333333  0.16667850  1.0
  Zn  Zn7  1  0.66666667  0.33333333  0.33332859  1.0
  Zn  Zn8  1  0.66666667  0.33333333  0.49999277  1.0
  Zn  Zn9  1  0.66666667  0.33333333  0.66666925  1.0
  Zn  Zn10  1  0.66666667  0.33333333  0.83328578  1.0
  Zn  Zn11  1  0.66666667  0.33333333  0.94446639  1.0
  Zn  Zn12  1  0.33333333  0.66666667  -0.00004076  1.0
  Zn  Zn13  1  0.33333333  0.66666667  0.11115237  1.0
  Zn  Zn14  1  0.33333333  0.66666667  0.27777938  1.0
  Zn  Zn15  1  0.33333333  0.66666667  0.44443497  1.0
  Zn  Zn16  1  0.33333333  0.66666667  0.61111309  1.0
  Zn  Zn17  1  0.33333333  0.66666667  0.77777157  1.0
  S  S18  1  -0.00000000  -0.00000000  0.01383833  1.0
  S  S19  1  -0.00000000  -0.00000000  0.18056966  1.0
  S  S20  1  0.00000000  0.00000000  0.34721977  1.0
  S  S21  1  0.00000000  0.00000000  0.51388760  1.0
  S  S22  1  -0.00000000  -0.00000000  0.68056487  1.0
  S  S23  1  0.00000000  0.00000000  0.84716571  1.0
  S  S24  1  0.66666667  0.33333333  0.12502619  1.0
  S  S25  1  0.66666667  0.33333333  0.29167029  1.0
  S  S26  1  0.66666667  0.33333333  0.45832990  1.0
  S  S27  1  0.66666667  0.33333333  0.62500748  1.0
  S  S28  1  0.66666667  0.33333333  0.79165109  1.0
  S  S29  1  0.66666667  0.33333333  0.90282745  1.0
  S  S30  1  0.33333333  0.66666667  0.06950584  1.0
  S  S31  1  0.33333333  0.66666667  0.23611886  1.0
  S  S32  1  0.33333333  0.66666667  0.40277448  1.0
  S  S33  1  0.33333333  0.66666667  0.56944927  1.0
  S  S34  1  0.33333333  0.66666667  0.73611536  1.0
  S  S35  1  0.33333333  0.66666667  0.95832929  1.0
