# generated using pymatgen
data_Ta4Ga(TeSe)4
_symmetry_space_group_name_H-M   'P 1'
_cell_length_a   7.79220802
_cell_length_b   7.79220802
_cell_length_c   7.79220802
_cell_angle_alpha   60.00000000
_cell_angle_beta   60.00000000
_cell_angle_gamma   60.00000000
_symmetry_Int_Tables_number   1
_chemical_formula_structural   Ta4Ga(TeSe)4
_chemical_formula_sum   'Ta4 Ga1 Te4 Se4'
_cell_volume   334.55429984
_cell_formula_units_Z   1
loop_
 _symmetry_equiv_pos_site_id
 _symmetry_equiv_pos_as_xyz
  1  'x, y, z'
loop_
 _atom_site_type_symbol
 _atom_site_label
 _atom_site_symmetry_multiplicity
 _atom_site_fract_x
 _atom_site_fract_y
 _atom_site_fract_z
 _atom_site_occupancy
  Ta  Ta0  1  -0.40257156  0.59742844  0.59742844  1.0
  Ta  Ta1  1  1.20771467  0.59742844  -0.40257156  1.0
  Ta  Ta2  1  -0.40257156  0.59742844  1.20771467  1.0
  Ta  Ta3  1  0.59742844  1.20771467  -0.40257156  1.0
  Ga  Ga4  1  0.00000000  0.00000000  0.00000000  1.0
  Te  Te5  1  0.86292641  0.86292641  -0.13707359  1.0
  Te  Te6  1  0.41122077  0.86292641  -0.13707359  1.0
  Te  Te7  1  0.86292641  0.86292641  -0.58877923  1.0
  Te  Te8  1  0.86292641  0.41122077  -0.13707359  1.0
  Se  Se9  1  0.36980465  1.36980465  0.36980465  1.0
  Se  Se10  1  -0.10941394  0.36980465  0.36980465  1.0
  Se  Se11  1  0.36980465  1.36980465  -0.10941394  1.0
  Se  Se12  1  0.36980465  -0.10941394  0.36980465  1.0
