# generated using pymatgen
data_KY(MoO4)2
_symmetry_space_group_name_H-M   'P 1'
_cell_length_a   5.10258083
_cell_length_b   18.76849157
_cell_length_c   8.13296402
_cell_angle_alpha   90.00000000
_cell_angle_beta   90.00000000
_cell_angle_gamma   90.00000000
_symmetry_Int_Tables_number   1
_chemical_formula_structural   KY(MoO4)2
_chemical_formula_sum   'K4 Y4 Mo8 O32'
_cell_volume   778.87562720
_cell_formula_units_Z   4
loop_
 _symmetry_equiv_pos_site_id
 _symmetry_equiv_pos_as_xyz
  1  'x, y, z'
loop_
 _atom_site_type_symbol
 _atom_site_label
 _atom_site_symmetry_multiplicity
 _atom_site_fract_x
 _atom_site_fract_y
 _atom_site_fract_z
 _atom_site_occupancy
  K  K0  1  0.50000000  0.72477225  0.25000000  1.0
  K  K1  1  0.50000000  0.27522775  0.75000000  1.0
  K  K2  1  0.00000000  0.22477225  0.25000000  1.0
  K  K3  1  0.00000000  0.77522775  0.75000000  1.0
  Y  Y4  1  0.50000000  0.49645715  0.25000000  1.0
  Y  Y5  1  0.50000000  0.50354285  0.75000000  1.0
  Y  Y6  1  0.00000000  0.99645715  0.25000000  1.0
  Y  Y7  1  0.00000000  0.00354285  0.75000000  1.0
  Mo  Mo8  1  0.47496210  0.10017321  0.00735414  1.0
  Mo  Mo9  1  0.47496210  0.89982679  0.50735414  1.0
  Mo  Mo10  1  0.97496210  0.60017321  0.49264586  1.0
  Mo  Mo11  1  0.97496210  0.39982679  0.99264586  1.0
  Mo  Mo12  1  0.52503790  0.10017321  0.49264586  1.0
  Mo  Mo13  1  0.52503790  0.89982679  0.99264586  1.0
  Mo  Mo14  1  0.02503790  0.60017321  0.00735414  1.0
  Mo  Mo15  1  0.02503790  0.39982679  0.50735414  1.0
  O  O16  1  0.40272264  0.18651399  0.48654398  1.0
  O  O17  1  0.40272264  0.81348601  0.98654398  1.0
  O  O18  1  0.90272264  0.68651399  0.01345602  1.0
  O  O19  1  0.90272264  0.31348601  0.51345602  1.0
  O  O20  1  0.59727736  0.18651399  0.01345602  1.0
  O  O21  1  0.59727736  0.81348601  0.51345602  1.0
  O  O22  1  0.09727736  0.68651399  0.48654398  1.0
  O  O23  1  0.09727736  0.31348601  0.98654398  1.0
  O  O24  1  0.25816458  0.09150044  0.18005701  1.0
  O  O25  1  0.25816458  0.90849956  0.68005701  1.0
  O  O26  1  0.75816458  0.59150044  0.31994299  1.0
  O  O27  1  0.75816458  0.40849956  0.81994299  1.0
  O  O28  1  0.74183542  0.09150044  0.31994299  1.0
  O  O29  1  0.74183542  0.90849956  0.81994299  1.0
  O  O30  1  0.24183542  0.59150044  0.18005701  1.0
  O  O31  1  0.24183542  0.40849956  0.68005701  1.0
  O  O32  1  0.25037251  0.46361850  0.00193543  1.0
  O  O33  1  0.25037251  0.53638150  0.50193543  1.0
  O  O34  1  0.75037251  0.96361850  0.49806457  1.0
  O  O35  1  0.75037251  0.03638150  0.99806457  1.0
  O  O36  1  0.74962749  0.46361850  0.49806457  1.0
  O  O37  1  0.74962749  0.53638150  0.99806457  1.0
  O  O38  1  0.24962749  0.96361850  0.00193543  1.0
  O  O39  1  0.24962749  0.03638150  0.50193543  1.0
  O  O40  1  0.23356569  0.40499971  0.33252730  1.0
  O  O41  1  0.23356569  0.59500029  0.83252730  1.0
  O  O42  1  0.73356569  0.90499971  0.16747270  1.0
  O  O43  1  0.73356569  0.09500029  0.66747270  1.0
  O  O44  1  0.76643431  0.40499971  0.16747270  1.0
  O  O45  1  0.76643431  0.59500029  0.66747270  1.0
  O  O46  1  0.26643431  0.90499971  0.33252730  1.0
  O  O47  1  0.26643431  0.09500029  0.83252730  1.0
