# generated using pymatgen
data_Ca2AlPbF9
_symmetry_space_group_name_H-M   'P 1'
_cell_length_a   12.37233713
_cell_length_b   5.46425653
_cell_length_c   5.45777366
_cell_angle_alpha   92.16228562
_cell_angle_beta   100.76381751
_cell_angle_gamma   91.69924697
_symmetry_Int_Tables_number   1
_chemical_formula_structural   Ca2AlPbF9
_chemical_formula_sum   'Ca4 Al2 Pb2 F18'
_cell_volume   361.97290083
_cell_formula_units_Z   2
loop_
 _symmetry_equiv_pos_site_id
 _symmetry_equiv_pos_as_xyz
  1  'x, y, z'
loop_
 _atom_site_type_symbol
 _atom_site_label
 _atom_site_symmetry_multiplicity
 _atom_site_fract_x
 _atom_site_fract_y
 _atom_site_fract_z
 _atom_site_occupancy
  Ca  Ca0  1  -0.88716279  -0.24129523  -0.96089768  1.0
  Ca  Ca1  1  -0.11283721  -0.75870477  -0.03910232  1.0
  Ca  Ca2  1  -0.88705143  -0.73293261  -0.45053290  1.0
  Ca  Ca3  1  -0.11294857  -0.26706739  -0.54946710  1.0
  Al  Al4  1  -0.68399038  -0.78967523  -0.80226372  1.0
  Al  Al5  1  -0.31600962  -0.21032477  -0.19773628  1.0
  Pb  Pb6  1  -0.39517123  -0.71441933  -0.73087208  1.0
  Pb  Pb7  1  -0.60482877  -0.28558067  -0.26912792  1.0
  F  F8  1  -0.60020402  -0.59111719  -0.96187824  1.0
  F  F9  1  -0.39979598  -0.40888281  -0.03812176  1.0
  F  F10  1  -0.99440703  -0.48618442  -0.74908269  1.0
  F  F11  1  -0.00559297  -0.51381558  -0.25091731  1.0
  F  F12  1  -0.99878582  -0.98990193  -0.74814566  1.0
  F  F13  1  -0.00121418  -0.01009807  -0.25185434  1.0
  F  F14  1  -0.20880348  -0.61212335  -0.74451226  1.0
  F  F15  1  -0.79119652  -0.38787665  -0.25548774  1.0
  F  F16  1  -0.77720631  -0.54772415  -0.74666180  1.0
  F  F17  1  -0.22279369  -0.45227585  -0.25333820  1.0
  F  F18  1  -0.76666483  -0.99597611  -0.63602838  1.0
  F  F19  1  -0.23333517  -0.00402389  -0.36397162  1.0
  F  F20  1  -0.59424691  -0.69700599  -0.50713931  1.0
  F  F21  1  -0.40575309  -0.30299401  -0.49286069  1.0
  F  F22  1  -0.40288999  -0.95778775  -0.14377912  1.0
  F  F23  1  -0.59711001  -0.04221225  -0.85622088  1.0
  F  F24  1  -0.78087052  -0.88851738  -0.08934456  1.0
  F  F25  1  -0.21912948  -0.11148263  -0.91065544  1.0
