# generated using pymatgen
data_RuF6
_symmetry_space_group_name_H-M   'P 1'
_cell_length_a   5.75543944
_cell_length_b   5.75543944
_cell_length_c   5.75543944
_cell_angle_alpha   109.47122063
_cell_angle_beta   109.47122063
_cell_angle_gamma   109.47122063
_symmetry_Int_Tables_number   1
_chemical_formula_structural   RuF6
_chemical_formula_sum   'Ru1 F6'
_cell_volume   146.76198447
_cell_formula_units_Z   1
loop_
 _symmetry_equiv_pos_site_id
 _symmetry_equiv_pos_as_xyz
  1  'x, y, z'
loop_
 _atom_site_type_symbol
 _atom_site_label
 _atom_site_symmetry_multiplicity
 _atom_site_fract_x
 _atom_site_fract_y
 _atom_site_fract_z
 _atom_site_occupancy
  Ru  Ru0  1  0.00000000  0.00000000  0.00000000  1.0
  F  F1  1  0.00000000  0.72181671  0.72181671  1.0
  F  F2  1  0.72181671  0.00000000  0.72181671  1.0
  F  F3  1  0.72181671  0.72181671  -0.00000000  1.0
  F  F4  1  0.27818329  0.27818329  -0.00000000  1.0
  F  F5  1  0.27818329  -0.00000000  0.27818329  1.0
  F  F6  1  0.00000000  0.27818329  0.27818329  1.0
