# generated using pymatgen
data_Y10Cd3Fe
_symmetry_space_group_name_H-M   'P 1'
_cell_length_a   9.60496818
_cell_length_b   9.60496818
_cell_length_c   9.79278199
_cell_angle_alpha   90.00000000
_cell_angle_beta   90.00000000
_cell_angle_gamma   120.00000000
_symmetry_Int_Tables_number   1
_chemical_formula_structural   Y10Cd3Fe
_chemical_formula_sum   'Y20 Cd6 Fe2'
_cell_volume   782.39952575
_cell_formula_units_Z   2
loop_
 _symmetry_equiv_pos_site_id
 _symmetry_equiv_pos_as_xyz
  1  'x, y, z'
loop_
 _atom_site_type_symbol
 _atom_site_label
 _atom_site_symmetry_multiplicity
 _atom_site_fract_x
 _atom_site_fract_y
 _atom_site_fract_z
 _atom_site_occupancy
  Y  Y0  1  0.21182476  0.78817524  0.43599209  1.0
  Y  Y1  1  0.21182476  0.78817524  0.06400791  1.0
  Y  Y2  1  0.21182476  0.42364951  0.43599209  1.0
  Y  Y3  1  0.21182476  0.42364951  0.06400791  1.0
  Y  Y4  1  0.78817524  0.21182476  0.93599209  1.0
  Y  Y5  1  0.78817524  0.21182476  0.56400791  1.0
  Y  Y6  1  0.78817524  0.57635049  0.93599209  1.0
  Y  Y7  1  0.78817524  0.57635049  0.56400791  1.0
  Y  Y8  1  0.57635049  0.78817524  0.43599209  1.0
  Y  Y9  1  0.57635049  0.78817524  0.06400791  1.0
  Y  Y10  1  0.42364951  0.21182476  0.93599209  1.0
  Y  Y11  1  0.42364951  0.21182476  0.56400791  1.0
  Y  Y12  1  0.54167472  0.45832528  0.25000000  1.0
  Y  Y13  1  0.54167472  0.08334944  0.25000000  1.0
  Y  Y14  1  0.45832528  0.54167472  0.75000000  1.0
  Y  Y15  1  0.45832528  0.91665056  0.75000000  1.0
  Y  Y16  1  0.91665056  0.45832528  0.25000000  1.0
  Y  Y17  1  0.08334944  0.54167472  0.75000000  1.0
  Y  Y18  1  0.00000000  0.00000000  0.50000000  1.0
  Y  Y19  1  0.00000000  0.00000000  0.00000000  1.0
  Cd  Cd20  1  0.88569099  0.11430901  0.25000000  1.0
  Cd  Cd21  1  0.88569099  0.77138198  0.25000000  1.0
  Cd  Cd22  1  0.11430901  0.88569099  0.75000000  1.0
  Cd  Cd23  1  0.11430901  0.22861802  0.75000000  1.0
  Cd  Cd24  1  0.22861802  0.11430901  0.25000000  1.0
  Cd  Cd25  1  0.77138198  0.88569099  0.75000000  1.0
  Fe  Fe26  1  0.33333333  0.66666667  0.25000000  1.0
  Fe  Fe27  1  0.66666667  0.33333333  0.75000000  1.0
