# generated using pymatgen
data_Y2Zn3
_symmetry_space_group_name_H-M   'P 1'
_cell_length_a   5.60508395
_cell_length_b   5.60508395
_cell_length_c   19.36790882
_cell_angle_alpha   90.00000000
_cell_angle_beta   90.00000000
_cell_angle_gamma   120.00000000
_symmetry_Int_Tables_number   1
_chemical_formula_structural   Y2Zn3
_chemical_formula_sum   'Y8 Zn12'
_cell_volume   526.95994708
_cell_formula_units_Z   4
loop_
 _symmetry_equiv_pos_site_id
 _symmetry_equiv_pos_as_xyz
  1  'x, y, z'
loop_
 _atom_site_type_symbol
 _atom_site_label
 _atom_site_symmetry_multiplicity
 _atom_site_fract_x
 _atom_site_fract_y
 _atom_site_fract_z
 _atom_site_occupancy
  Y  Y0  1  0.00000000  0.00000000  0.41521957  1.0
  Y  Y1  1  0.00000000  0.00000000  0.58478043  1.0
  Y  Y2  1  0.00000000  0.00000000  0.91521957  1.0
  Y  Y3  1  0.00000000  0.00000000  0.08478043  1.0
  Y  Y4  1  0.33333333  0.66666667  0.36803896  1.0
  Y  Y5  1  0.66666667  0.33333333  0.63196104  1.0
  Y  Y6  1  0.66666667  0.33333333  0.86803896  1.0
  Y  Y7  1  0.33333333  0.66666667  0.13196104  1.0
  Zn  Zn8  1  0.50000000  0.00000000  0.00000000  1.0
  Zn  Zn9  1  -0.00000000  0.50000000  0.00000000  1.0
  Zn  Zn10  1  0.50000000  0.50000000  0.00000000  1.0
  Zn  Zn11  1  0.50000000  0.00000000  0.50000000  1.0
  Zn  Zn12  1  -0.00000000  0.50000000  0.50000000  1.0
  Zn  Zn13  1  0.50000000  0.50000000  0.50000000  1.0
  Zn  Zn14  1  0.14972971  0.85027029  0.25000000  1.0
  Zn  Zn15  1  0.14972971  0.29945941  0.25000000  1.0
  Zn  Zn16  1  0.70054059  0.85027029  0.25000000  1.0
  Zn  Zn17  1  0.85027029  0.14972971  0.75000000  1.0
  Zn  Zn18  1  0.85027029  0.70054059  0.75000000  1.0
  Zn  Zn19  1  0.29945941  0.14972971  0.75000000  1.0
