# generated using pymatgen
data_BaNa2Mg(PO4)2
_symmetry_space_group_name_H-M   'P 1'
_cell_length_a   5.39299132
_cell_length_b   5.39299132
_cell_length_c   7.05970628
_cell_angle_alpha   90.00000000
_cell_angle_beta   90.00000000
_cell_angle_gamma   120.00000000
_symmetry_Int_Tables_number   1
_chemical_formula_structural   BaNa2Mg(PO4)2
_chemical_formula_sum   'Ba1 Na2 Mg1 P2 O8'
_cell_volume   177.81840331
_cell_formula_units_Z   1
loop_
 _symmetry_equiv_pos_site_id
 _symmetry_equiv_pos_as_xyz
  1  'x, y, z'
loop_
 _atom_site_type_symbol
 _atom_site_label
 _atom_site_symmetry_multiplicity
 _atom_site_fract_x
 _atom_site_fract_y
 _atom_site_fract_z
 _atom_site_occupancy
  Ba  Ba0  1  0.00000000  0.00000000  0.00000000  1.0
  Na  Na1  1  0.33333333  0.66666667  0.68171197  1.0
  Na  Na2  1  0.66666667  0.33333333  0.31828803  1.0
  Mg  Mg3  1  0.00000000  0.00000000  0.50000000  1.0
  P  P4  1  0.33333333  0.66666667  0.24179345  1.0
  P  P5  1  0.66666667  0.33333333  0.75820655  1.0
  O  O6  1  0.33333333  0.66666667  0.02315893  1.0
  O  O7  1  0.66666667  0.33333333  0.97684107  1.0
  O  O8  1  0.64658908  0.82329454  0.31999639  1.0
  O  O9  1  0.82329454  0.64658908  0.68000361  1.0
  O  O10  1  0.82329454  0.17670546  0.68000361  1.0
  O  O11  1  0.17670546  0.82329454  0.31999639  1.0
  O  O12  1  0.17670546  0.35341092  0.31999639  1.0
  O  O13  1  0.35341092  0.17670546  0.68000361  1.0
