# generated using pymatgen
data_TlSbSe2
_symmetry_space_group_name_H-M   'P 1'
_cell_length_a   8.14626365
_cell_length_b   8.14626365
_cell_length_c   4.30180522
_cell_angle_alpha   90.00000000
_cell_angle_beta   90.00000000
_cell_angle_gamma   149.87530081
_symmetry_Int_Tables_number   1
_chemical_formula_structural   TlSbSe2
_chemical_formula_sum   'Tl1 Sb1 Se2'
_cell_volume   143.27509517
_cell_formula_units_Z   1
loop_
 _symmetry_equiv_pos_site_id
 _symmetry_equiv_pos_as_xyz
  1  'x, y, z'
loop_
 _atom_site_type_symbol
 _atom_site_label
 _atom_site_symmetry_multiplicity
 _atom_site_fract_x
 _atom_site_fract_y
 _atom_site_fract_z
 _atom_site_occupancy
  Tl  Tl0  1  0.00000000  0.00000000  0.00000000  1.0
  Sb  Sb1  1  0.50000000  0.50000000  0.50000000  1.0
  Se  Se2  1  -0.78735232  0.78735232  0.00000000  1.0
  Se  Se3  1  -0.21264768  1.21264768  0.00000000  1.0
