# generated using pymatgen
data_Sr3Ge2(B3O8)2
_symmetry_space_group_name_H-M   'P 1'
_cell_length_a   7.45286592
_cell_length_b   5.05703909
_cell_length_c   8.56295155
_cell_angle_alpha   102.78033898
_cell_angle_beta   103.30446822
_cell_angle_gamma   89.71932172
_symmetry_Int_Tables_number   1
_chemical_formula_structural   Sr3Ge2(B3O8)2
_chemical_formula_sum   'Sr3 Ge2 B6 O16'
_cell_volume   305.92982175
_cell_formula_units_Z   1
loop_
 _symmetry_equiv_pos_site_id
 _symmetry_equiv_pos_as_xyz
  1  'x, y, z'
loop_
 _atom_site_type_symbol
 _atom_site_label
 _atom_site_symmetry_multiplicity
 _atom_site_fract_x
 _atom_site_fract_y
 _atom_site_fract_z
 _atom_site_occupancy
  Sr  Sr0  1  0.40802622  0.40859782  -0.74135395  1.0
  Sr  Sr1  1  0.59197378  0.59140218  -0.25864605  1.0
  Sr  Sr2  1  -0.00000000  0.50000000  -0.50000000  1.0
  Ge  Ge3  1  0.81278158  0.19570673  -0.94666957  1.0
  Ge  Ge4  1  0.18721842  0.80429327  -0.05333043  1.0
  B  B5  1  0.08884729  0.95768560  -0.74226938  1.0
  B  B6  1  0.91115271  0.04231440  -0.25773062  1.0
  B  B7  1  0.30781435  0.96012401  -0.46087935  1.0
  B  B8  1  0.69218565  0.03987599  -0.53912065  1.0
  B  B9  1  0.74457861  0.76485786  -0.80467346  1.0
  B  B10  1  0.25542139  0.23514214  -0.19532654  1.0
  O  O11  1  0.70406600  0.87971420  -0.95477898  1.0
  O  O12  1  0.29593400  0.12028580  -0.04522102  1.0
  O  O13  1  0.77823586  0.91185055  -0.41468754  1.0
  O  O14  1  0.22176414  0.08814945  -0.58531246  1.0
  O  O15  1  0.61759701  0.87261415  -0.69573969  1.0
  O  O16  1  0.38240299  0.12738585  -0.30426031  1.0
  O  O17  1  0.93642654  0.81878957  -0.70917894  1.0
  O  O18  1  0.06357346  0.18121043  -0.29082106  1.0
  O  O19  1  0.96646998  0.79708901  -0.18934654  1.0
  O  O20  1  0.03353002  0.20291099  -0.81065346  1.0
  O  O21  1  0.18732934  0.76992464  -0.85276017  1.0
  O  O22  1  0.81267066  0.23007536  -0.14723983  1.0
  O  O23  1  0.32224792  0.68858454  -0.48748223  1.0
  O  O24  1  0.67775208  0.31141546  -0.51251777  1.0
  O  O25  1  0.69115078  0.46685800  -0.85862355  1.0
  O  O26  1  0.30884922  0.53314200  -0.14137645  1.0
