# generated using pymatgen
data_Pt(NCl)2
_symmetry_space_group_name_H-M   'P 1'
_cell_length_a   9.36414688
_cell_length_b   9.36414688
_cell_length_c   5.15038282
_cell_angle_alpha   90.00000000
_cell_angle_beta   90.00000000
_cell_angle_gamma   90.00000000
_symmetry_Int_Tables_number   1
_chemical_formula_structural   Pt(NCl)2
_chemical_formula_sum   'Pt4 N8 Cl8'
_cell_volume   451.62288977
_cell_formula_units_Z   4
loop_
 _symmetry_equiv_pos_site_id
 _symmetry_equiv_pos_as_xyz
  1  'x, y, z'
loop_
 _atom_site_type_symbol
 _atom_site_label
 _atom_site_symmetry_multiplicity
 _atom_site_fract_x
 _atom_site_fract_y
 _atom_site_fract_z
 _atom_site_occupancy
  Cl  Cl0  1  0.24615596  0.99836703  0.50000000  1.0
  Cl  Cl1  1  0.74615596  0.50163297  -0.00000000  1.0
  Cl  Cl2  1  0.00163297  0.24615596  0.50000000  1.0
  Cl  Cl3  1  0.50163297  0.25384404  0.00000000  1.0
  Cl  Cl4  1  0.75384404  0.00163297  0.50000000  1.0
  Cl  Cl5  1  0.25384404  0.49836703  -0.00000000  1.0
  Cl  Cl6  1  0.99836703  0.75384404  0.50000000  1.0
  Cl  Cl7  1  0.49836703  0.74615596  0.00000000  1.0
  N  N8  1  0.28867270  0.49879081  0.50000000  1.0
  N  N9  1  0.78867270  1.00120919  0.00000000  1.0
  N  N10  1  0.50120919  0.28867270  0.50000000  1.0
  N  N11  1  1.00120919  0.21132730  -0.00000000  1.0
  N  N12  1  0.71132730  0.50120919  0.50000000  1.0
  N  N13  1  0.21132730  -0.00120919  -0.00000000  1.0
  N  N14  1  0.49879081  0.71132730  0.50000000  1.0
  N  N15  1  -0.00120919  0.78867270  -0.00000000  1.0
  Pt  Pt16  1  0.50000000  0.50000000  0.50000000  1.0
  Pt  Pt17  1  0.00000000  0.00000000  -0.00000000  1.0
  Pt  Pt18  1  0.50000000  0.50000000  -0.00000000  1.0
  Pt  Pt19  1  0.00000000  0.00000000  0.50000000  1.0
