# generated using pymatgen
data_Li2Ti6O13
_symmetry_space_group_name_H-M   'P 1'
_cell_length_a   7.96213129
_cell_length_b   7.96213129
_cell_length_c   9.23747009
_cell_angle_alpha   80.58528152
_cell_angle_beta   99.41471848
_cell_angle_gamma   152.59420726
_symmetry_Int_Tables_number   1
_chemical_formula_structural   Li2Ti6O13
_chemical_formula_sum   'Li2 Ti6 O13'
_cell_volume   265.70392185
_cell_formula_units_Z   1
loop_
 _symmetry_equiv_pos_site_id
 _symmetry_equiv_pos_as_xyz
  1  'x, y, z'
loop_
 _atom_site_type_symbol
 _atom_site_label
 _atom_site_symmetry_multiplicity
 _atom_site_fract_x
 _atom_site_fract_y
 _atom_site_fract_z
 _atom_site_occupancy
  Li  Li0  1  0.95140836  0.04859164  0.75004056  1.0
  Li  Li1  1  0.04859164  -0.04859164  0.24995944  1.0
  Ti  Ti2  1  0.88495958  0.11504042  0.40630964  1.0
  Ti  Ti3  1  0.11504042  -0.11504042  0.59369036  1.0
  Ti  Ti4  1  0.77076755  0.22923245  0.72872643  1.0
  Ti  Ti5  1  0.22923245  -0.22923245  0.27127357  1.0
  Ti  Ti6  1  0.16739463  -0.16739463  0.93570907  1.0
  Ti  Ti7  1  0.83260537  0.16739463  0.06429093  1.0
  O  O8  1  0.92596700  0.07403300  0.21276302  1.0
  O  O9  1  0.07403300  -0.07403300  0.78723698  1.0
  O  O10  1  0.87118202  0.12881798  0.88833037  1.0
  O  O11  1  0.12881798  -0.12881798  0.11166963  1.0
  O  O12  1  0.84223988  0.15776012  0.59658195  1.0
  O  O13  1  0.15776012  -0.15776012  0.40341805  1.0
  O  O14  1  0.76044717  0.23955283  0.25801561  1.0
  O  O15  1  0.23955283  -0.23955283  0.74198439  1.0
  O  O16  1  0.70390671  0.29609329  0.92756598  1.0
  O  O17  1  0.29609329  -0.29609329  0.07243402  1.0
  O  O18  1  0.64688620  0.35311380  0.61101963  1.0
  O  O19  1  0.35311380  -0.35311380  0.38898037  1.0
  O  O20  1  0.00000000  -0.00000000  0.50000000  1.0
