# generated using pymatgen
data_TaCl5
_symmetry_space_group_name_H-M   'P 1'
_cell_length_a   13.70634407
_cell_length_b   13.70634407
_cell_length_c   6.41974776
_cell_angle_alpha   89.35421333
_cell_angle_beta   90.64578667
_cell_angle_gamma   93.43416656
_symmetry_Int_Tables_number   1
_chemical_formula_structural   TaCl5
_chemical_formula_sum   'Ta6 Cl30'
_cell_volume   1203.72864621
_cell_formula_units_Z   6
loop_
 _symmetry_equiv_pos_site_id
 _symmetry_equiv_pos_as_xyz
  1  'x, y, z'
loop_
 _atom_site_type_symbol
 _atom_site_label
 _atom_site_symmetry_multiplicity
 _atom_site_fract_x
 _atom_site_fract_y
 _atom_site_fract_z
 _atom_site_occupancy
  Ta  Ta0  1  1.56069412  0.22691353  0.47331121  1.0
  Ta  Ta1  1  0.77308647  -0.56069412  0.47331121  1.0
  Ta  Ta2  1  1.22691353  0.56069412  0.52668879  1.0
  Ta  Ta3  1  0.43930588  -0.22691353  0.52668879  1.0
  Ta  Ta4  1  0.89382226  -0.10617774  0.00000000  1.0
  Ta  Ta5  1  1.10617774  0.10617774  0.00000000  1.0
  Cl  Cl6  1  0.76534423  -0.13032468  0.77469549  1.0
  Cl  Cl7  1  1.13032468  0.23465577  0.77469549  1.0
  Cl  Cl8  1  0.86967532  -0.23465577  0.22530451  1.0
  Cl  Cl9  1  1.23465577  0.13032468  0.22530451  1.0
  Cl  Cl10  1  0.52181733  -0.33184319  0.74318007  1.0
  Cl  Cl11  1  1.33184319  0.47818267  0.74318007  1.0
  Cl  Cl12  1  0.66815681  -0.47818267  0.25681993  1.0
  Cl  Cl13  1  1.47818267  0.33184319  0.25681993  1.0
  Cl  Cl14  1  0.46339845  -0.09853439  0.74734415  1.0
  Cl  Cl15  1  1.09853439  0.53660155  0.74734415  1.0
  Cl  Cl16  1  0.90146561  -0.53660155  0.25265585  1.0
  Cl  Cl17  1  1.53660155  0.09853439  0.25265585  1.0
  Cl  Cl18  1  1.66566656  0.14437488  0.68962602  1.0
  Cl  Cl19  1  0.85562512  -0.66566656  0.68962602  1.0
  Cl  Cl20  1  1.14437488  0.66566656  0.31037398  1.0
  Cl  Cl21  1  0.33433344  -0.14437488  0.31037398  1.0
  Cl  Cl22  1  1.43230222  0.20283392  0.69393033  1.0
  Cl  Cl23  1  0.79716608  -0.43230222  0.69393033  1.0
  Cl  Cl24  1  1.20283392  0.43230222  0.30606967  1.0
  Cl  Cl25  1  0.56769778  -0.20283392  0.30606967  1.0
  Cl  Cl26  1  0.18868901  0.00121387  0.79264431  1.0
  Cl  Cl27  1  0.99878613  0.81131099  0.79264431  1.0
  Cl  Cl28  1  1.00121387  -0.81131099  0.20735569  1.0
  Cl  Cl29  1  1.81131099  -0.00121387  0.20735569  1.0
  Cl  Cl30  1  0.95240753  -0.95240753  0.79445212  1.0
  Cl  Cl31  1  0.04759247  -0.04759247  0.20554788  1.0
  Cl  Cl32  1  0.61930058  -0.61930058  0.67410578  1.0
  Cl  Cl33  1  0.38069942  -0.38069942  0.32589422  1.0
  Cl  Cl34  1  0.28553436  -0.28553436  0.72753511  1.0
  Cl  Cl35  1  0.71446564  -0.71446564  0.27246489  1.0
