# generated using pymatgen
data_CsSbS6(O3F)6
_symmetry_space_group_name_H-M   'P 1'
_cell_length_a   8.30374227
_cell_length_b   8.30374227
_cell_length_c   8.30374227
_cell_angle_alpha   97.82567339
_cell_angle_beta   97.82567339
_cell_angle_gamma   97.82567339
_symmetry_Int_Tables_number   1
_chemical_formula_structural   CsSbS6(O3F)6
_chemical_formula_sum   'Cs1 Sb1 S6 O18 F6'
_cell_volume   554.92131304
_cell_formula_units_Z   1
loop_
 _symmetry_equiv_pos_site_id
 _symmetry_equiv_pos_as_xyz
  1  'x, y, z'
loop_
 _atom_site_type_symbol
 _atom_site_label
 _atom_site_symmetry_multiplicity
 _atom_site_fract_x
 _atom_site_fract_y
 _atom_site_fract_z
 _atom_site_occupancy
  Cs  Cs0  1  0.50000000  0.50000000  0.50000000  1.0
  Sb  Sb1  1  0.00000000  0.00000000  0.00000000  1.0
  S  S2  1  0.76727136  0.65659281  0.04862648  1.0
  S  S3  1  1.34340719  -0.04862648  0.23272864  1.0
  S  S4  1  0.95137352  0.23272864  0.34340719  1.0
  S  S5  1  1.23272864  0.34340719  -0.04862648  1.0
  S  S6  1  0.65659281  1.04862648  -0.23272864  1.0
  S  S7  1  1.04862648  0.76727136  -0.34340719  1.0
  O  O8  1  1.74364386  0.58018521  -0.11990512  1.0
  O  O9  1  0.41981479  1.11990512  -0.74364386  1.0
  O  O10  1  1.11990512  0.25635614  -0.58018521  1.0
  O  O11  1  0.25635614  0.41981479  0.11990512  1.0
  O  O12  1  1.58018521  -0.11990512  0.74364386  1.0
  O  O13  1  0.88009488  0.74364386  0.58018521  1.0
  O  O14  1  0.81775913  0.84825439  0.06995280  1.0
  O  O15  1  1.15174561  -0.06995280  0.18224087  1.0
  O  O16  1  0.93004720  0.18224087  0.15174561  1.0
  O  O17  1  1.18224087  0.15174561  -0.06995280  1.0
  O  O18  1  0.84825439  1.06995280  -0.18224087  1.0
  O  O19  1  1.06995280  0.81775913  -0.15174561  1.0
  O  O20  1  0.64776409  0.62621646  0.15426298  1.0
  O  O21  1  1.37378354  -0.15426298  0.35223591  1.0
  O  O22  1  0.84573702  0.35223591  0.37378354  1.0
  O  O23  1  1.35223591  0.37378354  -0.15426298  1.0
  O  O24  1  0.62621646  1.15426298  -0.35223591  1.0
  O  O25  1  1.15426298  0.64776409  -0.37378354  1.0
  F  F26  1  0.60835297  1.13390113  -0.06580205  1.0
  F  F27  1  0.86609887  0.06580205  0.39164703  1.0
  F  F28  1  1.06580205  0.39164703  -0.13390113  1.0
  F  F29  1  1.39164703  -0.13390113  0.06580205  1.0
  F  F30  1  1.13390113  0.93419795  -0.39164703  1.0
  F  F31  1  0.93419795  0.60835297  0.13390113  1.0
