# generated using pymatgen
data_LiAg3(RuO3)2
_symmetry_space_group_name_H-M   'P 1'
_cell_length_a   5.23019029
_cell_length_b   5.23019029
_cell_length_c   6.64334643
_cell_angle_alpha   82.48447795
_cell_angle_beta   97.51552205
_cell_angle_gamma   60.01379979
_symmetry_Int_Tables_number   1
_chemical_formula_structural   LiAg3(RuO3)2
_chemical_formula_sum   'Li1 Ag3 Ru2 O6'
_cell_volume   151.92438794
_cell_formula_units_Z   1
loop_
 _symmetry_equiv_pos_site_id
 _symmetry_equiv_pos_as_xyz
  1  'x, y, z'
loop_
 _atom_site_type_symbol
 _atom_site_label
 _atom_site_symmetry_multiplicity
 _atom_site_fract_x
 _atom_site_fract_y
 _atom_site_fract_z
 _atom_site_occupancy
  Li  Li0  1  0.50000000  -0.50000000  0.50000000  1.0
  Ag  Ag1  1  0.00000000  0.00000000  0.00000000  1.0
  Ag  Ag2  1  0.66834172  -0.33165828  -0.00000000  1.0
  Ag  Ag3  1  1.33165828  0.33165828  -0.00000000  1.0
  Ru  Ru4  1  0.83313938  -0.16686062  0.50000000  1.0
  Ru  Ru5  1  1.16686062  0.16686062  0.50000000  1.0
  O  O6  1  0.55545892  -0.20448478  0.66739419  1.0
  O  O7  1  1.20448478  0.44454108  0.66739419  1.0
  O  O8  1  0.79551522  -0.44454108  0.33260581  1.0
  O  O9  1  1.44454108  0.20448478  0.33260581  1.0
  O  O10  1  0.90791690  -0.90791690  0.66731314  1.0
  O  O11  1  0.09208310  -0.09208310  0.33268686  1.0
