# generated using pymatgen
data_KIn(MoO4)2
_symmetry_space_group_name_H-M   'P 1'
_cell_length_a   7.48162195
_cell_length_b   7.48162195
_cell_length_c   7.64909320
_cell_angle_alpha   60.61598524
_cell_angle_beta   119.38401476
_cell_angle_gamma   94.62657701
_symmetry_Int_Tables_number   1
_chemical_formula_structural   KIn(MoO4)2
_chemical_formula_sum   'K2 In2 Mo4 O16'
_cell_volume   317.76981686
_cell_formula_units_Z   2
loop_
 _symmetry_equiv_pos_site_id
 _symmetry_equiv_pos_as_xyz
  1  'x, y, z'
loop_
 _atom_site_type_symbol
 _atom_site_label
 _atom_site_symmetry_multiplicity
 _atom_site_fract_x
 _atom_site_fract_y
 _atom_site_fract_z
 _atom_site_occupancy
  K  K0  1  0.20185374  0.20185374  0.25000000  1.0
  K  K1  1  0.79814626  0.79814626  0.75000000  1.0
  In  In2  1  0.77114698  0.77114698  0.25000000  1.0
  In  In3  1  0.22885302  0.22885302  0.75000000  1.0
  Mo  Mo4  1  0.69369353  0.29421033  0.23741444  1.0
  Mo  Mo5  1  0.70578967  0.30630647  0.73741444  1.0
  Mo  Mo6  1  1.29421033  -0.30630647  0.26258556  1.0
  Mo  Mo7  1  1.30630647  -0.29421033  0.76258556  1.0
  O  O8  1  1.59909260  -0.37763897  0.04776146  1.0
  O  O9  1  1.37763897  -0.59909260  0.54776146  1.0
  O  O10  1  0.62236103  0.59909260  0.45223854  1.0
  O  O11  1  0.40090740  0.37763897  0.95223854  1.0
  O  O12  1  0.75764359  0.03876774  0.29309938  1.0
  O  O13  1  0.96123226  0.24235641  0.79309938  1.0
  O  O14  1  1.03876774  -0.24235641  0.20690062  1.0
  O  O15  1  1.24235641  -0.03876774  0.70690062  1.0
  O  O16  1  1.34495944  -0.05254587  0.11310398  1.0
  O  O17  1  1.05254587  -0.34495944  0.61310398  1.0
  O  O18  1  0.94745413  0.34495944  0.38689602  1.0
  O  O19  1  0.65504056  0.05254587  0.88689602  1.0
  O  O20  1  0.61481187  0.22844565  0.44103806  1.0
  O  O21  1  0.77155435  0.38518813  0.94103806  1.0
  O  O22  1  1.22844565  -0.38518813  0.05896194  1.0
  O  O23  1  1.38518813  -0.22844565  0.55896194  1.0
