# generated using pymatgen
data_RbSc5Te8
_symmetry_space_group_name_H-M   'P 1'
_cell_length_a   10.97114375
_cell_length_b   10.97114375
_cell_length_c   10.34757081
_cell_angle_alpha   75.87266052
_cell_angle_beta   104.12733948
_cell_angle_gamma   158.07199105
_symmetry_Int_Tables_number   1
_chemical_formula_structural   RbSc5Te8
_chemical_formula_sum   'Rb1 Sc5 Te8'
_cell_volume   450.51579155
_cell_formula_units_Z   1
loop_
 _symmetry_equiv_pos_site_id
 _symmetry_equiv_pos_as_xyz
  1  'x, y, z'
loop_
 _atom_site_type_symbol
 _atom_site_label
 _atom_site_symmetry_multiplicity
 _atom_site_fract_x
 _atom_site_fract_y
 _atom_site_fract_z
 _atom_site_occupancy
  Rb  Rb0  1  0.50000000  0.50000000  -0.00000000  1.0
  Sc  Sc1  1  0.70576405  -0.70576405  0.84418582  1.0
  Sc  Sc2  1  1.29423595  -0.29423595  0.15581418  1.0
  Sc  Sc3  1  0.65567413  -0.65567413  0.47914957  1.0
  Sc  Sc4  1  1.34432587  -0.34432587  0.52085043  1.0
  Sc  Sc5  1  0.00000000  -0.00000000  0.50000000  1.0
  Te  Te6  1  0.91534486  -0.91534486  0.68361528  1.0
  Te  Te7  1  1.08465514  -0.08465514  0.31638472  1.0
  Te  Te8  1  0.83542757  -0.83542757  0.00350293  1.0
  Te  Te9  1  1.16457243  -0.16457243  0.99649707  1.0
  Te  Te10  1  0.76158295  -0.76158295  0.34170385  1.0
  Te  Te11  1  1.23841705  -0.23841705  0.65829615  1.0
  Te  Te12  1  0.57487978  -0.57487978  0.66620458  1.0
  Te  Te13  1  1.42512022  -0.42512022  0.33379542  1.0
