# generated using pymatgen
data_VBiO2
_symmetry_space_group_name_H-M   'P 1'
_cell_length_a   7.49434055
_cell_length_b   7.49434055
_cell_length_c   7.49434057
_cell_angle_alpha   129.07766350
_cell_angle_beta   129.07766350
_cell_angle_gamma   74.88564213
_symmetry_Int_Tables_number   1
_chemical_formula_structural   VBiO2
_chemical_formula_sum   'V4 Bi4 O8'
_cell_volume   247.05438872
_cell_formula_units_Z   4
loop_
 _symmetry_equiv_pos_site_id
 _symmetry_equiv_pos_as_xyz
  1  'x, y, z'
loop_
 _atom_site_type_symbol
 _atom_site_label
 _atom_site_symmetry_multiplicity
 _atom_site_fract_x
 _atom_site_fract_y
 _atom_site_fract_z
 _atom_site_occupancy
  V  V0  1  0.87500000  0.12500000  0.75000000  1.0
  V  V1  1  0.37500000  0.12500000  0.25000000  1.0
  V  V2  1  0.87500000  0.62500000  0.75000000  1.0
  V  V3  1  0.87500000  1.12500000  1.25000000  1.0
  Bi  Bi4  1  0.37500000  0.62500000  0.75000000  1.0
  Bi  Bi5  1  0.87500000  0.62500000  1.25000000  1.0
  Bi  Bi6  1  0.37500000  1.12500000  0.75000000  1.0
  Bi  Bi7  1  0.37500000  0.62500000  0.25000000  1.0
  O  O8  1  0.22376679  0.99425494  0.86438025  1.0
  O  O9  1  0.62012531  0.89061345  1.36438025  1.0
  O  O10  1  1.00574506  0.87012531  1.22951186  1.0
  O  O11  1  1.10938655  0.47376679  0.72951186  1.0
  O  O12  1  1.12987469  0.35938655  1.13561975  1.0
  O  O13  1  0.52623321  0.25574506  0.63561975  1.0
  O  O14  1  0.64061345  0.77623321  0.77048814  1.0
  O  O15  1  0.74425494  1.37987469  1.27048814  1.0
