# generated using pymatgen
data_TlGaI4
_symmetry_space_group_name_H-M   'P 1'
_cell_length_a   8.29238699
_cell_length_b   8.32887119
_cell_length_c   16.49903413
_cell_angle_alpha   90.00000000
_cell_angle_beta   95.17431569
_cell_angle_gamma   90.00000000
_symmetry_Int_Tables_number   1
_chemical_formula_structural   TlGaI4
_chemical_formula_sum   'Tl4 Ga4 I16'
_cell_volume   1134.88231957
_cell_formula_units_Z   4
loop_
 _symmetry_equiv_pos_site_id
 _symmetry_equiv_pos_as_xyz
  1  'x, y, z'
loop_
 _atom_site_type_symbol
 _atom_site_label
 _atom_site_symmetry_multiplicity
 _atom_site_fract_x
 _atom_site_fract_y
 _atom_site_fract_z
 _atom_site_occupancy
  Tl  Tl0  1  0.74567070  0.01524807  0.13806572  1.0
  Tl  Tl1  1  0.74567070  0.48475193  0.63806572  1.0
  Tl  Tl2  1  0.25432930  0.51524807  0.36193428  1.0
  Tl  Tl3  1  0.25432930  0.98475193  0.86193428  1.0
  Ga  Ga4  1  0.75388598  0.36177548  0.35993305  1.0
  Ga  Ga5  1  0.75388598  0.13822452  0.85993305  1.0
  Ga  Ga6  1  0.24611402  0.86177548  0.14006695  1.0
  Ga  Ga7  1  0.24611402  0.63822452  0.64006695  1.0
  I  I8  1  0.99017403  0.16647309  0.34029671  1.0
  I  I9  1  0.99017403  0.33352691  0.84029671  1.0
  I  I10  1  0.00982597  0.66647309  0.15970329  1.0
  I  I11  1  0.00982597  0.83352691  0.65970329  1.0
  I  I12  1  0.85938170  0.64103336  0.40966482  1.0
  I  I13  1  0.85938170  0.85896664  0.90966482  1.0
  I  I14  1  0.14061830  0.14103336  0.09033518  1.0
  I  I15  1  0.14061830  0.35896664  0.59033518  1.0
  I  I16  1  0.57892396  0.39084956  0.22235318  1.0
  I  I17  1  0.57892396  0.10915044  0.72235318  1.0
  I  I18  1  0.42107604  0.89084956  0.27764682  1.0
  I  I19  1  0.42107604  0.60915044  0.77764682  1.0
  I  I20  1  0.57222412  0.24778244  0.46690422  1.0
  I  I21  1  0.57222412  0.25221756  0.96690422  1.0
  I  I22  1  0.42777588  0.74778244  0.03309578  1.0
  I  I23  1  0.42777588  0.75221756  0.53309578  1.0
