# generated using pymatgen
data_CuH4(ClO)2
_symmetry_space_group_name_H-M   'P 1'
_cell_length_a   8.04864667
_cell_length_b   4.09259879
_cell_length_c   7.61403552
_cell_angle_alpha   90.00000000
_cell_angle_beta   90.00000000
_cell_angle_gamma   90.00000000
_symmetry_Int_Tables_number   1
_chemical_formula_structural   CuH4(ClO)2
_chemical_formula_sum   'Cu2 H8 Cl4 O4'
_cell_volume   250.80542875
_cell_formula_units_Z   2
loop_
 _symmetry_equiv_pos_site_id
 _symmetry_equiv_pos_as_xyz
  1  'x, y, z'
loop_
 _atom_site_type_symbol
 _atom_site_label
 _atom_site_symmetry_multiplicity
 _atom_site_fract_x
 _atom_site_fract_y
 _atom_site_fract_z
 _atom_site_occupancy
  Cu  Cu0  1  0.50000000  0.00000000  0.50000000  1.0
  Cu  Cu1  1  0.00000000  0.00000000  0.00000000  1.0
  H  H2  1  0.18772731  0.88614576  0.58685832  1.0
  H  H3  1  0.18772731  0.11385424  0.41314168  1.0
  H  H4  1  0.68772731  0.88614576  0.91314168  1.0
  H  H5  1  0.68772731  0.11385424  0.08685832  1.0
  H  H6  1  0.81227269  0.88614576  0.58685832  1.0
  H  H7  1  0.81227269  0.11385424  0.41314168  1.0
  H  H8  1  0.31227269  0.88614576  0.91314168  1.0
  H  H9  1  0.31227269  0.11385424  0.08685832  1.0
  Cl  Cl10  1  0.50000000  0.67826378  0.74532319  1.0
  Cl  Cl11  1  0.50000000  0.32173622  0.25467681  1.0
  Cl  Cl12  1  0.00000000  0.67826378  0.75467681  1.0
  Cl  Cl13  1  0.00000000  0.32173622  0.24532319  1.0
  O  O14  1  0.25841170  0.00000000  0.50000000  1.0
  O  O15  1  0.75841170  0.00000000  0.00000000  1.0
  O  O16  1  0.74158830  0.00000000  0.50000000  1.0
  O  O17  1  0.24158830  0.00000000  0.00000000  1.0
