# generated using pymatgen
data_CeGa3Cu
_symmetry_space_group_name_H-M   'P 1'
_cell_length_a   5.93228476
_cell_length_b   5.93228476
_cell_length_c   5.93228476
_cell_angle_alpha   137.64905120
_cell_angle_beta   137.64905120
_cell_angle_gamma   61.44092021
_symmetry_Int_Tables_number   1
_chemical_formula_structural   CeGa3Cu
_chemical_formula_sum   'Ce1 Ga3 Cu1'
_cell_volume   93.67298800
_cell_formula_units_Z   1
loop_
 _symmetry_equiv_pos_site_id
 _symmetry_equiv_pos_as_xyz
  1  'x, y, z'
loop_
 _atom_site_type_symbol
 _atom_site_label
 _atom_site_symmetry_multiplicity
 _atom_site_fract_x
 _atom_site_fract_y
 _atom_site_fract_z
 _atom_site_occupancy
  Ce  Ce0  1  0.58293435  0.58293435  1.00000000  1.0
  Ga  Ga1  1  0.83364275  0.33364275  0.50000000  1.0
  Ga  Ga2  1  0.33364275  0.83364275  0.50000000  1.0
  Ga  Ga3  1  -0.01175419  -0.01175419  0.00000000  1.0
  Cu  Cu4  1  0.21933433  0.21933433  -0.00000000  1.0
