# generated using pymatgen
data_Na4Bi
_symmetry_space_group_name_H-M   'P 1'
_cell_length_a   6.65600336
_cell_length_b   6.65600336
_cell_length_c   9.52256842
_cell_angle_alpha   73.67515970
_cell_angle_beta   106.32484030
_cell_angle_gamma   129.84701310
_symmetry_Int_Tables_number   1
_chemical_formula_structural   Na4Bi
_chemical_formula_sum   'Na8 Bi2'
_cell_volume   307.90443484
_cell_formula_units_Z   2
loop_
 _symmetry_equiv_pos_site_id
 _symmetry_equiv_pos_as_xyz
  1  'x, y, z'
loop_
 _atom_site_type_symbol
 _atom_site_label
 _atom_site_symmetry_multiplicity
 _atom_site_fract_x
 _atom_site_fract_y
 _atom_site_fract_z
 _atom_site_occupancy
  Na  Na0  1  0.54476611  0.45523389  0.85089978  1.0
  Na  Na1  1  1.45523389  -0.45523389  0.14910022  1.0
  Na  Na2  1  1.33352145  -0.33352145  0.44488409  1.0
  Na  Na3  1  0.66647855  0.33352145  0.55511591  1.0
  Na  Na4  1  0.16647921  -0.16647921  1.05511627  1.0
  Na  Na5  1  0.83352079  -0.83352079  -0.05511627  1.0
  Na  Na6  1  0.04476742  -0.04476742  0.35090116  1.0
  Na  Na7  1  0.95523258  -0.95523258  0.64909884  1.0
  Bi  Bi8  1  0.24999930  -0.24999930  0.74999973  1.0
  Bi  Bi9  1  0.75000070  -0.75000070  0.25000027  1.0
