# generated using pymatgen
data_HgO2
_symmetry_space_group_name_H-M   'P 1'
_cell_length_a   4.80457349
_cell_length_b   6.44131551
_cell_length_c   6.35970631
_cell_angle_alpha   90.00000000
_cell_angle_beta   90.00000000
_cell_angle_gamma   90.00000000
_symmetry_Int_Tables_number   1
_chemical_formula_structural   HgO2
_chemical_formula_sum   'Hg4 O8'
_cell_volume   196.81875203
_cell_formula_units_Z   4
loop_
 _symmetry_equiv_pos_site_id
 _symmetry_equiv_pos_as_xyz
  1  'x, y, z'
loop_
 _atom_site_type_symbol
 _atom_site_label
 _atom_site_symmetry_multiplicity
 _atom_site_fract_x
 _atom_site_fract_y
 _atom_site_fract_z
 _atom_site_occupancy
  Hg  Hg0  1  0.50000000  0.50000000  0.00000000  1.0
  Hg  Hg1  1  0.50000000  0.00000000  0.50000000  1.0
  Hg  Hg2  1  0.00000000  0.50000000  0.50000000  1.0
  Hg  Hg3  1  0.00000000  0.00000000  0.00000000  1.0
  O  O4  1  0.08626645  0.43056957  0.06576337  1.0
  O  O5  1  0.08626645  0.06943043  0.56576337  1.0
  O  O6  1  0.58626645  0.43056957  0.43423663  1.0
  O  O7  1  0.58626645  0.06943043  0.93423663  1.0
  O  O8  1  0.91373355  0.93056957  0.43423663  1.0
  O  O9  1  0.91373355  0.56943043  0.93423663  1.0
  O  O10  1  0.41373355  0.93056957  0.06576337  1.0
  O  O11  1  0.41373355  0.56943043  0.56576337  1.0
