# generated using pymatgen
data_Sn3PO4F3
_symmetry_space_group_name_H-M   'P 1'
_cell_length_a   7.31009912
_cell_length_b   7.31009912
_cell_length_c   7.31009912
_cell_angle_alpha   115.48397804
_cell_angle_beta   115.48397804
_cell_angle_gamma   115.48397804
_symmetry_Int_Tables_number   1
_chemical_formula_structural   Sn3PO4F3
_chemical_formula_sum   'Sn3 P1 O4 F3'
_cell_volume   208.66252345
_cell_formula_units_Z   1
loop_
 _symmetry_equiv_pos_site_id
 _symmetry_equiv_pos_as_xyz
  1  'x, y, z'
loop_
 _atom_site_type_symbol
 _atom_site_label
 _atom_site_symmetry_multiplicity
 _atom_site_fract_x
 _atom_site_fract_y
 _atom_site_fract_z
 _atom_site_occupancy
  Sn  Sn0  1  0.63024032  -0.02882718  -0.01867749  1.0
  Sn  Sn1  1  0.98132251  0.63024032  -0.02882718  1.0
  Sn  Sn2  1  0.97117282  0.98132251  0.63024032  1.0
  P  P3  1  0.36086372  0.36086372  0.36086372  1.0
  O  O4  1  1.31904714  0.51482294  0.53808100  1.0
  O  O5  1  0.53808100  0.31904714  -0.48517706  1.0
  O  O6  1  0.51482294  0.53808100  0.31904714  1.0
  O  O7  1  0.02684390  0.02684390  0.02684390  1.0
  F  F8  1  0.83529137  1.18098233  -0.28666806  1.0
  F  F9  1  0.71333194  -0.16470863  0.18098233  1.0
  F  F10  1  1.18098233  0.71333194  0.83529137  1.0
