# generated using pymatgen
data_Ba2Mn2As2O
_symmetry_space_group_name_H-M   'P 1'
_cell_length_a   6.43687164
_cell_length_b   6.43687164
_cell_length_c   7.65833002
_cell_angle_alpha   59.31325429
_cell_angle_beta   120.68674571
_cell_angle_gamma   141.92110612
_symmetry_Int_Tables_number   1
_chemical_formula_structural   Ba2Mn2As2O
_chemical_formula_sum   'Ba2 Mn2 As2 O1'
_cell_volume   164.72881705
_cell_formula_units_Z   1
loop_
 _symmetry_equiv_pos_site_id
 _symmetry_equiv_pos_as_xyz
  1  'x, y, z'
loop_
 _atom_site_type_symbol
 _atom_site_label
 _atom_site_symmetry_multiplicity
 _atom_site_fract_x
 _atom_site_fract_y
 _atom_site_fract_z
 _atom_site_occupancy
  Ba  Ba0  1  0.05063098  -0.05063098  0.29476958  1.0
  Ba  Ba1  1  0.94936902  -0.94936902  0.70523042  1.0
  Mn  Mn2  1  0.31103147  -0.31103147  0.92425332  1.0
  Mn  Mn3  1  0.68896853  -0.68896853  0.07574668  1.0
  As  As4  1  1.31388444  -0.31388444  0.26861387  1.0
  As  As5  1  0.68611556  0.31388444  0.73138613  1.0
  O  O6  1  0.50000000  0.50000000  0.00000000  1.0
