# generated using pymatgen
data_CsCu(SbS2)2
_symmetry_space_group_name_H-M   'P 1'
_cell_length_a   6.88997136
_cell_length_b   6.88997136
_cell_length_c   10.93029974
_cell_angle_alpha   82.10418699
_cell_angle_beta   97.89581301
_cell_angle_gamma   69.37990650
_symmetry_Int_Tables_number   1
_chemical_formula_structural   CsCu(SbS2)2
_chemical_formula_sum   'Cs2 Cu2 Sb4 S8'
_cell_volume   471.27970104
_cell_formula_units_Z   2
loop_
 _symmetry_equiv_pos_site_id
 _symmetry_equiv_pos_as_xyz
  1  'x, y, z'
loop_
 _atom_site_type_symbol
 _atom_site_label
 _atom_site_symmetry_multiplicity
 _atom_site_fract_x
 _atom_site_fract_y
 _atom_site_fract_z
 _atom_site_occupancy
  Cs  Cs0  1  0.51895260  -0.48104740  0.25000000  1.0
  Cs  Cs1  1  1.48104740  0.48104740  0.75000000  1.0
  Cu  Cu2  1  0.89925021  -0.10074979  0.25000000  1.0
  Cu  Cu3  1  1.10074979  0.10074979  0.75000000  1.0
  Sb  Sb4  1  1.20502047  0.10303100  0.42990828  1.0
  Sb  Sb5  1  0.89696900  -0.20502047  0.92990828  1.0
  Sb  Sb6  1  1.10303100  0.20502047  0.07009172  1.0
  Sb  Sb7  1  0.79497953  -0.10303100  0.57009172  1.0
  S  S8  1  0.58054252  -0.03249288  0.35611479  1.0
  S  S9  1  1.03249288  0.41945748  0.85611479  1.0
  S  S10  1  0.96750712  -0.41945748  0.14388521  1.0
  S  S11  1  1.41945748  0.03249288  0.64388521  1.0
  S  S12  1  1.77339700  0.13914076  0.06913055  1.0
  S  S13  1  0.86085924  -0.77339700  0.56913055  1.0
  S  S14  1  1.13914076  0.77339700  0.43086945  1.0
  S  S15  1  0.22660300  -0.13914076  0.93086945  1.0
