# generated using pymatgen
data_PbO2
_symmetry_space_group_name_H-M   'P 1'
_cell_length_a   5.54034223
_cell_length_b   3.80134165
_cell_length_c   7.61475564
_cell_angle_alpha   90.00000000
_cell_angle_beta   90.00000000
_cell_angle_gamma   90.00000000
_symmetry_Int_Tables_number   1
_chemical_formula_structural   PbO2
_chemical_formula_sum   'Pb4 O8'
_cell_volume   160.37234049
_cell_formula_units_Z   4
loop_
 _symmetry_equiv_pos_site_id
 _symmetry_equiv_pos_as_xyz
  1  'x, y, z'
loop_
 _atom_site_type_symbol
 _atom_site_label
 _atom_site_symmetry_multiplicity
 _atom_site_fract_x
 _atom_site_fract_y
 _atom_site_fract_z
 _atom_site_occupancy
  Pb  Pb0  1  0.76671559  0.75000000  0.41262374  1.0
  Pb  Pb1  1  0.26671559  0.75000000  0.08737626  1.0
  Pb  Pb2  1  0.23328441  0.25000000  0.58737626  1.0
  Pb  Pb3  1  0.73328441  0.25000000  0.91262374  1.0
  O  O4  1  1.02282745  0.75000000  0.63487650  1.0
  O  O5  1  0.52282745  0.75000000  0.86512350  1.0
  O  O6  1  -0.02282745  0.25000000  0.36512350  1.0
  O  O7  1  0.47717255  0.25000000  0.13487650  1.0
  O  O8  1  0.88291029  0.75000000  0.11312932  1.0
  O  O9  1  0.38291029  0.75000000  0.38687068  1.0
  O  O10  1  0.11708971  0.25000000  0.88687068  1.0
  O  O11  1  0.61708971  0.25000000  0.61312932  1.0
