# generated using pymatgen
data_Eu2Cu6P5
_symmetry_space_group_name_H-M   'P 1'
_cell_length_a   12.84960942
_cell_length_b   12.84960942
_cell_length_c   12.84960942
_cell_angle_alpha   162.03786489
_cell_angle_beta   162.03786489
_cell_angle_gamma   25.50854675
_symmetry_Int_Tables_number   1
_chemical_formula_structural   Eu2Cu6P5
_chemical_formula_sum   'Eu2 Cu6 P5'
_cell_volume   201.71135042
_cell_formula_units_Z   1
loop_
 _symmetry_equiv_pos_site_id
 _symmetry_equiv_pos_as_xyz
  1  'x, y, z'
loop_
 _atom_site_type_symbol
 _atom_site_label
 _atom_site_symmetry_multiplicity
 _atom_site_fract_x
 _atom_site_fract_y
 _atom_site_fract_z
 _atom_site_occupancy
  Eu  Eu0  1  0.85101208  0.85101208  1.00000000  1.0
  Eu  Eu1  1  0.14898792  0.14898792  0.00000000  1.0
  Cu  Cu2  1  0.44754008  0.94754008  0.50000000  1.0
  Cu  Cu3  1  0.55245992  0.05245992  0.50000000  1.0
  Cu  Cu4  1  0.94754008  0.44754008  0.50000000  1.0
  Cu  Cu5  1  0.05245992  0.55245992  0.50000000  1.0
  Cu  Cu6  1  0.25000000  0.75000000  0.50000000  1.0
  Cu  Cu7  1  0.75000000  0.25000000  0.50000000  1.0
  P  P8  1  0.69767703  0.69767703  1.00000000  1.0
  P  P9  1  0.30232297  0.30232297  0.00000000  1.0
  P  P10  1  0.60514256  0.60514256  1.00000000  1.0
  P  P11  1  0.39485744  0.39485744  -0.00000000  1.0
  P  P12  1  0.00000000  0.00000000  0.00000000  1.0
