# generated using pymatgen
data_ScReGe2
_symmetry_space_group_name_H-M   'P 1'
_cell_length_a   9.45054814
_cell_length_b   10.21091125
_cell_length_c   8.38695704
_cell_angle_alpha   90.00000000
_cell_angle_beta   90.00000000
_cell_angle_gamma   90.00000000
_symmetry_Int_Tables_number   1
_chemical_formula_structural   ScReGe2
_chemical_formula_sum   'Sc12 Re12 Ge24'
_cell_volume   809.33052180
_cell_formula_units_Z   12
loop_
 _symmetry_equiv_pos_site_id
 _symmetry_equiv_pos_as_xyz
  1  'x, y, z'
loop_
 _atom_site_type_symbol
 _atom_site_label
 _atom_site_symmetry_multiplicity
 _atom_site_fract_x
 _atom_site_fract_y
 _atom_site_fract_z
 _atom_site_occupancy
  Sc  Sc0  1  0.16999507  0.54801825  0.75602848  1.0
  Sc  Sc1  1  0.16999507  0.54801825  0.24397152  1.0
  Sc  Sc2  1  0.66999507  0.95198175  0.75602848  1.0
  Sc  Sc3  1  0.66999507  0.95198175  0.24397152  1.0
  Sc  Sc4  1  0.83000493  0.45198175  0.75602848  1.0
  Sc  Sc5  1  0.83000493  0.45198175  0.24397152  1.0
  Sc  Sc6  1  0.33000493  0.04801825  0.75602848  1.0
  Sc  Sc7  1  0.33000493  0.04801825  0.24397152  1.0
  Sc  Sc8  1  0.16539767  0.82189265  0.00000000  1.0
  Sc  Sc9  1  0.66539767  0.67810735  0.00000000  1.0
  Sc  Sc10  1  0.83460233  0.17810735  0.00000000  1.0
  Sc  Sc11  1  0.33460233  0.32189265  0.00000000  1.0
  Re  Re12  1  0.42197630  0.75101993  0.75097974  1.0
  Re  Re13  1  0.42197630  0.75101993  0.24902026  1.0
  Re  Re14  1  0.92197630  0.74898007  0.75097974  1.0
  Re  Re15  1  0.92197630  0.74898007  0.24902026  1.0
  Re  Re16  1  0.57802370  0.24898007  0.75097974  1.0
  Re  Re17  1  0.57802370  0.24898007  0.24902026  1.0
  Re  Re18  1  0.07802370  0.25101993  0.75097974  1.0
  Re  Re19  1  0.07802370  0.25101993  0.24902026  1.0
  Re  Re20  1  0.50000000  0.50000000  0.75684705  1.0
  Re  Re21  1  0.50000000  0.50000000  0.24315295  1.0
  Re  Re22  1  0.00000000  0.00000000  0.75684705  1.0
  Re  Re23  1  0.00000000  0.00000000  0.24315295  1.0
  Ge  Ge24  1  0.17421984  0.81938324  0.65302437  1.0
  Ge  Ge25  1  0.17421984  0.81938324  0.34697563  1.0
  Ge  Ge26  1  0.67421984  0.68061676  0.65302437  1.0
  Ge  Ge27  1  0.67421984  0.68061676  0.34697563  1.0
  Ge  Ge28  1  0.82578016  0.18061676  0.65302437  1.0
  Ge  Ge29  1  0.82578016  0.18061676  0.34697563  1.0
  Ge  Ge30  1  0.32578016  0.31938324  0.65302437  1.0
  Ge  Ge31  1  0.32578016  0.31938324  0.34697563  1.0
  Ge  Ge32  1  0.46613816  0.87912324  0.50000000  1.0
  Ge  Ge33  1  0.96613816  0.62087676  0.50000000  1.0
  Ge  Ge34  1  0.53386184  0.12087676  0.50000000  1.0
  Ge  Ge35  1  0.03386184  0.37912324  0.50000000  1.0
  Ge  Ge36  1  0.36495794  0.58762755  0.50000000  1.0
  Ge  Ge37  1  0.86495794  0.91237245  0.50000000  1.0
  Ge  Ge38  1  0.63504206  0.41237245  0.50000000  1.0
  Ge  Ge39  1  0.13504206  0.08762755  0.50000000  1.0
  Ge  Ge40  1  0.45825923  0.88183375  -0.00000000  1.0
  Ge  Ge41  1  0.95825923  0.61816625  0.00000000  1.0
  Ge  Ge42  1  0.54174077  0.11816625  -0.00000000  1.0
  Ge  Ge43  1  0.04174077  0.38183375  0.00000000  1.0
  Ge  Ge44  1  0.35824208  0.59783816  -0.00000000  1.0
  Ge  Ge45  1  0.85824208  0.90216184  0.00000000  1.0
  Ge  Ge46  1  0.64175792  0.40216184  -0.00000000  1.0
  Ge  Ge47  1  0.14175792  0.09783816  0.00000000  1.0
