# generated using pymatgen
data_Rb3W2Cl9
_symmetry_space_group_name_H-M   'P 1'
_cell_length_a   7.49594387
_cell_length_b   7.49594387
_cell_length_c   16.62681645
_cell_angle_alpha   90.00000000
_cell_angle_beta   90.00000000
_cell_angle_gamma   120.00000000
_symmetry_Int_Tables_number   1
_chemical_formula_structural   Rb3W2Cl9
_chemical_formula_sum   'Rb6 W4 Cl18'
_cell_volume   809.08171438
_cell_formula_units_Z   2
loop_
 _symmetry_equiv_pos_site_id
 _symmetry_equiv_pos_as_xyz
  1  'x, y, z'
loop_
 _atom_site_type_symbol
 _atom_site_label
 _atom_site_symmetry_multiplicity
 _atom_site_fract_x
 _atom_site_fract_y
 _atom_site_fract_z
 _atom_site_occupancy
  Rb  Rb0  1  0.33333333  0.66666667  0.92622448  1.0
  Rb  Rb1  1  0.33333333  0.66666667  0.57377552  1.0
  Rb  Rb2  1  0.66666667  0.33333333  0.42622448  1.0
  Rb  Rb3  1  0.66666667  0.33333333  0.07377552  1.0
  Rb  Rb4  1  -0.00000000  -0.00000000  0.25000000  1.0
  Rb  Rb5  1  -0.00000000  -0.00000000  0.75000000  1.0
  W  W6  1  0.33333333  0.66666667  0.32148187  1.0
  W  W7  1  0.33333333  0.66666667  0.17851813  1.0
  W  W8  1  0.66666667  0.33333333  0.82148187  1.0
  W  W9  1  0.66666667  0.33333333  0.67851813  1.0
  Cl  Cl10  1  0.14229813  0.78282153  0.40159581  1.0
  Cl  Cl11  1  0.14229813  0.78282153  0.09840419  1.0
  Cl  Cl12  1  0.78282153  0.64052339  0.90159581  1.0
  Cl  Cl13  1  0.78282153  0.64052339  0.59840419  1.0
  Cl  Cl14  1  0.64052339  0.85770187  0.40159581  1.0
  Cl  Cl15  1  0.64052339  0.85770187  0.09840419  1.0
  Cl  Cl16  1  0.21717847  0.35947661  0.40159581  1.0
  Cl  Cl17  1  0.21717847  0.35947661  0.09840419  1.0
  Cl  Cl18  1  0.85770187  0.21717847  0.90159581  1.0
  Cl  Cl19  1  0.85770187  0.21717847  0.59840419  1.0
  Cl  Cl20  1  0.35947661  0.14229813  0.90159581  1.0
  Cl  Cl21  1  0.35947661  0.14229813  0.59840419  1.0
  Cl  Cl22  1  0.54570925  0.53788934  0.25000000  1.0
  Cl  Cl23  1  0.53788934  0.99218009  0.75000000  1.0
  Cl  Cl24  1  0.99218009  0.45429075  0.25000000  1.0
  Cl  Cl25  1  0.46211066  0.00781991  0.25000000  1.0
  Cl  Cl26  1  0.45429075  0.46211066  0.75000000  1.0
  Cl  Cl27  1  0.00781991  0.54570925  0.75000000  1.0
