# generated using pymatgen
data_LiV(CuO3)2
_symmetry_space_group_name_H-M   'P 1'
_cell_length_a   5.67766603
_cell_length_b   8.68401813
_cell_length_c   10.08520062
_cell_angle_alpha   90.00000000
_cell_angle_beta   90.00000000
_cell_angle_gamma   90.00000000
_symmetry_Int_Tables_number   1
_chemical_formula_structural   LiV(CuO3)2
_chemical_formula_sum   'Li4 V4 Cu8 O24'
_cell_volume   497.25036085
_cell_formula_units_Z   4
loop_
 _symmetry_equiv_pos_site_id
 _symmetry_equiv_pos_as_xyz
  1  'x, y, z'
loop_
 _atom_site_type_symbol
 _atom_site_label
 _atom_site_symmetry_multiplicity
 _atom_site_fract_x
 _atom_site_fract_y
 _atom_site_fract_z
 _atom_site_occupancy
  O  O0  1  0.51874590  0.99781879  0.56069153  1.0
  O  O1  1  1.01874590  0.50218121  0.43930847  1.0
  O  O2  1  0.48125410  0.49781879  0.93930847  1.0
  O  O3  1  -0.01874590  0.00218121  0.06069153  1.0
  O  O4  1  0.25002726  0.33369455  0.64764686  1.0
  O  O5  1  0.75002726  0.16630545  0.35235314  1.0
  O  O6  1  0.74997274  0.83369455  0.85235314  1.0
  O  O7  1  0.24997274  0.66630545  0.14764686  1.0
  O  O8  1  0.24998983  0.68133917  0.63862963  1.0
  O  O9  1  0.74998983  0.81866083  0.36137037  1.0
  O  O10  1  0.75001017  0.18133917  0.86137037  1.0
  O  O11  1  0.25001017  0.31866083  0.13862963  1.0
  O  O12  1  0.98129389  0.99782195  0.56070586  1.0
  O  O13  1  0.48129389  0.50217805  0.43929414  1.0
  O  O14  1  0.01870611  0.49782195  0.93929414  1.0
  O  O15  1  0.51870611  0.00217805  0.06070586  1.0
  O  O16  1  0.24999960  0.81515586  0.84875282  1.0
  O  O17  1  0.74999960  0.68484414  0.15124718  1.0
  O  O18  1  0.75000040  0.31515586  0.65124718  1.0
  O  O19  1  0.25000040  0.18484414  0.34875282  1.0
  O  O20  1  0.75000009  0.66967996  0.66148701  1.0
  O  O21  1  0.25000009  0.83032004  0.33851299  1.0
  O  O22  1  0.24999991  0.16967996  0.83851299  1.0
  O  O23  1  0.74999991  0.33032004  0.16148701  1.0
  Li  Li24  1  0.25003783  0.88738329  0.51707822  1.0
  Li  Li25  1  0.75003783  0.61261671  0.48292178  1.0
  Li  Li26  1  0.74996217  0.38738329  0.98292178  1.0
  Li  Li27  1  0.24996217  0.11261671  0.01707822  1.0
  V  V28  1  0.25002042  0.49854135  0.53659271  1.0
  V  V29  1  0.75002042  1.00145865  0.46340729  1.0
  V  V30  1  0.74997958  -0.00145865  0.96340729  1.0
  V  V31  1  0.24997958  0.50145865  0.03659271  1.0
  Cu  Cu32  1  0.49919858  0.74586748  0.75379300  1.0
  Cu  Cu33  1  0.99919858  0.75413252  0.24620700  1.0
  Cu  Cu34  1  0.50080142  0.24586748  0.74620700  1.0
  Cu  Cu35  1  0.00080142  0.25413252  0.25379300  1.0
  Cu  Cu36  1  1.00080066  0.74585668  0.75379635  1.0
  Cu  Cu37  1  0.50080066  0.75414332  0.24620365  1.0
  Cu  Cu38  1  -0.00080066  0.24585668  0.74620365  1.0
  Cu  Cu39  1  0.49919934  0.25414332  0.25379635  1.0
