# generated using pymatgen
data_YRe2SiC
_symmetry_space_group_name_H-M   'P 1'
_cell_length_a   5.79531795
_cell_length_b   5.79531795
_cell_length_c   7.28420040
_cell_angle_alpha   90.00000000
_cell_angle_beta   90.00000000
_cell_angle_gamma   140.15548014
_symmetry_Int_Tables_number   1
_chemical_formula_structural   YRe2SiC
_chemical_formula_sum   'Y2 Re4 Si2 C2'
_cell_volume   156.74566349
_cell_formula_units_Z   2
loop_
 _symmetry_equiv_pos_site_id
 _symmetry_equiv_pos_as_xyz
  1  'x, y, z'
loop_
 _atom_site_type_symbol
 _atom_site_label
 _atom_site_symmetry_multiplicity
 _atom_site_fract_x
 _atom_site_fract_y
 _atom_site_fract_z
 _atom_site_occupancy
  Y  Y0  1  0.45753797  0.54246203  0.75000000  1.0
  Y  Y1  1  -0.45753797  0.45753797  0.25000000  1.0
  Re  Re2  1  0.17360190  0.82639810  0.93851557  1.0
  Re  Re3  1  0.17360190  0.82639810  0.56148443  1.0
  Re  Re4  1  -0.17360190  0.17360190  0.43851557  1.0
  Re  Re5  1  -0.17360190  0.17360190  0.06148443  1.0
  Si  Si6  1  -0.26482580  0.26482580  0.75000000  1.0
  Si  Si7  1  0.26482580  0.73517420  0.25000000  1.0
  C  C8  1  0.00000000  0.00000000  0.00000000  1.0
  C  C9  1  0.00000000  0.00000000  0.50000000  1.0
