# generated using pymatgen
data_KSbMoO5
_symmetry_space_group_name_H-M   'P 1'
_cell_length_a   9.20908350
_cell_length_b   11.88284435
_cell_length_c   5.82675516
_cell_angle_alpha   90.00000000
_cell_angle_beta   107.81556564
_cell_angle_gamma   90.00000000
_symmetry_Int_Tables_number   1
_chemical_formula_structural   KSbMoO5
_chemical_formula_sum   'K4 Sb4 Mo4 O20'
_cell_volume   607.04608450
_cell_formula_units_Z   4
loop_
 _symmetry_equiv_pos_site_id
 _symmetry_equiv_pos_as_xyz
  1  'x, y, z'
loop_
 _atom_site_type_symbol
 _atom_site_label
 _atom_site_symmetry_multiplicity
 _atom_site_fract_x
 _atom_site_fract_y
 _atom_site_fract_z
 _atom_site_occupancy
  K  K0  1  0.90439909  0.35566672  0.95507943  1.0
  K  K1  1  0.90439909  0.14433328  0.45507943  1.0
  K  K2  1  0.09560091  0.85566672  0.54492057  1.0
  K  K3  1  0.09560091  0.64433328  0.04492057  1.0
  Sb  Sb4  1  0.45455708  0.67151056  0.78874197  1.0
  Sb  Sb5  1  0.45455708  0.82848944  0.28874197  1.0
  Sb  Sb6  1  0.54544292  0.17151056  0.71125803  1.0
  Sb  Sb7  1  0.54544292  0.32848944  0.21125803  1.0
  Mo  Mo8  1  0.77600146  0.91515685  0.92749248  1.0
  Mo  Mo9  1  0.77600146  0.58484315  0.42749248  1.0
  Mo  Mo10  1  0.22399854  0.41515685  0.57250752  1.0
  Mo  Mo11  1  0.22399854  0.08484315  0.07250752  1.0
  O  O12  1  0.92644899  0.84713924  0.86026505  1.0
  O  O13  1  0.92644899  0.65286076  0.36026505  1.0
  O  O14  1  0.07355101  0.34713924  0.63973495  1.0
  O  O15  1  0.07355101  0.15286076  0.13973495  1.0
  O  O16  1  0.82829026  0.56044804  0.73797997  1.0
  O  O17  1  0.82829026  0.93955196  0.23797997  1.0
  O  O18  1  0.17170974  0.06044804  0.76202003  1.0
  O  O19  1  0.17170974  0.43955196  0.26202003  1.0
  O  O20  1  0.60489962  0.83032123  0.83786768  1.0
  O  O21  1  0.60489962  0.66967877  0.33786768  1.0
  O  O22  1  0.39510038  0.33032123  0.66213232  1.0
  O  O23  1  0.39510038  0.16967877  0.16213232  1.0
  O  O24  1  0.33900370  0.75972112  0.96957265  1.0
  O  O25  1  0.33900370  0.74027888  0.46957265  1.0
  O  O26  1  0.66099630  0.25972112  0.53042735  1.0
  O  O27  1  0.66099630  0.24027888  0.03042735  1.0
  O  O28  1  0.26683408  0.55007158  0.73078856  1.0
  O  O29  1  0.26683408  0.94992842  0.23078856  1.0
  O  O30  1  0.73316592  0.05007158  0.76921144  1.0
  O  O31  1  0.73316592  0.44992842  0.26921144  1.0
