# generated using pymatgen
data_Ca2VBiO6
_symmetry_space_group_name_H-M   'P 1'
_cell_length_a   7.55003254
_cell_length_b   7.55003254
_cell_length_c   5.58047075
_cell_angle_alpha   90.00000000
_cell_angle_beta   90.00000000
_cell_angle_gamma   106.89768620
_symmetry_Int_Tables_number   1
_chemical_formula_structural   Ca2VBiO6
_chemical_formula_sum   'Ca4 V2 Bi2 O12'
_cell_volume   304.36950890
_cell_formula_units_Z   2
loop_
 _symmetry_equiv_pos_site_id
 _symmetry_equiv_pos_as_xyz
  1  'x, y, z'
loop_
 _atom_site_type_symbol
 _atom_site_label
 _atom_site_symmetry_multiplicity
 _atom_site_fract_x
 _atom_site_fract_y
 _atom_site_fract_z
 _atom_site_occupancy
  Ca  Ca0  1  -0.09035763  1.69485827  0.45587797  1.0
  Ca  Ca1  1  0.69485827  0.90964237  0.95587797  1.0
  Ca  Ca2  1  -0.69485827  1.09035763  0.45587797  1.0
  Ca  Ca3  1  0.09035763  0.30514173  0.95587797  1.0
  V  V4  1  0.18497998  0.81502002  0.00667128  1.0
  V  V5  1  -0.18497998  1.18497998  0.50667128  1.0
  Bi  Bi6  1  0.41095389  0.58904611  0.43798682  1.0
  Bi  Bi7  1  -0.41095389  1.41095389  0.93798682  1.0
  O  O8  1  0.09498767  0.59539952  0.12152584  1.0
  O  O9  1  -0.40460048  1.09498767  0.62152584  1.0
  O  O10  1  0.40460048  0.90501233  0.12152584  1.0
  O  O11  1  -0.09498767  1.40460048  0.62152584  1.0
  O  O12  1  -0.34124023  1.64833585  0.20045365  1.0
  O  O13  1  0.64833585  0.65875977  0.70045365  1.0
  O  O14  1  -0.64833585  1.34124023  0.20045365  1.0
  O  O15  1  0.34124023  0.35166415  0.70045365  1.0
  O  O16  1  0.05787800  0.94212200  0.14522703  1.0
  O  O17  1  -0.05787800  1.05787800  0.64522703  1.0
  O  O18  1  0.17995128  0.82004872  0.69639996  1.0
  O  O19  1  -0.17995128  1.17995128  0.19639996  1.0
