# generated using pymatgen
data_Bi3(PO5)2
_symmetry_space_group_name_H-M   'P 1'
_cell_length_a   7.26436461
_cell_length_b   6.94687366
_cell_length_c   9.33782886
_cell_angle_alpha   106.42770489
_cell_angle_beta   112.19911079
_cell_angle_gamma   91.11414605
_symmetry_Int_Tables_number   1
_chemical_formula_structural   Bi3(PO5)2
_chemical_formula_sum   'Bi6 P4 O20'
_cell_volume   414.23637558
_cell_formula_units_Z   2
loop_
 _symmetry_equiv_pos_site_id
 _symmetry_equiv_pos_as_xyz
  1  'x, y, z'
loop_
 _atom_site_type_symbol
 _atom_site_label
 _atom_site_symmetry_multiplicity
 _atom_site_fract_x
 _atom_site_fract_y
 _atom_site_fract_z
 _atom_site_occupancy
  P  P0  1  -0.96171244  -0.22701009  -0.29321966  1.0
  P  P1  1  -0.03828756  -0.77298991  -0.70678034  1.0
  P  P2  1  -0.63857960  -0.68466556  -0.89941283  1.0
  P  P3  1  -0.36142040  -0.31533444  -0.10058717  1.0
  O  O4  1  -0.46557136  -0.10443605  -0.62714873  1.0
  O  O5  1  -0.53442864  -0.89556395  -0.37285127  1.0
  O  O6  1  -0.98514530  -0.06836912  -0.14612560  1.0
  O  O7  1  -0.01485470  -0.93163088  -0.85387440  1.0
  O  O8  1  -0.16673187  -0.32431829  -0.43947890  1.0
  O  O9  1  -0.83326813  -0.67568171  -0.56052110  1.0
  O  O10  1  -0.83542156  -0.11272555  -0.35584057  1.0
  O  O11  1  -0.16457844  -0.88727445  -0.64415943  1.0
  O  O12  1  -0.50353839  -0.49797934  -0.75258081  1.0
  O  O13  1  -0.49646161  -0.50202066  -0.24741919  1.0
  O  O14  1  -0.57396249  -0.72957849  -0.04627748  1.0
  O  O15  1  -0.42603751  -0.27042151  -0.95372252  1.0
  O  O16  1  -0.85257961  -0.61969198  -0.95701296  1.0
  O  O17  1  -0.14742039  -0.38030802  -0.04298704  1.0
  O  O18  1  -0.62158858  -0.86610278  -0.83230952  1.0
  O  O19  1  -0.37841142  -0.13389722  -0.16769048  1.0
  O  O20  1  -0.88364498  -0.21852577  -0.68371226  1.0
  O  O21  1  -0.11635502  -0.78147423  -0.31628774  1.0
  O  O22  1  -0.85073557  -0.38630216  -0.21972469  1.0
  O  O23  1  -0.14926443  -0.61369784  -0.78027531  1.0
  Bi  Bi24  1  -0.60923926  -0.22247615  -0.47777447  1.0
  Bi  Bi25  1  -0.39076074  -0.77752385  -0.52222553  1.0
  Bi  Bi26  1  -0.23115210  -0.27833108  -0.69920746  1.0
  Bi  Bi27  1  -0.76884790  -0.72166892  -0.30079254  1.0
  Bi  Bi28  1  -0.83217929  -0.19536368  -0.89888350  1.0
  Bi  Bi29  1  -0.16782071  -0.80463632  -0.10111650  1.0
