# generated using pymatgen
data_C
_symmetry_space_group_name_H-M   'P 1'
_cell_length_a   8.94032131
_cell_length_b   8.94032131
_cell_length_c   8.94032131
_cell_angle_alpha   98.36484646
_cell_angle_beta   98.36484646
_cell_angle_gamma   135.15750451
_symmetry_Int_Tables_number   1
_chemical_formula_structural   C
_chemical_formula_sum   C20
_cell_volume   465.81058796
_cell_formula_units_Z   20
loop_
 _symmetry_equiv_pos_site_id
 _symmetry_equiv_pos_as_xyz
  1  'x, y, z'
loop_
 _atom_site_type_symbol
 _atom_site_label
 _atom_site_symmetry_multiplicity
 _atom_site_fract_x
 _atom_site_fract_y
 _atom_site_fract_z
 _atom_site_occupancy
  C  C0  1  0.17748897  0.17748897  0.35497793  1.0
  C  C1  1  0.82251103  0.82251103  0.64502207  1.0
  C  C2  1  1.17748897  0.82251103  1.00000000  1.0
  C  C3  1  0.82251103  0.17748897  1.00000000  1.0
  C  C4  1  1.19473450  1.05168591  1.24642041  1.0
  C  C5  1  0.80526550  0.94831409  0.75357959  1.0
  C  C6  1  1.19473450  0.94831409  1.14304860  1.0
  C  C7  1  0.80526550  1.05168591  0.85695140  1.0
  C  C8  1  0.05168591  0.80526550  0.85695140  1.0
  C  C9  1  0.94831409  0.19473450  1.14304860  1.0
  C  C10  1  0.05168591  0.19473450  0.24642041  1.0
  C  C11  1  0.94831409  0.80526550  1.75357959  1.0
  C  C12  1  1.05146342  1.05146342  0.45802681  1.0
  C  C13  1  0.59343661  0.59343661  0.54197319  1.0
  C  C14  1  1.05146342  0.59343661  1.00000000  1.0
  C  C15  1  1.59343661  1.05146342  1.00000000  1.0
  C  C16  1  0.94853658  0.94853658  0.54197319  1.0
  C  C17  1  0.40656339  0.40656339  0.45802681  1.0
  C  C18  1  0.94853658  0.40656339  1.00000000  1.0
  C  C19  1  1.40656339  0.94853658  1.00000000  1.0
