# generated using pymatgen
data_Mo2H6Pd(NO)2
_symmetry_space_group_name_H-M   'P 1'
_cell_length_a   11.37436909
_cell_length_b   11.37436909
_cell_length_c   11.37436909
_cell_angle_alpha   133.76589779
_cell_angle_beta   133.76589779
_cell_angle_gamma   67.45388348
_symmetry_Int_Tables_number   1
_chemical_formula_structural   Mo2H6Pd(NO)2
_chemical_formula_sum   'Mo8 H24 Pd4 N8 O8'
_cell_volume   754.62227289
_cell_formula_units_Z   4
loop_
 _symmetry_equiv_pos_site_id
 _symmetry_equiv_pos_as_xyz
  1  'x, y, z'
loop_
 _atom_site_type_symbol
 _atom_site_label
 _atom_site_symmetry_multiplicity
 _atom_site_fract_x
 _atom_site_fract_y
 _atom_site_fract_z
 _atom_site_occupancy
  Mo  Mo0  1  1.09338836  0.42506131  0.66832705  1.0
  Mo  Mo1  1  0.99326574  0.82493869  1.16832705  1.0
  Mo  Mo2  1  0.75673426  0.42506131  0.33167295  1.0
  Mo  Mo3  1  0.65661164  0.82493869  0.83167295  1.0
  Mo  Mo4  1  0.57493869  0.24326574  0.66832705  1.0
  Mo  Mo5  1  0.17506131  0.34338836  0.16832705  1.0
  Mo  Mo6  1  0.57493869  0.90661164  1.33167295  1.0
  Mo  Mo7  1  0.17506131  1.00673426  0.83167295  1.0
  H  H8  1  0.99064984  0.96646104  1.76549375  1.0
  H  H9  1  0.54903271  1.02484391  1.26549375  1.0
  H  H10  1  0.20096729  0.96646104  0.97581120  1.0
  H  H11  1  0.75935016  1.02484391  1.47581120  1.0
  H  H12  1  0.77484391  0.79903271  0.76549375  1.0
  H  H13  1  0.71646104  1.24064984  1.26549375  1.0
  H  H14  1  1.03353896  0.79903271  1.02418880  1.0
  H  H15  1  0.97515609  1.24064984  1.52418880  1.0
  H  H16  1  0.99064984  0.22515609  1.02418880  1.0
  H  H17  1  0.54903271  0.28353896  0.52418880  1.0
  H  H18  1  0.20096729  0.22515609  0.23450625  1.0
  H  H19  1  0.75935016  0.28353896  0.73450625  1.0
  H  H20  1  0.77484391  1.00935016  0.97581120  1.0
  H  H21  1  0.71646104  0.45096729  0.47581120  1.0
  H  H22  1  1.03353896  1.00935016  1.23450625  1.0
  H  H23  1  0.97515609  0.45096729  0.73450625  1.0
  H  H24  1  1.15701032  0.29331479  0.86369553  1.0
  H  H25  1  0.32038075  -0.04331479  0.36369553  1.0
  H  H26  1  0.42961925  0.29331479  0.13630447  1.0
  H  H27  1  0.59298968  -0.04331479  0.63630447  1.0
  H  H28  1  0.70668521  0.57038075  0.86369553  1.0
  H  H29  1  1.04331479  1.40701032  1.36369553  1.0
  H  H30  1  0.70668521  0.84298968  1.13630447  1.0
  H  H31  1  1.04331479  0.67961925  0.63630447  1.0
  Pd  Pd32  1  0.37500000  0.12500000  0.25000000  1.0
  Pd  Pd33  1  0.87500000  0.12500000  0.75000000  1.0
  Pd  Pd34  1  0.87500000  1.12500000  1.25000000  1.0
  Pd  Pd35  1  0.87500000  0.62500000  0.75000000  1.0
  N  N36  1  1.16937218  0.24664276  0.92272943  1.0
  N  N37  1  0.42608667  0.00335724  0.42272943  1.0
  N  N38  1  0.32391333  0.24664276  0.07727057  1.0
  N  N39  1  0.58062782  0.00335724  0.57727057  1.0
  N  N40  1  0.75335724  0.67608667  0.92272943  1.0
  N  N41  1  0.99664276  1.41937218  1.42272943  1.0
  N  N42  1  0.75335724  0.83062782  1.07727057  1.0
  N  N43  1  0.99664276  0.57391333  0.57727057  1.0
  O  O44  1  1.28889778  0.43512644  0.85377133  1.0
  O  O45  1  1.16864489  0.81487356  1.35377133  1.0
  O  O46  1  0.58135511  0.43512644  0.14622867  1.0
  O  O47  1  0.46110222  0.81487356  0.64622867  1.0
  O  O48  1  0.56487356  0.41864489  0.85377133  1.0
  O  O49  1  0.18512644  0.53889778  0.35377133  1.0
  O  O50  1  0.56487356  0.71110222  1.14622867  1.0
  O  O51  1  0.18512644  0.83135511  0.64622867  1.0
