# generated using pymatgen
data_NaY(PS3)2
_symmetry_space_group_name_H-M   'P 1'
_cell_length_a   9.20203922
_cell_length_b   7.23448611
_cell_length_c   7.03810758
_cell_angle_alpha   87.69093703
_cell_angle_beta   87.94495973
_cell_angle_gamma   86.59412188
_symmetry_Int_Tables_number   1
_chemical_formula_structural   NaY(PS3)2
_chemical_formula_sum   'Na2 Y2 P4 S12'
_cell_volume   467.07061180
_cell_formula_units_Z   2
loop_
 _symmetry_equiv_pos_site_id
 _symmetry_equiv_pos_as_xyz
  1  'x, y, z'
loop_
 _atom_site_type_symbol
 _atom_site_label
 _atom_site_symmetry_multiplicity
 _atom_site_fract_x
 _atom_site_fract_y
 _atom_site_fract_z
 _atom_site_occupancy
  Na  Na0  1  -0.78245456  -0.39713001  -0.97189143  1.0
  Na  Na1  1  -0.21754544  -0.60286999  -0.02810857  1.0
  Y  Y2  1  -0.75120886  -0.88233505  -0.51964280  1.0
  Y  Y3  1  -0.24879114  -0.11766495  -0.48035720  1.0
  P  P4  1  -0.06472709  -0.60665424  -0.56476310  1.0
  P  P5  1  -0.93527291  -0.39334576  -0.43523690  1.0
  P  P6  1  -0.47220651  -0.96146133  -0.85189344  1.0
  P  P7  1  -0.52779349  -0.03853867  -0.14810656  1.0
  S  S8  1  -0.54707421  -0.16256645  -0.66604943  1.0
  S  S9  1  -0.45292579  -0.83743355  -0.33395057  1.0
  S  S10  1  -0.93856687  -0.70060123  -0.78949003  1.0
  S  S11  1  -0.06143313  -0.29939877  -0.21050997  1.0
  S  S12  1  -0.93836108  -0.18259191  -0.64085961  1.0
  S  S13  1  -0.06163892  -0.81740809  -0.35914039  1.0
  S  S14  1  -0.74072612  -0.52252248  -0.37234646  1.0
  S  S15  1  -0.25927388  -0.47747752  -0.62765354  1.0
  S  S16  1  -0.57606606  -0.71324763  -0.80073474  1.0
  S  S17  1  -0.42393394  -0.28675237  -0.19926526  1.0
  S  S18  1  -0.74939067  -0.03481106  -0.14954755  1.0
  S  S19  1  -0.25060933  -0.96518894  -0.85045245  1.0
