# generated using pymatgen
data_Ca4CN4
_symmetry_space_group_name_H-M   'P 1'
_cell_length_a   11.45820936
_cell_length_b   3.54568088
_cell_length_c   14.07521243
_cell_angle_alpha   90.00000000
_cell_angle_beta   90.00000000
_cell_angle_gamma   90.00000000
_symmetry_Int_Tables_number   1
_chemical_formula_structural   Ca4CN4
_chemical_formula_sum   'Ca16 C4 N16'
_cell_volume   571.83582013
_cell_formula_units_Z   4
loop_
 _symmetry_equiv_pos_site_id
 _symmetry_equiv_pos_as_xyz
  1  'x, y, z'
loop_
 _atom_site_type_symbol
 _atom_site_label
 _atom_site_symmetry_multiplicity
 _atom_site_fract_x
 _atom_site_fract_y
 _atom_site_fract_z
 _atom_site_occupancy
  Ca  Ca0  1  0.87602225  0.75000000  0.61809229  1.0
  Ca  Ca1  1  0.37602225  0.75000000  0.88190771  1.0
  Ca  Ca2  1  0.12397775  0.25000000  0.38190771  1.0
  Ca  Ca3  1  0.62397775  0.25000000  0.11809229  1.0
  Ca  Ca4  1  0.87960417  0.75000000  0.04087838  1.0
  Ca  Ca5  1  0.37960417  0.75000000  0.45912162  1.0
  Ca  Ca6  1  0.12039583  0.25000000  0.95912162  1.0
  Ca  Ca7  1  0.62039583  0.25000000  0.54087838  1.0
  Ca  Ca8  1  0.63715607  0.75000000  0.73882236  1.0
  Ca  Ca9  1  0.13715607  0.75000000  0.76117764  1.0
  Ca  Ca10  1  0.36284393  0.25000000  0.26117764  1.0
  Ca  Ca11  1  0.86284393  0.25000000  0.23882236  1.0
  Ca  Ca12  1  0.61798646  0.75000000  0.33061836  1.0
  Ca  Ca13  1  0.11798646  0.75000000  0.16938164  1.0
  Ca  Ca14  1  0.38201354  0.25000000  0.66938164  1.0
  Ca  Ca15  1  0.88201354  0.25000000  0.83061836  1.0
  C  C16  1  0.86132099  0.75000000  0.41482693  1.0
  C  C17  1  0.36132099  0.75000000  0.08517307  1.0
  C  C18  1  0.13867901  0.25000000  0.58517307  1.0
  C  C19  1  0.63867901  0.25000000  0.91482693  1.0
  N  N20  1  0.95382130  0.75000000  0.36866551  1.0
  N  N21  1  0.45382130  0.75000000  0.13133449  1.0
  N  N22  1  0.04617870  0.25000000  0.63133449  1.0
  N  N23  1  0.54617870  0.25000000  0.86866551  1.0
  N  N24  1  0.76927883  0.75000000  0.46134611  1.0
  N  N25  1  0.26927883  0.75000000  0.03865389  1.0
  N  N26  1  0.23072117  0.25000000  0.53865389  1.0
  N  N27  1  0.73072117  0.25000000  0.96134611  1.0
  N  N28  1  0.73410837  0.75000000  0.18690469  1.0
  N  N29  1  0.23410837  0.75000000  0.31309531  1.0
  N  N30  1  0.26589163  0.25000000  0.81309531  1.0
  N  N31  1  0.76589163  0.25000000  0.68690469  1.0
  N  N32  1  0.49813000  0.75000000  0.61581300  1.0
  N  N33  1  0.99813000  0.75000000  0.88418700  1.0
  N  N34  1  0.50187000  0.25000000  0.38418700  1.0
  N  N35  1  0.00187000  0.25000000  0.11581300  1.0
