# generated using pymatgen
data_CsMnH4(OF2)2
_symmetry_space_group_name_H-M   'P 1'
_cell_length_a   6.93270308
_cell_length_b   6.93270308
_cell_length_c   9.57844250
_cell_angle_alpha   61.81949229
_cell_angle_beta   118.18050771
_cell_angle_gamma   121.43249682
_symmetry_Int_Tables_number   1
_chemical_formula_structural   CsMnH4(OF2)2
_chemical_formula_sum   'Cs2 Mn2 H8 O4 F8'
_cell_volume   330.24741137
_cell_formula_units_Z   2
loop_
 _symmetry_equiv_pos_site_id
 _symmetry_equiv_pos_as_xyz
  1  'x, y, z'
loop_
 _atom_site_type_symbol
 _atom_site_label
 _atom_site_symmetry_multiplicity
 _atom_site_fract_x
 _atom_site_fract_y
 _atom_site_fract_z
 _atom_site_occupancy
  Cs  Cs0  1  0.78349982  0.78349982  0.75000000  1.0
  Cs  Cs1  1  0.21650018  0.21650018  0.25000000  1.0
  Mn  Mn2  1  0.50000000  -0.00000000  0.00000000  1.0
  Mn  Mn3  1  1.00000000  -0.50000000  0.50000000  1.0
  H  H4  1  0.59203311  0.24401449  0.67881386  1.0
  H  H5  1  0.75598551  -0.59203311  0.17881386  1.0
  H  H6  1  1.24401449  0.59203311  0.82118614  1.0
  H  H7  1  1.40796689  -0.24401449  0.32118614  1.0
  H  H8  1  0.34959535  0.24780030  0.65454461  1.0
  H  H9  1  0.75219970  0.65040465  0.15454461  1.0
  H  H10  1  1.24780030  -0.65040465  0.84545539  1.0
  H  H11  1  1.65040465  -0.24780030  0.34545539  1.0
  O  O12  1  0.50380601  0.24267987  0.73616100  1.0
  O  O13  1  0.75732013  -0.50380601  0.23616100  1.0
  O  O14  1  1.24267987  0.50380601  0.76383900  1.0
  O  O15  1  1.49619399  -0.24267987  0.26383900  1.0
  F  F16  1  0.73876766  0.26025970  0.57426458  1.0
  F  F17  1  0.73974030  -0.73876766  0.07426458  1.0
  F  F18  1  1.26025970  0.73876766  0.92573542  1.0
  F  F19  1  1.26123234  -0.26025970  0.42573542  1.0
  F  F20  1  0.26986296  0.08609685  0.97704558  1.0
  F  F21  1  0.91390315  0.73013704  0.47704558  1.0
  F  F22  1  1.08609685  -0.73013704  0.52295442  1.0
  F  F23  1  1.73013704  -0.08609685  0.02295442  1.0
