# generated using pymatgen
data_TeCl4
_symmetry_space_group_name_H-M   'P 1'
_cell_length_a   10.85383887
_cell_length_b   10.85383887
_cell_length_c   16.88494422
_cell_angle_alpha   68.01075554
_cell_angle_beta   111.98924446
_cell_angle_gamma   119.55130291
_symmetry_Int_Tables_number   1
_chemical_formula_structural   TeCl4
_chemical_formula_sum   'Te8 Cl32'
_cell_volume   1559.47600618
_cell_formula_units_Z   8
loop_
 _symmetry_equiv_pos_site_id
 _symmetry_equiv_pos_as_xyz
  1  'x, y, z'
loop_
 _atom_site_type_symbol
 _atom_site_label
 _atom_site_symmetry_multiplicity
 _atom_site_fract_x
 _atom_site_fract_y
 _atom_site_fract_z
 _atom_site_occupancy
  Te  Te0  1  1.76225144  -0.23586042  0.61945770  1.0
  Te  Te1  1  1.23586042  -0.76225144  0.11945770  1.0
  Te  Te2  1  0.76413958  -0.23774856  0.88054230  1.0
  Te  Te3  1  1.23774856  0.23586042  0.38054230  1.0
  Te  Te4  1  1.60898623  0.34968857  0.81127366  1.0
  Te  Te5  1  0.65031143  0.39101377  0.31127366  1.0
  Te  Te6  1  1.34968857  0.60898623  0.68872634  1.0
  Te  Te7  1  1.39101377  -0.34968857  0.18872634  1.0
  Cl  Cl8  1  1.49600400  0.49495654  0.86506781  1.0
  Cl  Cl9  1  0.50504346  0.50399600  0.36506781  1.0
  Cl  Cl10  1  1.49495654  0.49600400  0.63493219  1.0
  Cl  Cl11  1  1.50399600  -0.49495654  0.13493219  1.0
  Cl  Cl12  1  1.98015546  -0.01744015  0.62946338  1.0
  Cl  Cl13  1  1.01744015  0.01984454  0.12946338  1.0
  Cl  Cl14  1  0.98255985  0.98015546  0.87053662  1.0
  Cl  Cl15  1  1.01984454  0.01744015  0.37053662  1.0
  Cl  Cl16  1  0.65179411  -0.14325704  0.92679838  1.0
  Cl  Cl17  1  1.14325704  0.34820589  0.42679838  1.0
  Cl  Cl18  1  0.85674296  0.65179411  0.57320162  1.0
  Cl  Cl19  1  0.34820589  0.14325704  0.07320162  1.0
  Cl  Cl20  1  1.64708284  -0.14075597  0.47481382  1.0
  Cl  Cl21  1  1.14075597  0.35291716  0.97481382  1.0
  Cl  Cl22  1  0.85924403  0.64708284  0.02518618  1.0
  Cl  Cl23  1  1.35291716  0.14075597  0.52518618  1.0
  Cl  Cl24  1  0.63114573  -0.13835975  0.69499412  1.0
  Cl  Cl25  1  1.13835975  0.36885427  0.19499412  1.0
  Cl  Cl26  1  0.86164025  0.63114573  0.80500588  1.0
  Cl  Cl27  1  0.36885427  0.13835975  0.30500588  1.0
  Cl  Cl28  1  1.71262555  0.26148275  0.96131680  1.0
  Cl  Cl29  1  0.73851725  0.28737445  0.46131680  1.0
  Cl  Cl30  1  1.26148275  0.71262555  0.53868320  1.0
  Cl  Cl31  1  1.28737445  -0.26148275  0.03868320  1.0
  Cl  Cl32  1  1.71509847  0.26755226  0.75136825  1.0
  Cl  Cl33  1  0.73244774  0.28490153  0.25136825  1.0
  Cl  Cl34  1  1.26755226  0.71509847  0.74863175  1.0
  Cl  Cl35  1  1.28490153  -0.26755226  0.24863175  1.0
  Cl  Cl36  1  1.38146907  0.14016013  0.80559938  1.0
  Cl  Cl37  1  0.85983987  0.61853093  0.30559938  1.0
  Cl  Cl38  1  1.14016013  0.38146907  0.69440062  1.0
  Cl  Cl39  1  1.61853093  -0.14016013  0.19440062  1.0
