# generated using pymatgen
data_BaTeS3O2
_symmetry_space_group_name_H-M   'P 1'
_cell_length_a   6.27271616
_cell_length_b   7.99317602
_cell_length_c   13.94014890
_cell_angle_alpha   90.00000000
_cell_angle_beta   90.00000000
_cell_angle_gamma   90.00000000
_symmetry_Int_Tables_number   1
_chemical_formula_structural   BaTeS3O2
_chemical_formula_sum   'Ba4 Te4 S12 O8'
_cell_volume   698.94407119
_cell_formula_units_Z   4
loop_
 _symmetry_equiv_pos_site_id
 _symmetry_equiv_pos_as_xyz
  1  'x, y, z'
loop_
 _atom_site_type_symbol
 _atom_site_label
 _atom_site_symmetry_multiplicity
 _atom_site_fract_x
 _atom_site_fract_y
 _atom_site_fract_z
 _atom_site_occupancy
  Ba  Ba0  1  0.63651234  0.75000000  0.00000000  1.0
  Ba  Ba1  1  0.63651234  0.75000000  0.50000000  1.0
  Ba  Ba2  1  0.36348766  0.25000000  0.00000000  1.0
  Ba  Ba3  1  0.36348766  0.25000000  0.50000000  1.0
  Te  Te4  1  0.96721424  1.03535361  0.75000000  1.0
  Te  Te5  1  0.96721424  0.46464639  0.25000000  1.0
  Te  Te6  1  0.03278576  0.53535361  0.75000000  1.0
  Te  Te7  1  0.03278576  -0.03535361  0.25000000  1.0
  S  S8  1  0.89998890  0.14318719  0.39053025  1.0
  S  S9  1  0.89998890  0.14318719  0.10946975  1.0
  S  S10  1  0.89998890  0.35681281  0.89053025  1.0
  S  S11  1  0.89998890  0.35681281  0.60946975  1.0
  S  S12  1  0.10001110  0.64318719  0.39053025  1.0
  S  S13  1  0.10001110  0.64318719  0.10946975  1.0
  S  S14  1  0.10001110  0.85681281  0.89053025  1.0
  S  S15  1  0.10001110  0.85681281  0.60946975  1.0
  S  S16  1  0.72904546  0.73035566  0.75000000  1.0
  S  S17  1  0.72904546  0.76964434  0.25000000  1.0
  S  S18  1  0.27095454  0.23035566  0.75000000  1.0
  S  S19  1  0.27095454  0.26964434  0.25000000  1.0
  O  O20  1  0.30805906  0.93451253  0.93854577  1.0
  O  O21  1  0.30805906  0.93451253  0.56145423  1.0
  O  O22  1  0.30805906  0.56548747  0.43854577  1.0
  O  O23  1  0.30805906  0.56548747  0.06145423  1.0
  O  O24  1  0.69194094  0.43451253  0.93854577  1.0
  O  O25  1  0.69194094  0.43451253  0.56145423  1.0
  O  O26  1  0.69194094  0.06548747  0.43854577  1.0
  O  O27  1  0.69194094  0.06548747  0.06145423  1.0
