# generated using pymatgen
data_YSeF
_symmetry_space_group_name_H-M   'P 1'
_cell_length_a   9.99952180
_cell_length_b   4.12132200
_cell_length_c   6.36171242
_cell_angle_alpha   90.00000000
_cell_angle_beta   90.00000000
_cell_angle_gamma   90.00000000
_symmetry_Int_Tables_number   1
_chemical_formula_structural   YSeF
_chemical_formula_sum   'Y4 Se4 F4'
_cell_volume   262.17411587
_cell_formula_units_Z   4
loop_
 _symmetry_equiv_pos_site_id
 _symmetry_equiv_pos_as_xyz
  1  'x, y, z'
loop_
 _atom_site_type_symbol
 _atom_site_label
 _atom_site_symmetry_multiplicity
 _atom_site_fract_x
 _atom_site_fract_y
 _atom_site_fract_z
 _atom_site_occupancy
  Y  Y0  1  0.07865475  0.75000000  0.73434439  1.0
  Y  Y1  1  0.57865475  0.75000000  0.76565561  1.0
  Y  Y2  1  0.92134525  0.25000000  0.26565561  1.0
  Y  Y3  1  0.42134525  0.25000000  0.23434439  1.0
  Se  Se4  1  0.33484715  0.75000000  0.53420607  1.0
  Se  Se5  1  0.83484715  0.75000000  0.96579393  1.0
  Se  Se6  1  0.66515285  0.25000000  0.46579393  1.0
  Se  Se7  1  0.16515285  0.25000000  0.03420607  1.0
  F  F8  1  0.46545284  0.75000000  0.09095020  1.0
  F  F9  1  0.96545284  0.75000000  0.40904980  1.0
  F  F10  1  0.53454716  0.25000000  0.90904980  1.0
  F  F11  1  0.03454716  0.25000000  0.59095020  1.0
