# generated using pymatgen
data_Ba6SmSc(BO3)6
_symmetry_space_group_name_H-M   'P 1'
_cell_length_a   8.16506515
_cell_length_b   8.16506515
_cell_length_c   8.16506515
_cell_angle_alpha   105.65375845
_cell_angle_beta   105.65375845
_cell_angle_gamma   105.65375845
_symmetry_Int_Tables_number   1
_chemical_formula_structural   Ba6SmSc(BO3)6
_chemical_formula_sum   'Ba6 Sm1 Sc1 B6 O18'
_cell_volume   468.99463251
_cell_formula_units_Z   1
loop_
 _symmetry_equiv_pos_site_id
 _symmetry_equiv_pos_as_xyz
  1  'x, y, z'
loop_
 _atom_site_type_symbol
 _atom_site_label
 _atom_site_symmetry_multiplicity
 _atom_site_fract_x
 _atom_site_fract_y
 _atom_site_fract_z
 _atom_site_occupancy
  Ba  Ba0  1  0.76657829  0.66426645  0.15228076  1.0
  Ba  Ba1  1  1.33573355  -0.15228076  0.23342171  1.0
  Ba  Ba2  1  0.84771924  0.23342171  0.33573355  1.0
  Ba  Ba3  1  1.23342171  0.33573355  -0.15228076  1.0
  Ba  Ba4  1  0.66426645  1.15228076  -0.23342171  1.0
  Ba  Ba5  1  1.15228076  0.76657829  -0.33573355  1.0
  Sm  Sm6  1  0.50000000  0.50000000  0.50000000  1.0
  Sc  Sc7  1  0.00000000  0.00000000  0.00000000  1.0
  B  B8  1  1.55185384  0.79719864  -0.12295172  1.0
  B  B9  1  1.20280136  0.12295172  -0.55185384  1.0
  B  B10  1  1.12295172  -0.55185384  0.20280136  1.0
  B  B11  1  0.44814616  0.20280136  0.12295172  1.0
  B  B12  1  0.79719864  0.87704828  0.55185384  1.0
  B  B13  1  0.87704828  1.55185384  -0.20280136  1.0
  O  O14  1  0.72665484  0.92687532  -0.00875096  1.0
  O  O15  1  1.07312468  0.00875096  -0.72665484  1.0
  O  O16  1  1.00875096  -0.72665484  0.07312468  1.0
  O  O17  1  0.27334516  0.07312468  0.00875096  1.0
  O  O18  1  0.92687532  0.99124904  -0.27334516  1.0
  O  O19  1  0.99124904  0.72665484  -0.07312468  1.0
  O  O20  1  1.49038982  0.77120030  -0.30878643  1.0
  O  O21  1  1.22879970  0.30878643  -0.49038982  1.0
  O  O22  1  1.30878643  -0.49038982  0.22879970  1.0
  O  O23  1  0.50961018  0.22879970  0.30878643  1.0
  O  O24  1  0.77120030  0.69121357  0.49038982  1.0
  O  O25  1  0.69121357  1.49038982  -0.22879970  1.0
  O  O26  1  0.55985990  0.29629593  0.05209080  1.0
  O  O27  1  0.70370407  0.94790920  0.44014010  1.0
  O  O28  1  0.94790920  1.44014010  -0.29629593  1.0
  O  O29  1  1.44014010  0.70370407  -0.05209080  1.0
  O  O30  1  1.29629593  0.05209080  -0.44014010  1.0
  O  O31  1  1.05209080  -0.44014010  0.29629593  1.0
