# generated using pymatgen
data_K2Hg7
_symmetry_space_group_name_H-M   'P 1'
_cell_length_a   7.10747219
_cell_length_b   7.10747219
_cell_length_c   6.48891207
_cell_angle_alpha   90.00000000
_cell_angle_beta   90.00000000
_cell_angle_gamma   120.00000000
_symmetry_Int_Tables_number   1
_chemical_formula_structural   K2Hg7
_chemical_formula_sum   'K2 Hg7'
_cell_volume   283.87873340
_cell_formula_units_Z   1
loop_
 _symmetry_equiv_pos_site_id
 _symmetry_equiv_pos_as_xyz
  1  'x, y, z'
loop_
 _atom_site_type_symbol
 _atom_site_label
 _atom_site_symmetry_multiplicity
 _atom_site_fract_x
 _atom_site_fract_y
 _atom_site_fract_z
 _atom_site_occupancy
  K  K0  1  0.33333333  0.66666667  0.16263571  1.0
  K  K1  1  0.66666667  0.33333333  0.83736429  1.0
  Hg  Hg2  1  0.36384893  0.18192446  0.33163257  1.0
  Hg  Hg3  1  0.18192446  0.36384893  0.66836743  1.0
  Hg  Hg4  1  0.18192446  0.81807554  0.66836743  1.0
  Hg  Hg5  1  0.81807554  0.18192446  0.33163257  1.0
  Hg  Hg6  1  0.81807554  0.63615107  0.33163257  1.0
  Hg  Hg7  1  0.63615107  0.81807554  0.66836743  1.0
  Hg  Hg8  1  -0.00000000  -0.00000000  0.00000000  1.0
