# generated using pymatgen
data_RbPSe6
_symmetry_space_group_name_H-M   'P 1'
_cell_length_a   12.44450061
_cell_length_b   7.05892518
_cell_length_c   11.69262904
_cell_angle_alpha   90.00000000
_cell_angle_beta   90.00000000
_cell_angle_gamma   90.00000000
_symmetry_Int_Tables_number   1
_chemical_formula_structural   RbPSe6
_chemical_formula_sum   'Rb4 P4 Se24'
_cell_volume   1027.13664473
_cell_formula_units_Z   4
loop_
 _symmetry_equiv_pos_site_id
 _symmetry_equiv_pos_as_xyz
  1  'x, y, z'
loop_
 _atom_site_type_symbol
 _atom_site_label
 _atom_site_symmetry_multiplicity
 _atom_site_fract_x
 _atom_site_fract_y
 _atom_site_fract_z
 _atom_site_occupancy
  Rb  Rb0  1  0.12598254  0.68672157  0.71490518  1.0
  Rb  Rb1  1  0.62598254  0.31327843  0.71490518  1.0
  Rb  Rb2  1  0.87401746  0.31327843  0.21490518  1.0
  Rb  Rb3  1  0.37401746  0.68672157  0.21490518  1.0
  P  P4  1  0.32898564  0.29418608  0.53316021  1.0
  P  P5  1  0.82898564  0.70581392  0.53316021  1.0
  P  P6  1  0.67101436  0.70581392  0.03316021  1.0
  P  P7  1  0.17101436  0.29418608  0.03316021  1.0
  Se  Se8  1  0.37494616  0.58722591  0.56461794  1.0
  Se  Se9  1  0.87494616  0.41277409  0.56461794  1.0
  Se  Se10  1  0.62505384  0.41277409  0.06461794  1.0
  Se  Se11  1  0.12505384  0.58722591  0.06461794  1.0
  Se  Se12  1  0.37047698  0.45216642  0.82589370  1.0
  Se  Se13  1  0.87047698  0.54783358  0.82589370  1.0
  Se  Se14  1  0.62952302  0.54783358  0.32589370  1.0
  Se  Se15  1  0.12952302  0.45216642  0.32589370  1.0
  Se  Se16  1  0.35346262  0.09213300  0.67202570  1.0
  Se  Se17  1  0.85346262  0.90786700  0.67202570  1.0
  Se  Se18  1  0.64653738  0.90786700  0.17202570  1.0
  Se  Se19  1  0.14653738  0.09213300  0.17202570  1.0
  Se  Se20  1  0.14953335  0.26073910  0.49619870  1.0
  Se  Se21  1  0.64953335  0.73926090  0.49619870  1.0
  Se  Se22  1  0.85046665  0.73926090  -0.00380130  1.0
  Se  Se23  1  0.35046665  0.26073910  -0.00380130  1.0
  Se  Se24  1  0.09448720  0.19162289  0.86138128  1.0
  Se  Se25  1  0.59448720  0.80837711  0.86138128  1.0
  Se  Se26  1  0.90551280  0.80837711  0.36138128  1.0
  Se  Se27  1  0.40551280  0.19162289  0.36138128  1.0
  Se  Se28  1  0.91010083  0.23329085  0.90331727  1.0
  Se  Se29  1  0.41010083  0.76670915  0.90331727  1.0
  Se  Se30  1  0.08989917  0.76670915  0.40331727  1.0
  Se  Se31  1  0.58989917  0.23329085  0.40331727  1.0
