# generated using pymatgen
data_Rb5SiAs3
_symmetry_space_group_name_H-M   'P 1'
_cell_length_a   14.44289040
_cell_length_b   5.71795577
_cell_length_c   15.83375524
_cell_angle_alpha   90.00000000
_cell_angle_beta   90.00000000
_cell_angle_gamma   90.00000000
_symmetry_Int_Tables_number   1
_chemical_formula_structural   Rb5SiAs3
_chemical_formula_sum   'Rb20 Si4 As12'
_cell_volume   1307.61181182
_cell_formula_units_Z   4
loop_
 _symmetry_equiv_pos_site_id
 _symmetry_equiv_pos_as_xyz
  1  'x, y, z'
loop_
 _atom_site_type_symbol
 _atom_site_label
 _atom_site_symmetry_multiplicity
 _atom_site_fract_x
 _atom_site_fract_y
 _atom_site_fract_z
 _atom_site_occupancy
  Rb  Rb0  1  0.88853152  0.75000000  0.31882396  1.0
  Rb  Rb1  1  0.38853152  0.75000000  0.18117604  1.0
  Rb  Rb2  1  0.11146848  0.25000000  0.68117604  1.0
  Rb  Rb3  1  0.61146848  0.25000000  0.81882396  1.0
  Rb  Rb4  1  0.72309301  0.75000000  0.71527090  1.0
  Rb  Rb5  1  0.22309301  0.75000000  0.78472910  1.0
  Rb  Rb6  1  0.27690699  0.25000000  0.28472910  1.0
  Rb  Rb7  1  0.77690699  0.25000000  0.21527090  1.0
  Rb  Rb8  1  0.65154452  0.75000000  0.46064809  1.0
  Rb  Rb9  1  0.15154452  0.75000000  0.03935191  1.0
  Rb  Rb10  1  0.34845548  0.25000000  0.53935191  1.0
  Rb  Rb11  1  0.84845548  0.25000000  0.96064809  1.0
  Rb  Rb12  1  0.94823487  0.75000000  0.85387012  1.0
  Rb  Rb13  1  0.44823487  0.75000000  0.64612988  1.0
  Rb  Rb14  1  0.05176513  0.25000000  0.14612988  1.0
  Rb  Rb15  1  0.55176513  0.25000000  0.35387012  1.0
  Rb  Rb16  1  0.93242721  0.75000000  0.55874917  1.0
  Rb  Rb17  1  0.43242721  0.75000000  0.94125083  1.0
  Rb  Rb18  1  0.06757279  0.25000000  0.44125083  1.0
  Rb  Rb19  1  0.56757279  0.25000000  0.05874917  1.0
  Si  Si20  1  0.73836299  0.75000000  0.07608772  1.0
  Si  Si21  1  0.23836299  0.75000000  0.42391228  1.0
  Si  Si22  1  0.26163701  0.25000000  0.92391228  1.0
  Si  Si23  1  0.76163701  0.25000000  0.57608772  1.0
  As  As24  1  0.68612523  0.75000000  0.93737499  1.0
  As  As25  1  0.18612523  0.75000000  0.56262501  1.0
  As  As26  1  0.31387477  0.25000000  0.06262501  1.0
  As  As27  1  0.81387477  0.25000000  0.43737499  1.0
  As  As28  1  0.63554522  0.75000000  0.18969805  1.0
  As  As29  1  0.13554522  0.75000000  0.31030195  1.0
  As  As30  1  0.36445478  0.25000000  0.81030195  1.0
  As  As31  1  0.86445478  0.25000000  0.68969805  1.0
  As  As32  1  0.89765538  0.75000000  0.09668258  1.0
  As  As33  1  0.39765538  0.75000000  0.40331742  1.0
  As  As34  1  0.10234462  0.25000000  0.90331742  1.0
  As  As35  1  0.60234462  0.25000000  0.59668258  1.0
