# generated using pymatgen
data_SrAgTeF
_symmetry_space_group_name_H-M   'P 1'
_cell_length_a   4.36421119
_cell_length_b   4.36421119
_cell_length_c   9.76125511
_cell_angle_alpha   90.00000000
_cell_angle_beta   90.00000000
_cell_angle_gamma   90.00000000
_symmetry_Int_Tables_number   1
_chemical_formula_structural   SrAgTeF
_chemical_formula_sum   'Sr2 Ag2 Te2 F2'
_cell_volume   185.91617685
_cell_formula_units_Z   2
loop_
 _symmetry_equiv_pos_site_id
 _symmetry_equiv_pos_as_xyz
  1  'x, y, z'
loop_
 _atom_site_type_symbol
 _atom_site_label
 _atom_site_symmetry_multiplicity
 _atom_site_fract_x
 _atom_site_fract_y
 _atom_site_fract_z
 _atom_site_occupancy
  Sr  Sr0  1  0.50000000  0.00000000  0.63585167  1.0
  Sr  Sr1  1  0.00000000  0.50000000  0.36414833  1.0
  Ag  Ag2  1  0.00000000  0.00000000  0.00000000  1.0
  Ag  Ag3  1  0.50000000  0.50000000  0.00000000  1.0
  Te  Te4  1  0.50000000  0.00000000  0.19816907  1.0
  Te  Te5  1  0.00000000  0.50000000  0.80183093  1.0
  F  F6  1  0.00000000  0.00000000  0.50000000  1.0
  F  F7  1  0.50000000  0.50000000  0.50000000  1.0
