# generated using pymatgen
data_RbCuPO4
_symmetry_space_group_name_H-M   'P 1'
_cell_length_a   9.42661596
_cell_length_b   9.13249618
_cell_length_c   5.12407687
_cell_angle_alpha   90.00000000
_cell_angle_beta   90.00000000
_cell_angle_gamma   90.00000000
_symmetry_Int_Tables_number   1
_chemical_formula_structural   RbCuPO4
_chemical_formula_sum   'Rb4 Cu4 P4 O16'
_cell_volume   441.12426700
_cell_formula_units_Z   4
loop_
 _symmetry_equiv_pos_site_id
 _symmetry_equiv_pos_as_xyz
  1  'x, y, z'
loop_
 _atom_site_type_symbol
 _atom_site_label
 _atom_site_symmetry_multiplicity
 _atom_site_fract_x
 _atom_site_fract_y
 _atom_site_fract_z
 _atom_site_occupancy
  P  P0  1  0.30486162  0.43029835  0.48345362  1.0
  P  P1  1  0.80486162  0.06970165  0.48345362  1.0
  P  P2  1  0.69513838  0.56970165  0.98345362  1.0
  P  P3  1  0.19513838  0.93029835  0.98345362  1.0
  O  O4  1  0.20152994  0.07921483  0.13003830  1.0
  O  O5  1  0.70152994  0.42078517  0.13003830  1.0
  O  O6  1  0.79847006  0.92078517  0.63003830  1.0
  O  O7  1  0.29847006  0.57921483  0.63003830  1.0
  O  O8  1  0.30650139  0.45578305  0.17953075  1.0
  O  O9  1  0.80650139  0.04421695  0.17953075  1.0
  O  O10  1  0.69349861  0.54421695  0.67953075  1.0
  O  O11  1  0.19349861  0.95578305  0.67953075  1.0
  O  O12  1  0.43253709  0.33320679  0.56706838  1.0
  O  O13  1  0.93253709  0.16679321  0.56706838  1.0
  O  O14  1  0.56746291  0.66679321  1.06706838  1.0
  O  O15  1  0.06746291  0.83320679  1.06706838  1.0
  O  O16  1  0.33590949  0.84310992  0.03587130  1.0
  O  O17  1  0.83590949  0.65689008  0.03587130  1.0
  O  O18  1  0.66409051  0.15689008  0.53587130  1.0
  O  O19  1  0.16409051  0.34310992  0.53587130  1.0
  Rb  Rb20  1  0.49416007  0.17607927  0.03056049  1.0
  Rb  Rb21  1  0.99416007  0.32392073  0.03056049  1.0
  Rb  Rb22  1  0.50583993  0.82392073  0.53056049  1.0
  Rb  Rb23  1  0.00583993  0.67607927  0.53056049  1.0
  Cu  Cu24  1  0.13938378  0.13077383  0.50797716  1.0
  Cu  Cu25  1  0.63938378  0.36922617  0.50797716  1.0
  Cu  Cu26  1  0.86061622  0.86922617  0.00797716  1.0
  Cu  Cu27  1  0.36061622  0.63077383  0.00797716  1.0
