# generated using pymatgen
data_P2W2O11
_symmetry_space_group_name_H-M   'P 1'
_cell_length_a   7.96773348
_cell_length_b   6.41014321
_cell_length_c   7.75751619
_cell_angle_alpha   90.00000000
_cell_angle_beta   90.00946625
_cell_angle_gamma   90.00000000
_symmetry_Int_Tables_number   1
_chemical_formula_structural   P2W2O11
_chemical_formula_sum   'P4 W4 O22'
_cell_volume   396.20980174
_cell_formula_units_Z   2
loop_
 _symmetry_equiv_pos_site_id
 _symmetry_equiv_pos_as_xyz
  1  'x, y, z'
loop_
 _atom_site_type_symbol
 _atom_site_label
 _atom_site_symmetry_multiplicity
 _atom_site_fract_x
 _atom_site_fract_y
 _atom_site_fract_z
 _atom_site_occupancy
  P  P0  1  0.75229040  0.00000000  0.88586125  1.0
  P  P1  1  0.24770960  0.00000000  0.11413875  1.0
  P  P2  1  0.74773629  0.50000000  0.38577068  1.0
  P  P3  1  0.25226371  0.50000000  0.61422932  1.0
  W  W4  1  0.34191621  -0.00000000  0.68161094  1.0
  W  W5  1  0.65808379  -0.00000000  0.31838906  1.0
  W  W6  1  0.84190556  0.50000000  0.81836051  1.0
  W  W7  1  0.15809444  0.50000000  0.18163949  1.0
  O  O8  1  0.85247366  0.80810223  0.81515636  1.0
  O  O9  1  0.85247366  0.19189777  0.81515636  1.0
  O  O10  1  0.14752634  0.80810223  0.18484364  1.0
  O  O11  1  0.14752634  0.19189777  0.18484364  1.0
  O  O12  1  0.83831774  0.00000000  0.43760333  1.0
  O  O13  1  0.16168226  0.00000000  0.56239667  1.0
  O  O14  1  0.64753391  0.69190506  0.31507061  1.0
  O  O15  1  0.64753391  0.30809494  0.31507061  1.0
  O  O16  1  0.35246609  0.69190506  0.68492939  1.0
  O  O17  1  0.35246609  0.30809494  0.68492939  1.0
  O  O18  1  0.57042067  -0.00000000  0.82949711  1.0
  O  O19  1  0.42957933  -0.00000000  0.17050289  1.0
  O  O20  1  0.23377275  -0.00000000  0.91260777  1.0
  O  O21  1  0.76622725  -0.00000000  0.08739223  1.0
  O  O22  1  0.00000000  0.50000000  0.00000000  1.0
  O  O23  1  0.92957817  0.50000000  0.32941743  1.0
  O  O24  1  0.07042183  0.50000000  0.67058257  1.0
  O  O25  1  0.73384986  0.50000000  0.58729680  1.0
  O  O26  1  0.26615014  0.50000000  0.41270320  1.0
  O  O27  1  0.66161924  0.50000000  0.93742047  1.0
  O  O28  1  0.33838076  0.50000000  0.06257953  1.0
  O  O29  1  0.50000000  0.00000000  0.50000000  1.0
