# generated using pymatgen
data_Tl2CdSnTe4
_symmetry_space_group_name_H-M   'P 1'
_cell_length_a   7.13027251
_cell_length_b   7.13027251
_cell_length_c   7.13027251
_cell_angle_alpha   105.19752531
_cell_angle_beta   105.19752531
_cell_angle_gamma   118.40526271
_symmetry_Int_Tables_number   1
_chemical_formula_structural   Tl2CdSnTe4
_chemical_formula_sum   'Tl2 Cd1 Sn1 Te4'
_cell_volume   273.89921917
_cell_formula_units_Z   1
loop_
 _symmetry_equiv_pos_site_id
 _symmetry_equiv_pos_as_xyz
  1  'x, y, z'
loop_
 _atom_site_type_symbol
 _atom_site_label
 _atom_site_symmetry_multiplicity
 _atom_site_fract_x
 _atom_site_fract_y
 _atom_site_fract_z
 _atom_site_occupancy
  Tl  Tl0  1  0.50000000  0.00000000  0.50000000  1.0
  Tl  Tl1  1  -0.00000000  0.50000000  0.50000000  1.0
  Cd  Cd2  1  0.50000000  0.50000000  0.00000000  1.0
  Sn  Sn3  1  0.00000000  0.00000000  0.00000000  1.0
  Te  Te4  1  1.06054112  1.06054112  0.64027400  1.0
  Te  Te5  1  0.93945888  1.57973288  1.00000000  1.0
  Te  Te6  1  1.57973288  0.93945888  1.00000000  1.0
  Te  Te7  1  0.42026712  0.42026712  0.35972600  1.0
