# generated using pymatgen
data_LiAlSiH2O5
_symmetry_space_group_name_H-M   'P 1'
_cell_length_a   10.61983760
_cell_length_b   8.20358569
_cell_length_c   5.01432242
_cell_angle_alpha   90.00000000
_cell_angle_beta   90.00000000
_cell_angle_gamma   90.00000000
_symmetry_Int_Tables_number   1
_chemical_formula_structural   LiAlSiH2O5
_chemical_formula_sum   'Li4 Al4 Si4 H8 O20'
_cell_volume   436.85151915
_cell_formula_units_Z   4
loop_
 _symmetry_equiv_pos_site_id
 _symmetry_equiv_pos_as_xyz
  1  'x, y, z'
loop_
 _atom_site_type_symbol
 _atom_site_label
 _atom_site_symmetry_multiplicity
 _atom_site_fract_x
 _atom_site_fract_y
 _atom_site_fract_z
 _atom_site_occupancy
  Li  Li0  1  0.69365149  0.18851414  0.74220787  1.0
  Li  Li1  1  0.30634851  0.81148586  0.24220787  1.0
  Li  Li2  1  0.80634851  0.68851414  0.24220787  1.0
  Li  Li3  1  0.19365149  0.31148586  0.74220787  1.0
  Al  Al4  1  0.65264226  0.58845782  0.74972014  1.0
  Al  Al5  1  0.34735774  0.41154218  0.24972014  1.0
  Al  Al6  1  0.84735774  0.08845782  0.24972014  1.0
  Al  Al7  1  0.15264226  0.91154218  0.74972014  1.0
  Si  Si8  1  0.85511924  0.87749917  0.75066939  1.0
  Si  Si9  1  0.14488076  0.12250083  0.25066939  1.0
  Si  Si10  1  0.64488076  0.37749917  0.25066939  1.0
  Si  Si11  1  0.35511924  0.62250083  0.75066939  1.0
  H  H12  1  0.01489783  0.66925432  0.09241152  1.0
  H  H13  1  0.98510217  0.33074568  0.59241152  1.0
  H  H14  1  0.48510217  0.16925432  0.59241152  1.0
  H  H15  1  0.51489783  0.83074568  0.09241152  1.0
  H  H16  1  0.01628917  0.54866645  0.34596956  1.0
  H  H17  1  0.98371083  0.45133355  0.84596956  1.0
  H  H18  1  0.48371083  0.04866645  0.84596956  1.0
  H  H19  1  0.51628917  0.95133355  0.34596956  1.0
  O  O20  1  0.50201764  0.66859014  0.81410357  1.0
  O  O21  1  0.49798236  0.33140986  0.31410357  1.0
  O  O22  1  0.99798236  0.16859014  0.31410357  1.0
  O  O23  1  0.00201764  0.83140986  0.81410357  1.0
  O  O24  1  0.76631796  0.72923139  0.86399706  1.0
  O  O25  1  0.23368204  0.27076861  0.36399706  1.0
  O  O26  1  0.73368204  0.22923139  0.36399706  1.0
  O  O27  1  0.26631796  0.77076861  0.86399706  1.0
  O  O28  1  0.68197398  0.54783064  0.40785060  1.0
  O  O29  1  0.31802602  0.45216936  0.90785060  1.0
  O  O30  1  0.81802602  0.04783064  0.90785060  1.0
  O  O31  1  0.18197398  0.95216936  0.40785060  1.0
  O  O32  1  0.67136828  0.40219944  0.93005627  1.0
  O  O33  1  0.32863172  0.59780056  0.43005627  1.0
  O  O34  1  0.82863172  0.90219944  0.43005627  1.0
  O  O35  1  0.17136828  0.09780056  0.93005627  1.0
  O  O36  1  -0.02969166  0.58003130  0.18391401  1.0
  O  O37  1  1.02969166  0.41996870  0.68391401  1.0
  O  O38  1  0.52969166  0.08003130  0.68391401  1.0
  O  O39  1  0.47030834  0.91996870  0.18391401  1.0
