# generated using pymatgen
data_Fe12N5
_symmetry_space_group_name_H-M   'P 1'
_cell_length_a   9.41287413
_cell_length_b   9.41287413
_cell_length_c   4.29312022
_cell_angle_alpha   90.00000000
_cell_angle_beta   90.00000000
_cell_angle_gamma   120.00000000
_symmetry_Int_Tables_number   1
_chemical_formula_structural   Fe12N5
_chemical_formula_sum   'Fe24 N10'
_cell_volume   329.41865114
_cell_formula_units_Z   2
loop_
 _symmetry_equiv_pos_site_id
 _symmetry_equiv_pos_as_xyz
  1  'x, y, z'
loop_
 _atom_site_type_symbol
 _atom_site_label
 _atom_site_symmetry_multiplicity
 _atom_site_fract_x
 _atom_site_fract_y
 _atom_site_fract_z
 _atom_site_occupancy
  Fe  Fe0  1  0.33451840  0.82689918  0.24785114  1.0
  Fe  Fe1  1  0.33451840  0.50761922  0.75214886  1.0
  Fe  Fe2  1  0.82689918  0.33451840  0.24785114  1.0
  Fe  Fe3  1  0.82689918  0.49238078  0.75214886  1.0
  Fe  Fe4  1  0.49238078  0.82689918  0.75214886  1.0
  Fe  Fe5  1  0.49238078  0.66548160  0.24785114  1.0
  Fe  Fe6  1  0.17310082  0.66548160  0.75214886  1.0
  Fe  Fe7  1  0.17310082  0.50761922  0.24785114  1.0
  Fe  Fe8  1  0.66548160  0.49238078  0.24785114  1.0
  Fe  Fe9  1  0.66548160  0.17310082  0.75214886  1.0
  Fe  Fe10  1  0.50761922  0.33451840  0.75214886  1.0
  Fe  Fe11  1  0.50761922  0.17310082  0.24785114  1.0
  Fe  Fe12  1  0.83417788  0.83417788  0.25409496  1.0
  Fe  Fe13  1  0.83417788  -0.00000000  0.74590504  1.0
  Fe  Fe14  1  0.00000000  0.83417788  0.74590504  1.0
  Fe  Fe15  1  0.00000000  0.16582212  0.25409496  1.0
  Fe  Fe16  1  0.16582212  0.16582212  0.74590504  1.0
  Fe  Fe17  1  0.16582212  0.00000000  0.25409496  1.0
  Fe  Fe18  1  0.33598107  0.33598107  0.25470373  1.0
  Fe  Fe19  1  0.33598107  0.00000000  0.74529627  1.0
  Fe  Fe20  1  -0.00000000  0.33598107  0.74529627  1.0
  Fe  Fe21  1  0.00000000  0.66401893  0.25470373  1.0
  Fe  Fe22  1  0.66401893  0.66401893  0.74529627  1.0
  Fe  Fe23  1  0.66401893  -0.00000000  0.25470373  1.0
  N  N24  1  0.65718519  0.82859260  0.50000000  1.0
  N  N25  1  0.82859260  0.65718519  0.50000000  1.0
  N  N26  1  0.82859260  0.17140740  0.50000000  1.0
  N  N27  1  0.17140740  0.82859260  0.50000000  1.0
  N  N28  1  0.17140740  0.34281481  0.50000000  1.0
  N  N29  1  0.34281481  0.17140740  0.50000000  1.0
  N  N30  1  0.50000000  0.50000000  -0.00000000  1.0
  N  N31  1  0.50000000  0.00000000  0.00000000  1.0
  N  N32  1  0.00000000  0.50000000  0.00000000  1.0
  N  N33  1  -0.00000000  -0.00000000  -0.00000000  1.0
