# generated using pymatgen
data_YTl(PSe3)2
_symmetry_space_group_name_H-M   'P 1'
_cell_length_a   6.83842313
_cell_length_b   7.63495868
_cell_length_c   10.61544552
_cell_angle_alpha   90.00000000
_cell_angle_beta   92.24652118
_cell_angle_gamma   90.00000000
_symmetry_Int_Tables_number   1
_chemical_formula_structural   YTl(PSe3)2
_chemical_formula_sum   'Y2 Tl2 P4 Se12'
_cell_volume   553.81787321
_cell_formula_units_Z   2
loop_
 _symmetry_equiv_pos_site_id
 _symmetry_equiv_pos_as_xyz
  1  'x, y, z'
loop_
 _atom_site_type_symbol
 _atom_site_label
 _atom_site_symmetry_multiplicity
 _atom_site_fract_x
 _atom_site_fract_y
 _atom_site_fract_z
 _atom_site_occupancy
  Y  Y0  1  0.71596822  0.50188797  0.50228203  1.0
  Y  Y1  1  0.28403178  0.00188797  0.49771797  1.0
  Tl  Tl2  1  0.18373413  0.78441557  0.99560976  1.0
  Tl  Tl3  1  0.81626587  0.28441557  0.00439024  1.0
  P  P4  1  0.81952377  0.99063724  0.67016280  1.0
  P  P5  1  0.18047623  0.49063724  0.32983720  1.0
  P  P6  1  0.69559809  0.77152103  0.78664476  1.0
  P  P7  1  0.30440191  0.27152103  0.21335524  1.0
  Se  Se8  1  0.58056877  0.19075280  0.66453858  1.0
  Se  Se9  1  0.41943123  0.69075280  0.33546142  1.0
  Se  Se10  1  0.43546526  0.69282880  0.66342285  1.0
  Se  Se11  1  0.56453474  0.19282880  0.33657715  1.0
  Se  Se12  1  0.87279563  0.86436552  0.48282071  1.0
  Se  Se13  1  0.12720437  0.36436552  0.51717929  1.0
  Se  Se14  1  0.90580089  0.55818140  0.76361012  1.0
  Se  Se15  1  0.09419911  0.05818140  0.23638988  1.0
  Se  Se16  1  0.89894083  0.58507484  0.25000204  1.0
  Se  Se17  1  0.10105917  0.08507484  0.74999796  1.0
  Se  Se18  1  0.65958622  0.86622484  0.97608704  1.0
  Se  Se19  1  0.34041378  0.36622484  0.02391296  1.0
