# generated using pymatgen
data_KGaH4
_symmetry_space_group_name_H-M   'P 1'
_cell_length_a   9.07846614
_cell_length_b   5.60805118
_cell_length_c   7.33851394
_cell_angle_alpha   90.00000000
_cell_angle_beta   90.00000000
_cell_angle_gamma   90.00000000
_symmetry_Int_Tables_number   1
_chemical_formula_structural   KGaH4
_chemical_formula_sum   'K4 Ga4 H16'
_cell_volume   373.62211122
_cell_formula_units_Z   4
loop_
 _symmetry_equiv_pos_site_id
 _symmetry_equiv_pos_as_xyz
  1  'x, y, z'
loop_
 _atom_site_type_symbol
 _atom_site_label
 _atom_site_symmetry_multiplicity
 _atom_site_fract_x
 _atom_site_fract_y
 _atom_site_fract_z
 _atom_site_occupancy
  K  K0  1  0.31961136  0.75000000  0.16332699  1.0
  K  K1  1  0.81961136  0.75000000  0.33667301  1.0
  K  K2  1  0.68038864  0.25000000  0.83667301  1.0
  K  K3  1  0.18038864  0.25000000  0.66332699  1.0
  Ga  Ga4  1  0.43531896  0.75000000  0.69142510  1.0
  Ga  Ga5  1  0.93531896  0.75000000  0.80857490  1.0
  Ga  Ga6  1  0.56468104  0.25000000  0.30857490  1.0
  Ga  Ga7  1  0.06468104  0.25000000  0.19142510  1.0
  H  H8  1  0.41602862  0.98108023  0.81933204  1.0
  H  H9  1  0.41602862  0.51891977  0.81933204  1.0
  H  H10  1  0.91602862  0.98108023  0.68066796  1.0
  H  H11  1  0.91602862  0.51891977  0.68066796  1.0
  H  H12  1  0.58397138  0.48108023  0.18066796  1.0
  H  H13  1  0.58397138  0.01891977  0.18066796  1.0
  H  H14  1  0.08397138  0.48108023  0.31933204  1.0
  H  H15  1  0.08397138  0.01891977  0.31933204  1.0
  H  H16  1  0.30676797  0.75000000  0.54293557  1.0
  H  H17  1  0.80676797  0.75000000  0.95706443  1.0
  H  H18  1  0.69323203  0.25000000  0.45706443  1.0
  H  H19  1  0.19323203  0.25000000  0.04293557  1.0
  H  H20  1  0.09574046  0.75000000  0.89596160  1.0
  H  H21  1  0.59574046  0.75000000  0.60403840  1.0
  H  H22  1  0.90425954  0.25000000  0.10403840  1.0
  H  H23  1  0.40425954  0.25000000  0.39596160  1.0
