# generated using pymatgen
data_RbGe
_symmetry_space_group_name_H-M   'P 1'
_cell_length_a   12.11341270
_cell_length_b   12.11341270
_cell_length_c   12.11341270
_cell_angle_alpha   124.71996080
_cell_angle_beta   124.71996080
_cell_angle_gamma   82.00238860
_symmetry_Int_Tables_number   1
_chemical_formula_structural   RbGe
_chemical_formula_sum   'Rb16 Ge16'
_cell_volume   1154.80376607
_cell_formula_units_Z   16
loop_
 _symmetry_equiv_pos_site_id
 _symmetry_equiv_pos_as_xyz
  1  'x, y, z'
loop_
 _atom_site_type_symbol
 _atom_site_label
 _atom_site_symmetry_multiplicity
 _atom_site_fract_x
 _atom_site_fract_y
 _atom_site_fract_z
 _atom_site_occupancy
  Rb  Rb0  1  0.76584858  1.37500000  0.89084858  1.0
  Rb  Rb1  1  1.26584858  1.37500000  1.39084858  1.0
  Rb  Rb2  1  1.62500000  1.51584858  1.39084858  1.0
  Rb  Rb3  1  1.12500000  1.73415142  1.10915142  1.0
  Rb  Rb4  1  0.98415142  0.87500000  0.60915142  1.0
  Rb  Rb5  1  1.48415142  0.87500000  1.10915142  1.0
  Rb  Rb6  1  1.62500000  1.01584858  0.89084858  1.0
  Rb  Rb7  1  1.12500000  1.23415142  0.60915142  1.0
  Rb  Rb8  1  0.87187812  0.87187812  0.24375624  1.0
  Rb  Rb9  1  1.37187812  1.12812188  1.00000000  1.0
  Rb  Rb10  1  0.12187812  0.62187812  0.74375624  1.0
  Rb  Rb11  1  0.62187812  0.87812188  1.50000000  1.0
  Rb  Rb12  1  0.87812188  0.37812188  1.25624376  1.0
  Rb  Rb13  1  0.37812188  0.12187812  0.50000000  1.0
  Rb  Rb14  1  1.62812188  1.62812188  1.75624376  1.0
  Rb  Rb15  1  1.12812188  1.37187812  1.00000000  1.0
  Ge  Ge16  1  1.50951309  1.35015384  0.96130504  1.0
  Ge  Ge17  1  1.00951309  1.04820805  0.15935925  1.0
  Ge  Ge18  1  1.60015384  1.25951309  1.46130504  1.0
  Ge  Ge19  1  1.10015384  1.63884880  1.34064075  1.0
  Ge  Ge20  1  1.24048691  0.89984616  0.53869496  1.0
  Ge  Ge21  1  1.74048691  1.20179195  1.34064075  1.0
  Ge  Ge22  1  0.14984616  0.99048691  1.03869496  1.0
  Ge  Ge23  1  0.64984616  0.61115120  1.15935925  1.0
  Ge  Ge24  1  1.88884880  1.85015384  1.84064075  1.0
  Ge  Ge25  1  1.38884880  1.54820805  1.03869496  1.0
  Ge  Ge26  1  1.29820805  0.75951309  0.65935925  1.0
  Ge  Ge27  1  0.79820805  1.13884880  0.53869496  1.0
  Ge  Ge28  1  0.86115120  1.39984616  0.65935925  1.0
  Ge  Ge29  1  1.36115120  1.70179195  1.46130504  1.0
  Ge  Ge30  1  0.45179195  0.49048691  0.84064075  1.0
  Ge  Ge31  1  0.95179195  0.11115120  0.96130504  1.0
