# generated using pymatgen
data_CaMg(SiN2)2
_symmetry_space_group_name_H-M   'P 1'
_cell_length_a   10.64237193
_cell_length_b   5.21880259
_cell_length_c   6.87517087
_cell_angle_alpha   90.00000000
_cell_angle_beta   90.00000000
_cell_angle_gamma   90.00000000
_symmetry_Int_Tables_number   1
_chemical_formula_structural   CaMg(SiN2)2
_chemical_formula_sum   'Ca4 Mg4 Si8 N16'
_cell_volume   381.85000269
_cell_formula_units_Z   4
loop_
 _symmetry_equiv_pos_site_id
 _symmetry_equiv_pos_as_xyz
  1  'x, y, z'
loop_
 _atom_site_type_symbol
 _atom_site_label
 _atom_site_symmetry_multiplicity
 _atom_site_fract_x
 _atom_site_fract_y
 _atom_site_fract_z
 _atom_site_occupancy
  Ca  Ca0  1  0.16002594  0.69448359  0.38424255  1.0
  Ca  Ca1  1  0.83997406  0.30551641  0.88424255  1.0
  Ca  Ca2  1  0.33997406  0.19448359  0.88424255  1.0
  Ca  Ca3  1  0.66002594  0.80551641  0.38424255  1.0
  Mg  Mg4  1  0.08816403  0.19263459  0.63075241  1.0
  Mg  Mg5  1  0.91183597  0.80736541  0.13075241  1.0
  Mg  Mg6  1  0.41183597  0.69263459  0.13075241  1.0
  Mg  Mg7  1  0.58816403  0.30736541  0.63075241  1.0
  Si  Si8  1  0.09125441  0.17815249  0.13243958  1.0
  Si  Si9  1  0.90874559  0.82184751  0.63243958  1.0
  Si  Si10  1  0.40874559  0.67815249  0.63243958  1.0
  Si  Si11  1  0.59125441  0.32184751  0.13243958  1.0
  Si  Si12  1  0.15361191  0.68032225  0.88156748  1.0
  Si  Si13  1  0.84638809  0.31967775  0.38156748  1.0
  Si  Si14  1  0.34638809  0.18032225  0.38156748  1.0
  Si  Si15  1  0.65361191  0.81967775  0.88156748  1.0
  N  N16  1  0.06954221  0.78163968  0.67921975  1.0
  N  N17  1  0.93045779  0.21836032  0.17921975  1.0
  N  N18  1  0.43045779  0.28163968  0.17921975  1.0
  N  N19  1  0.56954221  0.71836032  0.67921975  1.0
  N  N20  1  0.10488062  0.84902243  0.08420877  1.0
  N  N21  1  0.89511938  0.15097757  0.58420877  1.0
  N  N22  1  0.39511938  0.34902243  0.58420877  1.0
  N  N23  1  0.60488062  0.65097757  0.08420877  1.0
  N  N24  1  0.12879343  0.34748520  0.91617487  1.0
  N  N25  1  0.87120657  0.65251480  0.41617487  1.0
  N  N26  1  0.37120657  0.84748520  0.41617487  1.0
  N  N27  1  0.62879343  0.15251480  0.91617487  1.0
  N  N28  1  0.18141617  0.23615410  0.34739559  1.0
  N  N29  1  0.81858383  0.76384590  0.84739559  1.0
  N  N30  1  0.31858383  0.73615410  0.84739559  1.0
  N  N31  1  0.68141617  0.26384590  0.34739559  1.0
