# generated using pymatgen
data_Rb3H(SeO4)2
_symmetry_space_group_name_H-M   'P 1'
_cell_length_a   8.56420561
_cell_length_b   8.56420561
_cell_length_c   10.62471661
_cell_angle_alpha   76.90774980
_cell_angle_beta   103.09225020
_cell_angle_gamma   136.79635407
_symmetry_Int_Tables_number   1
_chemical_formula_structural   Rb3H(SeO4)2
_chemical_formula_sum   'Rb6 H2 Se4 O16'
_cell_volume   517.41249971
_cell_formula_units_Z   2
loop_
 _symmetry_equiv_pos_site_id
 _symmetry_equiv_pos_as_xyz
  1  'x, y, z'
loop_
 _atom_site_type_symbol
 _atom_site_label
 _atom_site_symmetry_multiplicity
 _atom_site_fract_x
 _atom_site_fract_y
 _atom_site_fract_z
 _atom_site_occupancy
  Rb  Rb0  1  0.40731465  0.02808649  0.65206766  1.0
  Rb  Rb1  1  0.97191351  0.59268535  0.15206766  1.0
  Rb  Rb2  1  1.02808649  0.40731465  0.84793234  1.0
  Rb  Rb3  1  0.59268535  -0.02808649  0.34793234  1.0
  Rb  Rb4  1  0.75026870  0.75026870  0.75000000  1.0
  Rb  Rb5  1  0.24973130  0.24973130  0.25000000  1.0
  H  H6  1  0.50000000  0.50000000  0.00000000  1.0
  H  H7  1  0.50000000  0.50000000  0.50000000  1.0
  Se  Se8  1  0.39833949  0.16695051  0.96549482  1.0
  Se  Se9  1  0.83304949  0.60166051  0.46549482  1.0
  Se  Se10  1  1.16695051  0.39833949  0.53450518  1.0
  Se  Se11  1  0.60166051  -0.16695051  0.03450518  1.0
  O  O12  1  0.58769490  -0.10297164  0.87524823  1.0
  O  O13  1  1.10297164  0.41230510  0.37524823  1.0
  O  O14  1  0.89702836  0.58769490  0.62475177  1.0
  O  O15  1  0.41230510  0.10297164  0.12475177  1.0
  O  O16  1  0.64845303  0.33479959  0.90680013  1.0
  O  O17  1  0.66520041  0.35154697  0.40680013  1.0
  O  O18  1  1.33479959  0.64845303  0.59319987  1.0
  O  O19  1  0.35154697  -0.33479959  0.09319987  1.0
  O  O20  1  0.18552236  -0.06311664  0.88633479  1.0
  O  O21  1  1.06311664  0.81447764  0.38633479  1.0
  O  O22  1  0.93688336  0.18552236  0.61366521  1.0
  O  O23  1  0.81447764  0.06311664  0.11366521  1.0
  O  O24  1  0.34068454  0.32835995  0.94327168  1.0
  O  O25  1  0.67164005  0.65931546  0.44327168  1.0
  O  O26  1  1.32835995  0.34068454  0.55672832  1.0
  O  O27  1  0.65931546  -0.32835995  0.05672832  1.0
