# generated using pymatgen
data_Yb2TeO6
_symmetry_space_group_name_H-M   'P 1'
_cell_length_a   9.22860936
_cell_length_b   9.22860936
_cell_length_c   5.16670766
_cell_angle_alpha   90.00000000
_cell_angle_beta   90.00000000
_cell_angle_gamma   120.00000000
_symmetry_Int_Tables_number   1
_chemical_formula_structural   Yb2TeO6
_chemical_formula_sum   'Yb6 Te3 O18'
_cell_volume   381.08078127
_cell_formula_units_Z   3
loop_
 _symmetry_equiv_pos_site_id
 _symmetry_equiv_pos_as_xyz
  1  'x, y, z'
loop_
 _atom_site_type_symbol
 _atom_site_label
 _atom_site_symmetry_multiplicity
 _atom_site_fract_x
 _atom_site_fract_y
 _atom_site_fract_z
 _atom_site_occupancy
  Yb  Yb0  1  0.71330550  0.71330550  0.50000000  1.0
  Yb  Yb1  1  -0.00000000  0.28669450  0.50000000  1.0
  Yb  Yb2  1  0.28669450  0.00000000  0.50000000  1.0
  Yb  Yb3  1  0.37598010  0.37598010  0.00000000  1.0
  Yb  Yb4  1  -0.00000000  0.62401990  0.00000000  1.0
  Yb  Yb5  1  0.62401990  0.00000000  0.00000000  1.0
  Te  Te6  1  0.33333333  0.66666667  0.50079145  1.0
  Te  Te7  1  0.66666667  0.33333333  0.49920855  1.0
  Te  Te8  1  0.00000000  0.00000000  0.00000000  1.0
  O  O9  1  0.08135867  0.87618864  0.21596729  1.0
  O  O10  1  0.87618864  0.08135867  0.78403271  1.0
  O  O11  1  0.79482997  0.91864133  0.21596729  1.0
  O  O12  1  0.12381136  0.20517003  0.21596729  1.0
  O  O13  1  0.91864133  0.79482997  0.78403271  1.0
  O  O14  1  0.20517003  0.12381136  0.78403271  1.0
  O  O15  1  0.41078509  0.87159283  0.28252275  1.0
  O  O16  1  0.87159283  0.41078509  0.71747725  1.0
  O  O17  1  0.46080774  0.58921491  0.28252275  1.0
  O  O18  1  0.12840717  0.53919226  0.28252275  1.0
  O  O19  1  0.58921491  0.46080774  0.71747725  1.0
  O  O20  1  0.53919226  0.12840717  0.71747725  1.0
  O  O21  1  0.77710177  0.54049344  0.28094510  1.0
  O  O22  1  0.54049344  0.77710177  0.71905490  1.0
  O  O23  1  0.76339167  0.22289823  0.28094510  1.0
  O  O24  1  0.45950656  0.23660833  0.28094510  1.0
  O  O25  1  0.22289823  0.76339167  0.71905490  1.0
  O  O26  1  0.23660833  0.45950656  0.71905490  1.0
