# generated using pymatgen
data_ScF3
_symmetry_space_group_name_H-M   'P 1'
_cell_length_a   5.75602086
_cell_length_b   5.75602086
_cell_length_c   5.75602086
_cell_angle_alpha   60.00202228
_cell_angle_beta   60.00202228
_cell_angle_gamma   60.00202227
_symmetry_Int_Tables_number   1
_chemical_formula_structural   ScF3
_chemical_formula_sum   'Sc2 F6'
_cell_volume   134.85653345
_cell_formula_units_Z   2
loop_
 _symmetry_equiv_pos_site_id
 _symmetry_equiv_pos_as_xyz
  1  'x, y, z'
loop_
 _atom_site_type_symbol
 _atom_site_label
 _atom_site_symmetry_multiplicity
 _atom_site_fract_x
 _atom_site_fract_y
 _atom_site_fract_z
 _atom_site_occupancy
  Sc  Sc0  1  0.00497355  0.00497355  0.00497355  1.0
  Sc  Sc1  1  0.50497355  0.50497355  -0.49502645  1.0
  F  F2  1  0.75487475  -0.24492449  0.25497620  1.0
  F  F3  1  0.25487475  0.75497620  -0.74492449  1.0
  F  F4  1  0.75497620  0.25507551  -0.74512525  1.0
  F  F5  1  1.25497620  -0.24512525  -0.24492449  1.0
  F  F6  1  0.25507551  0.25487475  -0.24502380  1.0
  F  F7  1  0.75507551  0.25497620  -0.24512525  1.0
