# generated using pymatgen
data_Ag(MoSe)3
_symmetry_space_group_name_H-M   'P 1'
_cell_length_a   8.47205023
_cell_length_b   8.47205023
_cell_length_c   4.52437410
_cell_angle_alpha   90.00000000
_cell_angle_beta   90.00000000
_cell_angle_gamma   120.00000000
_symmetry_Int_Tables_number   1
_chemical_formula_structural   Ag(MoSe)3
_chemical_formula_sum   'Ag2 Mo6 Se6'
_cell_volume   281.23293717
_cell_formula_units_Z   2
loop_
 _symmetry_equiv_pos_site_id
 _symmetry_equiv_pos_as_xyz
  1  'x, y, z'
loop_
 _atom_site_type_symbol
 _atom_site_label
 _atom_site_symmetry_multiplicity
 _atom_site_fract_x
 _atom_site_fract_y
 _atom_site_fract_z
 _atom_site_occupancy
  Ag  Ag0  1  0.33333333  0.66666667  0.25000000  1.0
  Ag  Ag1  1  0.66666667  0.33333333  0.75000000  1.0
  Mo  Mo2  1  0.06084836  0.85580855  0.25000000  1.0
  Mo  Mo3  1  0.85580855  0.79496020  0.75000000  1.0
  Mo  Mo4  1  0.79496020  0.93915164  0.25000000  1.0
  Mo  Mo5  1  0.14419145  0.20503980  0.25000000  1.0
  Mo  Mo6  1  0.93915164  0.14419145  0.75000000  1.0
  Mo  Mo7  1  0.20503980  0.06084836  0.75000000  1.0
  Se  Se8  1  0.71577370  0.60012654  0.25000000  1.0
  Se  Se9  1  0.60012654  0.88435284  0.75000000  1.0
  Se  Se10  1  0.88435284  0.28422630  0.25000000  1.0
  Se  Se11  1  0.39987346  0.11564716  0.25000000  1.0
  Se  Se12  1  0.28422630  0.39987346  0.75000000  1.0
  Se  Se13  1  0.11564716  0.71577370  0.75000000  1.0
