# generated using pymatgen
data_KB3O5
_symmetry_space_group_name_H-M   'P 1'
_cell_length_a   6.61162696
_cell_length_b   6.61162696
_cell_length_c   9.18617966
_cell_angle_alpha   80.46930254
_cell_angle_beta   99.53069746
_cell_angle_gamma   95.99077491
_symmetry_Int_Tables_number   1
_chemical_formula_structural   KB3O5
_chemical_formula_sum   'K4 B12 O20'
_cell_volume   389.32771496
_cell_formula_units_Z   4
loop_
 _symmetry_equiv_pos_site_id
 _symmetry_equiv_pos_as_xyz
  1  'x, y, z'
loop_
 _atom_site_type_symbol
 _atom_site_label
 _atom_site_symmetry_multiplicity
 _atom_site_fract_x
 _atom_site_fract_y
 _atom_site_fract_z
 _atom_site_occupancy
  K  K0  1  1.57620031  -0.25186833  0.55178804  1.0
  K  K1  1  1.25186833  -0.57620031  0.05178804  1.0
  K  K2  1  0.74813167  0.57620031  0.94821196  1.0
  K  K3  1  0.42379969  0.25186833  0.44821196  1.0
  B  B4  1  0.79429826  0.20122971  0.76530986  1.0
  B  B5  1  0.79877029  0.20570174  0.26530986  1.0
  B  B6  1  1.20122971  -0.20570174  0.73469014  1.0
  B  B7  1  1.20570174  -0.20122971  0.23469014  1.0
  B  B8  1  0.43211126  0.08043827  0.81949647  1.0
  B  B9  1  0.91956173  0.56788874  0.31949647  1.0
  B  B10  1  1.08043827  -0.56788874  0.68050353  1.0
  B  B11  1  1.56788874  -0.08043827  0.18050353  1.0
  B  B12  1  1.11623717  -0.03329082  0.93402627  1.0
  B  B13  1  1.03329082  -0.11623717  0.43402627  1.0
  B  B14  1  0.96670918  0.11623717  0.56597373  1.0
  B  B15  1  0.88376283  0.03329082  0.06597373  1.0
  O  O16  1  0.90878060  0.06956111  0.90179159  1.0
  O  O17  1  0.93043889  0.09121940  0.40179159  1.0
  O  O18  1  1.06956111  -0.09121940  0.59820841  1.0
  O  O19  1  1.09121940  -0.06956111  0.09820841  1.0
  O  O20  1  0.78592521  0.10693726  0.63232843  1.0
  O  O21  1  0.89306274  0.21407479  0.13232843  1.0
  O  O22  1  1.10693726  -0.21407479  0.86767157  1.0
  O  O23  1  1.21407479  -0.10693726  0.36767157  1.0
  O  O24  1  1.40722304  -0.09110035  0.74948380  1.0
  O  O25  1  1.09110035  -0.40722304  0.24948380  1.0
  O  O26  1  0.90889965  0.40722304  0.75051620  1.0
  O  O27  1  0.59277696  0.09110035  0.25051620  1.0
  O  O28  1  0.59322787  0.22757660  0.80246130  1.0
  O  O29  1  0.77242340  0.40677213  0.30246130  1.0
  O  O30  1  1.22757660  -0.40677213  0.69753870  1.0
  O  O31  1  1.40677213  -0.22757660  0.19753870  1.0
  O  O32  1  0.28971810  0.11399401  0.90617903  1.0
  O  O33  1  0.88600599  0.71028190  0.40617903  1.0
  O  O34  1  1.11399401  -0.71028190  0.59382097  1.0
  O  O35  1  1.71028190  -0.11399401  0.09382097  1.0
