# generated using pymatgen
data_Lu3(CuSn)4
_symmetry_space_group_name_H-M   'P 1'
_cell_length_a   8.27246743
_cell_length_b   8.27246743
_cell_length_c   6.93996631
_cell_angle_alpha   67.03417047
_cell_angle_beta   112.96582953
_cell_angle_gamma   149.21616349
_symmetry_Int_Tables_number   1
_chemical_formula_structural   Lu3(CuSn)4
_chemical_formula_sum   'Lu3 Cu4 Sn4'
_cell_volume   222.27391379
_cell_formula_units_Z   1
loop_
 _symmetry_equiv_pos_site_id
 _symmetry_equiv_pos_as_xyz
  1  'x, y, z'
loop_
 _atom_site_type_symbol
 _atom_site_label
 _atom_site_symmetry_multiplicity
 _atom_site_fract_x
 _atom_site_fract_y
 _atom_site_fract_z
 _atom_site_occupancy
  Lu  Lu0  1  0.87218814  -0.87218814  0.35014673  1.0
  Lu  Lu1  1  1.12781186  -0.12781186  0.64985327  1.0
  Lu  Lu2  1  0.00000000  0.00000000  0.00000000  1.0
  Cu  Cu3  1  0.69313903  -0.69313903  0.39046308  1.0
  Cu  Cu4  1  1.30686097  -0.30686097  0.60953692  1.0
  Cu  Cu5  1  0.64931809  -0.64931809  0.97603939  1.0
  Cu  Cu6  1  1.35068191  -0.35068191  0.02396061  1.0
  Sn  Sn7  1  0.78073268  -0.78073268  0.81043047  1.0
  Sn  Sn8  1  1.21926732  -0.21926732  0.18956953  1.0
  Sn  Sn9  1  1.48266753  -0.48266753  0.68760684  1.0
  Sn  Sn10  1  0.51733247  -0.51733247  0.31239317  1.0
