# generated using pymatgen
data_Pb3(ClO)2
_symmetry_space_group_name_H-M   'P 1'
_cell_length_a   12.02059892
_cell_length_b   5.96018252
_cell_length_c   10.03964875
_cell_angle_alpha   90.00000000
_cell_angle_beta   90.00000000
_cell_angle_gamma   90.00000000
_symmetry_Int_Tables_number   1
_chemical_formula_structural   Pb3(ClO)2
_chemical_formula_sum   'Pb12 Cl8 O8'
_cell_volume   719.29026817
_cell_formula_units_Z   4
loop_
 _symmetry_equiv_pos_site_id
 _symmetry_equiv_pos_as_xyz
  1  'x, y, z'
loop_
 _atom_site_type_symbol
 _atom_site_label
 _atom_site_symmetry_multiplicity
 _atom_site_fract_x
 _atom_site_fract_y
 _atom_site_fract_z
 _atom_site_occupancy
  Pb  Pb0  1  0.44585974  0.75000000  0.70908260  1.0
  Pb  Pb1  1  0.94585974  0.75000000  0.79091740  1.0
  Pb  Pb2  1  0.55414026  0.25000000  0.29091740  1.0
  Pb  Pb3  1  0.05414026  0.25000000  0.20908260  1.0
  Pb  Pb4  1  0.41535885  0.75000000  0.07183821  1.0
  Pb  Pb5  1  0.91535885  0.75000000  0.42816179  1.0
  Pb  Pb6  1  0.58464115  0.25000000  0.92816179  1.0
  Pb  Pb7  1  0.08464115  0.25000000  0.57183821  1.0
  Pb  Pb8  1  0.21127490  0.75000000  0.35345565  1.0
  Pb  Pb9  1  0.71127490  0.75000000  0.14654435  1.0
  Pb  Pb10  1  0.78872510  0.25000000  0.64654435  1.0
  Pb  Pb11  1  0.28872510  0.25000000  0.85345565  1.0
  Cl  Cl12  1  0.19799352  0.75000000  0.68712891  1.0
  Cl  Cl13  1  0.69799352  0.75000000  0.81287109  1.0
  Cl  Cl14  1  0.80200648  0.25000000  0.31287109  1.0
  Cl  Cl15  1  0.30200648  0.25000000  0.18712891  1.0
  Cl  Cl16  1  1.12485213  0.75000000  0.08943451  1.0
  Cl  Cl17  1  0.62485213  0.75000000  0.41056549  1.0
  Cl  Cl18  1  -0.12485213  0.25000000  0.91056549  1.0
  Cl  Cl19  1  0.37514787  0.25000000  0.58943451  1.0
  O  O20  1  0.42513882  -0.00453866  0.88483634  1.0
  O  O21  1  0.42513882  0.50453866  0.88483634  1.0
  O  O22  1  0.92513882  -0.00453866  0.61516366  1.0
  O  O23  1  0.92513882  0.50453866  0.61516366  1.0
  O  O24  1  0.57486118  0.49546134  0.11516366  1.0
  O  O25  1  0.57486118  0.00453866  0.11516366  1.0
  O  O26  1  0.07486118  0.49546134  0.38483634  1.0
  O  O27  1  0.07486118  0.00453866  0.38483634  1.0
