# generated using pymatgen
data_Y3Al7Ag2
_symmetry_space_group_name_H-M   'P 1'
_cell_length_a   9.35093140
_cell_length_b   9.35093140
_cell_length_c   9.35093140
_cell_angle_alpha   34.58212042
_cell_angle_beta   34.58212042
_cell_angle_gamma   34.58212042
_symmetry_Int_Tables_number   1
_chemical_formula_structural   Y3Al7Ag2
_chemical_formula_sum   'Y3 Al7 Ag2'
_cell_volume   235.02512067
_cell_formula_units_Z   1
loop_
 _symmetry_equiv_pos_site_id
 _symmetry_equiv_pos_as_xyz
  1  'x, y, z'
loop_
 _atom_site_type_symbol
 _atom_site_label
 _atom_site_symmetry_multiplicity
 _atom_site_fract_x
 _atom_site_fract_y
 _atom_site_fract_z
 _atom_site_occupancy
  Y  Y0  1  0.85782391  0.85782391  0.85782391  1.0
  Y  Y1  1  1.14217609  1.14217609  0.14217609  1.0
  Y  Y2  1  0.00000000  0.00000000  0.00000000  1.0
  Al  Al3  1  1.41241770  1.41241770  -0.07586136  1.0
  Al  Al4  1  1.41241770  0.92413864  0.41241770  1.0
  Al  Al5  1  1.07586136  0.58758230  0.58758230  1.0
  Al  Al6  1  1.58758230  0.07586136  0.58758230  1.0
  Al  Al7  1  1.58758230  0.58758230  0.07586136  1.0
  Al  Al8  1  0.92413864  1.41241770  0.41241770  1.0
  Al  Al9  1  1.50000000  0.50000000  0.50000000  1.0
  Ag  Ag10  1  1.66426612  0.66426612  0.66426612  1.0
  Ag  Ag11  1  1.33573388  0.33573388  0.33573388  1.0
