# generated using pymatgen
data_Cu2ClO3
_symmetry_space_group_name_H-M   'P 1'
_cell_length_a   5.86392906
_cell_length_b   5.67537214
_cell_length_c   6.48307449
_cell_angle_alpha   90.00000000
_cell_angle_beta   69.31305099
_cell_angle_gamma   90.00000000
_symmetry_Int_Tables_number   1
_chemical_formula_structural   Cu2ClO3
_chemical_formula_sum   'Cu4 Cl2 O6'
_cell_volume   201.84557759
_cell_formula_units_Z   2
loop_
 _symmetry_equiv_pos_site_id
 _symmetry_equiv_pos_as_xyz
  1  'x, y, z'
loop_
 _atom_site_type_symbol
 _atom_site_label
 _atom_site_symmetry_multiplicity
 _atom_site_fract_x
 _atom_site_fract_y
 _atom_site_fract_z
 _atom_site_occupancy
  Cl  Cl0  1  0.24382049  0.25000000  0.46363397  1.0
  Cl  Cl1  1  0.75617951  0.75000000  0.53636603  1.0
  O  O2  1  0.83798088  1.00298561  0.92394782  1.0
  O  O3  1  0.83798088  0.49701439  0.92394782  1.0
  O  O4  1  0.16201912  0.50298561  0.07605218  1.0
  O  O5  1  0.16201912  -0.00298561  0.07605218  1.0
  O  O6  1  0.48248749  0.25000000  0.21951272  1.0
  O  O7  1  0.51751251  0.75000000  0.78048728  1.0
  Cu  Cu8  1  0.99838343  0.25000000  1.00544644  1.0
  Cu  Cu9  1  0.00161657  0.75000000  -0.00544644  1.0
  Cu  Cu10  1  0.50000000  0.50000000  -0.00000000  1.0
  Cu  Cu11  1  0.50000000  0.00000000  -0.00000000  1.0
