# generated using pymatgen
data_Co3S4
_symmetry_space_group_name_H-M   'P 1'
_cell_length_a   6.56424827
_cell_length_b   6.56424827
_cell_length_c   6.56424827
_cell_angle_alpha   60.00000000
_cell_angle_beta   60.00000000
_cell_angle_gamma   60.00000000
_symmetry_Int_Tables_number   1
_chemical_formula_structural   Co3S4
_chemical_formula_sum   'Co6 S8'
_cell_volume   200.00460593
_cell_formula_units_Z   2
loop_
 _symmetry_equiv_pos_site_id
 _symmetry_equiv_pos_as_xyz
  1  'x, y, z'
loop_
 _atom_site_type_symbol
 _atom_site_label
 _atom_site_symmetry_multiplicity
 _atom_site_fract_x
 _atom_site_fract_y
 _atom_site_fract_z
 _atom_site_occupancy
  S  S0  1  -0.10332961  1.36777654  0.36777654  1.0
  S  S1  1  0.36777654  0.89667039  0.36777654  1.0
  S  S2  1  0.36777654  1.36777654  -0.10332961  1.0
  S  S3  1  0.36777654  1.36777654  0.36777654  1.0
  S  S4  1  -0.64667039  0.88222346  0.88222346  1.0
  S  S5  1  0.88222346  -0.64667039  0.88222346  1.0
  S  S6  1  0.88222346  0.88222346  -0.64667039  1.0
  S  S7  1  0.88222346  0.88222346  0.88222346  1.0
  Co  Co8  1  0.62500000  1.12500000  0.12500000  1.0
  Co  Co9  1  0.12500000  1.62500000  0.12500000  1.0
  Co  Co10  1  0.12500000  0.12500000  1.62500000  1.0
  Co  Co11  1  0.12500000  0.12500000  0.12500000  1.0
  Co  Co12  1  0.50000000  -0.50000000  0.50000000  1.0
  Co  Co13  1  0.75000000  0.75000000  0.75000000  1.0
