# generated using pymatgen
data_La5Sb3Br
_symmetry_space_group_name_H-M   'P 1'
_cell_length_a   9.67916060
_cell_length_b   9.67916060
_cell_length_c   6.79936866
_cell_angle_alpha   90.00000000
_cell_angle_beta   90.00000000
_cell_angle_gamma   120.00000000
_symmetry_Int_Tables_number   1
_chemical_formula_structural   La5Sb3Br
_chemical_formula_sum   'La10 Sb6 Br2'
_cell_volume   551.66396017
_cell_formula_units_Z   2
loop_
 _symmetry_equiv_pos_site_id
 _symmetry_equiv_pos_as_xyz
  1  'x, y, z'
loop_
 _atom_site_type_symbol
 _atom_site_label
 _atom_site_symmetry_multiplicity
 _atom_site_fract_x
 _atom_site_fract_y
 _atom_site_fract_z
 _atom_site_occupancy
  La  La0  1  0.72474226  0.72474226  0.25000000  1.0
  La  La1  1  0.72474226  0.00000000  0.75000000  1.0
  La  La2  1  0.00000000  0.72474226  0.75000000  1.0
  La  La3  1  -0.00000000  0.27525774  0.25000000  1.0
  La  La4  1  0.27525774  0.27525774  0.75000000  1.0
  La  La5  1  0.27525774  0.00000000  0.25000000  1.0
  La  La6  1  0.33333333  0.66666667  0.50000000  1.0
  La  La7  1  0.33333333  0.66666667  0.00000000  1.0
  La  La8  1  0.66666667  0.33333333  0.50000000  1.0
  La  La9  1  0.66666667  0.33333333  0.00000000  1.0
  Sb  Sb10  1  0.38268941  0.38268941  0.25000000  1.0
  Sb  Sb11  1  0.38268941  0.00000000  0.75000000  1.0
  Sb  Sb12  1  -0.00000000  0.38268941  0.75000000  1.0
  Sb  Sb13  1  -0.00000000  0.61731059  0.25000000  1.0
  Sb  Sb14  1  0.61731059  0.61731059  0.75000000  1.0
  Sb  Sb15  1  0.61731059  0.00000000  0.25000000  1.0
  Br  Br16  1  0.00000000  0.00000000  0.50000000  1.0
  Br  Br17  1  0.00000000  0.00000000  0.00000000  1.0
