# generated using pymatgen
data_LaSi2Pt
_symmetry_space_group_name_H-M   'P 1'
_cell_length_a   8.73391159
_cell_length_b   8.73391159
_cell_length_c   4.28900523
_cell_angle_alpha   90.00000000
_cell_angle_beta   90.00000000
_cell_angle_gamma   151.02688554
_symmetry_Int_Tables_number   1
_chemical_formula_structural   LaSi2Pt
_chemical_formula_sum   'La2 Si4 Pt2'
_cell_volume   158.48112257
_cell_formula_units_Z   2
loop_
 _symmetry_equiv_pos_site_id
 _symmetry_equiv_pos_as_xyz
  1  'x, y, z'
loop_
 _atom_site_type_symbol
 _atom_site_label
 _atom_site_symmetry_multiplicity
 _atom_site_fract_x
 _atom_site_fract_y
 _atom_site_fract_z
 _atom_site_occupancy
  La  La0  1  0.39436826  0.60563174  0.75000000  1.0
  La  La1  1  -0.39436826  0.39436826  0.25000000  1.0
  Si  Si2  1  0.03602781  0.96397219  0.75000000  1.0
  Si  Si3  1  -0.03602781  0.03602781  0.25000000  1.0
  Si  Si4  1  -0.25091296  0.25091296  0.75000000  1.0
  Si  Si5  1  0.25091296  0.74908704  0.25000000  1.0
  Pt  Pt6  1  0.18050159  0.81949841  0.75000000  1.0
  Pt  Pt7  1  -0.18050159  0.18050159  0.25000000  1.0
