# generated using pymatgen
data_CdSO4
_symmetry_space_group_name_H-M   'P 1'
_cell_length_a   6.60363162
_cell_length_b   4.82685481
_cell_length_c   4.87519057
_cell_angle_alpha   90.00000000
_cell_angle_beta   90.00000000
_cell_angle_gamma   90.00000000
_symmetry_Int_Tables_number   1
_chemical_formula_structural   CdSO4
_chemical_formula_sum   'Cd2 S2 O8'
_cell_volume   155.39558333
_cell_formula_units_Z   2
loop_
 _symmetry_equiv_pos_site_id
 _symmetry_equiv_pos_as_xyz
  1  'x, y, z'
loop_
 _atom_site_type_symbol
 _atom_site_label
 _atom_site_symmetry_multiplicity
 _atom_site_fract_x
 _atom_site_fract_y
 _atom_site_fract_z
 _atom_site_occupancy
  Cd  Cd0  1  0.50000000  0.86887410  0.48757581  1.0
  Cd  Cd1  1  0.00000000  0.13112590  -0.01242419  1.0
  S  S2  1  0.50000000  0.32900086  0.02091371  1.0
  S  S3  1  -0.00000000  0.67099914  0.52091371  1.0
  O  O4  1  0.18057858  0.81183617  0.64996634  1.0
  O  O5  1  0.68057858  0.18816383  0.14996634  1.0
  O  O6  1  0.81942142  0.81183617  0.64996634  1.0
  O  O7  1  0.31942142  0.18816383  0.14996634  1.0
  O  O8  1  0.50000000  0.63033701  0.08426652  1.0
  O  O9  1  -0.00000000  0.36966299  0.58426652  1.0
  O  O10  1  0.50000000  0.29575348  0.71731127  1.0
  O  O11  1  0.00000000  0.70424652  0.21731127  1.0
