# generated using pymatgen
data_LiAuF4
_symmetry_space_group_name_H-M   'P 1'
_cell_length_a   6.46633689
_cell_length_b   6.46633689
_cell_length_c   4.94136978
_cell_angle_alpha   69.57689746
_cell_angle_beta   110.42310254
_cell_angle_gamma   114.96006996
_symmetry_Int_Tables_number   1
_chemical_formula_structural   LiAuF4
_chemical_formula_sum   'Li2 Au2 F8'
_cell_volume   170.52551810
_cell_formula_units_Z   2
loop_
 _symmetry_equiv_pos_site_id
 _symmetry_equiv_pos_as_xyz
  1  'x, y, z'
loop_
 _atom_site_type_symbol
 _atom_site_label
 _atom_site_symmetry_multiplicity
 _atom_site_fract_x
 _atom_site_fract_y
 _atom_site_fract_z
 _atom_site_occupancy
  Li  Li0  1  0.14649952  0.14649952  0.75000000  1.0
  Li  Li1  1  -0.14649952  -0.14649952  0.25000000  1.0
  Au  Au2  1  1.00000000  -0.50000000  -0.00000000  1.0
  Au  Au3  1  1.50000000  0.00000000  0.50000000  1.0
  F  F4  1  1.19770650  -0.55530611  0.83057868  1.0
  F  F5  1  1.44469389  0.19770650  0.66942132  1.0
  F  F6  1  0.80229350  -0.44469389  0.16942132  1.0
  F  F7  1  1.55530611  -0.19770650  0.33057868  1.0
  F  F8  1  1.01714386  -0.21087121  0.68718433  1.0
  F  F9  1  1.78912879  0.01714386  0.81281567  1.0
  F  F10  1  0.98285614  -0.78912879  0.31281567  1.0
  F  F11  1  1.21087121  -0.01714386  0.18718433  1.0
