# generated using pymatgen
data_Nb2TlPS10
_symmetry_space_group_name_H-M   'P 1'
_cell_length_a   7.40368338
_cell_length_b   7.84695926
_cell_length_c   13.14465223
_cell_angle_alpha   90.00000000
_cell_angle_beta   107.82737933
_cell_angle_gamma   90.00000000
_symmetry_Int_Tables_number   1
_chemical_formula_structural   Nb2TlPS10
_chemical_formula_sum   'Nb4 Tl2 P2 S20'
_cell_volume   726.98863650
_cell_formula_units_Z   2
loop_
 _symmetry_equiv_pos_site_id
 _symmetry_equiv_pos_as_xyz
  1  'x, y, z'
loop_
 _atom_site_type_symbol
 _atom_site_label
 _atom_site_symmetry_multiplicity
 _atom_site_fract_x
 _atom_site_fract_y
 _atom_site_fract_z
 _atom_site_occupancy
  Nb  Nb0  1  0.73697521  0.94284881  0.04670510  1.0
  Nb  Nb1  1  0.73697521  0.05715119  0.54670510  1.0
  Nb  Nb2  1  0.73284454  0.94637616  0.33532520  1.0
  Nb  Nb3  1  0.73284454  0.05362384  0.83532520  1.0
  Tl  Tl4  1  0.12594264  0.50224278  0.26776960  1.0
  Tl  Tl5  1  0.12594264  0.49775722  0.76776960  1.0
  P  P6  1  0.58859523  0.61458761  0.16596285  1.0
  P  P7  1  0.58859523  0.38541239  0.66596285  1.0
  S  S8  1  -0.01360486  0.87611758  0.50418817  1.0
  S  S9  1  -0.01360486  0.12388242  0.00418817  1.0
  S  S10  1  0.98166888  0.95841252  0.23359246  1.0
  S  S11  1  0.98166888  0.04158748  0.73359246  1.0
  S  S12  1  0.79550889  0.83838581  0.70073975  1.0
  S  S13  1  0.79550889  0.16161419  0.20073975  1.0
  S  S14  1  0.77141490  0.61640345  0.07293831  1.0
  S  S15  1  0.77141490  0.38359655  0.57293831  1.0
  S  S16  1  0.74210816  0.61571628  0.32679952  1.0
  S  S17  1  0.74210816  0.38428372  0.82679952  1.0
  S  S18  1  0.48583786  0.86713757  0.87190253  1.0
  S  S19  1  0.48583786  0.13286243  0.37190253  1.0
  S  S20  1  0.48538277  0.86618061  0.14704805  1.0
  S  S21  1  0.48538277  0.13381939  0.64704805  1.0
  S  S22  1  0.47678719  0.88618654  0.42212915  1.0
  S  S23  1  0.47678719  0.11381346  0.92212915  1.0
  S  S24  1  0.39587254  0.43078274  0.12196648  1.0
  S  S25  1  0.39587254  0.56921726  0.62196648  1.0
  S  S26  1  0.98666606  0.87437031  0.96223283  1.0
  S  S27  1  0.98666606  0.12562969  0.46223283  1.0
