# generated using pymatgen
data_Ca2MgSi2O7
_symmetry_space_group_name_H-M   'P 1'
_cell_length_a   9.38646734
_cell_length_b   7.86858697
_cell_length_c   10.00792707
_cell_angle_alpha   90.00000000
_cell_angle_beta   122.73757406
_cell_angle_gamma   90.00000000
_symmetry_Int_Tables_number   1
_chemical_formula_structural   Ca2MgSi2O7
_chemical_formula_sum   'Ca8 Mg4 Si8 O28'
_cell_volume   621.75568513
_cell_formula_units_Z   4
loop_
 _symmetry_equiv_pos_site_id
 _symmetry_equiv_pos_as_xyz
  1  'x, y, z'
loop_
 _atom_site_type_symbol
 _atom_site_label
 _atom_site_symmetry_multiplicity
 _atom_site_fract_x
 _atom_site_fract_y
 _atom_site_fract_z
 _atom_site_occupancy
  Ca  Ca0  1  0.43812436  0.21401487  0.47101041  1.0
  Ca  Ca1  1  0.43812436  0.28598513  0.97101041  1.0
  Ca  Ca2  1  0.56187564  0.71401487  0.02898959  1.0
  Ca  Ca3  1  0.56187564  0.78598513  0.52898959  1.0
  Ca  Ca4  1  0.93330484  0.47106500  0.19570796  1.0
  Ca  Ca5  1  0.93330484  0.02893500  0.69570796  1.0
  Ca  Ca6  1  0.06669516  0.97106500  0.30429204  1.0
  Ca  Ca7  1  0.06669516  0.52893500  0.80429204  1.0
  Mg  Mg8  1  0.72044061  0.38887309  0.38310361  1.0
  Mg  Mg9  1  0.72044061  0.11112691  0.88310361  1.0
  Mg  Mg10  1  0.27955939  0.88887309  0.11689639  1.0
  Mg  Mg11  1  0.27955939  0.61112691  0.61689639  1.0
  Si  Si12  1  0.65055232  0.03073448  0.28703028  1.0
  Si  Si13  1  0.65055232  0.46926552  0.78703028  1.0
  Si  Si14  1  0.34944768  0.53073448  0.21296972  1.0
  Si  Si15  1  0.34944768  0.96926552  0.71296972  1.0
  Si  Si16  1  0.89040806  0.72620316  0.41917474  1.0
  Si  Si17  1  0.89040806  0.77379684  0.91917474  1.0
  Si  Si18  1  0.10959194  0.22620316  0.08082526  1.0
  Si  Si19  1  0.10959194  0.27379684  0.58082526  1.0
  O  O20  1  0.88899040  0.78060463  0.08061888  1.0
  O  O21  1  0.88899040  0.71939537  0.58061888  1.0
  O  O22  1  0.11100960  0.28060463  0.41938112  1.0
  O  O23  1  0.11100960  0.21939537  0.91938112  1.0
  O  O24  1  0.83094091  0.92335885  0.33935472  1.0
  O  O25  1  0.83094091  0.57664115  0.83935472  1.0
  O  O26  1  0.16905909  0.42335885  0.16064528  1.0
  O  O27  1  0.16905909  0.07664115  0.66064528  1.0
  O  O28  1  0.66422595  0.21603459  0.22264026  1.0
  O  O29  1  0.66422595  0.28396541  0.72264026  1.0
  O  O30  1  0.33577405  0.71603459  0.27735974  1.0
  O  O31  1  0.33577405  0.78396541  0.77735974  1.0
  O  O32  1  0.50559141  0.42727784  0.36101017  1.0
  O  O33  1  0.50559141  0.07272216  0.86101017  1.0
  O  O34  1  0.49440859  0.92727784  0.13898983  1.0
  O  O35  1  0.49440859  0.57272216  0.63898983  1.0
  O  O36  1  0.64041888  0.03714493  0.44634409  1.0
  O  O37  1  0.64041888  0.46285507  0.94634409  1.0
  O  O38  1  0.35958112  0.53714493  0.05365591  1.0
  O  O39  1  0.35958112  0.96285507  0.55365591  1.0
  O  O40  1  0.23997097  0.08732588  0.21521131  1.0
  O  O41  1  0.23997097  0.41267412  0.71521131  1.0
  O  O42  1  0.76002903  0.58732588  0.28478869  1.0
  O  O43  1  0.76002903  0.91267412  0.78478869  1.0
  O  O44  1  0.92996474  0.19754797  0.06899861  1.0
  O  O45  1  0.92996474  0.30245203  0.56899861  1.0
  O  O46  1  0.07003526  0.69754797  0.43100139  1.0
  O  O47  1  0.07003526  0.80245203  0.93100139  1.0
