# generated using pymatgen
data_Ba2Fe3P6HO22
_symmetry_space_group_name_H-M   'P 1'
_cell_length_a   11.42956421
_cell_length_b   8.05925477
_cell_length_c   4.95029251
_cell_angle_alpha   87.04473170
_cell_angle_beta   88.96827808
_cell_angle_gamma   89.58844707
_symmetry_Int_Tables_number   1
_chemical_formula_structural   Ba2Fe3P6HO22
_chemical_formula_sum   'Ba2 Fe3 P6 H1 O22'
_cell_volume   455.30091946
_cell_formula_units_Z   1
loop_
 _symmetry_equiv_pos_site_id
 _symmetry_equiv_pos_as_xyz
  1  'x, y, z'
loop_
 _atom_site_type_symbol
 _atom_site_label
 _atom_site_symmetry_multiplicity
 _atom_site_fract_x
 _atom_site_fract_y
 _atom_site_fract_z
 _atom_site_occupancy
  Fe  Fe0  1  -0.70545240  -0.99325031  -0.23048478  1.0
  Fe  Fe1  1  -0.29454760  -0.00674969  -0.76951522  1.0
  Fe  Fe2  1  -0.00000000  -0.50000000  -0.50000000  1.0
  Ba  Ba3  1  -0.32629142  -0.49382407  -0.76228765  1.0
  Ba  Ba4  1  -0.67370858  -0.50617593  -0.23771235  1.0
  P  P5  1  -0.07526961  -0.74318166  -0.96871340  1.0
  P  P6  1  -0.92473039  -0.25681834  -0.03128660  1.0
  P  P7  1  -0.84175814  -0.79764809  -0.73850448  1.0
  P  P8  1  -0.15824186  -0.20235191  -0.26149552  1.0
  P  P9  1  -0.44728379  -0.79562467  -0.31063585  1.0
  P  P10  1  -0.55271621  -0.20437533  -0.68936415  1.0
  O  O11  1  -0.58695710  -0.06830355  -0.91596546  1.0
  O  O12  1  -0.41304290  -0.93169645  -0.08403454  1.0
  O  O13  1  -0.97185163  -0.85153434  -0.82458637  1.0
  O  O14  1  -0.02814837  -0.14846566  -0.17541363  1.0
  O  O15  1  -0.57089897  -0.38480876  -0.77435284  1.0
  O  O16  1  -0.42910103  -0.61519124  -0.22564716  1.0
  O  O17  1  -0.80855740  -0.92951207  -0.52004694  1.0
  O  O18  1  -0.19144260  -0.07048793  -0.47995306  1.0
  O  O19  1  -0.18536033  -0.85007611  -0.95396201  1.0
  O  O20  1  -0.81463967  -0.14992389  -0.04603799  1.0
  O  O21  1  -0.96155867  -0.30167587  -0.73901059  1.0
  O  O22  1  -0.03844133  -0.69832413  -0.26098941  1.0
  O  O23  1  -0.90421546  -0.41130578  -0.20118163  1.0
  O  O24  1  -0.09578454  -0.58869422  -0.79881837  1.0
  O  O25  1  -0.84800802  -0.61985201  -0.63311395  1.0
  O  O26  1  -0.15199198  -0.38014799  -0.36688605  1.0
  O  O27  1  -0.58067830  -0.82148089  -0.35905202  1.0
  O  O28  1  -0.41932170  -0.17851911  -0.64094798  1.0
  O  O29  1  -0.37249537  -0.81857811  -0.57092003  1.0
  O  O30  1  -0.62750463  -0.18142189  -0.42907997  1.0
  O  O31  1  -0.76111894  -0.79786164  -0.99153608  1.0
  O  O32  1  -0.23888106  -0.20213836  -0.00846392  1.0
  H  H33  1  -0.50000000  0.00000000  0.00000000  1.0
