# generated using pymatgen
data_Na3Cu2(MoO4)3
_symmetry_space_group_name_H-M   'P 1'
_cell_length_a   9.50276392
_cell_length_b   9.50276392
_cell_length_c   6.97364700
_cell_angle_alpha   75.94775395
_cell_angle_beta   104.05224605
_cell_angle_gamma   80.89189679
_symmetry_Int_Tables_number   1
_chemical_formula_structural   Na3Cu2(MoO4)3
_chemical_formula_sum   'Na6 Cu4 Mo6 O24'
_cell_volume   576.60299722
_cell_formula_units_Z   2
loop_
 _symmetry_equiv_pos_site_id
 _symmetry_equiv_pos_as_xyz
  1  'x, y, z'
loop_
 _atom_site_type_symbol
 _atom_site_label
 _atom_site_symmetry_multiplicity
 _atom_site_fract_x
 _atom_site_fract_y
 _atom_site_fract_z
 _atom_site_occupancy
  Na  Na0  1  0.53378841  -0.46621159  0.75000000  1.0
  Na  Na1  1  1.46621159  0.46621159  0.25000000  1.0
  Na  Na2  1  1.22961255  0.22961255  0.75000000  1.0
  Na  Na3  1  0.77038745  -0.22961255  0.25000000  1.0
  Na  Na4  1  0.00000000  0.00000000  0.00000000  1.0
  Na  Na5  1  0.00000000  -0.00000000  0.50000000  1.0
  Cu  Cu6  1  1.54894064  0.12465985  0.61902082  1.0
  Cu  Cu7  1  0.87534015  -0.54894064  0.11902082  1.0
  Cu  Cu8  1  1.12465985  0.54894064  0.88097918  1.0
  Cu  Cu9  1  0.45105936  -0.12465985  0.38097918  1.0
  Mo  Mo10  1  0.37648030  -0.16730857  0.88339555  1.0
  Mo  Mo11  1  1.16730857  0.62351970  0.38339555  1.0
  Mo  Mo12  1  0.83269143  -0.62351970  0.61660445  1.0
  Mo  Mo13  1  1.62351970  0.16730857  0.11660445  1.0
  Mo  Mo14  1  0.78231173  -0.21768827  0.75000000  1.0
  Mo  Mo15  1  1.21768827  0.21768827  0.25000000  1.0
  O  O16  1  0.66619397  -0.24503161  0.52324460  1.0
  O  O17  1  1.24503161  0.33380603  0.02324460  1.0
  O  O18  1  0.75496839  -0.33380603  0.97675540  1.0
  O  O19  1  1.33380603  0.24503161  0.47675540  1.0
  O  O20  1  0.74520024  -0.02805457  0.75467225  1.0
  O  O21  1  1.02805457  0.25479976  0.25467225  1.0
  O  O22  1  0.97194543  -0.25479976  0.74532775  1.0
  O  O23  1  1.25479976  0.02805457  0.24532775  1.0
  O  O24  1  0.45569095  -0.12158355  0.67319859  1.0
  O  O25  1  1.12158355  0.54430905  0.17319859  1.0
  O  O26  1  0.87841645  -0.54430905  0.82680141  1.0
  O  O27  1  1.54430905  0.12158355  0.32680141  1.0
  O  O28  1  1.50938427  0.15157366  0.88064154  1.0
  O  O29  1  0.84842634  -0.50938427  0.38064154  1.0
  O  O30  1  1.15157366  0.50938427  0.61935846  1.0
  O  O31  1  0.49061573  -0.15157366  0.11935846  1.0
  O  O32  1  1.64474244  0.35899154  0.57840366  1.0
  O  O33  1  0.64100846  -0.64474244  0.07840366  1.0
  O  O34  1  1.35899154  0.64474244  0.92159634  1.0
  O  O35  1  0.35525756  -0.35899154  0.42159634  1.0
  O  O36  1  0.19863036  -0.04551241  0.81158349  1.0
  O  O37  1  1.04551241  0.80136964  0.31158349  1.0
  O  O38  1  0.95448759  -0.80136964  0.68841651  1.0
  O  O39  1  1.80136964  0.04551241  0.18841651  1.0
