# generated using pymatgen
data_GdNi2
_symmetry_space_group_name_H-M   'P 1'
_cell_length_a   10.19807187
_cell_length_b   10.19807187
_cell_length_c   10.19807187
_cell_angle_alpha   60.00000000
_cell_angle_beta   60.00000000
_cell_angle_gamma   60.00000000
_symmetry_Int_Tables_number   1
_chemical_formula_structural   GdNi2
_chemical_formula_sum   'Gd16 Ni32'
_cell_volume   749.96191047
_cell_formula_units_Z   16
loop_
 _symmetry_equiv_pos_site_id
 _symmetry_equiv_pos_as_xyz
  1  'x, y, z'
loop_
 _atom_site_type_symbol
 _atom_site_label
 _atom_site_symmetry_multiplicity
 _atom_site_fract_x
 _atom_site_fract_y
 _atom_site_fract_z
 _atom_site_occupancy
  Gd  Gd0  1  0.50004982  0.99995018  -0.00004982  1.0
  Gd  Gd1  1  0.99995018  0.99995018  -0.49995018  1.0
  Gd  Gd2  1  0.99995018  0.50004982  -0.00004982  1.0
  Gd  Gd3  1  0.50004982  0.50004982  -0.00004982  1.0
  Gd  Gd4  1  0.50004982  0.99995018  -0.49995018  1.0
  Gd  Gd5  1  0.99995018  0.50004982  -0.49995018  1.0
  Gd  Gd6  1  0.87502450  0.87502450  -0.12497550  1.0
  Gd  Gd7  1  0.37492649  0.87502450  -0.12497550  1.0
  Gd  Gd8  1  0.87502450  0.87502450  -0.62507351  1.0
  Gd  Gd9  1  0.87502450  0.37492649  -0.12497550  1.0
  Gd  Gd10  1  0.37496857  1.37496857  0.37496857  1.0
  Gd  Gd11  1  -0.12490571  0.37496857  0.37496857  1.0
  Gd  Gd12  1  0.37496857  1.37496857  -0.12490571  1.0
  Gd  Gd13  1  0.37496857  -0.12490571  0.37496857  1.0
  Gd  Gd14  1  -0.50000000  0.50000000  0.50000000  1.0
  Gd  Gd15  1  0.00000000  -0.00000000  0.00000000  1.0
  Ni  Ni16  1  0.68749919  1.18749149  -0.31250081  1.0
  Ni  Ni17  1  -0.31250081  0.68749919  1.18749149  1.0
  Ni  Ni18  1  -0.56248988  0.68749919  1.18749149  1.0
  Ni  Ni19  1  0.43751012  1.18749149  -0.31250081  1.0
  Ni  Ni20  1  1.18749149  0.68749919  -0.31250081  1.0
  Ni  Ni21  1  -0.56248988  0.68749919  0.68749919  1.0
  Ni  Ni22  1  1.18749149  0.68749919  -0.56248988  1.0
  Ni  Ni23  1  -0.31250081  0.68749919  0.43751012  1.0
  Ni  Ni24  1  -0.31250081  0.43751012  0.68749919  1.0
  Ni  Ni25  1  1.18749149  0.43751012  -0.31250081  1.0
  Ni  Ni26  1  0.68749919  1.18749149  -0.56248988  1.0
  Ni  Ni27  1  -0.31250081  0.43751012  1.18749149  1.0
  Ni  Ni28  1  0.18750006  1.68749067  0.18750006  1.0
  Ni  Ni29  1  0.18750006  1.18750006  0.68749067  1.0
  Ni  Ni30  1  -0.06249079  0.18750006  0.68749067  1.0
  Ni  Ni31  1  -0.06249079  0.68749067  0.18750006  1.0
  Ni  Ni32  1  0.68749067  1.18750006  0.18750006  1.0
  Ni  Ni33  1  -0.06249079  0.18750006  0.18750006  1.0
  Ni  Ni34  1  0.68749067  1.18750006  -0.06249079  1.0
  Ni  Ni35  1  0.18750006  1.18750006  -0.06249079  1.0
  Ni  Ni36  1  0.18750006  -0.06249079  0.18750006  1.0
  Ni  Ni37  1  0.68749067  -0.06249079  0.18750006  1.0
  Ni  Ni38  1  0.18750006  1.68749067  -0.06249079  1.0
  Ni  Ni39  1  0.18750006  -0.06249079  0.68749067  1.0
  Ni  Ni40  1  0.68750752  0.68750752  -0.31249248  1.0
  Ni  Ni41  1  0.93747743  0.68750752  -0.31249248  1.0
  Ni  Ni42  1  0.68750752  0.68750752  -0.06252257  1.0
  Ni  Ni43  1  0.68750752  0.93747743  -0.31249248  1.0
  Ni  Ni44  1  0.18748724  0.18748724  0.18748724  1.0
  Ni  Ni45  1  0.43753827  0.18748724  0.18748724  1.0
  Ni  Ni46  1  0.18748724  0.18748724  0.43753827  1.0
  Ni  Ni47  1  0.18748724  0.43753827  0.18748724  1.0
