# generated using pymatgen
data_AsPd3Pb2
_symmetry_space_group_name_H-M   'P 1'
_cell_length_a   6.99402021
_cell_length_b   6.99402021
_cell_length_c   5.88964177
_cell_angle_alpha   90.00000000
_cell_angle_beta   90.00000000
_cell_angle_gamma   59.57105051
_symmetry_Int_Tables_number   1
_chemical_formula_structural   AsPd3Pb2
_chemical_formula_sum   'As2 Pd6 Pb4'
_cell_volume   248.41614457
_cell_formula_units_Z   2
loop_
 _symmetry_equiv_pos_site_id
 _symmetry_equiv_pos_as_xyz
  1  'x, y, z'
loop_
 _atom_site_type_symbol
 _atom_site_label
 _atom_site_symmetry_multiplicity
 _atom_site_fract_x
 _atom_site_fract_y
 _atom_site_fract_z
 _atom_site_occupancy
  As  As0  1  0.20750705  0.79249295  0.31879753  1.0
  As  As1  1  -0.20750705  1.20750705  0.81879753  1.0
  Pd  Pd2  1  -0.07427016  1.83451635  0.02198588  1.0
  Pd  Pd3  1  0.83451635  0.92572984  0.52198588  1.0
  Pd  Pd4  1  -0.83451635  1.07427016  0.02198588  1.0
  Pd  Pd5  1  0.07427016  0.16548365  0.52198588  1.0
  Pd  Pd6  1  0.44626987  0.55373013  0.00003590  1.0
  Pd  Pd7  1  -0.44626987  1.44626987  0.50003590  1.0
  Pb  Pb8  1  -0.15658294  1.51469363  0.21159741  1.0
  Pb  Pb9  1  0.51469363  0.84341706  0.71159741  1.0
  Pb  Pb10  1  -0.51469363  1.15658294  0.21159741  1.0
  Pb  Pb11  1  0.15658294  0.48530637  0.71159741  1.0
