# generated using pymatgen
data_SrSi2
_symmetry_space_group_name_H-M   'P 1'
_cell_length_a   7.60296612
_cell_length_b   7.60296612
_cell_length_c   7.60296612
_cell_angle_alpha   145.89691215
_cell_angle_beta   145.89691215
_cell_angle_gamma   48.99990824
_symmetry_Int_Tables_number   1
_chemical_formula_structural   SrSi2
_chemical_formula_sum   'Sr2 Si4'
_cell_volume   137.54810758
_cell_formula_units_Z   2
loop_
 _symmetry_equiv_pos_site_id
 _symmetry_equiv_pos_as_xyz
  1  'x, y, z'
loop_
 _atom_site_type_symbol
 _atom_site_label
 _atom_site_symmetry_multiplicity
 _atom_site_fract_x
 _atom_site_fract_y
 _atom_site_fract_z
 _atom_site_occupancy
  Sr  Sr0  1  1.25000000  0.75000000  0.50000000  1.0
  Sr  Sr1  1  0.50000000  0.50000000  1.00000000  1.0
  Si  Si2  1  0.08448840  0.08448840  0.00000000  1.0
  Si  Si3  1  0.83448840  1.33448840  0.50000000  1.0
  Si  Si4  1  0.66551160  1.16551160  0.50000000  1.0
  Si  Si5  1  0.91551160  0.91551160  -0.00000000  1.0
