# generated using pymatgen
data_B6H10N
_symmetry_space_group_name_H-M   'P 1'
_cell_length_a   7.78127052
_cell_length_b   7.78127052
_cell_length_c   7.78127052
_cell_angle_alpha   60.00000000
_cell_angle_beta   60.00000000
_cell_angle_gamma   60.00000000
_symmetry_Int_Tables_number   1
_chemical_formula_structural   B6H10N
_chemical_formula_sum   'B12 H20 N2'
_cell_volume   333.14748897
_cell_formula_units_Z   2
loop_
 _symmetry_equiv_pos_site_id
 _symmetry_equiv_pos_as_xyz
  1  'x, y, z'
loop_
 _atom_site_type_symbol
 _atom_site_label
 _atom_site_symmetry_multiplicity
 _atom_site_fract_x
 _atom_site_fract_y
 _atom_site_fract_z
 _atom_site_occupancy
  B  B0  1  1.05041465  0.78856635  -0.78856635  1.0
  B  B1  1  0.78856635  1.05041465  -0.05041465  1.0
  B  B2  1  0.21143365  -0.05041465  0.05041465  1.0
  B  B3  1  -0.05041465  0.21143365  0.78856635  1.0
  B  B4  1  -0.05041465  0.78856635  0.05041465  1.0
  B  B5  1  0.21143365  1.05041465  -0.21143365  1.0
  B  B6  1  -0.78856635  0.78856635  0.94958535  1.0
  B  B7  1  0.05041465  -0.05041465  0.78856635  1.0
  B  B8  1  -0.21143365  0.94958535  0.21143365  1.0
  B  B9  1  0.05041465  1.21143365  -0.05041465  1.0
  B  B10  1  -0.05041465  0.05041465  0.21143365  1.0
  B  B11  1  -0.21143365  0.21143365  1.05041465  1.0
  H  H12  1  1.08718592  0.63848546  -0.63848546  1.0
  H  H13  1  0.63848546  1.08718592  -0.08718592  1.0
  H  H14  1  0.36151454  -0.08718592  0.08718592  1.0
  H  H15  1  -0.08718592  0.36151454  0.63848546  1.0
  H  H16  1  -0.08718592  0.63848546  0.08718592  1.0
  H  H17  1  0.36151454  1.08718592  -0.36151454  1.0
  H  H18  1  -0.63848546  0.63848546  0.91281408  1.0
  H  H19  1  0.08718592  -0.08718592  0.63848546  1.0
  H  H20  1  -0.36151454  0.91281408  0.36151454  1.0
  H  H21  1  0.08718592  1.36151454  -0.08718592  1.0
  H  H22  1  -0.08718592  0.08718592  0.36151454  1.0
  H  H23  1  -0.36151454  0.36151454  1.08718592  1.0
  H  H24  1  0.19578449  0.41264652  0.19578449  1.0
  H  H25  1  0.80421551  0.80421551  -0.19578449  1.0
  H  H26  1  0.58735348  0.80421551  -0.19578449  1.0
  H  H27  1  0.19578449  0.19578449  0.41264652  1.0
  H  H28  1  0.80421551  0.80421551  -0.41264652  1.0
  H  H29  1  0.41264652  0.19578449  0.19578449  1.0
  H  H30  1  0.19578449  0.19578449  0.19578449  1.0
  H  H31  1  0.80421551  0.58735348  -0.19578449  1.0
  N  N32  1  0.25000000  0.25000000  0.25000000  1.0
  N  N33  1  0.75000000  0.75000000  -0.25000000  1.0
