# generated using pymatgen
data_FeH10S2(NO2)4
_symmetry_space_group_name_H-M   'P 1'
_cell_length_a   7.60489754
_cell_length_b   5.95793964
_cell_length_c   5.40499894
_cell_angle_alpha   96.93104226
_cell_angle_beta   105.80470690
_cell_angle_gamma   90.86051707
_symmetry_Int_Tables_number   1
_chemical_formula_structural   FeH10S2(NO2)4
_chemical_formula_sum   'Fe1 H10 S2 N4 O8'
_cell_volume   233.62352897
_cell_formula_units_Z   1
loop_
 _symmetry_equiv_pos_site_id
 _symmetry_equiv_pos_as_xyz
  1  'x, y, z'
loop_
 _atom_site_type_symbol
 _atom_site_label
 _atom_site_symmetry_multiplicity
 _atom_site_fract_x
 _atom_site_fract_y
 _atom_site_fract_z
 _atom_site_occupancy
  Fe  Fe0  1  0.00000000  0.00000000  0.00000000  1.0
  H  H1  1  -0.24742537  -0.69151135  -0.88607613  1.0
  H  H2  1  -0.75257463  -0.30848865  -0.11392387  1.0
  H  H3  1  -0.64215420  -0.08384210  -0.93074998  1.0
  H  H4  1  -0.35784580  -0.91615790  -0.06925002  1.0
  H  H5  1  -0.79616560  -0.45073222  -0.74969778  1.0
  H  H6  1  -0.20383440  -0.54926778  -0.25030222  1.0
  H  H7  1  -0.57043692  -0.38844192  -0.72011385  1.0
  H  H8  1  -0.42956308  -0.61155808  -0.27988615  1.0
  H  H9  1  -0.69290726  -0.20735842  -0.56722184  1.0
  H  H10  1  -0.30709274  -0.79264158  -0.43277816  1.0
  S  S11  1  -0.22129887  -0.23014116  -0.61254105  1.0
  S  S12  1  -0.77870113  -0.76985884  -0.38745895  1.0
  N  N13  1  -0.75185774  -0.19450484  -0.95318523  1.0
  N  N14  1  -0.24814226  -0.80549516  -0.04681477  1.0
  N  N15  1  -0.69961037  -0.32171739  -0.73418307  1.0
  N  N16  1  -0.30038963  -0.67828261  -0.26581693  1.0
  O  O17  1  -0.07598106  -0.22890419  -0.75132484  1.0
  O  O18  1  -0.92401894  -0.77109581  -0.24867516  1.0
  O  O19  1  -0.33647447  -0.03021547  -0.65639918  1.0
  O  O20  1  -0.66352553  -0.96978453  -0.34360082  1.0
  O  O21  1  -0.34039819  -0.44304998  -0.70732443  1.0
  O  O22  1  -0.65960181  -0.55695002  -0.29267557  1.0
  O  O23  1  -0.13391336  -0.23190424  -0.32470249  1.0
  O  O24  1  -0.86608664  -0.76809576  -0.67529751  1.0
