# generated using pymatgen
data_TaGaO4
_symmetry_space_group_name_H-M   'P 1'
_cell_length_a   4.63801679
_cell_length_b   5.64326314
_cell_length_c   5.01961546
_cell_angle_alpha   90.00000000
_cell_angle_beta   90.25820621
_cell_angle_gamma   90.00000000
_symmetry_Int_Tables_number   1
_chemical_formula_structural   TaGaO4
_chemical_formula_sum   'Ta2 Ga2 O8'
_cell_volume   131.37981801
_cell_formula_units_Z   2
loop_
 _symmetry_equiv_pos_site_id
 _symmetry_equiv_pos_as_xyz
  1  'x, y, z'
loop_
 _atom_site_type_symbol
 _atom_site_label
 _atom_site_symmetry_multiplicity
 _atom_site_fract_x
 _atom_site_fract_y
 _atom_site_fract_z
 _atom_site_occupancy
  Ta  Ta0  1  0.50000000  0.67710379  0.75000000  1.0
  Ta  Ta1  1  0.50000000  0.32289621  0.25000000  1.0
  Ga  Ga2  1  -0.00000000  0.16136864  0.75000000  1.0
  Ga  Ga3  1  -0.00000000  0.83863136  0.25000000  1.0
  O  O4  1  0.22959533  0.11551761  0.41922016  1.0
  O  O5  1  0.22959533  0.88448239  0.91922016  1.0
  O  O6  1  0.77040467  0.11551761  0.08077984  1.0
  O  O7  1  0.77040467  0.88448239  0.58077984  1.0
  O  O8  1  0.27315061  0.38600824  0.92042762  1.0
  O  O9  1  0.27315061  0.61399176  0.42042762  1.0
  O  O10  1  0.72684939  0.38600824  0.57957238  1.0
  O  O11  1  0.72684939  0.61399176  0.07957238  1.0
