# generated using pymatgen
data_CdCu2(BO3)2
_symmetry_space_group_name_H-M   'P 1'
_cell_length_a   3.57437659
_cell_length_b   15.25423483
_cell_length_c   9.57498528
_cell_angle_alpha   90.00000000
_cell_angle_beta   96.27014552
_cell_angle_gamma   90.00000000
_symmetry_Int_Tables_number   1
_chemical_formula_structural   CdCu2(BO3)2
_chemical_formula_sum   'Cd4 Cu8 B8 O24'
_cell_volume   518.94711061
_cell_formula_units_Z   4
loop_
 _symmetry_equiv_pos_site_id
 _symmetry_equiv_pos_as_xyz
  1  'x, y, z'
loop_
 _atom_site_type_symbol
 _atom_site_label
 _atom_site_symmetry_multiplicity
 _atom_site_fract_x
 _atom_site_fract_y
 _atom_site_fract_z
 _atom_site_occupancy
  B  B0  1  0.72427752  0.84891725  0.41681583  1.0
  B  B1  1  0.72427752  0.65108275  0.91681583  1.0
  B  B2  1  0.27572248  0.34891725  0.08318417  1.0
  B  B3  1  0.27572248  0.15108275  0.58318417  1.0
  B  B4  1  0.59767685  0.41147112  0.31748862  1.0
  B  B5  1  0.59767685  0.08852888  0.81748862  1.0
  B  B6  1  0.40232315  0.91147112  0.18251138  1.0
  B  B7  1  0.40232315  0.58852888  0.68251138  1.0
  Cd  Cd8  1  0.27931266  0.13323159  0.11584346  1.0
  Cd  Cd9  1  0.27931266  0.36676841  0.61584346  1.0
  Cd  Cd10  1  0.72068734  0.63323159  0.38415654  1.0
  Cd  Cd11  1  0.72068734  0.86676841  0.88415654  1.0
  O  O12  1  0.77368420  0.37494896  0.43865975  1.0
  O  O13  1  0.77368420  0.12505104  0.93865975  1.0
  O  O14  1  0.22631580  0.87494896  0.06134025  1.0
  O  O15  1  0.22631580  0.62505104  0.56134025  1.0
  O  O16  1  0.78382116  0.77164829  0.48568974  1.0
  O  O17  1  0.78382116  0.72835171  0.98568974  1.0
  O  O18  1  0.21617884  0.27164829  0.01431026  1.0
  O  O19  1  0.21617884  0.22835171  0.51431026  1.0
  O  O20  1  0.48728719  0.34464331  0.21729037  1.0
  O  O21  1  0.48728719  0.15535669  0.71729037  1.0
  O  O22  1  0.51271281  0.84464331  0.28270963  1.0
  O  O23  1  0.51271281  0.65535669  0.78270963  1.0
  O  O24  1  0.47015960  0.99700308  0.20698056  1.0
  O  O25  1  0.47015960  0.50299692  0.70698056  1.0
  O  O26  1  0.52984040  0.49700308  0.29301944  1.0
  O  O27  1  0.52984040  0.00299692  0.79301944  1.0
  O  O28  1  0.81416784  0.14948911  0.26329808  1.0
  O  O29  1  0.81416784  0.35051089  0.76329808  1.0
  O  O30  1  0.18583216  0.64948911  0.23670192  1.0
  O  O31  1  0.18583216  0.85051089  0.73670192  1.0
  O  O32  1  0.85364687  0.92915657  0.46640836  1.0
  O  O33  1  0.85364687  0.57084343  0.96640836  1.0
  O  O34  1  0.14635313  0.42915657  0.03359164  1.0
  O  O35  1  0.14635313  0.07084343  0.53359164  1.0
  Cu  Cu36  1  0.81424219  0.04100005  0.36162516  1.0
  Cu  Cu37  1  0.81424219  0.45899995  0.86162516  1.0
  Cu  Cu38  1  0.18575781  0.54100005  0.13837484  1.0
  Cu  Cu39  1  0.18575781  0.95899995  0.63837484  1.0
  Cu  Cu40  1  0.81303821  0.25375921  0.36483585  1.0
  Cu  Cu41  1  0.81303821  0.24624079  0.86483585  1.0
  Cu  Cu42  1  0.18696179  0.75375921  0.13516415  1.0
  Cu  Cu43  1  0.18696179  0.74624079  0.63516415  1.0
