# generated using pymatgen
data_Ta2H15N6Cl7
_symmetry_space_group_name_H-M   'P 1'
_cell_length_a   11.26829739
_cell_length_b   11.26829739
_cell_length_c   7.89808993
_cell_angle_alpha   90.00000000
_cell_angle_beta   90.00000000
_cell_angle_gamma   118.51967904
_symmetry_Int_Tables_number   1
_chemical_formula_structural   Ta2H15N6Cl7
_chemical_formula_sum   'Ta4 H30 N12 Cl14'
_cell_volume   881.16280542
_cell_formula_units_Z   2
loop_
 _symmetry_equiv_pos_site_id
 _symmetry_equiv_pos_as_xyz
  1  'x, y, z'
loop_
 _atom_site_type_symbol
 _atom_site_label
 _atom_site_symmetry_multiplicity
 _atom_site_fract_x
 _atom_site_fract_y
 _atom_site_fract_z
 _atom_site_occupancy
  Ta  Ta0  1  0.00000000  0.00000000  0.00000000  1.0
  Ta  Ta1  1  0.00000000  0.00000000  0.50000000  1.0
  Ta  Ta2  1  0.17182446  0.82817554  0.25000000  1.0
  Ta  Ta3  1  -0.17182446  0.17182446  0.75000000  1.0
  H  H4  1  -0.08211524  0.08211524  0.25000000  1.0
  H  H5  1  0.08211524  0.91788476  0.75000000  1.0
  H  H6  1  0.13583254  0.86416746  0.96296881  1.0
  H  H7  1  -0.13583254  0.13583254  0.03703119  1.0
  H  H8  1  0.13583254  0.86416746  0.53703119  1.0
  H  H9  1  -0.13583254  0.13583254  0.46296881  1.0
  H  H10  1  -0.42735506  0.42735506  0.35464165  1.0
  H  H11  1  0.42735506  0.57264494  0.64535835  1.0
  H  H12  1  -0.42735506  0.42735506  0.14535835  1.0
  H  H13  1  0.42735506  0.57264494  0.85464165  1.0
  H  H14  1  0.56232626  1.29165982  0.25000000  1.0
  H  H15  1  0.29165982  0.56232626  0.75000000  1.0
  H  H16  1  0.43767374  0.70834018  0.75000000  1.0
  H  H17  1  -0.29165982  0.43767374  0.25000000  1.0
  H  H18  1  0.10212080  0.43810284  0.35584903  1.0
  H  H19  1  0.43810284  1.10212080  0.64415097  1.0
  H  H20  1  0.10212080  0.43810284  0.14415097  1.0
  H  H21  1  0.43810284  1.10212080  0.85584903  1.0
  H  H22  1  -0.10212080  0.56189716  0.64415097  1.0
  H  H23  1  0.56189716  0.89787920  0.35584903  1.0
  H  H24  1  -0.10212080  0.56189716  0.85584903  1.0
  H  H25  1  0.56189716  0.89787920  0.14415097  1.0
  H  H26  1  0.24891079  0.47627932  0.25000000  1.0
  H  H27  1  0.47627932  1.24891079  0.75000000  1.0
  H  H28  1  -0.24891079  0.52372068  0.75000000  1.0
  H  H29  1  0.52372068  0.75108921  0.25000000  1.0
  H  H30  1  0.12172377  0.31728389  0.25000000  1.0
  H  H31  1  0.31728389  1.12172377  0.75000000  1.0
  H  H32  1  -0.12172377  0.68271611  0.75000000  1.0
  H  H33  1  0.68271611  0.87827623  0.25000000  1.0
  N  N34  1  -0.02922527  0.02922527  0.25000000  1.0
  N  N35  1  0.02922527  0.97077473  0.75000000  1.0
  N  N36  1  0.10450037  0.89549963  0.06821380  1.0
  N  N37  1  -0.10450037  0.10450037  0.93178620  1.0
  N  N38  1  0.10450037  0.89549963  0.43178620  1.0
  N  N39  1  -0.10450037  0.10450037  0.56821380  1.0
  N  N40  1  -0.39542635  0.39542635  0.25000000  1.0
  N  N41  1  0.39542635  0.60457365  0.75000000  1.0
  N  N42  1  0.14107240  0.41634664  0.25000000  1.0
  N  N43  1  0.41634664  1.14107240  0.75000000  1.0
  N  N44  1  -0.14107240  0.58365336  0.75000000  1.0
  N  N45  1  0.58365336  0.85892760  0.25000000  1.0
  Cl  Cl46  1  0.78857562  0.78857562  0.00000000  1.0
  Cl  Cl47  1  0.78857562  0.78857562  0.50000000  1.0
  Cl  Cl48  1  0.21142438  0.21142438  0.00000000  1.0
  Cl  Cl49  1  0.21142438  0.21142438  0.50000000  1.0
  Cl  Cl50  1  0.39763101  1.02653357  0.25000000  1.0
  Cl  Cl51  1  0.02653357  0.39763101  0.75000000  1.0
  Cl  Cl52  1  0.60236899  0.97346643  0.75000000  1.0
  Cl  Cl53  1  -0.02653357  0.60236899  0.25000000  1.0
  Cl  Cl54  1  0.26650608  0.73349392  0.47258704  1.0
  Cl  Cl55  1  -0.26650608  0.26650608  0.52741296  1.0
  Cl  Cl56  1  0.26650608  0.73349392  0.02741296  1.0
  Cl  Cl57  1  -0.26650608  0.26650608  0.97258704  1.0
  Cl  Cl58  1  0.44530501  0.55469499  0.25000000  1.0
  Cl  Cl59  1  -0.44530501  0.44530501  0.75000000  1.0
