# generated using pymatgen
data_Nb5Ge3
_symmetry_space_group_name_H-M   'P 1'
_cell_length_a   7.66750710
_cell_length_b   7.66750710
_cell_length_c   7.66750710
_cell_angle_alpha   96.49911114
_cell_angle_beta   96.49911114
_cell_angle_gamma   140.68048188
_symmetry_Int_Tables_number   1
_chemical_formula_structural   Nb5Ge3
_chemical_formula_sum   'Nb10 Ge6'
_cell_volume   268.98249957
_cell_formula_units_Z   2
loop_
 _symmetry_equiv_pos_site_id
 _symmetry_equiv_pos_as_xyz
  1  'x, y, z'
loop_
 _atom_site_type_symbol
 _atom_site_label
 _atom_site_symmetry_multiplicity
 _atom_site_fract_x
 _atom_site_fract_y
 _atom_site_fract_z
 _atom_site_occupancy
  Nb  Nb0  1  0.27745528  0.42412649  0.70158177  1.0
  Nb  Nb1  1  1.22254472  0.92412649  1.14667122  1.0
  Nb  Nb2  1  0.92412649  0.77745528  1.70158177  1.0
  Nb  Nb3  1  0.57587351  1.27745528  0.85332878  1.0
  Nb  Nb4  1  0.77745528  1.07587351  0.85332878  1.0
  Nb  Nb5  1  0.72254472  0.57587351  1.29841823  1.0
  Nb  Nb6  1  1.42412649  0.72254472  1.14667122  1.0
  Nb  Nb7  1  0.07587351  0.22254472  0.29841823  1.0
  Nb  Nb8  1  0.75000000  1.25000000  0.50000000  1.0
  Nb  Nb9  1  0.25000000  0.75000000  0.50000000  1.0
  Ge  Ge10  1  0.83450346  0.33450346  1.16900693  1.0
  Ge  Ge11  1  0.66549654  0.83450346  0.50000000  1.0
  Ge  Ge12  1  1.33450346  1.16549654  1.50000000  1.0
  Ge  Ge13  1  0.16549654  0.66549654  0.83099307  1.0
  Ge  Ge14  1  0.25000000  0.25000000  -0.00000000  1.0
  Ge  Ge15  1  0.75000000  0.75000000  -0.00000000  1.0
