# generated using pymatgen
data_Cs2KMn(CN)6
_symmetry_space_group_name_H-M   'P 1'
_cell_length_a   7.78917802
_cell_length_b   8.28652414
_cell_length_c   13.70358703
_cell_angle_alpha   90.00000000
_cell_angle_beta   124.18525519
_cell_angle_gamma   90.00000000
_symmetry_Int_Tables_number   1
_chemical_formula_structural   Cs2KMn(CN)6
_chemical_formula_sum   'Cs4 K2 Mn2 C12 N12'
_cell_volume   731.68145288
_cell_formula_units_Z   2
loop_
 _symmetry_equiv_pos_site_id
 _symmetry_equiv_pos_as_xyz
  1  'x, y, z'
loop_
 _atom_site_type_symbol
 _atom_site_label
 _atom_site_symmetry_multiplicity
 _atom_site_fract_x
 _atom_site_fract_y
 _atom_site_fract_z
 _atom_site_occupancy
  Cs  Cs0  1  0.72666101  0.06755233  0.24811418  1.0
  Cs  Cs1  1  0.72666101  0.43244767  0.74811418  1.0
  Cs  Cs2  1  0.27333899  0.56755233  0.25188582  1.0
  Cs  Cs3  1  0.27333899  0.93244767  0.75188582  1.0
  K  K4  1  0.50000000  0.50000000  0.00000000  1.0
  K  K5  1  0.50000000  0.00000000  0.50000000  1.0
  Mn  Mn6  1  -0.00000000  0.50000000  0.50000000  1.0
  Mn  Mn7  1  0.00000000  -0.00000000  0.00000000  1.0
  C  C8  1  0.90779012  0.47567180  0.33483550  1.0
  C  C9  1  0.90779012  0.02432820  0.83483550  1.0
  C  C10  1  0.09220988  0.97567180  0.16516450  1.0
  C  C11  1  0.09220988  0.52432820  0.66516450  1.0
  C  C12  1  0.76173394  0.36981765  0.46589516  1.0
  C  C13  1  0.76173394  0.13018235  0.96589516  1.0
  C  C14  1  0.23826606  0.86981765  0.03410484  1.0
  C  C15  1  0.23826606  0.63018235  0.53410484  1.0
  C  C16  1  0.16764211  0.30174275  0.54339413  1.0
  C  C17  1  0.16764211  0.19825725  0.04339413  1.0
  C  C18  1  0.83235789  0.80174275  0.95660587  1.0
  C  C19  1  0.83235789  0.69825725  0.45660587  1.0
  N  N20  1  0.72998439  0.81524029  0.43009183  1.0
  N  N21  1  0.72998439  0.68475971  0.93009183  1.0
  N  N22  1  0.27001561  0.31524029  0.06990817  1.0
  N  N23  1  0.27001561  0.18475971  0.56990817  1.0
  N  N24  1  0.85372218  0.45816903  0.23629776  1.0
  N  N25  1  0.85372218  0.04183097  0.73629776  1.0
  N  N26  1  0.14627782  0.95816903  0.26370224  1.0
  N  N27  1  0.14627782  0.54183097  0.76370224  1.0
  N  N28  1  0.61664888  0.29336719  0.44354702  1.0
  N  N29  1  0.61664888  0.20663281  0.94354702  1.0
  N  N30  1  0.38335112  0.79336719  0.05645298  1.0
  N  N31  1  0.38335112  0.70663281  0.55645298  1.0
