# generated using pymatgen
data_CuPH4O5F
_symmetry_space_group_name_H-M   'P 1'
_cell_length_a   7.70727983
_cell_length_b   7.84831688
_cell_length_c   9.27930793
_cell_angle_alpha   90.00000000
_cell_angle_beta   112.84042372
_cell_angle_gamma   90.00000000
_symmetry_Int_Tables_number   1
_chemical_formula_structural   CuPH4O5F
_chemical_formula_sum   'Cu4 P4 H16 O20 F4'
_cell_volume   517.28605538
_cell_formula_units_Z   4
loop_
 _symmetry_equiv_pos_site_id
 _symmetry_equiv_pos_as_xyz
  1  'x, y, z'
loop_
 _atom_site_type_symbol
 _atom_site_label
 _atom_site_symmetry_multiplicity
 _atom_site_fract_x
 _atom_site_fract_y
 _atom_site_fract_z
 _atom_site_occupancy
  F  F0  1  0.82766754  0.53142667  0.76857487  1.0
  F  F1  1  0.82766754  0.96857333  0.26857487  1.0
  F  F2  1  0.17233246  0.03142667  0.73142513  1.0
  F  F3  1  0.17233246  0.46857333  0.23142513  1.0
  H  H4  1  0.69027099  0.74170933  0.97752434  1.0
  H  H5  1  0.69027099  0.75829067  0.47752434  1.0
  H  H6  1  0.30972901  0.24170933  0.52247566  1.0
  H  H7  1  0.30972901  0.25829067  0.02247566  1.0
  H  H8  1  0.50747599  0.72638443  0.82083191  1.0
  H  H9  1  0.50747599  0.77361557  0.32083191  1.0
  H  H10  1  0.49252401  0.22638443  0.67916809  1.0
  H  H11  1  0.49252401  0.27361557  0.17916809  1.0
  H  H12  1  0.43957335  0.67189231  0.54252290  1.0
  H  H13  1  0.43957335  0.82810769  0.04252290  1.0
  H  H14  1  0.56042665  0.17189231  0.95747710  1.0
  H  H15  1  0.56042665  0.32810769  0.45747710  1.0
  H  H16  1  0.40462771  0.49652471  0.61467405  1.0
  H  H17  1  0.40462771  1.00347529  0.11467405  1.0
  H  H18  1  0.59537229  -0.00347529  0.88532595  1.0
  H  H19  1  0.59537229  0.50347529  0.38532595  1.0
  P  P20  1  0.95174960  0.99763498  0.68135063  1.0
  P  P21  1  0.95174960  0.50236502  0.18135063  1.0
  P  P22  1  0.04825040  0.49763498  0.81864937  1.0
  P  P23  1  0.04825040  0.00236502  0.31864937  1.0
  O  O24  1  0.91606182  0.82634069  0.59376930  1.0
  O  O25  1  0.91606182  0.67365931  0.09376930  1.0
  O  O26  1  0.08393818  0.32634069  0.90623070  1.0
  O  O27  1  0.08393818  0.17365931  0.40623070  1.0
  O  O28  1  0.56438312  0.79290460  0.91814877  1.0
  O  O29  1  0.56438312  0.70709540  0.41814877  1.0
  O  O30  1  0.43561688  0.29290460  0.58185123  1.0
  O  O31  1  0.43561688  0.20709540  0.08185123  1.0
  O  O32  1  0.38854315  0.62417009  0.61804690  1.0
  O  O33  1  0.38854315  0.87582991  0.11804690  1.0
  O  O34  1  0.61145685  0.12417009  0.88195310  1.0
  O  O35  1  0.61145685  0.37582991  0.38195310  1.0
  O  O36  1  0.15621709  0.64761650  0.91722245  1.0
  O  O37  1  0.15621709  0.85238350  0.41722245  1.0
  O  O38  1  0.84378291  0.14761650  0.58277755  1.0
  O  O39  1  0.84378291  0.35238350  0.08277755  1.0
  O  O40  1  0.92135209  0.98668589  0.83591049  1.0
  O  O41  1  0.92135209  0.51331411  0.33591049  1.0
  O  O42  1  0.07864791  0.48668589  0.66408951  1.0
  O  O43  1  0.07864791  0.01331411  0.16408951  1.0
  Cu  Cu44  1  0.88521077  0.19178687  0.94221465  1.0
  Cu  Cu45  1  0.88521077  0.30821313  0.44221465  1.0
  Cu  Cu46  1  0.11478923  0.69178687  0.55778535  1.0
  Cu  Cu47  1  0.11478923  0.80821313  0.05778535  1.0
