# generated using pymatgen
data_Sr(As2Rh3)2
_symmetry_space_group_name_H-M   'P 1'
_cell_length_a   7.29837525
_cell_length_b   7.29837525
_cell_length_c   3.87094554
_cell_angle_alpha   90.00000000
_cell_angle_beta   90.00000000
_cell_angle_gamma   120.00000000
_symmetry_Int_Tables_number   1
_chemical_formula_structural   Sr(As2Rh3)2
_chemical_formula_sum   'Sr1 As4 Rh6'
_cell_volume   178.56653506
_cell_formula_units_Z   1
loop_
 _symmetry_equiv_pos_site_id
 _symmetry_equiv_pos_as_xyz
  1  'x, y, z'
loop_
 _atom_site_type_symbol
 _atom_site_label
 _atom_site_symmetry_multiplicity
 _atom_site_fract_x
 _atom_site_fract_y
 _atom_site_fract_z
 _atom_site_occupancy
  Sr  Sr0  1  0.00000000  0.00000000  0.00000000  1.0
  As  As1  1  0.38208978  0.19104489  0.50000000  1.0
  As  As2  1  0.80895511  0.19104489  0.50000000  1.0
  As  As3  1  0.80895511  0.61791022  0.50000000  1.0
  As  As4  1  0.33333333  0.66666667  0.00000000  1.0
  Rh  Rh5  1  0.59569443  0.79784722  0.50000000  1.0
  Rh  Rh6  1  0.20215278  0.79784722  0.50000000  1.0
  Rh  Rh7  1  0.20215278  0.40430557  0.50000000  1.0
  Rh  Rh8  1  0.92981431  0.46490715  0.00000000  1.0
  Rh  Rh9  1  0.53509285  0.46490715  0.00000000  1.0
  Rh  Rh10  1  0.53509285  0.07018569  0.00000000  1.0
