# generated using pymatgen
data_KInP2S7
_symmetry_space_group_name_H-M   'P 1'
_cell_length_a   6.75325376
_cell_length_b   6.75325376
_cell_length_c   6.81514029
_cell_angle_alpha   81.41228948
_cell_angle_beta   98.58771052
_cell_angle_gamma   82.69288349
_symmetry_Int_Tables_number   1
_chemical_formula_structural   KInP2S7
_chemical_formula_sum   'K1 In1 P2 S7'
_cell_volume   300.31099579
_cell_formula_units_Z   1
loop_
 _symmetry_equiv_pos_site_id
 _symmetry_equiv_pos_as_xyz
  1  'x, y, z'
loop_
 _atom_site_type_symbol
 _atom_site_label
 _atom_site_symmetry_multiplicity
 _atom_site_fract_x
 _atom_site_fract_y
 _atom_site_fract_z
 _atom_site_occupancy
  K  K0  1  0.97672730  -0.02327270  0.50000000  1.0
  In  In1  1  1.45196604  0.45196604  -0.00000000  1.0
  P  P2  1  0.90823271  -0.67919441  0.91652865  1.0
  P  P3  1  0.32080559  -0.09176729  0.08347135  1.0
  S  S4  1  1.11070874  0.44325442  0.75762368  1.0
  S  S5  1  1.44325442  0.11070874  0.24237632  1.0
  S  S6  1  0.43510610  -0.15126741  0.83573383  1.0
  S  S7  1  0.84873259  -0.56489390  0.16426617  1.0
  S  S8  1  0.64651088  -0.66777710  0.71997155  1.0
  S  S9  1  0.33222290  -0.35348912  0.28002845  1.0
  S  S10  1  -0.00526727  -0.00526727  -0.00000000  1.0
