# generated using pymatgen
data_Mn4As3
_symmetry_space_group_name_H-M   'P 1'
_cell_length_a   6.74001515
_cell_length_b   6.74001515
_cell_length_c   9.43485517
_cell_angle_alpha   76.42523305
_cell_angle_beta   103.57476695
_cell_angle_gamma   149.42229716
_symmetry_Int_Tables_number   1
_chemical_formula_structural   Mn4As3
_chemical_formula_sum   'Mn8 As6'
_cell_volume   211.48089972
_cell_formula_units_Z   2
loop_
 _symmetry_equiv_pos_site_id
 _symmetry_equiv_pos_as_xyz
  1  'x, y, z'
loop_
 _atom_site_type_symbol
 _atom_site_label
 _atom_site_symmetry_multiplicity
 _atom_site_fract_x
 _atom_site_fract_y
 _atom_site_fract_z
 _atom_site_occupancy
  Mn  Mn0  1  0.78317626  0.21682374  0.83597261  1.0
  Mn  Mn1  1  0.21682374  -0.21682374  0.16402739  1.0
  Mn  Mn2  1  0.65669134  0.34330866  0.45048983  1.0
  Mn  Mn3  1  0.34330866  -0.34330866  0.54951017  1.0
  Mn  Mn4  1  0.56747478  0.43252522  0.71007914  1.0
  Mn  Mn5  1  0.43252522  -0.43252522  0.28992086  1.0
  Mn  Mn6  1  -0.00000000  0.00000000  0.50000000  1.0
  Mn  Mn7  1  0.00000000  0.00000000  0.00000000  1.0
  As  As8  1  0.93758089  0.06241911  0.72651206  1.0
  As  As9  1  0.06241911  -0.06241911  0.27348794  1.0
  As  As10  1  0.81293054  0.18706946  0.34621673  1.0
  As  As11  1  0.18706946  -0.18706946  0.65378327  1.0
  As  As12  1  0.63738315  0.36261685  0.97777088  1.0
  As  As13  1  0.36261685  -0.36261685  0.02222912  1.0
