# generated using pymatgen
data_Hf4W
_symmetry_space_group_name_H-M   'P 1'
_cell_length_a   7.04215805
_cell_length_b   7.04215805
_cell_length_c   7.04215805
_cell_angle_alpha   60.00000000
_cell_angle_beta   60.00000000
_cell_angle_gamma   60.00000000
_symmetry_Int_Tables_number   1
_chemical_formula_structural   Hf4W
_chemical_formula_sum   'Hf8 W2'
_cell_volume   246.94617673
_cell_formula_units_Z   2
loop_
 _symmetry_equiv_pos_site_id
 _symmetry_equiv_pos_as_xyz
  1  'x, y, z'
loop_
 _atom_site_type_symbol
 _atom_site_label
 _atom_site_symmetry_multiplicity
 _atom_site_fract_x
 _atom_site_fract_y
 _atom_site_fract_z
 _atom_site_occupancy
  Hf  Hf0  1  -0.10495567  0.89504433  0.31486701  1.0
  Hf  Hf1  1  0.89504433  -0.68513299  0.89504433  1.0
  Hf  Hf2  1  0.35495567  0.35495567  0.35495567  1.0
  Hf  Hf3  1  -0.06486701  0.35495567  0.35495567  1.0
  Hf  Hf4  1  -0.68513299  0.89504433  0.89504433  1.0
  Hf  Hf5  1  0.89504433  -0.10495567  0.89504433  1.0
  Hf  Hf6  1  0.35495567  -0.06486701  0.35495567  1.0
  Hf  Hf7  1  0.35495567  0.35495567  -0.06486701  1.0
  W  W8  1  0.50000000  0.50000000  -0.50000000  1.0
  W  W9  1  0.75000000  -0.25000000  0.75000000  1.0
