# generated using pymatgen
data_Hf3Pt4
_symmetry_space_group_name_H-M   'P 1'
_cell_length_a   7.47129729
_cell_length_b   7.47129729
_cell_length_c   7.47129729
_cell_angle_alpha   114.03374787
_cell_angle_beta   114.03374787
_cell_angle_gamma   114.03374787
_symmetry_Int_Tables_number   1
_chemical_formula_structural   Hf3Pt4
_chemical_formula_sum   'Hf6 Pt8'
_cell_volume   252.74416246
_cell_formula_units_Z   2
loop_
 _symmetry_equiv_pos_site_id
 _symmetry_equiv_pos_as_xyz
  1  'x, y, z'
loop_
 _atom_site_type_symbol
 _atom_site_label
 _atom_site_symmetry_multiplicity
 _atom_site_fract_x
 _atom_site_fract_y
 _atom_site_fract_z
 _atom_site_occupancy
  Hf  Hf0  1  1.10407359  0.23420589  0.49612345  1.0
  Hf  Hf1  1  0.50387655  -0.10407359  -0.23420589  1.0
  Hf  Hf2  1  0.76579411  0.50387655  -0.10407359  1.0
  Hf  Hf3  1  0.89592641  0.76579411  0.50387655  1.0
  Hf  Hf4  1  0.49612345  0.10407359  0.23420589  1.0
  Hf  Hf5  1  1.23420589  1.49612345  0.10407359  1.0
  Pt  Pt6  1  0.50000000  0.50000000  0.50000000  1.0
  Pt  Pt7  1  0.94133772  0.42244969  0.26104802  1.0
  Pt  Pt8  1  0.73895198  1.05866228  -0.42244969  1.0
  Pt  Pt9  1  0.57755031  -0.26104802  0.05866228  1.0
  Pt  Pt10  1  1.05866228  0.57755031  0.73895198  1.0
  Pt  Pt11  1  1.26104802  0.94133772  0.42244969  1.0
  Pt  Pt12  1  0.42244969  0.26104802  -0.05866228  1.0
  Pt  Pt13  1  0.00000000  0.00000000  0.00000000  1.0
