# generated using pymatgen
data_KAlP2O7
_symmetry_space_group_name_H-M   'P 1'
_cell_length_a   7.45457928
_cell_length_b   9.78892639
_cell_length_c   8.17263034
_cell_angle_alpha   90.00000000
_cell_angle_beta   107.14669025
_cell_angle_gamma   90.00000000
_symmetry_Int_Tables_number   1
_chemical_formula_structural   KAlP2O7
_chemical_formula_sum   'K4 Al4 P8 O28'
_cell_volume   569.86879260
_cell_formula_units_Z   4
loop_
 _symmetry_equiv_pos_site_id
 _symmetry_equiv_pos_as_xyz
  1  'x, y, z'
loop_
 _atom_site_type_symbol
 _atom_site_label
 _atom_site_symmetry_multiplicity
 _atom_site_fract_x
 _atom_site_fract_y
 _atom_site_fract_z
 _atom_site_occupancy
  K  K0  1  0.81958751  0.81832665  0.44193549  1.0
  K  K1  1  0.81958751  0.68167335  0.94193549  1.0
  K  K2  1  0.18041249  0.31832665  0.05806451  1.0
  K  K3  1  0.18041249  0.18167335  0.55806451  1.0
  Al  Al4  1  0.76166711  0.39955872  0.24042717  1.0
  Al  Al5  1  0.76166711  0.10044128  0.74042717  1.0
  Al  Al6  1  0.23833289  0.89955872  0.25957283  1.0
  Al  Al7  1  0.23833289  0.60044128  0.75957283  1.0
  P  P8  1  0.56521188  0.13119718  0.31122995  1.0
  P  P9  1  0.56521188  0.36880282  0.81122995  1.0
  P  P10  1  0.43478812  0.63119718  0.18877005  1.0
  P  P11  1  0.43478812  0.86880282  0.68877005  1.0
  P  P12  1  0.87319910  0.09680876  0.16859869  1.0
  P  P13  1  0.87319910  0.40319124  0.66859869  1.0
  P  P14  1  0.12680090  0.59680876  0.33140131  1.0
  P  P15  1  0.12680090  0.90319124  0.83140131  1.0
  O  O16  1  0.91474301  0.24096824  0.24577488  1.0
  O  O17  1  0.91474301  0.25903176  0.74577488  1.0
  O  O18  1  0.08525699  0.74096824  0.25422512  1.0
  O  O19  1  0.08525699  0.75903176  0.75422512  1.0
  O  O20  1  0.36709656  0.07018806  0.26136353  1.0
  O  O21  1  0.36709656  0.42981194  0.76136353  1.0
  O  O22  1  0.63290344  0.57018806  0.23863647  1.0
  O  O23  1  0.63290344  0.92981194  0.73863647  1.0
  O  O24  1  0.55651588  0.28174225  0.25389080  1.0
  O  O25  1  0.55651588  0.21825775  0.75389080  1.0
  O  O26  1  0.44348412  0.78174225  0.24610920  1.0
  O  O27  1  0.44348412  0.71825775  0.74610920  1.0
  O  O28  1  0.67504759  0.04670635  0.19578133  1.0
  O  O29  1  0.67504759  0.45329365  0.69578133  1.0
  O  O30  1  0.32495241  0.54670635  0.30421867  1.0
  O  O31  1  0.32495241  0.95329365  0.80421867  1.0
  O  O32  1  0.67803631  0.10418191  0.49668783  1.0
  O  O33  1  0.67803631  0.39581809  0.99668783  1.0
  O  O34  1  0.32196369  0.60418191  0.00331217  1.0
  O  O35  1  0.32196369  0.89581809  0.50331217  1.0
  O  O36  1  0.85082321  0.40800767  0.47925669  1.0
  O  O37  1  0.85082321  0.09199233  0.97925669  1.0
  O  O38  1  0.14917679  0.90800767  0.02074331  1.0
  O  O39  1  0.14917679  0.59199233  0.52074331  1.0
  O  O40  1  0.97833692  0.49836947  0.22359700  1.0
  O  O41  1  0.97833692  0.00163053  0.72359700  1.0
  O  O42  1  0.02166308  0.99836947  0.27640300  1.0
  O  O43  1  0.02166308  0.50163053  0.77640300  1.0
