# generated using pymatgen
data_Sr2AuO4
_symmetry_space_group_name_H-M   'P 1'
_cell_length_a   6.60354879
_cell_length_b   6.60354879
_cell_length_c   6.60354879
_cell_angle_alpha   113.45033717
_cell_angle_beta   113.45033717
_cell_angle_gamma   101.77634726
_symmetry_Int_Tables_number   1
_chemical_formula_structural   Sr2AuO4
_chemical_formula_sum   'Sr4 Au2 O8'
_cell_volume   218.72996077
_cell_formula_units_Z   2
loop_
 _symmetry_equiv_pos_site_id
 _symmetry_equiv_pos_as_xyz
  1  'x, y, z'
loop_
 _atom_site_type_symbol
 _atom_site_label
 _atom_site_symmetry_multiplicity
 _atom_site_fract_x
 _atom_site_fract_y
 _atom_site_fract_z
 _atom_site_occupancy
  Sr  Sr0  1  0.37500000  0.62500000  0.75000000  1.0
  Sr  Sr1  1  0.87500000  0.62500000  1.25000000  1.0
  Sr  Sr2  1  0.37500000  1.12500000  0.75000000  1.0
  Sr  Sr3  1  0.37500000  0.62500000  0.25000000  1.0
  Au  Au4  1  0.00000000  0.00000000  0.00000000  1.0
  Au  Au5  1  0.75000000  0.25000000  0.50000000  1.0
  O  O6  1  1.06873155  0.79577521  1.72704412  1.0
  O  O7  1  0.68126891  0.90831257  1.22704412  1.0
  O  O8  1  1.20422479  0.93126891  1.27295634  1.0
  O  O9  1  1.09168743  1.31873155  1.77295634  1.0
  O  O10  1  0.06873109  0.34168743  0.27295588  1.0
  O  O11  1  0.68126845  0.45422479  0.77295588  1.0
  O  O12  1  0.65831257  0.93126845  0.72704366  1.0
  O  O13  1  0.54577521  0.31873109  0.22704366  1.0
