# generated using pymatgen
data_HPb2IO2
_symmetry_space_group_name_H-M   'P 1'
_cell_length_a   7.40708205
_cell_length_b   7.40708205
_cell_length_c   11.35309097
_cell_angle_alpha   59.58915658
_cell_angle_beta   120.41084342
_cell_angle_gamma   147.43328879
_symmetry_Int_Tables_number   1
_chemical_formula_structural   HPb2IO2
_chemical_formula_sum   'H2 Pb4 I2 O4'
_cell_volume   284.87645230
_cell_formula_units_Z   2
loop_
 _symmetry_equiv_pos_site_id
 _symmetry_equiv_pos_as_xyz
  1  'x, y, z'
loop_
 _atom_site_type_symbol
 _atom_site_label
 _atom_site_symmetry_multiplicity
 _atom_site_fract_x
 _atom_site_fract_y
 _atom_site_fract_z
 _atom_site_occupancy
  H  H0  1  0.66975660  0.33024340  0.29030908  1.0
  H  H1  1  0.33024340  -0.33024340  0.70969092  1.0
  Pb  Pb2  1  0.66650633  0.33349367  0.67320056  1.0
  Pb  Pb3  1  0.33349367  -0.33349367  0.32679944  1.0
  Pb  Pb4  1  0.35835957  -0.35835957  0.99903417  1.0
  Pb  Pb5  1  0.64164043  0.35835957  0.00096583  1.0
  I  I6  1  0.97670932  0.02329068  0.68515985  1.0
  I  I7  1  0.02329068  -0.02329068  0.31484015  1.0
  O  O8  1  0.75415058  0.24584942  0.90978373  1.0
  O  O9  1  0.24584942  -0.24584942  0.09021627  1.0
  O  O10  1  0.72589134  0.27410866  0.26525516  1.0
  O  O11  1  0.27410866  -0.27410866  0.73474484  1.0
