# generated using pymatgen
data_C2N2O
_symmetry_space_group_name_H-M   'P 1'
_cell_length_a   9.56007993
_cell_length_b   9.56007993
_cell_length_c   5.85416033
_cell_angle_alpha   90.00000000
_cell_angle_beta   90.00000000
_cell_angle_gamma   120.00000000
_symmetry_Int_Tables_number   1
_chemical_formula_structural   C2N2O
_chemical_formula_sum   'C12 N12 O6'
_cell_volume   463.35973387
_cell_formula_units_Z   6
loop_
 _symmetry_equiv_pos_site_id
 _symmetry_equiv_pos_as_xyz
  1  'x, y, z'
loop_
 _atom_site_type_symbol
 _atom_site_label
 _atom_site_symmetry_multiplicity
 _atom_site_fract_x
 _atom_site_fract_y
 _atom_site_fract_z
 _atom_site_occupancy
  C  C0  1  0.37491161  0.84221947  0.25000000  1.0
  C  C1  1  0.84221947  0.46730786  0.75000000  1.0
  C  C2  1  0.46730786  0.62508839  0.25000000  1.0
  C  C3  1  0.15778053  0.53269214  0.25000000  1.0
  C  C4  1  0.62508839  0.15778053  0.75000000  1.0
  C  C5  1  0.53269214  0.37491161  0.75000000  1.0
  C  C6  1  0.20869040  0.70520889  0.25000000  1.0
  C  C7  1  0.70520889  0.49651850  0.75000000  1.0
  C  C8  1  0.49651850  0.79130960  0.25000000  1.0
  C  C9  1  0.29479111  0.50348150  0.25000000  1.0
  C  C10  1  0.79130960  0.29479111  0.75000000  1.0
  C  C11  1  0.50348150  0.20869040  0.75000000  1.0
  N  N12  1  0.99498405  0.77519511  0.25000000  1.0
  N  N13  1  0.77519511  0.78021106  0.75000000  1.0
  N  N14  1  0.78021106  0.00501595  0.25000000  1.0
  N  N15  1  0.22480489  0.21978894  0.25000000  1.0
  N  N16  1  0.00501595  0.22480489  0.75000000  1.0
  N  N17  1  0.21978894  0.99498405  0.75000000  1.0
  N  N18  1  0.09287941  0.74199930  0.25000000  1.0
  N  N19  1  0.74199930  0.64911989  0.75000000  1.0
  N  N20  1  0.64911989  0.90712059  0.25000000  1.0
  N  N21  1  0.25800070  0.35088011  0.25000000  1.0
  N  N22  1  0.90712059  0.25800070  0.75000000  1.0
  N  N23  1  0.35088011  0.09287941  0.75000000  1.0
  O  O24  1  0.40823753  0.98475818  0.25000000  1.0
  O  O25  1  0.98475818  0.57652065  0.75000000  1.0
  O  O26  1  0.57652065  0.59176247  0.25000000  1.0
  O  O27  1  0.01524182  0.42347935  0.25000000  1.0
  O  O28  1  0.59176247  0.01524182  0.75000000  1.0
  O  O29  1  0.42347935  0.40823753  0.75000000  1.0
