# generated using pymatgen
data_Cs2CdBi2S5
_symmetry_space_group_name_H-M   'P 1'
_cell_length_a   16.07244164
_cell_length_b   4.22639903
_cell_length_c   18.77181722
_cell_angle_alpha   90.00000000
_cell_angle_beta   90.00000000
_cell_angle_gamma   90.00000000
_symmetry_Int_Tables_number   1
_chemical_formula_structural   Cs2CdBi2S5
_chemical_formula_sum   'Cs8 Cd4 Bi8 S20'
_cell_volume   1275.14235658
_cell_formula_units_Z   4
loop_
 _symmetry_equiv_pos_site_id
 _symmetry_equiv_pos_as_xyz
  1  'x, y, z'
loop_
 _atom_site_type_symbol
 _atom_site_label
 _atom_site_symmetry_multiplicity
 _atom_site_fract_x
 _atom_site_fract_y
 _atom_site_fract_z
 _atom_site_occupancy
  Cs  Cs0  1  0.99441391  0.75000000  0.62533068  1.0
  Cs  Cs1  1  0.49441391  0.75000000  0.87466932  1.0
  Cs  Cs2  1  0.00558609  0.25000000  0.37466932  1.0
  Cs  Cs3  1  0.50558609  0.25000000  0.12533068  1.0
  Cs  Cs4  1  0.53323364  0.75000000  0.38622022  1.0
  Cs  Cs5  1  0.03323364  0.75000000  0.11377978  1.0
  Cs  Cs6  1  0.46676636  0.25000000  0.61377978  1.0
  Cs  Cs7  1  0.96676636  0.25000000  0.88622022  1.0
  Cd  Cd8  1  0.78687302  0.75000000  0.35568931  1.0
  Cd  Cd9  1  0.28687302  0.75000000  0.14431069  1.0
  Cd  Cd10  1  0.21312698  0.25000000  0.64431069  1.0
  Cd  Cd11  1  0.71312698  0.25000000  0.85568931  1.0
  Bi  Bi12  1  0.74610534  0.75000000  0.01955182  1.0
  Bi  Bi13  1  0.24610534  0.75000000  0.48044818  1.0
  Bi  Bi14  1  0.25389466  0.25000000  0.98044818  1.0
  Bi  Bi15  1  0.75389466  0.25000000  0.51955182  1.0
  Bi  Bi16  1  0.70963591  0.75000000  0.69682606  1.0
  Bi  Bi17  1  0.20963591  0.75000000  0.80317394  1.0
  Bi  Bi18  1  0.29036409  0.25000000  0.30317394  1.0
  Bi  Bi19  1  0.79036409  0.25000000  0.19682606  1.0
  S  S20  1  0.89193209  0.75000000  0.25018203  1.0
  S  S21  1  0.39193209  0.75000000  0.24981797  1.0
  S  S22  1  0.10806791  0.25000000  0.74981797  1.0
  S  S23  1  0.60806791  0.25000000  0.75018203  1.0
  S  S24  1  0.86106189  0.75000000  0.47614238  1.0
  S  S25  1  0.36106189  0.75000000  0.02385762  1.0
  S  S26  1  0.13893811  0.25000000  0.52385762  1.0
  S  S27  1  0.63893811  0.25000000  0.97614238  1.0
  S  S28  1  0.80104287  0.75000000  0.83750535  1.0
  S  S29  1  0.30104287  0.75000000  0.66249465  1.0
  S  S30  1  0.19895713  0.25000000  0.16249465  1.0
  S  S31  1  0.69895713  0.25000000  0.33750535  1.0
  S  S32  1  0.68154752  0.75000000  0.14725027  1.0
  S  S33  1  0.18154752  0.75000000  0.35274973  1.0
  S  S34  1  0.31845248  0.25000000  0.85274973  1.0
  S  S35  1  0.81845248  0.25000000  0.64725027  1.0
  S  S36  1  0.63892239  0.75000000  0.56298855  1.0
  S  S37  1  0.13892239  0.75000000  0.93701145  1.0
  S  S38  1  0.36107761  0.25000000  0.43701145  1.0
  S  S39  1  0.86107761  0.25000000  0.06298855  1.0
