# generated using pymatgen
data_Ca2Ni12P7
_symmetry_space_group_name_H-M   'P 1'
_cell_length_a   9.08621492
_cell_length_b   9.08621492
_cell_length_c   3.68306511
_cell_angle_alpha   90.00000000
_cell_angle_beta   90.00000000
_cell_angle_gamma   120.00000000
_symmetry_Int_Tables_number   1
_chemical_formula_structural   Ca2Ni12P7
_chemical_formula_sum   'Ca2 Ni12 P7'
_cell_volume   263.33345628
_cell_formula_units_Z   1
loop_
 _symmetry_equiv_pos_site_id
 _symmetry_equiv_pos_as_xyz
  1  'x, y, z'
loop_
 _atom_site_type_symbol
 _atom_site_label
 _atom_site_symmetry_multiplicity
 _atom_site_fract_x
 _atom_site_fract_y
 _atom_site_fract_z
 _atom_site_occupancy
  Ca  Ca0  1  0.00000000  0.00000000  0.50000000  1.0
  Ca  Ca1  1  0.66666667  0.33333333  0.00000000  1.0
  Ni  Ni2  1  0.71359028  0.61784792  0.50000000  1.0
  Ni  Ni3  1  0.90425764  0.28640972  0.50000000  1.0
  Ni  Ni4  1  0.38215208  0.09574236  0.50000000  1.0
  Ni  Ni5  1  0.24047797  0.45412035  0.50000000  1.0
  Ni  Ni6  1  0.21364238  0.75952203  0.50000000  1.0
  Ni  Ni7  1  0.54587965  0.78635762  0.50000000  1.0
  Ni  Ni8  1  0.48609446  0.54505111  0.00000000  1.0
  Ni  Ni9  1  0.05895665  0.51390554  0.00000000  1.0
  Ni  Ni10  1  0.45494889  0.94104335  0.00000000  1.0
  Ni  Ni11  1  0.27376963  0.23392351  0.00000000  1.0
  Ni  Ni12  1  0.96015388  0.72623037  0.00000000  1.0
  Ni  Ni13  1  0.76607649  0.03984612  0.00000000  1.0
  P  P14  1  0.44101457  0.37132225  0.50000000  1.0
  P  P15  1  0.93030768  0.55898543  0.50000000  1.0
  P  P16  1  0.62867775  0.06969232  0.50000000  1.0
  P  P17  1  0.03823310  0.25897526  0.00000000  1.0
  P  P18  1  0.22074216  0.96176690  0.00000000  1.0
  P  P19  1  0.74102474  0.77925784  0.00000000  1.0
  P  P20  1  0.33333333  0.66666667  0.00000000  1.0
