# generated using pymatgen
data_La2(WO4)3
_symmetry_space_group_name_H-M   'P 1'
_cell_length_a   7.21961549
_cell_length_b   7.21961549
_cell_length_c   11.80208820
_cell_angle_alpha   79.40389287
_cell_angle_beta   100.59610713
_cell_angle_gamma   67.31338005
_symmetry_Int_Tables_number   1
_chemical_formula_structural   La2(WO4)3
_chemical_formula_sum   'La4 W6 O24'
_cell_volume   535.41144263
_cell_formula_units_Z   2
loop_
 _symmetry_equiv_pos_site_id
 _symmetry_equiv_pos_as_xyz
  1  'x, y, z'
loop_
 _atom_site_type_symbol
 _atom_site_label
 _atom_site_symmetry_multiplicity
 _atom_site_fract_x
 _atom_site_fract_y
 _atom_site_fract_z
 _atom_site_occupancy
  La  La0  1  1.19184555  -0.44602626  0.40503644  1.0
  La  La1  1  1.44602626  -0.19184555  0.90503644  1.0
  La  La2  1  1.55397374  0.19184555  0.09496356  1.0
  La  La3  1  0.80815445  -0.55397374  0.59496356  1.0
  W  W4  1  1.00531370  -0.29998217  0.04433361  1.0
  W  W5  1  1.29998217  -0.00531370  0.54433361  1.0
  W  W6  1  1.70001783  0.00531370  0.45566639  1.0
  W  W7  1  0.99468630  -0.70001783  0.95566639  1.0
  W  W8  1  0.61773122  0.61773122  0.25000000  1.0
  W  W9  1  1.38226878  0.38226878  0.75000000  1.0
  O  O10  1  1.40566309  0.17119828  0.43074769  1.0
  O  O11  1  0.82880172  0.59433691  0.93074769  1.0
  O  O12  1  1.17119828  0.40566309  0.06925231  1.0
  O  O13  1  1.59433691  -0.17119828  0.56925231  1.0
  O  O14  1  0.54951972  0.53123378  0.38498833  1.0
  O  O15  1  1.46876622  0.45048028  0.88498833  1.0
  O  O16  1  1.53123378  -0.45048028  0.11501167  1.0
  O  O17  1  1.45048028  0.46876622  0.61501167  1.0
  O  O18  1  1.51334386  -0.10568136  0.21661753  1.0
  O  O19  1  1.10568136  0.48665614  0.71661753  1.0
  O  O20  1  0.89431864  0.51334386  0.28338247  1.0
  O  O21  1  1.48665614  0.10568136  0.78338247  1.0
  O  O22  1  1.13771160  -0.30448350  0.19075253  1.0
  O  O23  1  1.30448350  -0.13771160  0.69075253  1.0
  O  O24  1  1.69551650  0.13771160  0.30924747  1.0
  O  O25  1  0.86228840  -0.69551650  0.80924747  1.0
  O  O26  1  1.73124145  -0.12536333  0.03540566  1.0
  O  O27  1  1.12536333  0.26875855  0.53540566  1.0
  O  O28  1  0.87463667  0.73124145  0.46459434  1.0
  O  O29  1  1.26875855  0.12536333  0.96459434  1.0
  O  O30  1  0.89973936  -0.82320529  0.05855971  1.0
  O  O31  1  1.82320529  0.10026064  0.55855971  1.0
  O  O32  1  1.17679471  -0.10026064  0.44144029  1.0
  O  O33  1  1.10026064  -0.17679471  0.94144029  1.0
