# generated using pymatgen
data_Gd3AlVS7
_symmetry_space_group_name_H-M   'P 1'
_cell_length_a   9.76596469
_cell_length_b   9.76596469
_cell_length_c   6.15202704
_cell_angle_alpha   90.00000000
_cell_angle_beta   90.00000000
_cell_angle_gamma   120.00000000
_symmetry_Int_Tables_number   1
_chemical_formula_structural   Gd3AlVS7
_chemical_formula_sum   'Gd6 Al2 V2 S14'
_cell_volume   508.13506695
_cell_formula_units_Z   2
loop_
 _symmetry_equiv_pos_site_id
 _symmetry_equiv_pos_as_xyz
  1  'x, y, z'
loop_
 _atom_site_type_symbol
 _atom_site_label
 _atom_site_symmetry_multiplicity
 _atom_site_fract_x
 _atom_site_fract_y
 _atom_site_fract_z
 _atom_site_occupancy
  Gd  Gd0  1  0.77338411  0.62131830  0.20845419  1.0
  Gd  Gd1  1  0.62131830  0.84793418  0.70845419  1.0
  Gd  Gd2  1  0.84793418  0.22661589  0.20845419  1.0
  Gd  Gd3  1  0.37868170  0.15206582  0.20845419  1.0
  Gd  Gd4  1  0.22661589  0.37868170  0.70845419  1.0
  Gd  Gd5  1  0.15206582  0.77338411  0.70845419  1.0
  Al  Al6  1  0.33333333  0.66666667  0.13167232  1.0
  Al  Al7  1  0.66666667  0.33333333  0.63167232  1.0
  V  V8  1  0.00000000  0.00000000  0.04436690  1.0
  V  V9  1  0.00000000  0.00000000  0.54436690  1.0
  S  S10  1  0.42731604  0.90767793  -0.01894323  1.0
  S  S11  1  0.90767793  0.48036189  0.48105677  1.0
  S  S12  1  0.48036189  0.57268396  -0.01894323  1.0
  S  S13  1  0.09232207  0.51963811  -0.01894323  1.0
  S  S14  1  0.57268396  0.09232207  0.48105677  1.0
  S  S15  1  0.51963811  0.42731604  0.48105677  1.0
  S  S16  1  0.09701472  0.86743564  0.29698733  1.0
  S  S17  1  0.86743564  0.77042092  0.79698733  1.0
  S  S18  1  0.77042092  0.90298528  0.29698733  1.0
  S  S19  1  0.13256436  0.22957908  0.29698733  1.0
  S  S20  1  0.90298528  0.13256436  0.79698733  1.0
  S  S21  1  0.22957908  0.09701472  0.79698733  1.0
  S  S22  1  0.33333333  0.66666667  0.49546589  1.0
  S  S23  1  0.66666667  0.33333333  -0.00453411  1.0
