# generated using pymatgen
data_Al4Tc
_symmetry_space_group_name_H-M   'P 1'
_cell_length_a   9.17170318
_cell_length_b   9.17170318
_cell_length_c   5.15149998
_cell_angle_alpha   86.93028589
_cell_angle_beta   93.06971411
_cell_angle_gamma   32.90248801
_symmetry_Int_Tables_number   1
_chemical_formula_structural   Al4Tc
_chemical_formula_sum   'Al12 Tc3'
_cell_volume   231.15091166
_cell_formula_units_Z   3
loop_
 _symmetry_equiv_pos_site_id
 _symmetry_equiv_pos_as_xyz
  1  'x, y, z'
loop_
 _atom_site_type_symbol
 _atom_site_label
 _atom_site_symmetry_multiplicity
 _atom_site_fract_x
 _atom_site_fract_y
 _atom_site_fract_z
 _atom_site_occupancy
  Al  Al0  1  0.14740352  -0.14740352  0.50770412  1.0
  Al  Al1  1  0.49437621  -0.49437621  0.14713009  1.0
  Al  Al2  1  0.73256195  -0.57971592  0.68415407  1.0
  Al  Al3  1  0.57971592  0.26743805  0.68415407  1.0
  Al  Al4  1  1.05270475  -0.30273153  0.80891232  1.0
  Al  Al5  1  0.30273153  -0.05270475  0.80891232  1.0
  Al  Al6  1  0.77048891  -0.27351610  0.06831522  1.0
  Al  Al7  1  0.27351610  0.22951109  0.06831522  1.0
  Al  Al8  1  0.94095942  -0.70199578  0.21831233  1.0
  Al  Al9  1  0.70199578  0.05904058  0.21831233  1.0
  Al  Al10  1  0.92045372  -0.45364541  0.58836421  1.0
  Al  Al11  1  0.45364541  0.07954628  0.58836421  1.0
  Tc  Tc12  1  1.19473099  -0.46978719  0.33060541  1.0
  Tc  Tc13  1  0.46978719  -0.19473099  0.33060541  1.0
  Tc  Tc14  1  -0.01207142  0.01207142  -0.00616133  1.0
