# generated using pymatgen
data_Ta9V2O25
_symmetry_space_group_name_H-M   'P 1'
_cell_length_a   11.48116545
_cell_length_b   11.48116545
_cell_length_c   11.48116545
_cell_angle_alpha   91.66680946
_cell_angle_beta   91.66680946
_cell_angle_gamma   160.36043410
_symmetry_Int_Tables_number   1
_chemical_formula_structural   Ta9V2O25
_chemical_formula_sum   'Ta9 V2 O25'
_cell_volume   501.20936420
_cell_formula_units_Z   1
loop_
 _symmetry_equiv_pos_site_id
 _symmetry_equiv_pos_as_xyz
  1  'x, y, z'
loop_
 _atom_site_type_symbol
 _atom_site_label
 _atom_site_symmetry_multiplicity
 _atom_site_fract_x
 _atom_site_fract_y
 _atom_site_fract_z
 _atom_site_occupancy
  Ta  Ta0  1  0.87458500  0.68218851  0.55677351  1.0
  Ta  Ta1  1  0.68218851  0.12541500  0.80760351  1.0
  Ta  Ta2  1  1.12541500  1.31781149  1.44322649  1.0
  Ta  Ta3  1  0.31781149  0.87458500  1.19239649  1.0
  Ta  Ta4  1  0.77847935  0.90270275  1.68118209  1.0
  Ta  Ta5  1  0.90270275  1.22152065  1.12422340  1.0
  Ta  Ta6  1  0.22152065  0.09729725  0.31881791  1.0
  Ta  Ta7  1  1.09729725  0.77847935  0.87577660  1.0
  Ta  Ta8  1  0.00000000  0.00000000  0.00000000  1.0
  V  V9  1  1.25000000  0.75000000  0.50000000  1.0
  V  V10  1  0.75000000  0.25000000  0.50000000  1.0
  O  O11  1  0.98435294  0.72198687  0.70633981  1.0
  O  O12  1  0.72198687  0.01564706  0.73763394  1.0
  O  O13  1  1.01564706  1.27801313  1.29366019  1.0
  O  O14  1  0.27801313  0.98435294  1.26236606  1.0
  O  O15  1  0.91755655  0.56349751  0.48105406  1.0
  O  O16  1  0.56349751  0.08244345  0.64594096  1.0
  O  O17  1  1.08244345  1.43650249  1.51894594  1.0
  O  O18  1  0.43650249  0.91755655  1.35405904  1.0
  O  O19  1  0.88370511  0.95085330  1.83455841  1.0
  O  O20  1  0.95085330  1.11629489  1.06714820  1.0
  O  O21  1  0.11629489  0.04914670  0.16544159  1.0
  O  O22  1  1.04914670  0.88370511  0.93285180  1.0
  O  O23  1  0.82169499  0.78890498  0.61059998  1.0
  O  O24  1  0.78890498  0.17830501  0.96720999  1.0
  O  O25  1  1.17830501  1.21109502  1.38940002  1.0
  O  O26  1  0.21109502  0.82169499  1.03279001  1.0
  O  O27  1  0.75005089  0.61094854  0.36099943  1.0
  O  O28  1  0.61094854  0.24994911  0.86089765  1.0
  O  O29  1  1.24994911  1.38905146  1.63900057  1.0
  O  O30  1  0.38905146  0.75005089  1.13910235  1.0
  O  O31  1  0.65145856  0.83744148  1.48890004  1.0
  O  O32  1  0.83744148  1.34854144  1.18598292  1.0
  O  O33  1  0.34854144  0.16255852  0.51109996  1.0
  O  O34  1  1.16255852  0.65145856  0.81401708  1.0
  O  O35  1  0.50000000  0.50000000  0.00000000  1.0
