# generated using pymatgen
data_BBr3
_symmetry_space_group_name_H-M   'P 1'
_cell_length_a   6.92094604
_cell_length_b   6.92094603
_cell_length_c   7.93212897
_cell_angle_alpha   90.00000000
_cell_angle_beta   90.00000000
_cell_angle_gamma   120.00000000
_symmetry_Int_Tables_number   1
_chemical_formula_structural   BBr3
_chemical_formula_sum   'B2 Br6'
_cell_volume   329.04199107
_cell_formula_units_Z   2
loop_
 _symmetry_equiv_pos_site_id
 _symmetry_equiv_pos_as_xyz
  1  'x, y, z'
loop_
 _atom_site_type_symbol
 _atom_site_label
 _atom_site_symmetry_multiplicity
 _atom_site_fract_x
 _atom_site_fract_y
 _atom_site_fract_z
 _atom_site_occupancy
  B  B0  1  0.33333333  0.66666667  0.25000000  1.0
  B  B1  1  0.66666667  0.33333333  0.75000000  1.0
  Br  Br2  1  0.30769660  0.92895993  0.25000000  1.0
  Br  Br3  1  0.92895993  0.62126333  0.75000000  1.0
  Br  Br4  1  0.62126333  0.69230340  0.25000000  1.0
  Br  Br5  1  0.07104007  0.37873667  0.25000000  1.0
  Br  Br6  1  0.69230340  0.07104007  0.75000000  1.0
  Br  Br7  1  0.37873667  0.30769660  0.75000000  1.0
