# generated using pymatgen
data_LuCu(BO2)5
_symmetry_space_group_name_H-M   'P 1'
_cell_length_a   8.27037259
_cell_length_b   8.27037259
_cell_length_c   8.27037259
_cell_angle_alpha   134.96602329
_cell_angle_beta   117.82386189
_cell_angle_gamma   80.01197542
_symmetry_Int_Tables_number   1
_chemical_formula_structural   LuCu(BO2)5
_chemical_formula_sum   'Lu2 Cu2 B10 O20'
_cell_volume   342.72824857
_cell_formula_units_Z   2
loop_
 _symmetry_equiv_pos_site_id
 _symmetry_equiv_pos_as_xyz
  1  'x, y, z'
loop_
 _atom_site_type_symbol
 _atom_site_label
 _atom_site_symmetry_multiplicity
 _atom_site_fract_x
 _atom_site_fract_y
 _atom_site_fract_z
 _atom_site_occupancy
  Lu  Lu0  1  1.49715691  0.99715691  0.50000000  1.0
  Lu  Lu1  1  0.99715691  0.49715691  0.50000000  1.0
  Cu  Cu2  1  1.24716596  0.74716596  0.50000000  1.0
  Cu  Cu3  1  0.74716596  0.24716596  0.50000000  1.0
  B  B4  1  0.45609982  0.76288720  0.92335205  1.0
  B  B5  1  0.33953516  0.26288720  0.30678738  1.0
  B  B6  1  0.95609982  1.03274777  1.69321262  1.0
  B  B7  1  0.83953516  0.53274777  1.07664795  1.0
  B  B8  1  1.65480407  0.96157426  0.92338002  1.0
  B  B9  1  1.53819425  1.46157426  1.30677019  1.0
  B  B10  1  1.15480407  1.23142406  0.69322981  1.0
  B  B11  1  1.03819425  1.73142406  1.07661998  1.0
  B  B12  1  -0.00283982  -0.00283982  0.00000000  1.0
  B  B13  1  0.49716018  0.49716018  1.00000000  1.0
  O  O14  1  1.51645626  0.92056655  0.71696387  1.0
  O  O15  1  1.70360267  1.42056655  1.40411029  1.0
  O  O16  1  1.01645626  1.29949238  0.59588971  1.0
  O  O17  1  1.20360267  1.79949238  1.28303613  1.0
  O  O18  1  0.29069160  0.69487337  0.71696810  1.0
  O  O19  1  0.47790527  0.19487337  0.40418177  1.0
  O  O20  1  0.79069160  1.07372350  1.59581823  1.0
  O  O21  1  0.97790527  0.57372350  1.28303190  1.0
  O  O22  1  1.83902149  1.08197599  1.05452575  1.0
  O  O23  1  1.52745024  1.58197599  1.24295450  1.0
  O  O24  1  1.33902149  1.28449574  0.75704550  1.0
  O  O25  1  1.02745024  1.78449574  0.94547425  1.0
  O  O26  1  0.62086940  0.89381152  1.02037109  1.0
  O  O27  1  1.37344044  1.39381152  1.27294212  1.0
  O  O28  1  1.12086940  1.10049832  0.72705788  1.0
  O  O29  1  0.87344044  0.60049832  0.97962891  1.0
  O  O30  1  0.46682140  0.70977943  1.05445454  1.0
  O  O31  1  0.15532489  0.20977943  0.24295803  1.0
  O  O32  1  0.96682140  0.91236686  1.75704197  1.0
  O  O33  1  0.65532489  0.41236686  0.94554546  1.0
