# generated using pymatgen
data_TaBO4
_symmetry_space_group_name_H-M   'P 1'
_cell_length_a   5.22538127
_cell_length_b   5.22538127
_cell_length_c   5.22538127
_cell_angle_alpha   106.18414682
_cell_angle_beta   106.18414682
_cell_angle_gamma   116.26664466
_symmetry_Int_Tables_number   1
_chemical_formula_structural   TaBO4
_chemical_formula_sum   'Ta2 B2 O8'
_cell_volume   108.66079017
_cell_formula_units_Z   2
loop_
 _symmetry_equiv_pos_site_id
 _symmetry_equiv_pos_as_xyz
  1  'x, y, z'
loop_
 _atom_site_type_symbol
 _atom_site_label
 _atom_site_symmetry_multiplicity
 _atom_site_fract_x
 _atom_site_fract_y
 _atom_site_fract_z
 _atom_site_occupancy
  Ta  Ta0  1  0.25000000  0.75000000  0.50000000  1.0
  Ta  Ta1  1  0.50000000  0.50000000  -0.00000000  1.0
  B  B2  1  0.00000000  0.00000000  0.00000000  1.0
  B  B3  1  0.75000000  1.25000000  0.50000000  1.0
  O  O4  1  0.17571818  0.99780100  0.82208282  1.0
  O  O5  1  0.74780100  0.42571818  0.32208282  1.0
  O  O6  1  1.10363536  1.42571818  0.67791718  1.0
  O  O7  1  0.17571818  0.35363536  0.17791718  1.0
  O  O8  1  0.57428182  1.25219900  0.67791718  1.0
  O  O9  1  1.00219900  0.82428182  1.17791718  1.0
  O  O10  1  1.64636464  0.82428182  0.82208282  1.0
  O  O11  1  0.57428182  0.89636464  0.32208282  1.0
