# generated using pymatgen
data_Ca5Pb3
_symmetry_space_group_name_H-M   'P 1'
_cell_length_a   16.38509860
_cell_length_b   16.38509860
_cell_length_c   6.93691339
_cell_angle_alpha   90.00000000
_cell_angle_beta   90.00000000
_cell_angle_gamma   120.00000000
_symmetry_Int_Tables_number   1
_chemical_formula_structural   Ca5Pb3
_chemical_formula_sum   'Ca30 Pb18'
_cell_volume   1612.85387450
_cell_formula_units_Z   6
loop_
 _symmetry_equiv_pos_site_id
 _symmetry_equiv_pos_as_xyz
  1  'x, y, z'
loop_
 _atom_site_type_symbol
 _atom_site_label
 _atom_site_symmetry_multiplicity
 _atom_site_fract_x
 _atom_site_fract_y
 _atom_site_fract_z
 _atom_site_occupancy
  Ca  Ca0  1  0.34125435  0.00889429  0.27164402  1.0
  Ca  Ca1  1  0.34125435  0.33236007  0.27164402  1.0
  Ca  Ca2  1  0.00889429  0.34125435  0.77164402  1.0
  Ca  Ca3  1  0.00889429  0.66763993  0.77164402  1.0
  Ca  Ca4  1  0.66763993  0.00889429  0.27164402  1.0
  Ca  Ca5  1  0.66763993  0.65874565  0.27164402  1.0
  Ca  Ca6  1  -0.00889429  0.65874565  0.27164402  1.0
  Ca  Ca7  1  -0.00889429  0.33236007  0.27164402  1.0
  Ca  Ca8  1  0.65874565  0.66763993  0.77164402  1.0
  Ca  Ca9  1  0.65874565  -0.00889429  0.77164402  1.0
  Ca  Ca10  1  0.33236007  0.34125435  0.77164402  1.0
  Ca  Ca11  1  0.33236007  -0.00889429  0.77164402  1.0
  Ca  Ca12  1  0.81991039  0.90995520  -0.01119320  1.0
  Ca  Ca13  1  0.90995520  0.81991039  0.48880680  1.0
  Ca  Ca14  1  0.90995520  0.09004480  0.48880680  1.0
  Ca  Ca15  1  0.09004480  0.90995520  -0.01119320  1.0
  Ca  Ca16  1  0.09004480  0.18008961  -0.01119320  1.0
  Ca  Ca17  1  0.18008961  0.09004480  0.48880680  1.0
  Ca  Ca18  1  0.15038158  0.57519079  0.04842472  1.0
  Ca  Ca19  1  0.57519079  0.15038158  0.54842472  1.0
  Ca  Ca20  1  0.57519079  0.42480921  0.54842472  1.0
  Ca  Ca21  1  0.42480921  0.57519079  0.04842472  1.0
  Ca  Ca22  1  0.42480921  0.84961842  0.04842472  1.0
  Ca  Ca23  1  0.84961842  0.42480921  0.54842472  1.0
  Ca  Ca24  1  0.49129360  0.24564680  0.01583194  1.0
  Ca  Ca25  1  0.24564680  0.49129360  0.51583194  1.0
  Ca  Ca26  1  0.24564680  0.75435320  0.51583194  1.0
  Ca  Ca27  1  0.75435320  0.24564680  0.01583194  1.0
  Ca  Ca28  1  0.75435320  0.50870640  0.01583194  1.0
  Ca  Ca29  1  0.50870640  0.75435320  0.51583194  1.0
  Pb  Pb30  1  0.59443941  0.79721970  0.05633130  1.0
  Pb  Pb31  1  0.79721970  0.59443941  0.55633130  1.0
  Pb  Pb32  1  0.79721970  0.20278030  0.55633130  1.0
  Pb  Pb33  1  0.20278030  0.79721970  0.05633130  1.0
  Pb  Pb34  1  0.20278030  0.40556059  0.05633130  1.0
  Pb  Pb35  1  0.40556059  0.20278030  0.55633130  1.0
  Pb  Pb36  1  0.91789714  0.45894857  0.03743262  1.0
  Pb  Pb37  1  0.45894857  0.91789714  0.53743262  1.0
  Pb  Pb38  1  0.45894857  0.54105143  0.53743262  1.0
  Pb  Pb39  1  0.54105143  0.45894857  0.03743262  1.0
  Pb  Pb40  1  0.54105143  0.08210286  0.03743262  1.0
  Pb  Pb41  1  0.08210286  0.54105143  0.53743262  1.0
  Pb  Pb42  1  0.25971567  0.12985783  -0.03611541  1.0
  Pb  Pb43  1  0.12985783  0.25971567  0.46388459  1.0
  Pb  Pb44  1  0.12985783  0.87014217  0.46388459  1.0
  Pb  Pb45  1  0.87014217  0.12985783  -0.03611541  1.0
  Pb  Pb46  1  0.87014217  0.74028433  -0.03611541  1.0
  Pb  Pb47  1  0.74028433  0.87014217  0.46388459  1.0
