# generated using pymatgen
data_Li3AlF6
_symmetry_space_group_name_H-M   'P 1'
_cell_length_a   9.63499519
_cell_length_b   8.35681213
_cell_length_c   4.93652027
_cell_angle_alpha   90.00000000
_cell_angle_beta   90.00000000
_cell_angle_gamma   90.00000000
_symmetry_Int_Tables_number   1
_chemical_formula_structural   Li3AlF6
_chemical_formula_sum   'Li12 Al4 F24'
_cell_volume   397.47797226
_cell_formula_units_Z   4
loop_
 _symmetry_equiv_pos_site_id
 _symmetry_equiv_pos_as_xyz
  1  'x, y, z'
loop_
 _atom_site_type_symbol
 _atom_site_label
 _atom_site_symmetry_multiplicity
 _atom_site_fract_x
 _atom_site_fract_y
 _atom_site_fract_z
 _atom_site_occupancy
  Li  Li0  1  0.39632925  0.45618414  0.50030114  1.0
  Li  Li1  1  0.89632925  0.04381586  0.50030114  1.0
  Li  Li2  1  0.60367075  0.54381586  0.00030114  1.0
  Li  Li3  1  0.10367075  0.95618414  0.00030114  1.0
  Li  Li4  1  0.35273538  0.04526038  0.49404101  1.0
  Li  Li5  1  0.85273538  0.45473962  0.49404101  1.0
  Li  Li6  1  0.64726462  0.95473962  0.99404101  1.0
  Li  Li7  1  0.14726462  0.54526038  0.99404101  1.0
  Li  Li8  1  0.12551894  0.34897646  0.48841187  1.0
  Li  Li9  1  0.62551894  0.15102354  0.48841187  1.0
  Li  Li10  1  0.87448106  0.65102354  0.98841187  1.0
  Li  Li11  1  0.37448106  0.84897646  0.98841187  1.0
  Al  Al12  1  0.37204917  0.23947298  0.99707162  1.0
  Al  Al13  1  0.87204917  0.26052702  0.99707162  1.0
  Al  Al14  1  0.62795083  0.76052702  0.49707162  1.0
  Al  Al15  1  0.12795083  0.73947298  0.49707162  1.0
  F  F16  1  0.48780870  0.09260995  0.16740786  1.0
  F  F17  1  0.98780870  0.40739005  0.16740786  1.0
  F  F18  1  0.51219130  0.90739005  0.66740786  1.0
  F  F19  1  0.01219130  0.59260995  0.66740786  1.0
  F  F20  1  0.47639263  0.24320604  0.68799289  1.0
  F  F21  1  0.97639263  0.25679396  0.68799289  1.0
  F  F22  1  0.52360737  0.75679396  0.18799289  1.0
  F  F23  1  0.02360737  0.74320604  0.18799289  1.0
  F  F24  1  0.46996894  0.40332682  0.14539509  1.0
  F  F25  1  0.96996894  0.09667318  0.14539509  1.0
  F  F26  1  0.53003106  0.59667318  0.64539509  1.0
  F  F27  1  0.03003106  0.90332682  0.64539509  1.0
  F  F28  1  0.27696926  0.06562195  0.85789789  1.0
  F  F29  1  0.77696926  0.43437805  0.85789789  1.0
  F  F30  1  0.72303074  0.93437805  0.35789789  1.0
  F  F31  1  0.22303074  0.56562195  0.35789789  1.0
  F  F32  1  0.26338078  0.23222731  0.29997313  1.0
  F  F33  1  0.76338078  0.26777269  0.29997313  1.0
  F  F34  1  0.73661922  0.76777269  0.79997313  1.0
  F  F35  1  0.23661922  0.73222731  0.79997313  1.0
  F  F36  1  0.24508566  0.88033117  0.32300749  1.0
  F  F37  1  0.74508566  0.61966883  0.32300749  1.0
  F  F38  1  0.75491434  0.11966883  0.82300749  1.0
  F  F39  1  0.25491434  0.38033117  0.82300749  1.0
