# generated using pymatgen
data_Zn(GaTe2)2
_symmetry_space_group_name_H-M   'P 1'
_cell_length_a   7.38180387
_cell_length_b   7.38180387
_cell_length_c   7.38180387
_cell_angle_alpha   131.58782122
_cell_angle_beta   131.58782122
_cell_angle_gamma   70.88080269
_symmetry_Int_Tables_number   1
_chemical_formula_structural   Zn(GaTe2)2
_chemical_formula_sum   'Zn1 Ga2 Te4'
_cell_volume   220.37657479
_cell_formula_units_Z   1
loop_
 _symmetry_equiv_pos_site_id
 _symmetry_equiv_pos_as_xyz
  1  'x, y, z'
loop_
 _atom_site_type_symbol
 _atom_site_label
 _atom_site_symmetry_multiplicity
 _atom_site_fract_x
 _atom_site_fract_y
 _atom_site_fract_z
 _atom_site_occupancy
  Zn  Zn0  1  0.50000000  0.50000000  1.00000000  1.0
  Ga  Ga1  1  0.25000000  0.75000000  0.50000000  1.0
  Ga  Ga2  1  0.00000000  0.00000000  0.00000000  1.0
  Te  Te3  1  0.39916741  0.90206064  1.03358582  1.0
  Te  Te4  1  1.09793936  1.13152518  1.49710676  1.0
  Te  Te5  1  0.86847482  0.36558159  0.96641418  1.0
  Te  Te6  1  0.63441841  0.60083259  0.50289324  1.0
