# generated using pymatgen
data_TaRh2
_symmetry_space_group_name_H-M   'P 1'
_cell_length_a   5.45927368
_cell_length_b   4.11884729
_cell_length_c   8.17649385
_cell_angle_alpha   90.00000000
_cell_angle_beta   90.00000000
_cell_angle_gamma   90.00000000
_symmetry_Int_Tables_number   1
_chemical_formula_structural   TaRh2
_chemical_formula_sum   'Ta4 Rh8'
_cell_volume   183.85594264
_cell_formula_units_Z   4
loop_
 _symmetry_equiv_pos_site_id
 _symmetry_equiv_pos_as_xyz
  1  'x, y, z'
loop_
 _atom_site_type_symbol
 _atom_site_label
 _atom_site_symmetry_multiplicity
 _atom_site_fract_x
 _atom_site_fract_y
 _atom_site_fract_z
 _atom_site_occupancy
  Ta  Ta0  1  0.83066431  0.75000000  0.39460397  1.0
  Ta  Ta1  1  0.33066431  0.75000000  0.10539603  1.0
  Ta  Ta2  1  0.16933569  0.25000000  0.60539603  1.0
  Ta  Ta3  1  0.66933569  0.25000000  0.89460397  1.0
  Rh  Rh4  1  0.92433848  0.75000000  0.72509465  1.0
  Rh  Rh5  1  0.42433848  0.75000000  0.77490535  1.0
  Rh  Rh6  1  0.07566152  0.25000000  0.27490535  1.0
  Rh  Rh7  1  0.57566152  0.25000000  0.22509465  1.0
  Rh  Rh8  1  0.84725794  0.75000000  0.06989611  1.0
  Rh  Rh9  1  0.34725794  0.75000000  0.43010389  1.0
  Rh  Rh10  1  0.15274206  0.25000000  0.93010389  1.0
  Rh  Rh11  1  0.65274206  0.25000000  0.56989611  1.0
