# generated using pymatgen
data_La4S3N2
_symmetry_space_group_name_H-M   'P 1'
_cell_length_a   6.79693985
_cell_length_b   15.60899738
_cell_length_c   4.08626745
_cell_angle_alpha   90.00000000
_cell_angle_beta   90.00000000
_cell_angle_gamma   90.00000000
_symmetry_Int_Tables_number   1
_chemical_formula_structural   La4S3N2
_chemical_formula_sum   'La8 S6 N4'
_cell_volume   433.52607420
_cell_formula_units_Z   2
loop_
 _symmetry_equiv_pos_site_id
 _symmetry_equiv_pos_as_xyz
  1  'x, y, z'
loop_
 _atom_site_type_symbol
 _atom_site_label
 _atom_site_symmetry_multiplicity
 _atom_site_fract_x
 _atom_site_fract_y
 _atom_site_fract_z
 _atom_site_occupancy
  La  La0  1  0.28107920  0.93478515  0.50000000  1.0
  La  La1  1  0.78107920  0.56521485  0.00000000  1.0
  La  La2  1  0.71892080  0.06521485  0.50000000  1.0
  La  La3  1  0.21892080  0.43478515  0.00000000  1.0
  La  La4  1  0.22642789  0.65547465  0.50000000  1.0
  La  La5  1  0.72642789  0.84452535  0.00000000  1.0
  La  La6  1  0.77357211  0.34452535  0.50000000  1.0
  La  La7  1  0.27357211  0.15547465  0.00000000  1.0
  S  S8  1  0.79592145  0.70190927  0.50000000  1.0
  S  S9  1  0.29592145  0.79809073  0.00000000  1.0
  S  S10  1  0.20407855  0.29809073  0.50000000  1.0
  S  S11  1  0.70407855  0.20190927  0.00000000  1.0
  S  S12  1  0.50000000  0.50000000  0.50000000  1.0
  S  S13  1  0.00000000  0.00000000  0.00000000  1.0
  N  N14  1  0.37392246  0.08301037  0.50000000  1.0
  N  N15  1  0.87392246  0.41698963  0.00000000  1.0
  N  N16  1  0.62607754  0.91698963  0.50000000  1.0
  N  N17  1  0.12607754  0.58301037  0.00000000  1.0
