# generated using pymatgen
data_Ce(IO3)3
_symmetry_space_group_name_H-M   'P 1'
_cell_length_a   6.72581889
_cell_length_b   9.09965281
_cell_length_c   7.18893614
_cell_angle_alpha   90.00000000
_cell_angle_beta   90.00000000
_cell_angle_gamma   90.00000000
_symmetry_Int_Tables_number   1
_chemical_formula_structural   Ce(IO3)3
_chemical_formula_sum   'Ce2 I6 O18'
_cell_volume   439.98170307
_cell_formula_units_Z   2
loop_
 _symmetry_equiv_pos_site_id
 _symmetry_equiv_pos_as_xyz
  1  'x, y, z'
loop_
 _atom_site_type_symbol
 _atom_site_label
 _atom_site_symmetry_multiplicity
 _atom_site_fract_x
 _atom_site_fract_y
 _atom_site_fract_z
 _atom_site_occupancy
  Ce  Ce0  1  0.50000000  0.00000000  0.64454977  1.0
  Ce  Ce1  1  0.00000000  0.50000000  0.35545023  1.0
  I  I2  1  0.50000000  0.50000000  0.51093880  1.0
  I  I3  1  0.00000000  0.00000000  0.48906120  1.0
  I  I4  1  0.50000000  0.68271801  0.10383815  1.0
  I  I5  1  0.50000000  0.31728199  0.10383815  1.0
  I  I6  1  0.00000000  0.81728199  0.89616185  1.0
  I  I7  1  0.00000000  0.18271801  0.89616185  1.0
  O  O8  1  0.50000000  0.00000000  0.38162842  1.0
  O  O9  1  0.00000000  0.50000000  0.61837158  1.0
  O  O10  1  0.18534974  0.00000000  0.94794303  1.0
  O  O11  1  0.81465026  0.00000000  0.94794303  1.0
  O  O12  1  0.31465026  0.50000000  0.05205697  1.0
  O  O13  1  0.68534974  0.50000000  0.05205697  1.0
  O  O14  1  0.50000000  0.75541035  0.85456751  1.0
  O  O15  1  0.50000000  0.24458965  0.85456751  1.0
  O  O16  1  0.00000000  0.74458965  0.14543249  1.0
  O  O17  1  0.00000000  0.25541035  0.14543249  1.0
  O  O18  1  0.18630920  0.85958911  0.60609410  1.0
  O  O19  1  0.81369080  0.85958911  0.60609410  1.0
  O  O20  1  0.18630920  0.14041089  0.60609410  1.0
  O  O21  1  0.81369080  0.14041089  0.60609410  1.0
  O  O22  1  0.31369080  0.64041089  0.39390590  1.0
  O  O23  1  0.68630920  0.64041089  0.39390590  1.0
  O  O24  1  0.31369080  0.35958911  0.39390590  1.0
  O  O25  1  0.68630920  0.35958911  0.39390590  1.0
