# generated using pymatgen
data_BC7
_symmetry_space_group_name_H-M   'P 1'
_cell_length_a   2.51348617
_cell_length_b   5.12377842
_cell_length_c   3.68416017
_cell_angle_alpha   90.00000000
_cell_angle_beta   90.00000000
_cell_angle_gamma   90.00000000
_symmetry_Int_Tables_number   1
_chemical_formula_structural   BC7
_chemical_formula_sum   'B1 C7'
_cell_volume   47.44662692
_cell_formula_units_Z   1
loop_
 _symmetry_equiv_pos_site_id
 _symmetry_equiv_pos_as_xyz
  1  'x, y, z'
loop_
 _atom_site_type_symbol
 _atom_site_label
 _atom_site_symmetry_multiplicity
 _atom_site_fract_x
 _atom_site_fract_y
 _atom_site_fract_z
 _atom_site_occupancy
  B  B0  1  0.50000000  0.50000000  0.65678742  1.0
  C  C1  1  0.50000000  0.24162272  0.89835699  1.0
  C  C2  1  0.50000000  0.75837728  0.89835699  1.0
  C  C3  1  0.00000000  0.50000000  0.36147030  1.0
  C  C4  1  0.00000000  0.00000000  0.40190223  1.0
  C  C5  1  0.50000000  0.00000000  0.64465167  1.0
  C  C6  1  0.00000000  0.24576277  0.14193720  1.0
  C  C7  1  0.00000000  0.75423723  0.14193720  1.0
