# generated using pymatgen
data_AgRuF7
_symmetry_space_group_name_H-M   'P 1'
_cell_length_a   9.72477074
_cell_length_b   5.68495063
_cell_length_c   11.78316565
_cell_angle_alpha   90.00000000
_cell_angle_beta   108.39129641
_cell_angle_gamma   90.00000000
_symmetry_Int_Tables_number   1
_chemical_formula_structural   AgRuF7
_chemical_formula_sum   'Ag4 Ru4 F28'
_cell_volume   618.15795173
_cell_formula_units_Z   4
loop_
 _symmetry_equiv_pos_site_id
 _symmetry_equiv_pos_as_xyz
  1  'x, y, z'
loop_
 _atom_site_type_symbol
 _atom_site_label
 _atom_site_symmetry_multiplicity
 _atom_site_fract_x
 _atom_site_fract_y
 _atom_site_fract_z
 _atom_site_occupancy
  F  F0  1  0.98954215  0.09327761  0.26020075  1.0
  F  F1  1  0.98954215  0.40672239  0.76020075  1.0
  F  F2  1  0.01045785  0.59327761  0.23979925  1.0
  F  F3  1  0.01045785  0.90672239  0.73979925  1.0
  F  F4  1  0.75063255  0.51171232  0.31675549  1.0
  F  F5  1  0.75063255  -0.01171232  0.81675549  1.0
  F  F6  1  0.24936745  1.01171232  0.18324451  1.0
  F  F7  1  0.24936745  0.48828768  0.68324451  1.0
  F  F8  1  0.71712656  1.04213923  0.33230178  1.0
  F  F9  1  0.71712656  0.45786077  0.83230178  1.0
  F  F10  1  0.28287344  0.54213923  0.16769822  1.0
  F  F11  1  0.28287344  -0.04213923  0.66769822  1.0
  F  F12  1  0.70943657  0.40292549  0.05687142  1.0
  F  F13  1  0.70943657  0.09707451  0.55687142  1.0
  F  F14  1  0.29056343  0.90292549  0.44312858  1.0
  F  F15  1  0.29056343  0.59707451  0.94312858  1.0
  F  F16  1  0.53135084  0.34208138  0.37920462  1.0
  F  F17  1  0.53135084  0.15791862  0.87920462  1.0
  F  F18  1  0.46864916  0.84208138  0.12079538  1.0
  F  F19  1  0.46864916  0.65791862  0.62079538  1.0
  F  F20  1  0.25292410  0.43828592  0.45662038  1.0
  F  F21  1  0.25292410  0.06171408  0.95662038  1.0
  F  F22  1  0.74707590  0.93828592  0.04337962  1.0
  F  F23  1  0.74707590  0.56171408  0.54337962  1.0
  F  F24  1  0.93442079  0.24256076  -0.00248692  1.0
  F  F25  1  0.93442079  0.25743924  0.49751308  1.0
  F  F26  1  0.06557921  0.74256076  0.50248692  1.0
  F  F27  1  0.06557921  0.75743924  1.00248692  1.0
  Ag  Ag28  1  0.87405016  0.81392166  0.29151648  1.0
  Ag  Ag29  1  0.87405016  0.68607834  0.79151648  1.0
  Ag  Ag30  1  0.12594984  0.31392166  0.20848352  1.0
  Ag  Ag31  1  0.12594984  0.18607834  0.70848352  1.0
  Ru  Ru32  1  0.73057665  0.30380815  0.44239520  1.0
  Ru  Ru33  1  0.73057665  0.19619185  0.94239520  1.0
  Ru  Ru34  1  0.26942335  0.80380815  0.05760480  1.0
  Ru  Ru35  1  0.26942335  0.69619185  0.55760480  1.0
