# generated using pymatgen
data_LiGeBO4
_symmetry_space_group_name_H-M   'P 1'
_cell_length_a   5.68374256
_cell_length_b   5.72486972
_cell_length_c   3.84168214
_cell_angle_alpha   69.74537543
_cell_angle_beta   70.90051987
_cell_angle_gamma   39.35410470
_symmetry_Int_Tables_number   1
_chemical_formula_structural   LiGeBO4
_chemical_formula_sum   'Li1 Ge1 B1 O4'
_cell_volume   73.99134485
_cell_formula_units_Z   1
loop_
 _symmetry_equiv_pos_site_id
 _symmetry_equiv_pos_as_xyz
  1  'x, y, z'
loop_
 _atom_site_type_symbol
 _atom_site_label
 _atom_site_symmetry_multiplicity
 _atom_site_fract_x
 _atom_site_fract_y
 _atom_site_fract_z
 _atom_site_occupancy
  Li  Li0  1  0.75465978  0.75465978  -0.75465978  1.0
  Ge  Ge1  1  0.02044552  0.02044552  -0.02044552  1.0
  B  B2  1  0.49882832  1.49882832  -0.49882832  1.0
  O  O3  1  0.38932778  0.80889176  -0.38932778  1.0
  O  O4  1  -0.19110824  1.38932778  0.19110824  1.0
  O  O5  1  0.64273665  1.18711018  -0.18711018  1.0
  O  O6  1  1.18711018  0.64273665  0.35726335  1.0
