# generated using pymatgen
data_SrGe3Rh
_symmetry_space_group_name_H-M   'P 1'
_cell_length_a   6.01582900
_cell_length_b   6.01582900
_cell_length_c   6.01582900
_cell_angle_alpha   136.17978266
_cell_angle_beta   136.17978266
_cell_angle_gamma   63.70251057
_symmetry_Int_Tables_number   1
_chemical_formula_structural   SrGe3Rh
_chemical_formula_sum   'Sr1 Ge3 Rh1'
_cell_volume   103.00059506
_cell_formula_units_Z   1
loop_
 _symmetry_equiv_pos_site_id
 _symmetry_equiv_pos_as_xyz
  1  'x, y, z'
loop_
 _atom_site_type_symbol
 _atom_site_label
 _atom_site_symmetry_multiplicity
 _atom_site_fract_x
 _atom_site_fract_y
 _atom_site_fract_z
 _atom_site_occupancy
  Sr  Sr0  1  0.59046144  0.59046144  1.00000000  1.0
  Ge  Ge1  1  0.34330698  0.84330698  0.50000000  1.0
  Ge  Ge2  1  0.84330698  0.34330698  0.50000000  1.0
  Ge  Ge3  1  0.00039699  0.00039699  0.00000000  1.0
  Rh  Rh4  1  0.23892762  0.23892762  0.00000000  1.0
