# generated using pymatgen
data_Te6RhI3
_symmetry_space_group_name_H-M   'P 1'
_cell_length_a   10.07385427
_cell_length_b   10.07385427
_cell_length_c   10.07385427
_cell_angle_alpha   109.46236175
_cell_angle_beta   109.46236175
_cell_angle_gamma   109.46236175
_symmetry_Int_Tables_number   1
_chemical_formula_structural   Te6RhI3
_chemical_formula_sum   'Te12 Rh2 I6'
_cell_volume   787.24056487
_cell_formula_units_Z   2
loop_
 _symmetry_equiv_pos_site_id
 _symmetry_equiv_pos_as_xyz
  1  'x, y, z'
loop_
 _atom_site_type_symbol
 _atom_site_label
 _atom_site_symmetry_multiplicity
 _atom_site_fract_x
 _atom_site_fract_y
 _atom_site_fract_z
 _atom_site_occupancy
  Te  Te0  1  1.31692499  -0.44070886  0.33667560  1.0
  Te  Te1  1  0.81692499  0.83667560  0.05929114  1.0
  Te  Te2  1  1.16332440  -0.05929114  0.18307501  1.0
  Te  Te3  1  0.66332440  0.68307501  0.44070886  1.0
  Te  Te4  1  1.44070886  0.66332440  -0.31692499  1.0
  Te  Te5  1  0.94070886  0.18307501  0.16332440  1.0
  Te  Te6  1  0.68307501  1.44070886  -0.33667560  1.0
  Te  Te7  1  1.18307501  0.16332440  -0.05929114  1.0
  Te  Te8  1  1.33667560  0.31692499  -0.44070886  1.0
  Te  Te9  1  0.83667560  1.05929114  -0.18307501  1.0
  Te  Te10  1  1.05929114  0.81692499  -0.16332440  1.0
  Te  Te11  1  0.55929114  0.33667560  0.31692499  1.0
  Rh  Rh12  1  0.25000000  0.25000000  0.25000000  1.0
  Rh  Rh13  1  0.75000000  0.75000000  0.75000000  1.0
  I  I14  1  0.99345504  0.25000000  0.50654496  1.0
  I  I15  1  0.49345504  1.00654496  -0.25000000  1.0
  I  I16  1  0.75000000  0.49345504  0.00654496  1.0
  I  I17  1  1.25000000  0.50654496  -0.00654496  1.0
  I  I18  1  1.00654496  0.75000000  -0.50654496  1.0
  I  I19  1  1.50654496  -0.00654496  0.25000000  1.0
