# generated using pymatgen
data_Ti2Bi2O7
_symmetry_space_group_name_H-M   'P 1'
_cell_length_a   7.42624705
_cell_length_b   10.43264562
_cell_length_c   7.57791514
_cell_angle_alpha   90.00000000
_cell_angle_beta   90.00000000
_cell_angle_gamma   90.00000000
_symmetry_Int_Tables_number   1
_chemical_formula_structural   Ti2Bi2O7
_chemical_formula_sum   'Ti8 Bi8 O28'
_cell_volume   587.10203526
_cell_formula_units_Z   4
loop_
 _symmetry_equiv_pos_site_id
 _symmetry_equiv_pos_as_xyz
  1  'x, y, z'
loop_
 _atom_site_type_symbol
 _atom_site_label
 _atom_site_symmetry_multiplicity
 _atom_site_fract_x
 _atom_site_fract_y
 _atom_site_fract_z
 _atom_site_occupancy
  Ti  Ti0  1  0.00708390  0.01104566  0.01167397  1.0
  Ti  Ti1  1  0.99291610  0.98895434  0.51167397  1.0
  Ti  Ti2  1  0.49291610  0.51104566  0.51167397  1.0
  Ti  Ti3  1  0.50708390  0.48895434  0.01167397  1.0
  Ti  Ti4  1  0.24000589  0.73988672  0.24797155  1.0
  Ti  Ti5  1  0.75999411  0.26011328  0.74797155  1.0
  Ti  Ti6  1  0.25999411  0.23988672  0.74797155  1.0
  Ti  Ti7  1  0.74000589  0.76011328  0.24797155  1.0
  Bi  Bi8  1  0.03135298  0.46550543  0.97356664  1.0
  Bi  Bi9  1  0.96864702  0.53449457  0.47356664  1.0
  Bi  Bi10  1  0.46864702  0.96550543  0.47356664  1.0
  Bi  Bi11  1  0.53135298  0.03449457  0.97356664  1.0
  Bi  Bi12  1  0.26644378  0.25761669  0.30532788  1.0
  Bi  Bi13  1  0.73355622  0.74238331  0.80532788  1.0
  Bi  Bi14  1  0.23355622  0.75761669  0.80532788  1.0
  Bi  Bi15  1  0.76644378  0.24238331  0.30532788  1.0
  O  O16  1  0.19068614  0.87963244  0.42393768  1.0
  O  O17  1  0.80931386  0.12036756  0.92393768  1.0
  O  O18  1  0.30931386  0.37963244  0.92393768  1.0
  O  O19  1  0.69068614  0.62036756  0.42393768  1.0
  O  O20  1  0.70102424  0.38486123  0.92309382  1.0
  O  O21  1  0.29897576  0.61513877  0.42309382  1.0
  O  O22  1  0.79897576  0.88486123  0.42309382  1.0
  O  O23  1  0.20102424  0.11513877  0.92309382  1.0
  O  O24  1  0.79524309  0.87523429  0.04565561  1.0
  O  O25  1  0.20475691  0.12476571  0.54565561  1.0
  O  O26  1  0.70475691  0.37523429  0.54565561  1.0
  O  O27  1  0.29524309  0.62476571  0.04565561  1.0
  O  O28  1  0.32709469  0.36499734  0.54924517  1.0
  O  O29  1  0.67290531  0.63500266  0.04924517  1.0
  O  O30  1  0.17290531  0.86499734  0.04924517  1.0
  O  O31  1  0.82709469  0.13500266  0.54924517  1.0
  O  O32  1  0.99049164  0.68453615  0.25985651  1.0
  O  O33  1  0.00950836  0.31546385  0.75985651  1.0
  O  O34  1  0.50950836  0.18453615  0.75985651  1.0
  O  O35  1  0.49049164  0.81546385  0.25985651  1.0
  O  O36  1  0.50150163  0.57731290  0.73454225  1.0
  O  O37  1  0.49849837  0.42268710  0.23454225  1.0
  O  O38  1  0.99849837  0.07731290  0.23454225  1.0
  O  O39  1  0.00150163  0.92268710  0.73454225  1.0
  O  O40  1  0.99357116  0.61918319  0.77500892  1.0
  O  O41  1  0.00642884  0.38081681  0.27500892  1.0
  O  O42  1  0.50642884  0.11918319  0.27500892  1.0
  O  O43  1  0.49357116  0.88081681  0.77500892  1.0
