# generated using pymatgen
data_ScAlAu
_symmetry_space_group_name_H-M   'P 1'
_cell_length_a   7.28773881
_cell_length_b   7.28773881
_cell_length_c   7.28804926
_cell_angle_alpha   90.00000000
_cell_angle_beta   90.00000000
_cell_angle_gamma   120.00000000
_symmetry_Int_Tables_number   1
_chemical_formula_structural   ScAlAu
_chemical_formula_sum   'Sc6 Al6 Au6'
_cell_volume   335.21815389
_cell_formula_units_Z   6
loop_
 _symmetry_equiv_pos_site_id
 _symmetry_equiv_pos_as_xyz
  1  'x, y, z'
loop_
 _atom_site_type_symbol
 _atom_site_label
 _atom_site_symmetry_multiplicity
 _atom_site_fract_x
 _atom_site_fract_y
 _atom_site_fract_z
 _atom_site_occupancy
  Sc  Sc0  1  0.59163987  0.98615407  0.75000000  1.0
  Sc  Sc1  1  0.01384593  0.60548580  0.75000000  1.0
  Sc  Sc2  1  0.39451420  0.40836013  0.75000000  1.0
  Sc  Sc3  1  0.98615407  0.59163987  0.25000000  1.0
  Sc  Sc4  1  0.60548580  0.01384593  0.25000000  1.0
  Sc  Sc5  1  0.40836013  0.39451420  0.25000000  1.0
  Al  Al6  1  0.73695474  0.73695474  0.00000000  1.0
  Al  Al7  1  0.26304526  0.00000000  0.00000000  1.0
  Al  Al8  1  -0.00000000  0.26304526  -0.00000000  1.0
  Al  Al9  1  0.73695474  0.73695474  0.50000000  1.0
  Al  Al10  1  0.26304526  0.00000000  0.50000000  1.0
  Al  Al11  1  -0.00000000  0.26304526  0.50000000  1.0
  Au  Au12  1  0.00000000  -0.00000000  0.75000000  1.0
  Au  Au13  1  -0.00000000  0.00000000  0.25000000  1.0
  Au  Au14  1  0.66666667  0.33333333  0.98058677  1.0
  Au  Au15  1  0.66666667  0.33333333  0.51941323  1.0
  Au  Au16  1  0.33333333  0.66666667  0.48058677  1.0
  Au  Au17  1  0.33333333  0.66666667  0.01941323  1.0
