# generated using pymatgen
data_Na2TePH3O11
_symmetry_space_group_name_H-M   'P 1'
_cell_length_a   6.11431687
_cell_length_b   6.11431687
_cell_length_c   14.98934720
_cell_angle_alpha   90.00000000
_cell_angle_beta   90.00000000
_cell_angle_gamma   120.00000000
_symmetry_Int_Tables_number   1
_chemical_formula_structural   Na2TePH3O11
_chemical_formula_sum   'Na4 Te2 P2 H6 O22'
_cell_volume   485.29881898
_cell_formula_units_Z   2
loop_
 _symmetry_equiv_pos_site_id
 _symmetry_equiv_pos_as_xyz
  1  'x, y, z'
loop_
 _atom_site_type_symbol
 _atom_site_label
 _atom_site_symmetry_multiplicity
 _atom_site_fract_x
 _atom_site_fract_y
 _atom_site_fract_z
 _atom_site_occupancy
  P  P0  1  0.00000000  0.00000000  0.01552825  1.0
  P  P1  1  0.00000000  0.00000000  0.51552825  1.0
  O  O2  1  0.33333333  0.66666667  0.44020300  1.0
  O  O3  1  0.66666667  0.33333333  0.94020300  1.0
  O  O4  1  0.93609578  0.60958463  0.28494644  1.0
  O  O5  1  0.60958463  0.67348885  0.78494644  1.0
  O  O6  1  0.67348885  0.06390422  0.28494644  1.0
  O  O7  1  0.39041537  0.32651115  0.28494644  1.0
  O  O8  1  0.06390422  0.39041537  0.78494644  1.0
  O  O9  1  0.32651115  0.93609578  0.78494644  1.0
  O  O10  1  0.57687536  0.55894440  0.14908608  1.0
  O  O11  1  0.55894440  0.98206904  0.64908608  1.0
  O  O12  1  0.98206904  0.42312464  0.14908608  1.0
  O  O13  1  0.44105560  0.01793096  0.14908608  1.0
  O  O14  1  0.42312464  0.44105560  0.64908608  1.0
  O  O15  1  0.01793096  0.57687536  0.64908608  1.0
  O  O16  1  0.00000000  0.00000000  0.12214481  1.0
  O  O17  1  0.00000000  0.00000000  0.62214481  1.0
  O  O18  1  0.76721879  0.74798345  0.48721338  1.0
  O  O19  1  0.74798345  0.98076467  0.98721338  1.0
  O  O20  1  0.98076467  0.23278121  0.48721338  1.0
  O  O21  1  0.25201655  0.01923533  0.48721338  1.0
  O  O22  1  0.23278121  0.25201655  0.98721338  1.0
  O  O23  1  0.01923533  0.76721879  0.98721338  1.0
  Na  Na24  1  0.33333333  0.66666667  0.04102575  1.0
  Na  Na25  1  0.66666667  0.33333333  0.54102575  1.0
  Na  Na26  1  0.33333333  0.66666667  0.26681240  1.0
  Na  Na27  1  0.66666667  0.33333333  0.76681240  1.0
  H  H28  1  0.29086206  0.80419109  0.46168143  1.0
  H  H29  1  0.80419109  0.51332903  0.96168143  1.0
  H  H30  1  0.51332903  0.70913794  0.46168143  1.0
  H  H31  1  0.19580891  0.48667097  0.46168143  1.0
  H  H32  1  0.70913794  0.19580891  0.96168143  1.0
  H  H33  1  0.48667097  0.29086206  0.96168143  1.0
  Te  Te34  1  0.33333333  0.66666667  0.71550380  1.0
  Te  Te35  1  0.66666667  0.33333333  0.21550380  1.0
