# generated using pymatgen
data_AlTlO2
_symmetry_space_group_name_H-M   'P 1'
_cell_length_a   5.72572127
_cell_length_b   5.72572127
_cell_length_c   5.72572127
_cell_angle_alpha   59.98870915
_cell_angle_beta   59.98870915
_cell_angle_gamma   59.98870915
_symmetry_Int_Tables_number   1
_chemical_formula_structural   AlTlO2
_chemical_formula_sum   'Al2 Tl2 O4'
_cell_volume   132.69801037
_cell_formula_units_Z   2
loop_
 _symmetry_equiv_pos_site_id
 _symmetry_equiv_pos_as_xyz
  1  'x, y, z'
loop_
 _atom_site_type_symbol
 _atom_site_label
 _atom_site_symmetry_multiplicity
 _atom_site_fract_x
 _atom_site_fract_y
 _atom_site_fract_z
 _atom_site_occupancy
  Al  Al0  1  0.87501641  0.87501641  0.87501641  1.0
  Al  Al1  1  1.12498359  1.12498359  0.12498359  1.0
  Tl  Tl2  1  1.62492601  0.62492601  0.62492601  1.0
  Tl  Tl3  1  1.37507399  0.37507399  0.37507399  1.0
  O  O4  1  1.00000000  1.50000000  -0.00000000  1.0
  O  O5  1  1.00000000  1.00000000  0.50000000  1.0
  O  O6  1  1.50000000  1.00000000  -0.00000000  1.0
  O  O7  1  0.00000000  0.00000000  -0.00000000  1.0
