# generated using pymatgen
data_Ho2B31(CN)2
_symmetry_space_group_name_H-M   'P 1'
_cell_length_a   5.57369511
_cell_length_b   5.57369511
_cell_length_c   10.91021952
_cell_angle_alpha   90.00000000
_cell_angle_beta   90.00000000
_cell_angle_gamma   120.00000000
_symmetry_Int_Tables_number   1
_chemical_formula_structural   Ho2B31(CN)2
_chemical_formula_sum   'Ho2 B31 C2 N2'
_cell_volume   293.52867729
_cell_formula_units_Z   1
loop_
 _symmetry_equiv_pos_site_id
 _symmetry_equiv_pos_as_xyz
  1  'x, y, z'
loop_
 _atom_site_type_symbol
 _atom_site_label
 _atom_site_symmetry_multiplicity
 _atom_site_fract_x
 _atom_site_fract_y
 _atom_site_fract_z
 _atom_site_occupancy
  Ho  Ho0  1  0.33333333  0.66666667  0.43389152  1.0
  Ho  Ho1  1  0.66666667  0.33333333  0.56610848  1.0
  B  B2  1  0.01878568  0.50939284  0.21157092  1.0
  B  B3  1  0.50939284  0.01878568  0.78842908  1.0
  B  B4  1  0.50939284  0.49060716  0.78842908  1.0
  B  B5  1  0.49060716  0.50939284  0.21157092  1.0
  B  B6  1  0.49060716  0.98121432  0.21157092  1.0
  B  B7  1  0.98121432  0.49060716  0.78842908  1.0
  B  B8  1  0.88154060  0.44077030  0.05959450  1.0
  B  B9  1  0.44077030  0.88154060  0.94040550  1.0
  B  B10  1  0.44077030  0.55922970  0.94040550  1.0
  B  B11  1  0.55922970  0.44077030  0.05959450  1.0
  B  B12  1  0.55922970  0.11845940  0.05959450  1.0
  B  B13  1  0.11845940  0.55922970  0.94040550  1.0
  B  B14  1  0.45147244  0.22573622  0.31491183  1.0
  B  B15  1  0.22573622  0.45147244  0.68508817  1.0
  B  B16  1  0.22573622  0.77426378  0.68508817  1.0
  B  B17  1  0.77426378  0.22573622  0.31491183  1.0
  B  B18  1  0.77426378  0.54852756  0.31491183  1.0
  B  B19  1  0.54852756  0.77426378  0.68508817  1.0
  B  B20  1  0.32512578  0.16256289  0.15863795  1.0
  B  B21  1  0.16256289  0.32512578  0.84136205  1.0
  B  B22  1  0.16256289  0.83743711  0.84136205  1.0
  B  B23  1  0.83743711  0.16256289  0.15863795  1.0
  B  B24  1  0.83743711  0.67487422  0.15863795  1.0
  B  B25  1  0.67487422  0.83743711  0.84136205  1.0
  B  B26  1  0.20878641  0.10439320  0.43211483  1.0
  B  B27  1  0.10439320  0.20878641  0.56788517  1.0
  B  B28  1  0.10439320  0.89560680  0.56788517  1.0
  B  B29  1  0.89560680  0.10439320  0.43211483  1.0
  B  B30  1  0.89560680  0.79121359  0.43211483  1.0
  B  B31  1  0.79121359  0.89560680  0.56788517  1.0
  B  B32  1  -0.00000000  0.00000000  0.00000000  1.0
  C  C33  1  0.00000000  0.00000000  0.13227036  1.0
  C  C34  1  -0.00000000  0.00000000  0.86772964  1.0
  N  N35  1  0.33333333  0.66666667  0.22910313  1.0
  N  N36  1  0.66666667  0.33333333  0.77089687  1.0
