# generated using pymatgen
data_Rb2O3
_symmetry_space_group_name_H-M   'P 1'
_cell_length_a   8.13104057
_cell_length_b   8.13104057
_cell_length_c   8.13104057
_cell_angle_alpha   109.47122063
_cell_angle_beta   109.47122063
_cell_angle_gamma   109.47122063
_symmetry_Int_Tables_number   1
_chemical_formula_structural   Rb2O3
_chemical_formula_sum   'Rb8 O12'
_cell_volume   413.82478024
_cell_formula_units_Z   4
loop_
 _symmetry_equiv_pos_site_id
 _symmetry_equiv_pos_as_xyz
  1  'x, y, z'
loop_
 _atom_site_type_symbol
 _atom_site_label
 _atom_site_symmetry_multiplicity
 _atom_site_fract_x
 _atom_site_fract_y
 _atom_site_fract_z
 _atom_site_occupancy
  Rb  Rb0  1  1.39675508  1.39675508  1.39675508  1.0
  Rb  Rb1  1  1.50000000  1.00000000  1.10324492  1.0
  Rb  Rb2  1  0.89675508  0.89675508  0.89675508  1.0
  Rb  Rb3  1  0.50000000  1.00000000  0.60324492  1.0
  Rb  Rb4  1  1.00000000  1.10324492  1.50000000  1.0
  Rb  Rb5  1  1.10324492  0.50000000  1.00000000  1.0
  Rb  Rb6  1  1.00000000  0.60324492  1.50000000  1.0
  Rb  Rb7  1  0.60324492  1.50000000  1.00000000  1.0
  O  O8  1  1.19955603  0.94955603  1.25000000  1.0
  O  O9  1  0.44955603  0.69955603  0.75000000  1.0
  O  O10  1  0.25000000  1.19955603  0.94955603  1.0
  O  O11  1  0.75000000  1.30044397  0.55044397  1.0
  O  O12  1  0.69955603  0.75000000  0.44955603  1.0
  O  O13  1  0.80044397  0.25000000  1.05044397  1.0
  O  O14  1  0.94955603  0.25000000  1.19955603  1.0
  O  O15  1  0.55044397  0.75000000  0.30044397  1.0
  O  O16  1  0.75000000  1.44955603  0.69955603  1.0
  O  O17  1  0.25000000  1.05044397  0.80044397  1.0
  O  O18  1  0.30044397  0.55044397  0.75000000  1.0
  O  O19  1  1.05044397  0.80044397  1.25000000  1.0
