# generated using pymatgen
data_Rb2MnS2
_symmetry_space_group_name_H-M   'P 1'
_cell_length_a   8.20666852
_cell_length_b   8.20666852
_cell_length_c   8.20666852
_cell_angle_alpha   128.18645920
_cell_angle_beta   71.83400939
_cell_angle_gamma   133.91165028
_symmetry_Int_Tables_number   1
_chemical_formula_structural   Rb2MnS2
_chemical_formula_sum   'Rb4 Mn2 S4'
_cell_volume   306.21802982
_cell_formula_units_Z   2
loop_
 _symmetry_equiv_pos_site_id
 _symmetry_equiv_pos_as_xyz
  1  'x, y, z'
loop_
 _atom_site_type_symbol
 _atom_site_label
 _atom_site_symmetry_multiplicity
 _atom_site_fract_x
 _atom_site_fract_y
 _atom_site_fract_z
 _atom_site_occupancy
  Rb  Rb0  1  0.14767279  0.33830831  0.48598111  1.0
  Rb  Rb1  1  0.35232721  0.83830831  1.19063552  1.0
  Rb  Rb2  1  0.64767279  1.16169169  0.80936448  1.0
  Rb  Rb3  1  0.85232721  0.66169169  0.51401889  1.0
  Mn  Mn4  1  0.25000000  0.25000000  -0.00000000  1.0
  Mn  Mn5  1  0.75000000  0.75000000  -0.00000000  1.0
  S  S6  1  0.40199735  0.31724758  0.71924493  1.0
  S  S7  1  0.09800265  0.81724758  0.91525023  1.0
  S  S8  1  0.90199735  1.18275242  1.08474977  1.0
  S  S9  1  0.59800265  0.68275242  0.28075507  1.0
