# generated using pymatgen
data_AgSbS2
_symmetry_space_group_name_H-M   'P 1'
_cell_length_a   6.87518248
_cell_length_b   6.87518248
_cell_length_c   13.27230643
_cell_angle_alpha   81.73353680
_cell_angle_beta   98.26646320
_cell_angle_gamma   140.59875733
_symmetry_Int_Tables_number   1
_chemical_formula_structural   AgSbS2
_chemical_formula_sum   'Ag4 Sb4 S8'
_cell_volume   393.54225680
_cell_formula_units_Z   4
loop_
 _symmetry_equiv_pos_site_id
 _symmetry_equiv_pos_as_xyz
  1  'x, y, z'
loop_
 _atom_site_type_symbol
 _atom_site_label
 _atom_site_symmetry_multiplicity
 _atom_site_fract_x
 _atom_site_fract_y
 _atom_site_fract_z
 _atom_site_occupancy
  Ag  Ag0  1  0.75005841  0.25814853  0.62311731  1.0
  Ag  Ag1  1  0.74185147  0.24994159  0.12311731  1.0
  Ag  Ag2  1  1.24571322  0.75371561  0.87303922  1.0
  Ag  Ag3  1  0.24628439  -0.24571322  0.37303922  1.0
  Sb  Sb4  1  0.97528055  0.97457951  0.49937455  1.0
  Sb  Sb5  1  0.02542049  0.02471945  -0.00062545  1.0
  Sb  Sb6  1  1.46651176  0.48328092  0.74668368  1.0
  Sb  Sb7  1  0.51671908  -0.46651176  0.24668368  1.0
  S  S8  1  0.95323685  0.74927840  0.67537718  1.0
  S  S9  1  0.25072160  0.04676315  0.17537718  1.0
  S  S10  1  0.82622773  0.55188367  0.95778188  1.0
  S  S11  1  0.44811633  0.17377227  0.45778188  1.0
  S  S12  1  0.66551299  -0.04402854  0.78832739  1.0
  S  S13  1  1.04402854  0.33448701  0.28832739  1.0
  S  S14  1  1.24122537  0.46130877  0.57069878  1.0
  S  S15  1  0.53869123  -0.24122537  0.07069878  1.0
