# generated using pymatgen
data_Na2B29
_symmetry_space_group_name_H-M   'P 1'
_cell_length_a   7.24307524
_cell_length_b   7.24307524
_cell_length_c   5.81593994
_cell_angle_alpha   66.33002898
_cell_angle_beta   113.66997102
_cell_angle_gamma   88.92041497
_symmetry_Int_Tables_number   1
_chemical_formula_structural   Na2B29
_chemical_formula_sum   'Na2 B29'
_cell_volume   249.97577413
_cell_formula_units_Z   1
loop_
 _symmetry_equiv_pos_site_id
 _symmetry_equiv_pos_as_xyz
  1  'x, y, z'
loop_
 _atom_site_type_symbol
 _atom_site_label
 _atom_site_symmetry_multiplicity
 _atom_site_fract_x
 _atom_site_fract_y
 _atom_site_fract_z
 _atom_site_occupancy
  Na  Na0  1  -0.01936044  0.01936044  -0.02050371  1.0
  Na  Na1  1  0.17686847  -0.17686847  0.67582375  1.0
  B  B2  1  0.80411737  -0.19729857  0.66085978  1.0
  B  B3  1  1.19729857  0.19588263  0.66085978  1.0
  B  B4  1  0.97614612  -0.36888595  0.01064464  1.0
  B  B5  1  1.36888595  0.02385388  0.01064464  1.0
  B  B6  1  0.97616901  -0.36886773  0.33190560  1.0
  B  B7  1  1.36886773  0.02383099  0.33190560  1.0
  B  B8  1  0.83259660  -0.52336944  0.17675856  1.0
  B  B9  1  1.52336944  0.16740340  0.17675856  1.0
  B  B10  1  0.96614557  -0.62691336  0.54258237  1.0
  B  B11  1  1.62691336  0.03385443  0.54258237  1.0
  B  B12  1  1.21630934  0.61574938  0.29902525  1.0
  B  B13  1  0.38425062  -0.21630934  0.29902525  1.0
  B  B14  1  0.96609276  -0.62692757  0.04798063  1.0
  B  B15  1  1.62692757  0.03390724  0.04798063  1.0
  B  B16  1  1.20706406  0.45226184  0.12919773  1.0
  B  B17  1  0.54773816  -0.20706406  0.12919773  1.0
  B  B18  1  0.96018476  -0.79222512  0.37497332  1.0
  B  B19  1  1.79222512  0.03981524  0.37497332  1.0
  B  B20  1  1.20710013  0.45229500  0.62311897  1.0
  B  B21  1  0.54770500  -0.20710013  0.62311897  1.0
  B  B22  1  1.35036272  0.44920204  0.94933543  1.0
  B  B23  1  0.55079796  -0.35036272  0.94933543  1.0
  B  B24  1  1.34729036  0.34560761  0.49956056  1.0
  B  B25  1  0.65439239  -0.34729036  0.49956056  1.0
  B  B26  1  1.19727372  0.19588489  0.33804012  1.0
  B  B27  1  0.80411511  -0.19727372  0.33804012  1.0
  B  B28  1  0.59616914  -0.59616914  0.09508761  1.0
  B  B29  1  0.83231634  -0.57456701  0.70221320  1.0
  B  B30  1  1.57456701  0.16768366  0.70221320  1.0
