# generated using pymatgen
data_Ti4Bi2O11
_symmetry_space_group_name_H-M   'P 1'
_cell_length_a   7.67743857
_cell_length_b   7.67743857
_cell_length_c   15.17518092
_cell_angle_alpha   87.24430573
_cell_angle_beta   92.75569427
_cell_angle_gamma   151.22256294
_symmetry_Int_Tables_number   1
_chemical_formula_structural   Ti4Bi2O11
_chemical_formula_sum   'Ti8 Bi4 O22'
_cell_volume   430.07555602
_cell_formula_units_Z   2
loop_
 _symmetry_equiv_pos_site_id
 _symmetry_equiv_pos_as_xyz
  1  'x, y, z'
loop_
 _atom_site_type_symbol
 _atom_site_label
 _atom_site_symmetry_multiplicity
 _atom_site_fract_x
 _atom_site_fract_y
 _atom_site_fract_z
 _atom_site_occupancy
  Ti  Ti0  1  0.70028258  -0.20022064  0.86012616  1.0
  Ti  Ti1  1  1.20022064  0.29971742  0.36012616  1.0
  Ti  Ti2  1  0.79977936  0.70028258  0.63987384  1.0
  Ti  Ti3  1  0.29971742  0.20022064  0.13987384  1.0
  Ti  Ti4  1  0.61574715  -0.09097412  0.48261100  1.0
  Ti  Ti5  1  1.09097412  0.38425285  0.98261100  1.0
  Ti  Ti6  1  0.90902588  0.61574715  0.01738900  1.0
  Ti  Ti7  1  0.38425285  0.09097412  0.51738900  1.0
  Bi  Bi8  1  0.50330030  0.14277420  0.82007870  1.0
  Bi  Bi9  1  0.85722580  0.49669970  0.32007870  1.0
  Bi  Bi10  1  1.14277420  0.50330030  0.67992130  1.0
  Bi  Bi11  1  0.49669970  -0.14277420  0.17992130  1.0
  O  O12  1  0.69367561  -0.19499763  0.57582232  1.0
  O  O13  1  1.19499763  0.30632439  0.07582232  1.0
  O  O14  1  0.80500237  0.69367561  0.92417768  1.0
  O  O15  1  0.30632439  0.19499763  0.42417768  1.0
  O  O16  1  0.61133855  -0.11617704  0.96546083  1.0
  O  O17  1  1.11617704  0.38866145  0.46546083  1.0
  O  O18  1  0.88382296  0.61133855  0.53453917  1.0
  O  O19  1  0.38866145  0.11617704  0.03453917  1.0
  O  O20  1  0.57937585  -0.05470943  0.77626683  1.0
  O  O21  1  1.05470943  0.42062415  0.27626683  1.0
  O  O22  1  0.94529057  0.57937585  0.72373317  1.0
  O  O23  1  0.42062415  0.05470943  0.22373317  1.0
  O  O24  1  0.50370191  -0.03307644  0.58184761  1.0
  O  O25  1  1.03307644  0.49629809  0.08184761  1.0
  O  O26  1  0.96692356  0.50370191  0.91815239  1.0
  O  O27  1  0.49629809  0.03307644  0.41815239  1.0
  O  O28  1  0.32586523  0.17093340  0.62743073  1.0
  O  O29  1  0.82906660  0.67413477  0.12743073  1.0
  O  O30  1  1.17093340  0.32586523  0.87256927  1.0
  O  O31  1  0.67413477  -0.17093340  0.37256927  1.0
  O  O32  1  0.73009997  0.73009997  0.75000000  1.0
  O  O33  1  0.26990003  0.26990003  0.25000000  1.0
