# generated using pymatgen
data_AgWS4N
_symmetry_space_group_name_H-M   'P 1'
_cell_length_a   6.65194376
_cell_length_b   6.65194376
_cell_length_c   6.65194376
_cell_angle_alpha   101.29162824
_cell_angle_beta   101.29162824
_cell_angle_gamma   127.47348932
_symmetry_Int_Tables_number   1
_chemical_formula_structural   AgWS4N
_chemical_formula_sum   'Ag1 W1 S4 N1'
_cell_volume   209.48249676
_cell_formula_units_Z   1
loop_
 _symmetry_equiv_pos_site_id
 _symmetry_equiv_pos_as_xyz
  1  'x, y, z'
loop_
 _atom_site_type_symbol
 _atom_site_label
 _atom_site_symmetry_multiplicity
 _atom_site_fract_x
 _atom_site_fract_y
 _atom_site_fract_z
 _atom_site_occupancy
  Ag  Ag0  1  0.50000000  0.50000000  -0.00000000  1.0
  W  W1  1  0.00000000  0.00000000  0.00000000  1.0
  S  S2  1  1.59902246  1.68036330  1.70278317  1.0
  S  S3  1  1.10376071  1.40097754  1.08134084  1.0
  S  S4  1  0.97758013  0.89623929  0.29721683  1.0
  S  S5  1  1.31963670  1.02241987  0.91865916  1.0
  N  N6  1  0.75000000  0.25000000  0.50000000  1.0
