# generated using pymatgen
data_MnBPbO4
_symmetry_space_group_name_H-M   'P 1'
_cell_length_a   6.74093834
_cell_length_b   6.04589273
_cell_length_c   8.75598030
_cell_angle_alpha   90.00000000
_cell_angle_beta   90.00000000
_cell_angle_gamma   90.00000000
_symmetry_Int_Tables_number   1
_chemical_formula_structural   MnBPbO4
_chemical_formula_sum   'Mn4 B4 Pb4 O16'
_cell_volume   356.84989048
_cell_formula_units_Z   4
loop_
 _symmetry_equiv_pos_site_id
 _symmetry_equiv_pos_as_xyz
  1  'x, y, z'
loop_
 _atom_site_type_symbol
 _atom_site_label
 _atom_site_symmetry_multiplicity
 _atom_site_fract_x
 _atom_site_fract_y
 _atom_site_fract_z
 _atom_site_occupancy
  Mn  Mn0  1  0.00000000  0.00000000  0.00000000  1.0
  Mn  Mn1  1  0.00000000  0.50000000  0.00000000  1.0
  Mn  Mn2  1  0.50000000  0.00000000  0.50000000  1.0
  Mn  Mn3  1  0.50000000  0.50000000  0.50000000  1.0
  O  O4  1  0.65914757  0.95038237  0.31325282  1.0
  O  O5  1  0.65914757  0.54961763  0.31325282  1.0
  O  O6  1  0.15914757  0.95038237  0.18674718  1.0
  O  O7  1  0.15914757  0.54961763  0.18674718  1.0
  O  O8  1  0.34085243  0.45038237  0.68674718  1.0
  O  O9  1  0.34085243  0.04961763  0.68674718  1.0
  O  O10  1  0.84085243  0.45038237  0.81325282  1.0
  O  O11  1  0.84085243  0.04961763  0.81325282  1.0
  O  O12  1  0.60886897  0.75000000  0.59873327  1.0
  O  O13  1  0.10886897  0.75000000  0.90126673  1.0
  O  O14  1  0.39113103  0.25000000  0.40126673  1.0
  O  O15  1  0.89113103  0.25000000  0.09873327  1.0
  O  O16  1  0.77090719  0.75000000  0.09299716  1.0
  O  O17  1  0.27090719  0.75000000  0.40700284  1.0
  O  O18  1  0.22909281  0.25000000  0.90700284  1.0
  O  O19  1  0.72909281  0.25000000  0.59299716  1.0
  Pb  Pb20  1  0.96702809  0.75000000  0.64880542  1.0
  Pb  Pb21  1  0.46702809  0.75000000  0.85119458  1.0
  Pb  Pb22  1  0.03297191  0.25000000  0.35119458  1.0
  Pb  Pb23  1  0.53297191  0.25000000  0.14880542  1.0
  B  B24  1  0.69836778  0.75000000  0.23858353  1.0
  B  B25  1  0.19836778  0.75000000  0.26141647  1.0
  B  B26  1  0.30163222  0.25000000  0.76141647  1.0
  B  B27  1  0.80163222  0.25000000  0.73858353  1.0
