# generated using pymatgen
data_TlIn5S7
_symmetry_space_group_name_H-M   'P 1'
_cell_length_a   9.25067011
_cell_length_b   3.95192542
_cell_length_c   17.79952129
_cell_angle_alpha   90.00000000
_cell_angle_beta   102.55562165
_cell_angle_gamma   90.00000000
_symmetry_Int_Tables_number   1
_chemical_formula_structural   TlIn5S7
_chemical_formula_sum   'Tl2 In10 S14'
_cell_volume   635.15261047
_cell_formula_units_Z   2
loop_
 _symmetry_equiv_pos_site_id
 _symmetry_equiv_pos_as_xyz
  1  'x, y, z'
loop_
 _atom_site_type_symbol
 _atom_site_label
 _atom_site_symmetry_multiplicity
 _atom_site_fract_x
 _atom_site_fract_y
 _atom_site_fract_z
 _atom_site_occupancy
  Tl  Tl0  1  0.52216369  0.25000000  0.72369312  1.0
  Tl  Tl1  1  0.47783631  0.75000000  0.27630688  1.0
  In  In2  1  0.97400319  0.25000000  0.39943510  1.0
  In  In3  1  0.02599681  0.75000000  0.60056490  1.0
  In  In4  1  0.93050926  0.25000000  0.88027691  1.0
  In  In5  1  0.06949074  0.75000000  0.11972309  1.0
  In  In6  1  0.67172689  0.25000000  0.53228451  1.0
  In  In7  1  0.32827311  0.75000000  0.46771549  1.0
  In  In8  1  0.35521369  0.25000000  0.04518473  1.0
  In  In9  1  0.64478631  0.75000000  0.95481527  1.0
  In  In10  1  0.17951168  0.25000000  0.81292590  1.0
  In  In11  1  0.82048832  0.75000000  0.18707410  1.0
  S  S12  1  0.88726955  0.25000000  0.64847347  1.0
  S  S13  1  0.11273045  0.75000000  0.35152653  1.0
  S  S14  1  0.83494998  0.25000000  0.00489320  1.0
  S  S15  1  0.16505002  0.75000000  0.99510680  1.0
  S  S16  1  0.76543003  0.25000000  0.26960168  1.0
  S  S17  1  0.23456997  0.75000000  0.73039832  1.0
  S  S18  1  0.46377142  0.25000000  0.41241116  1.0
  S  S19  1  0.53622858  0.75000000  0.58758884  1.0
  S  S20  1  0.44150268  0.25000000  0.91140609  1.0
  S  S21  1  0.55849732  0.75000000  0.08859391  1.0
  S  S22  1  0.24726174  0.25000000  0.17074991  1.0
  S  S23  1  0.75273826  0.75000000  0.82925009  1.0
  S  S24  1  0.16946158  0.25000000  0.53337165  1.0
  S  S25  1  0.83053842  0.75000000  0.46662835  1.0
