# generated using pymatgen
data_InBr
_symmetry_space_group_name_H-M   'P 1'
_cell_length_a   6.72217449
_cell_length_b   6.72217449
_cell_length_c   4.68805844
_cell_angle_alpha   90.00000000
_cell_angle_beta   90.00000000
_cell_angle_gamma   139.88534040
_symmetry_Int_Tables_number   1
_chemical_formula_structural   InBr
_chemical_formula_sum   'In2 Br2'
_cell_volume   136.49405426
_cell_formula_units_Z   2
loop_
 _symmetry_equiv_pos_site_id
 _symmetry_equiv_pos_as_xyz
  1  'x, y, z'
loop_
 _atom_site_type_symbol
 _atom_site_label
 _atom_site_symmetry_multiplicity
 _atom_site_fract_x
 _atom_site_fract_y
 _atom_site_fract_z
 _atom_site_occupancy
  In  In0  1  -0.88915807  0.88915807  0.25000000  1.0
  In  In1  1  -0.11084193  1.11084193  0.75000000  1.0
  Br  Br2  1  -0.64815425  0.64815425  0.25000000  1.0
  Br  Br3  1  -0.35184575  1.35184575  0.75000000  1.0
