# generated using pymatgen
data_Sn2H2SO5F2
_symmetry_space_group_name_H-M   'P 1'
_cell_length_a   7.24466496
_cell_length_b   13.29512376
_cell_length_c   7.38475347
_cell_angle_alpha   90.00000000
_cell_angle_beta   90.23530848
_cell_angle_gamma   90.00000000
_symmetry_Int_Tables_number   1
_chemical_formula_structural   Sn2H2SO5F2
_chemical_formula_sum   'Sn8 H8 S4 O20 F8'
_cell_volume   711.28398274
_cell_formula_units_Z   4
loop_
 _symmetry_equiv_pos_site_id
 _symmetry_equiv_pos_as_xyz
  1  'x, y, z'
loop_
 _atom_site_type_symbol
 _atom_site_label
 _atom_site_symmetry_multiplicity
 _atom_site_fract_x
 _atom_site_fract_y
 _atom_site_fract_z
 _atom_site_occupancy
  Sn  Sn0  1  0.76794691  0.47690456  0.16413833  1.0
  Sn  Sn1  1  0.76794691  0.02309544  0.66413833  1.0
  Sn  Sn2  1  0.23205309  0.97690456  0.33586167  1.0
  Sn  Sn3  1  0.23205309  0.52309544  0.83586167  1.0
  Sn  Sn4  1  0.70711639  0.18095874  0.15226062  1.0
  Sn  Sn5  1  0.70711639  0.31904126  0.65226062  1.0
  Sn  Sn6  1  0.29288361  0.68095874  0.34773938  1.0
  Sn  Sn7  1  0.29288361  0.81904126  0.84773938  1.0
  H  H8  1  0.92304639  0.73745055  0.26328459  1.0
  H  H9  1  0.92304639  0.76254945  0.76328459  1.0
  H  H10  1  0.07695361  0.23745055  0.23671541  1.0
  H  H11  1  0.07695361  0.26254945  0.73671541  1.0
  H  H12  1  0.91657117  0.67794392  0.45332497  1.0
  H  H13  1  0.91657117  0.82205608  0.95332497  1.0
  H  H14  1  0.08342883  0.17794392  0.04667503  1.0
  H  H15  1  0.08342883  0.32205608  0.54667503  1.0
  S  S16  1  0.76038507  0.92207666  0.23422433  1.0
  S  S17  1  0.76038507  0.57792334  0.73422433  1.0
  S  S18  1  0.23961493  0.42207666  0.26577567  1.0
  S  S19  1  0.23961493  0.07792334  0.76577567  1.0
  O  O20  1  1.01623826  0.18249647  0.16562300  1.0
  O  O21  1  1.01623826  0.31750353  0.66562300  1.0
  O  O22  1  -0.01623826  0.68249647  0.33437700  1.0
  O  O23  1  -0.01623826  0.81750353  0.83437700  1.0
  O  O24  1  0.91577502  0.94091692  0.36964772  1.0
  O  O25  1  0.91577502  0.55908308  0.86964772  1.0
  O  O26  1  0.08422498  0.44091692  0.13035228  1.0
  O  O27  1  0.08422498  0.05908308  0.63035228  1.0
  O  O28  1  0.79474538  0.82407448  0.14046301  1.0
  O  O29  1  0.79474538  0.67592552  0.64046301  1.0
  O  O30  1  0.20525462  0.32407448  0.35953699  1.0
  O  O31  1  0.20525462  0.17592552  0.85953699  1.0
  O  O32  1  0.76004768  0.00484517  0.09545596  1.0
  O  O33  1  0.76004768  0.49515483  0.59545596  1.0
  O  O34  1  0.23995232  0.50484517  0.40454404  1.0
  O  O35  1  0.23995232  0.99515483  0.90454404  1.0
  O  O36  1  0.41323463  0.41988783  0.16116695  1.0
  O  O37  1  0.41323463  0.08011217  0.66116695  1.0
  O  O38  1  0.58676537  0.91988783  0.33883305  1.0
  O  O39  1  0.58676537  0.58011217  0.83883305  1.0
  F  F40  1  0.77884465  0.33747453  0.33552982  1.0
  F  F41  1  0.77884465  0.16252547  0.83552982  1.0
  F  F42  1  0.22115535  0.83747453  0.16447018  1.0
  F  F43  1  0.22115535  0.66252547  0.66447018  1.0
  F  F44  1  0.74877620  0.13979556  0.46142795  1.0
  F  F45  1  0.74877620  0.36020444  0.96142795  1.0
  F  F46  1  0.25122380  0.63979556  0.03857205  1.0
  F  F47  1  0.25122380  0.86020444  0.53857205  1.0
