# generated using pymatgen
data_CsFe(SO4)2
_symmetry_space_group_name_H-M   'P 1'
_cell_length_a   5.21914596
_cell_length_b   5.21914596
_cell_length_c   8.74349971
_cell_angle_alpha   90.00000000
_cell_angle_beta   90.00000000
_cell_angle_gamma   120.00000000
_symmetry_Int_Tables_number   1
_chemical_formula_structural   CsFe(SO4)2
_chemical_formula_sum   'Cs1 Fe1 S2 O8'
_cell_volume   206.25990627
_cell_formula_units_Z   1
loop_
 _symmetry_equiv_pos_site_id
 _symmetry_equiv_pos_as_xyz
  1  'x, y, z'
loop_
 _atom_site_type_symbol
 _atom_site_label
 _atom_site_symmetry_multiplicity
 _atom_site_fract_x
 _atom_site_fract_y
 _atom_site_fract_z
 _atom_site_occupancy
  Cs  Cs0  1  -0.00000000  -0.00000000  0.50000000  1.0
  Fe  Fe1  1  -0.00000000  -0.00000000  0.00000000  1.0
  S  S2  1  0.33333333  0.66666667  0.19630532  1.0
  S  S3  1  0.66666667  0.33333333  0.80369468  1.0
  O  O4  1  0.17707866  0.82288818  0.13960109  1.0
  O  O5  1  0.82288818  0.17707866  0.86039891  1.0
  O  O6  1  0.64580952  0.82292134  0.13960109  1.0
  O  O7  1  0.17711182  0.35419048  0.13960109  1.0
  O  O8  1  0.82292134  0.64580952  0.86039891  1.0
  O  O9  1  0.35419048  0.17711182  0.86039891  1.0
  O  O10  1  0.33333333  0.66666667  0.36440289  1.0
  O  O11  1  0.66666667  0.33333333  0.63559711  1.0
