# generated using pymatgen
data_Cs3AsSe4
_symmetry_space_group_name_H-M   'P 1'
_cell_length_a   10.20017082
_cell_length_b   12.08436518
_cell_length_c   10.57160848
_cell_angle_alpha   90.00000000
_cell_angle_beta   90.00000000
_cell_angle_gamma   90.00000000
_symmetry_Int_Tables_number   1
_chemical_formula_structural   Cs3AsSe4
_chemical_formula_sum   'Cs12 As4 Se16'
_cell_volume   1303.08383137
_cell_formula_units_Z   4
loop_
 _symmetry_equiv_pos_site_id
 _symmetry_equiv_pos_as_xyz
  1  'x, y, z'
loop_
 _atom_site_type_symbol
 _atom_site_label
 _atom_site_symmetry_multiplicity
 _atom_site_fract_x
 _atom_site_fract_y
 _atom_site_fract_z
 _atom_site_occupancy
  Cs  Cs0  1  0.45302317  0.95723872  0.80292131  1.0
  Cs  Cs1  1  0.45302317  0.54276128  0.80292131  1.0
  Cs  Cs2  1  0.95302317  0.95723872  0.69707869  1.0
  Cs  Cs3  1  0.95302317  0.54276128  0.69707869  1.0
  Cs  Cs4  1  0.54697683  0.45723872  0.19707869  1.0
  Cs  Cs5  1  0.54697683  0.04276128  0.19707869  1.0
  Cs  Cs6  1  0.04697683  0.45723872  0.30292131  1.0
  Cs  Cs7  1  0.04697683  0.04276128  0.30292131  1.0
  Cs  Cs8  1  0.34836228  0.25000000  0.58279744  1.0
  Cs  Cs9  1  0.84836228  0.25000000  0.91720256  1.0
  Cs  Cs10  1  0.65163772  0.75000000  0.41720256  1.0
  Cs  Cs11  1  0.15163772  0.75000000  0.08279744  1.0
  As  As12  1  0.26566076  0.25000000  0.02392219  1.0
  As  As13  1  0.76566076  0.25000000  0.47607781  1.0
  As  As14  1  0.73433924  0.75000000  0.97607781  1.0
  As  As15  1  0.23433924  0.75000000  0.52392219  1.0
  Se  Se16  1  0.15173242  0.41275629  0.96668907  1.0
  Se  Se17  1  0.15173242  0.08724371  0.96668907  1.0
  Se  Se18  1  0.65173242  0.41275629  0.53331093  1.0
  Se  Se19  1  0.65173242  0.08724371  0.53331093  1.0
  Se  Se20  1  0.84826758  0.91275629  0.03331093  1.0
  Se  Se21  1  0.84826758  0.58724371  0.03331093  1.0
  Se  Se22  1  0.34826758  0.91275629  0.46668907  1.0
  Se  Se23  1  0.34826758  0.58724371  0.46668907  1.0
  Se  Se24  1  0.47267243  0.25000000  0.92199664  1.0
  Se  Se25  1  0.97267243  0.25000000  0.57800336  1.0
  Se  Se26  1  0.52732757  0.75000000  0.07800336  1.0
  Se  Se27  1  0.02732757  0.75000000  0.42199664  1.0
  Se  Se28  1  0.29638587  0.25000000  0.24488621  1.0
  Se  Se29  1  0.79638587  0.25000000  0.25511379  1.0
  Se  Se30  1  0.70361413  0.75000000  0.75511379  1.0
  Se  Se31  1  0.20361413  0.75000000  0.74488621  1.0
