# generated using pymatgen
data_CdRhF6
_symmetry_space_group_name_H-M   'P 1'
_cell_length_a   5.73589424
_cell_length_b   5.73589424
_cell_length_c   5.73589424
_cell_angle_alpha   55.35523435
_cell_angle_beta   55.35523435
_cell_angle_gamma   55.35523435
_symmetry_Int_Tables_number   1
_chemical_formula_structural   CdRhF6
_chemical_formula_sum   'Cd1 Rh1 F6'
_cell_volume   119.04116118
_cell_formula_units_Z   1
loop_
 _symmetry_equiv_pos_site_id
 _symmetry_equiv_pos_as_xyz
  1  'x, y, z'
loop_
 _atom_site_type_symbol
 _atom_site_label
 _atom_site_symmetry_multiplicity
 _atom_site_fract_x
 _atom_site_fract_y
 _atom_site_fract_z
 _atom_site_occupancy
  Cd  Cd0  1  -0.00000000  0.00000000  -0.00000000  1.0
  Rh  Rh1  1  0.50000000  0.50000000  -0.50000000  1.0
  F  F2  1  0.12938942  0.72161888  -0.58393074  1.0
  F  F3  1  0.58393074  0.87061058  -0.72161888  1.0
  F  F4  1  0.27838112  0.58393074  -0.12938942  1.0
  F  F5  1  0.87061058  0.27838112  -0.41606926  1.0
  F  F6  1  0.41606926  0.12938942  -0.27838112  1.0
  F  F7  1  0.72161888  0.41606926  -0.87061058  1.0
