# generated using pymatgen
data_Sr9Sc2(SiO4)6
_symmetry_space_group_name_H-M   'P 1'
_cell_length_a   9.04078276
_cell_length_b   9.04078276
_cell_length_c   9.04078276
_cell_angle_alpha   65.19828952
_cell_angle_beta   65.19828952
_cell_angle_gamma   65.19828952
_symmetry_Int_Tables_number   1
_chemical_formula_structural   Sr9Sc2(SiO4)6
_chemical_formula_sum   'Sr9 Sc2 Si6 O24'
_cell_volume   581.73051867
_cell_formula_units_Z   1
loop_
 _symmetry_equiv_pos_site_id
 _symmetry_equiv_pos_as_xyz
  1  'x, y, z'
loop_
 _atom_site_type_symbol
 _atom_site_label
 _atom_site_symmetry_multiplicity
 _atom_site_fract_x
 _atom_site_fract_y
 _atom_site_fract_z
 _atom_site_occupancy
  Sr  Sr0  1  0.75301538  0.42852513  -0.85048365  1.0
  Sr  Sr1  1  0.57147487  0.85048365  -0.75301538  1.0
  Sr  Sr2  1  0.85048365  0.24698462  -0.42852513  1.0
  Sr  Sr3  1  0.24698462  0.57147487  -0.14951635  1.0
  Sr  Sr4  1  0.42852513  0.14951635  -0.24698462  1.0
  Sr  Sr5  1  0.14951635  0.75301538  -0.57147487  1.0
  Sr  Sr6  1  0.65414597  0.65414597  -0.34585403  1.0
  Sr  Sr7  1  0.34585403  0.34585403  -0.65414597  1.0
  Sr  Sr8  1  0.00000000  0.00000000  0.00000000  1.0
  Sc  Sc9  1  0.83866198  0.83866198  -0.16133802  1.0
  Sc  Sc10  1  1.16133802  1.16133802  0.16133802  1.0
  Si  Si11  1  0.58234108  0.24185734  -0.04676602  1.0
  Si  Si12  1  0.75814266  0.04676602  -0.58234108  1.0
  Si  Si13  1  1.04676602  -0.58234108  -0.24185734  1.0
  Si  Si14  1  0.41765892  -0.24185734  0.04676602  1.0
  Si  Si15  1  1.24185734  -0.04676602  -0.41765892  1.0
  Si  Si16  1  0.95323398  -0.41765892  0.24185734  1.0
  O  O17  1  0.55172092  0.38278328  -0.22805730  1.0
  O  O18  1  0.61721672  0.22805730  -0.55172092  1.0
  O  O19  1  0.22805730  0.44827908  -0.38278328  1.0
  O  O20  1  0.44827908  0.61721672  -0.77194270  1.0
  O  O21  1  0.38278328  0.77194270  -0.44827908  1.0
  O  O22  1  0.77194270  0.55172092  -0.61721672  1.0
  O  O23  1  0.73996284  0.07577665  -0.10264577  1.0
  O  O24  1  0.92422335  0.10264577  -0.73996284  1.0
  O  O25  1  1.10264577  -0.73996284  -0.07577665  1.0
  O  O26  1  0.26003716  -0.07577665  0.10264577  1.0
  O  O27  1  1.07577665  -0.10264577  -0.26003716  1.0
  O  O28  1  0.89735423  -0.26003716  0.07577665  1.0
  O  O29  1  0.59351360  0.82123241  -0.05653843  1.0
  O  O30  1  1.17876759  1.05653843  0.40648640  1.0
  O  O31  1  1.05653843  1.40648640  0.17876759  1.0
  O  O32  1  1.40648640  1.17876759  0.05653843  1.0
  O  O33  1  0.82123241  0.94346157  -0.40648640  1.0
  O  O34  1  0.94346157  0.59351360  -0.17876759  1.0
  O  O35  1  1.61614571  1.30042956  0.07931782  1.0
  O  O36  1  0.69957044  0.92068218  -0.61614571  1.0
  O  O37  1  0.92068218  0.38385429  -0.30042956  1.0
  O  O38  1  0.38385429  0.69957044  -0.07931782  1.0
  O  O39  1  1.30042956  1.07931782  0.61614571  1.0
  O  O40  1  1.07931782  1.61614571  0.30042956  1.0
