# generated using pymatgen
data_NaW2(Br3O)2
_symmetry_space_group_name_H-M   'P 1'
_cell_length_a   9.24515953
_cell_length_b   9.24515953
_cell_length_c   9.24515953
_cell_angle_alpha   156.20926319
_cell_angle_beta   110.63599138
_cell_angle_gamma   74.48715044
_symmetry_Int_Tables_number   1
_chemical_formula_structural   NaW2(Br3O)2
_chemical_formula_sum   'Na1 W2 Br6 O2'
_cell_volume   295.13027261
_cell_formula_units_Z   1
loop_
 _symmetry_equiv_pos_site_id
 _symmetry_equiv_pos_as_xyz
  1  'x, y, z'
loop_
 _atom_site_type_symbol
 _atom_site_label
 _atom_site_symmetry_multiplicity
 _atom_site_fract_x
 _atom_site_fract_y
 _atom_site_fract_z
 _atom_site_occupancy
  Na  Na0  1  0.00000000  0.00000000  0.00000000  1.0
  W  W1  1  0.36118144  0.50000000  0.86118144  1.0
  W  W2  1  0.63881856  0.50000000  1.13881856  1.0
  Br  Br3  1  0.29519583  0.61691826  0.67827757  1.0
  Br  Br4  1  1.06135930  1.38308174  0.67827757  1.0
  Br  Br5  1  0.93864070  0.61691826  1.32172243  1.0
  Br  Br6  1  1.70480417  1.38308174  1.32172243  1.0
  Br  Br7  1  0.64225048  0.64225048  1.00000000  1.0
  Br  Br8  1  1.35774952  1.35774952  1.00000000  1.0
  O  O9  1  0.63819745  0.00000000  0.63819745  1.0
  O  O10  1  0.36180255  0.00000000  0.36180255  1.0
