# generated using pymatgen
data_Ba3(LiAs)4
_symmetry_space_group_name_H-M   'P 1'
_cell_length_a   9.00068458
_cell_length_b   9.00068458
_cell_length_c   9.00068458
_cell_angle_alpha   149.51367766
_cell_angle_beta   132.55350818
_cell_angle_gamma   57.45045231
_symmetry_Int_Tables_number   1
_chemical_formula_structural   Ba3(LiAs)4
_chemical_formula_sum   'Ba3 Li4 As4'
_cell_volume   270.54640146
_cell_formula_units_Z   1
loop_
 _symmetry_equiv_pos_site_id
 _symmetry_equiv_pos_as_xyz
  1  'x, y, z'
loop_
 _atom_site_type_symbol
 _atom_site_label
 _atom_site_symmetry_multiplicity
 _atom_site_fract_x
 _atom_site_fract_y
 _atom_site_fract_z
 _atom_site_occupancy
  Ba  Ba0  1  0.63128600  0.13128600  0.50000000  1.0
  Ba  Ba1  1  0.36871400  0.86871400  0.50000000  1.0
  Ba  Ba2  1  0.00000000  0.00000000  0.00000000  1.0
  Li  Li3  1  0.37171697  0.67751742  0.69419956  1.0
  Li  Li4  1  1.01668214  0.32248258  0.69419956  1.0
  Li  Li5  1  0.98331786  0.67751742  1.30580044  1.0
  Li  Li6  1  0.62828303  0.32248258  0.30580044  1.0
  As  As7  1  0.78711931  0.78711931  1.00000000  1.0
  As  As8  1  0.21288069  0.21288069  -0.00000000  1.0
  As  As9  1  0.32608686  0.50000000  0.82608686  1.0
  As  As10  1  0.67391314  0.50000000  1.17391314  1.0
