# generated using pymatgen
data_Bi2WO6
_symmetry_space_group_name_H-M   'P 1'
_cell_length_a   8.88876149
_cell_length_b   8.88876149
_cell_length_c   5.55677964
_cell_angle_alpha   90.00000000
_cell_angle_beta   90.00000000
_cell_angle_gamma   36.73518858
_symmetry_Int_Tables_number   1
_chemical_formula_structural   Bi2WO6
_chemical_formula_sum   'Bi4 W2 O12'
_cell_volume   262.59844733
_cell_formula_units_Z   2
loop_
 _symmetry_equiv_pos_site_id
 _symmetry_equiv_pos_as_xyz
  1  'x, y, z'
loop_
 _atom_site_type_symbol
 _atom_site_label
 _atom_site_symmetry_multiplicity
 _atom_site_fract_x
 _atom_site_fract_y
 _atom_site_fract_z
 _atom_site_occupancy
  Bi  Bi0  1  0.37086126  1.28084319  0.02674383  1.0
  Bi  Bi1  1  0.21915681  1.12913874  0.52674383  1.0
  Bi  Bi2  1  -0.28084319  1.62913874  0.97325617  1.0
  Bi  Bi3  1  -0.12913874  1.78084319  0.47325617  1.0
  W  W4  1  -0.50257287  0.50257287  0.50000000  1.0
  W  W5  1  -0.00257287  0.00257287  0.00000000  1.0
  O  O6  1  0.52564267  0.68400286  0.58792596  1.0
  O  O7  1  0.81599714  0.97435733  1.08792596  1.0
  O  O8  1  0.31599714  1.47435733  0.41207404  1.0
  O  O9  1  0.02564267  1.18400286  -0.08792596  1.0
  O  O10  1  0.22704856  0.81955800  0.24072119  1.0
  O  O11  1  0.68044200  1.27295144  0.74072119  1.0
  O  O12  1  0.18044200  1.77295144  0.75927881  1.0
  O  O13  1  -0.27295144  1.31955800  0.25927881  1.0
  O  O14  1  0.50930774  0.99028331  0.26468690  1.0
  O  O15  1  0.50971669  0.99069226  0.76468690  1.0
  O  O16  1  0.00971669  1.49069226  0.73531310  1.0
  O  O17  1  0.00930774  1.49028331  0.23531310  1.0
