# generated using pymatgen
data_Ba7Mn8V2O10F23
_symmetry_space_group_name_H-M   'P 1'
_cell_length_a   12.59775650
_cell_length_b   12.59775650
_cell_length_c   6.11071343
_cell_angle_alpha   90.00000000
_cell_angle_beta   90.00000000
_cell_angle_gamma   129.32661230
_symmetry_Int_Tables_number   1
_chemical_formula_structural   Ba7Mn8V2O10F23
_chemical_formula_sum   'Ba7 Mn8 V2 O10 F23'
_cell_volume   750.17821360
_cell_formula_units_Z   1
loop_
 _symmetry_equiv_pos_site_id
 _symmetry_equiv_pos_as_xyz
  1  'x, y, z'
loop_
 _atom_site_type_symbol
 _atom_site_label
 _atom_site_symmetry_multiplicity
 _atom_site_fract_x
 _atom_site_fract_y
 _atom_site_fract_z
 _atom_site_occupancy
  Ba  Ba0  1  0.37127982  0.62872018  0.50000000  1.0
  Ba  Ba1  1  -0.37127982  0.37127982  0.50000000  1.0
  Ba  Ba2  1  0.67083313  0.92934505  -0.00000000  1.0
  Ba  Ba3  1  0.32916687  1.07065495  -0.00000000  1.0
  Ba  Ba4  1  -0.07065495  0.67083313  0.00000000  1.0
  Ba  Ba5  1  0.07065495  0.32916687  0.00000000  1.0
  Ba  Ba6  1  0.50000000  0.50000000  0.00000000  1.0
  Mn  Mn7  1  0.28457869  0.71542131  0.00000000  1.0
  Mn  Mn8  1  -0.28457869  0.28457869  0.00000000  1.0
  Mn  Mn9  1  0.50000000  1.00000000  0.50000000  1.0
  Mn  Mn10  1  -0.00000000  0.50000000  0.50000000  1.0
  Mn  Mn11  1  0.00000000  0.00000000  0.26803192  1.0
  Mn  Mn12  1  0.00000000  0.00000000  0.73196808  1.0
  Mn  Mn13  1  0.70212110  0.70212110  0.50000000  1.0
  Mn  Mn14  1  0.29787890  0.29787890  0.50000000  1.0
  V  V15  1  -0.13310202  0.13310202  0.50000000  1.0
  V  V16  1  0.13310202  0.86689798  0.50000000  1.0
  O  O17  1  -0.08777955  0.08777955  0.73611935  1.0
  O  O18  1  0.08777955  0.91222045  0.73611935  1.0
  O  O19  1  0.08777955  0.91222045  0.26388065  1.0
  O  O20  1  -0.08777955  0.08777955  0.26388065  1.0
  O  O21  1  0.69355646  1.04349462  0.50000000  1.0
  O  O22  1  0.30644354  0.95650538  0.50000000  1.0
  O  O23  1  0.04349462  0.69355646  0.50000000  1.0
  O  O24  1  -0.04349462  0.30644354  0.50000000  1.0
  O  O25  1  0.87805606  0.87805606  0.50000000  1.0
  O  O26  1  0.12194394  0.12194394  0.50000000  1.0
  F  F27  1  0.43960688  0.84854897  0.25002617  1.0
  F  F28  1  0.56039312  1.15145103  0.25002617  1.0
  F  F29  1  -0.15145103  0.43960688  0.74997383  1.0
  F  F30  1  0.15145103  0.56039312  0.74997383  1.0
  F  F31  1  0.56039312  1.15145103  0.74997383  1.0
  F  F32  1  0.43960688  0.84854897  0.74997383  1.0
  F  F33  1  0.15145103  0.56039312  0.25002617  1.0
  F  F34  1  -0.15145103  0.43960688  0.25002617  1.0
  F  F35  1  0.19776181  0.80223819  0.00000000  1.0
  F  F36  1  -0.19776181  0.19776181  0.00000000  1.0
  F  F37  1  0.50000000  0.50000000  0.50000000  1.0
  F  F38  1  0.37364676  0.62635324  0.00000000  1.0
  F  F39  1  -0.37364676  0.37364676  0.00000000  1.0
  F  F40  1  0.11904128  0.11904128  0.00000000  1.0
  F  F41  1  0.88095872  0.88095872  0.00000000  1.0
  F  F42  1  0.60411219  0.73045362  0.26476833  1.0
  F  F43  1  0.39588781  1.26954638  0.26476833  1.0
  F  F44  1  -0.26954638  0.60411219  0.73523167  1.0
  F  F45  1  0.26954638  0.39588781  0.73523167  1.0
  F  F46  1  0.39588781  1.26954638  0.73523167  1.0
  F  F47  1  0.60411219  0.73045362  0.73523167  1.0
  F  F48  1  0.26954638  0.39588781  0.26476833  1.0
  F  F49  1  -0.26954638  0.60411219  0.26476833  1.0
