# generated using pymatgen
data_Ga2O3
_symmetry_space_group_name_H-M   'P 1'
_cell_length_a   5.39416687
_cell_length_b   5.39416687
_cell_length_c   5.39416687
_cell_angle_alpha   55.88900635
_cell_angle_beta   55.88900635
_cell_angle_gamma   55.88900635
_symmetry_Int_Tables_number   1
_chemical_formula_structural   Ga2O3
_chemical_formula_sum   'Ga4 O6'
_cell_volume   100.40813216
_cell_formula_units_Z   2
loop_
 _symmetry_equiv_pos_site_id
 _symmetry_equiv_pos_as_xyz
  1  'x, y, z'
loop_
 _atom_site_type_symbol
 _atom_site_label
 _atom_site_symmetry_multiplicity
 _atom_site_fract_x
 _atom_site_fract_y
 _atom_site_fract_z
 _atom_site_occupancy
  Ga  Ga0  1  0.64407094  0.64407094  -0.35592906  1.0
  Ga  Ga1  1  0.35592906  0.35592906  0.35592906  1.0
  Ga  Ga2  1  1.14407094  0.14407094  0.14407094  1.0
  Ga  Ga3  1  0.85592906  -0.14407094  -0.14407094  1.0
  O  O4  1  1.05303598  0.44696402  -0.25000000  1.0
  O  O5  1  1.44696402  -0.25000000  0.05303598  1.0
  O  O6  1  0.75000000  0.05303598  0.44696402  1.0
  O  O7  1  0.94696402  -0.44696402  0.25000000  1.0
  O  O8  1  0.55303598  0.25000000  -0.05303598  1.0
  O  O9  1  0.25000000  0.94696402  -0.44696402  1.0
