# generated using pymatgen
data_Cd2H2SO6
_symmetry_space_group_name_H-M   'P 1'
_cell_length_a   7.10309628
_cell_length_b   7.62337120
_cell_length_c   11.63434048
_cell_angle_alpha   90.00000000
_cell_angle_beta   120.02016561
_cell_angle_gamma   90.00000000
_symmetry_Int_Tables_number   1
_chemical_formula_structural   Cd2H2SO6
_chemical_formula_sum   'Cd8 H8 S4 O24'
_cell_volume   545.48006520
_cell_formula_units_Z   4
loop_
 _symmetry_equiv_pos_site_id
 _symmetry_equiv_pos_as_xyz
  1  'x, y, z'
loop_
 _atom_site_type_symbol
 _atom_site_label
 _atom_site_symmetry_multiplicity
 _atom_site_fract_x
 _atom_site_fract_y
 _atom_site_fract_z
 _atom_site_occupancy
  Cd  Cd0  1  0.65099056  0.03836190  0.16720620  1.0
  Cd  Cd1  1  0.34900944  0.53836190  0.33279380  1.0
  Cd  Cd2  1  0.34900944  0.96163810  0.83279380  1.0
  Cd  Cd3  1  0.65099056  0.46163810  0.66720620  1.0
  Cd  Cd4  1  0.82802618  0.16402424  0.50483352  1.0
  Cd  Cd5  1  0.17197382  0.66402424  0.99516648  1.0
  Cd  Cd6  1  0.17197382  0.83597576  0.49516648  1.0
  Cd  Cd7  1  0.82802618  0.33597576  0.00483352  1.0
  H  H8  1  0.74108867  0.82567588  0.36536811  1.0
  H  H9  1  0.25891133  0.32567588  0.13463189  1.0
  H  H10  1  0.25891133  0.17432412  0.63463189  1.0
  H  H11  1  0.74108867  0.67432412  0.86536811  1.0
  H  H12  1  0.57383767  0.71525437  0.04719710  1.0
  H  H13  1  0.42616233  0.21525437  0.45280290  1.0
  H  H14  1  0.42616233  0.28474563  0.95280290  1.0
  H  H15  1  0.57383767  0.78474563  0.54719710  1.0
  S  S16  1  0.80925980  0.49473889  0.28240223  1.0
  S  S17  1  0.19074020  0.99473889  0.21759777  1.0
  S  S18  1  0.19074020  0.50526111  0.71759777  1.0
  S  S19  1  0.80925980  0.00526111  0.78240223  1.0
  O  O20  1  0.46824845  0.81094780  0.02468400  1.0
  O  O21  1  0.53175155  0.31094780  0.47531600  1.0
  O  O22  1  0.53175155  0.18905220  0.97531600  1.0
  O  O23  1  0.46824845  0.68905220  0.52468400  1.0
  O  O24  1  0.82154133  0.93463165  0.37397161  1.0
  O  O25  1  0.17845867  0.43463165  0.12602839  1.0
  O  O26  1  0.17845867  0.06536835  0.62602839  1.0
  O  O27  1  0.82154133  0.56536835  0.87397161  1.0
  O  O28  1  0.66385004  0.59758011  0.31576432  1.0
  O  O29  1  0.33614996  0.09758011  0.18423568  1.0
  O  O30  1  0.33614996  0.40241989  0.68423568  1.0
  O  O31  1  0.66385004  0.90241989  0.81576432  1.0
  O  O32  1  0.80156810  0.30311583  0.31047883  1.0
  O  O33  1  0.19843190  0.80311583  0.18952117  1.0
  O  O34  1  0.19843190  0.69688417  0.68952117  1.0
  O  O35  1  0.80156810  0.19688417  0.81047883  1.0
  O  O36  1  0.03811988  0.56075678  0.36663025  1.0
  O  O37  1  0.96188012  0.06075678  0.13336975  1.0
  O  O38  1  0.96188012  0.43924322  0.63336975  1.0
  O  O39  1  0.03811988  0.93924322  0.86663025  1.0
  O  O40  1  0.73811743  0.51712779  0.13863008  1.0
  O  O41  1  0.26188257  0.01712779  0.36136992  1.0
  O  O42  1  0.26188257  0.48287221  0.86136992  1.0
  O  O43  1  0.73811743  0.98287221  0.63863008  1.0
