# generated using pymatgen
data_LaGe2Ir
_symmetry_space_group_name_H-M   'P 1'
_cell_length_a   8.95308516
_cell_length_b   8.95308516
_cell_length_c   4.42804549
_cell_angle_alpha   90.00000000
_cell_angle_beta   90.00000000
_cell_angle_gamma   151.54493910
_symmetry_Int_Tables_number   1
_chemical_formula_structural   LaGe2Ir
_chemical_formula_sum   'La2 Ge4 Ir2'
_cell_volume   169.11901928
_cell_formula_units_Z   2
loop_
 _symmetry_equiv_pos_site_id
 _symmetry_equiv_pos_as_xyz
  1  'x, y, z'
loop_
 _atom_site_type_symbol
 _atom_site_label
 _atom_site_symmetry_multiplicity
 _atom_site_fract_x
 _atom_site_fract_y
 _atom_site_fract_z
 _atom_site_occupancy
  La  La0  1  0.39083345  0.60916655  0.75000000  1.0
  La  La1  1  -0.39083345  0.39083345  0.25000000  1.0
  Ge  Ge2  1  0.03962692  0.96037308  0.75000000  1.0
  Ge  Ge3  1  -0.03962692  0.03962692  0.25000000  1.0
  Ge  Ge4  1  -0.24951116  0.24951116  0.75000000  1.0
  Ge  Ge5  1  0.24951116  0.75048884  0.25000000  1.0
  Ir  Ir6  1  0.17942686  0.82057314  0.75000000  1.0
  Ir  Ir7  1  -0.17942686  0.17942686  0.25000000  1.0
