# generated using pymatgen
data_Eu(Ge2Rh3)2
_symmetry_space_group_name_H-M   'P 1'
_cell_length_a   7.22573836
_cell_length_b   7.22573836
_cell_length_c   3.86390979
_cell_angle_alpha   90.00000000
_cell_angle_beta   90.00000000
_cell_angle_gamma   120.00000000
_symmetry_Int_Tables_number   1
_chemical_formula_structural   Eu(Ge2Rh3)2
_chemical_formula_sum   'Eu1 Ge4 Rh6'
_cell_volume   174.71173380
_cell_formula_units_Z   1
loop_
 _symmetry_equiv_pos_site_id
 _symmetry_equiv_pos_as_xyz
  1  'x, y, z'
loop_
 _atom_site_type_symbol
 _atom_site_label
 _atom_site_symmetry_multiplicity
 _atom_site_fract_x
 _atom_site_fract_y
 _atom_site_fract_z
 _atom_site_occupancy
  Eu  Eu0  1  0.00000000  0.00000000  0.00000000  1.0
  Ge  Ge1  1  0.39596972  0.19798486  0.50000000  1.0
  Ge  Ge2  1  0.80201514  0.19798486  0.50000000  1.0
  Ge  Ge3  1  0.80201514  0.60403028  0.50000000  1.0
  Ge  Ge4  1  0.33333333  0.66666667  0.00000000  1.0
  Rh  Rh5  1  0.59853769  0.79926884  0.50000000  1.0
  Rh  Rh6  1  0.20073116  0.79926884  0.50000000  1.0
  Rh  Rh7  1  0.20073116  0.40146231  0.50000000  1.0
  Rh  Rh8  1  0.93310201  0.46655100  0.00000000  1.0
  Rh  Rh9  1  0.53344900  0.46655100  0.00000000  1.0
  Rh  Rh10  1  0.53344900  0.06689799  0.00000000  1.0
