# generated using pymatgen
data_Ge5F12
_symmetry_space_group_name_H-M   'P 1'
_cell_length_a   8.68916446
_cell_length_b   7.91128783
_cell_length_c   8.59939085
_cell_angle_alpha   90.00000000
_cell_angle_beta   92.81573958
_cell_angle_gamma   90.00000000
_symmetry_Int_Tables_number   1
_chemical_formula_structural   Ge5F12
_chemical_formula_sum   'Ge10 F24'
_cell_volume   590.42976356
_cell_formula_units_Z   2
loop_
 _symmetry_equiv_pos_site_id
 _symmetry_equiv_pos_as_xyz
  1  'x, y, z'
loop_
 _atom_site_type_symbol
 _atom_site_label
 _atom_site_symmetry_multiplicity
 _atom_site_fract_x
 _atom_site_fract_y
 _atom_site_fract_z
 _atom_site_occupancy
  Ge  Ge0  1  0.79226171  0.46548745  0.85970457  1.0
  Ge  Ge1  1  0.79226171  0.03451255  0.35970457  1.0
  Ge  Ge2  1  0.20773829  0.96548745  0.64029543  1.0
  Ge  Ge3  1  0.20773829  0.53451255  0.14029543  1.0
  Ge  Ge4  1  0.61551123  0.89414068  0.79859382  1.0
  Ge  Ge5  1  0.61551123  0.60585932  0.29859382  1.0
  Ge  Ge6  1  0.38448877  0.39414068  0.70140618  1.0
  Ge  Ge7  1  0.38448877  0.10585932  0.20140618  1.0
  Ge  Ge8  1  0.00000000  0.00000000  0.00000000  1.0
  Ge  Ge9  1  -0.00000000  0.50000000  0.50000000  1.0
  F  F10  1  0.96078646  0.17082792  0.86760757  1.0
  F  F11  1  0.96078646  0.32917208  0.36760757  1.0
  F  F12  1  0.03921354  0.67082792  0.63239243  1.0
  F  F13  1  0.03921354  0.82917208  0.13239243  1.0
  F  F14  1  0.86221337  0.86600716  0.88511864  1.0
  F  F15  1  0.86221337  0.63399284  0.38511864  1.0
  F  F16  1  0.13778663  0.36600716  0.61488136  1.0
  F  F17  1  0.13778663  0.13399284  0.11488136  1.0
  F  F18  1  0.83896383  0.42450945  0.62022052  1.0
  F  F19  1  0.83896383  0.07549055  0.12022052  1.0
  F  F20  1  0.16103617  0.92450945  0.87977948  1.0
  F  F21  1  0.16103617  0.57549055  0.37977948  1.0
  F  F22  1  0.68106859  0.94251933  0.60370738  1.0
  F  F23  1  0.68106859  0.55748067  0.10370738  1.0
  F  F24  1  0.31893141  0.44251933  0.89629262  1.0
  F  F25  1  0.31893141  0.05748067  0.39629262  1.0
  F  F26  1  0.64822584  0.64857530  0.76790227  1.0
  F  F27  1  0.64822584  0.85142470  0.26790227  1.0
  F  F28  1  0.35177416  0.14857530  0.73209773  1.0
  F  F29  1  0.35177416  0.35142470  0.23209773  1.0
  F  F30  1  0.37595415  0.82135154  0.67371022  1.0
  F  F31  1  0.37595415  0.67864846  0.17371022  1.0
  F  F32  1  0.62404585  0.32135154  0.82628978  1.0
  F  F33  1  0.62404585  0.17864846  0.32628978  1.0
