# generated using pymatgen
data_RbIn(PO4)2
_symmetry_space_group_name_H-M   'P 1'
_cell_length_a   9.96740179
_cell_length_b   8.75541434
_cell_length_c   9.78209480
_cell_angle_alpha   90.00000000
_cell_angle_beta   117.40681303
_cell_angle_gamma   90.00000000
_symmetry_Int_Tables_number   1
_chemical_formula_structural   RbIn(PO4)2
_chemical_formula_sum   'Rb4 In4 P8 O32'
_cell_volume   757.85554092
_cell_formula_units_Z   4
loop_
 _symmetry_equiv_pos_site_id
 _symmetry_equiv_pos_as_xyz
  1  'x, y, z'
loop_
 _atom_site_type_symbol
 _atom_site_label
 _atom_site_symmetry_multiplicity
 _atom_site_fract_x
 _atom_site_fract_y
 _atom_site_fract_z
 _atom_site_occupancy
  In  In0  1  0.74361480  0.37363637  0.50482235  1.0
  In  In1  1  0.25638520  0.87363637  0.99517765  1.0
  In  In2  1  0.25638520  0.62636363  0.49517765  1.0
  In  In3  1  0.74361480  0.12636363  0.00482235  1.0
  O  O4  1  0.63820029  0.41104885  0.65183287  1.0
  O  O5  1  0.36179971  0.91104885  0.84816713  1.0
  O  O6  1  0.36179971  0.58895115  0.34816713  1.0
  O  O7  1  0.63820029  0.08895115  0.15183287  1.0
  O  O8  1  0.86093356  0.33376887  0.11465132  1.0
  O  O9  1  0.13906644  0.83376887  0.38534868  1.0
  O  O10  1  0.13906644  0.66623113  0.88534868  1.0
  O  O11  1  0.86093356  0.16623113  0.61465132  1.0
  O  O12  1  0.87710163  0.35264560  0.38343013  1.0
  O  O13  1  0.12289837  0.85264560  0.11656987  1.0
  O  O14  1  0.12289837  0.64735440  0.61656987  1.0
  O  O15  1  0.87710163  0.14735440  0.88343013  1.0
  O  O16  1  0.47416608  0.33443505  0.08544487  1.0
  O  O17  1  0.52583392  0.83443505  0.41455513  1.0
  O  O18  1  0.52583392  0.66556495  0.91455513  1.0
  O  O19  1  0.47416608  0.16556495  0.58544487  1.0
  O  O20  1  0.15836484  0.40259972  0.78321240  1.0
  O  O21  1  0.84163516  0.90259972  0.71678760  1.0
  O  O22  1  0.84163516  0.59740028  0.21678760  1.0
  O  O23  1  0.15836484  0.09740028  0.28321240  1.0
  O  O24  1  0.55969509  0.26536082  0.83447582  1.0
  O  O25  1  0.44030491  0.76536082  0.66552418  1.0
  O  O26  1  0.44030491  0.73463918  0.16552418  1.0
  O  O27  1  0.55969509  0.23463918  0.33447582  1.0
  O  O28  1  0.07793394  0.47617885  0.32221136  1.0
  O  O29  1  0.92206606  0.97617885  0.17778864  1.0
  O  O30  1  0.92206606  0.52382115  0.67778864  1.0
  O  O31  1  0.07793394  0.02382115  0.82221136  1.0
  O  O32  1  0.36543219  0.41993934  0.61525575  1.0
  O  O33  1  0.63456781  0.91993934  0.88474425  1.0
  O  O34  1  0.63456781  0.58006066  0.38474425  1.0
  O  O35  1  0.36543219  0.08006066  0.11525575  1.0
  Rb  Rb36  1  0.82063697  0.64642482  0.89975471  1.0
  Rb  Rb37  1  0.17936303  0.14642482  0.60024529  1.0
  Rb  Rb38  1  0.17936303  0.35357518  0.10024529  1.0
  Rb  Rb39  1  0.82063697  0.85357518  0.39975471  1.0
  P  P40  1  0.51104743  0.32495968  0.66709458  1.0
  P  P41  1  0.48895257  0.82495968  0.83290542  1.0
  P  P42  1  0.48895257  0.67504032  0.33290542  1.0
  P  P43  1  0.51104743  0.17504032  0.16709458  1.0
  P  P44  1  0.90704604  0.43202595  0.26050221  1.0
  P  P45  1  0.09295396  0.93202595  0.23949779  1.0
  P  P46  1  0.09295396  0.56797405  0.73949779  1.0
  P  P47  1  0.90704604  0.06797405  0.76050221  1.0
