# generated using pymatgen
data_SrLiAlF6
_symmetry_space_group_name_H-M   'P 1'
_cell_length_a   5.15940244
_cell_length_b   5.15940244
_cell_length_c   10.35447501
_cell_angle_alpha   90.00000000
_cell_angle_beta   90.00000000
_cell_angle_gamma   120.00000000
_symmetry_Int_Tables_number   1
_chemical_formula_structural   SrLiAlF6
_chemical_formula_sum   'Sr2 Li2 Al2 F12'
_cell_volume   238.70280668
_cell_formula_units_Z   2
loop_
 _symmetry_equiv_pos_site_id
 _symmetry_equiv_pos_as_xyz
  1  'x, y, z'
loop_
 _atom_site_type_symbol
 _atom_site_label
 _atom_site_symmetry_multiplicity
 _atom_site_fract_x
 _atom_site_fract_y
 _atom_site_fract_z
 _atom_site_occupancy
  Sr  Sr0  1  0.00000000  0.00000000  0.00000000  1.0
  Sr  Sr1  1  0.00000000  -0.00000000  0.50000000  1.0
  Li  Li2  1  0.66666667  0.33333333  0.25000000  1.0
  Li  Li3  1  0.33333333  0.66666667  0.75000000  1.0
  Al  Al4  1  0.33333333  0.66666667  0.25000000  1.0
  Al  Al5  1  0.66666667  0.33333333  0.75000000  1.0
  F  F6  1  0.35445703  0.96875079  0.14856980  1.0
  F  F7  1  0.35445703  0.38570624  0.35143020  1.0
  F  F8  1  0.96875079  0.35445703  0.64856980  1.0
  F  F9  1  0.96875079  0.61429376  0.85143020  1.0
  F  F10  1  0.61429376  0.96875079  0.35143020  1.0
  F  F11  1  0.61429376  0.64554297  0.14856980  1.0
  F  F12  1  0.03124921  0.64554297  0.35143020  1.0
  F  F13  1  0.03124921  0.38570624  0.14856980  1.0
  F  F14  1  0.64554297  0.61429376  0.64856980  1.0
  F  F15  1  0.64554297  0.03124921  0.85143020  1.0
  F  F16  1  0.38570624  0.35445703  0.85143020  1.0
  F  F17  1  0.38570624  0.03124921  0.64856980  1.0
