# generated using pymatgen
data_W3O10
_symmetry_space_group_name_H-M   'P 1'
_cell_length_a   7.51262409
_cell_length_b   5.40488130
_cell_length_c   7.39415989
_cell_angle_alpha   69.91648143
_cell_angle_beta   42.50798415
_cell_angle_gamma   67.57553443
_symmetry_Int_Tables_number   1
_chemical_formula_structural   W3O10
_chemical_formula_sum   'W3 O10'
_cell_volume   186.59728405
_cell_formula_units_Z   1
loop_
 _symmetry_equiv_pos_site_id
 _symmetry_equiv_pos_as_xyz
  1  'x, y, z'
loop_
 _atom_site_type_symbol
 _atom_site_label
 _atom_site_symmetry_multiplicity
 _atom_site_fract_x
 _atom_site_fract_y
 _atom_site_fract_z
 _atom_site_occupancy
  W  W0  1  0.04267181  0.04267181  0.45732819  1.0
  W  W1  1  0.54267181  0.54267181  -0.04267181  1.0
  W  W2  1  0.02102344  0.02102344  -0.02102344  1.0
  O  O3  1  0.13735313  -0.00464317  0.64856881  1.0
  O  O4  1  0.35143119  0.78127877  -0.13735313  1.0
  O  O5  1  0.78127877  0.35143119  0.00464317  1.0
  O  O6  1  -0.00464317  0.13735313  0.21872123  1.0
  O  O7  1  -0.21817147  0.35393107  0.64606893  1.0
  O  O8  1  0.35393107  -0.21817147  0.21817147  1.0
  O  O9  1  0.31573690  0.31573690  0.18426310  1.0
  O  O10  1  0.81573690  0.81573690  -0.31573690  1.0
  O  O11  1  -0.19724945  0.80275055  0.19724945  1.0
  O  O12  1  0.30822906  1.30822906  -0.30822906  1.0
