# generated using pymatgen
data_H4C2NO2
_symmetry_space_group_name_H-M   'P 1'
_cell_length_a   6.62264711
_cell_length_b   6.62264711
_cell_length_c   4.60957297
_cell_angle_alpha   78.79775939
_cell_angle_beta   101.20224061
_cell_angle_gamma   73.62429470
_symmetry_Int_Tables_number   1
_chemical_formula_structural   H4C2NO2
_chemical_formula_sum   'H8 C4 N2 O4'
_cell_volume   183.49363265
_cell_formula_units_Z   2
loop_
 _symmetry_equiv_pos_site_id
 _symmetry_equiv_pos_as_xyz
  1  'x, y, z'
loop_
 _atom_site_type_symbol
 _atom_site_label
 _atom_site_symmetry_multiplicity
 _atom_site_fract_x
 _atom_site_fract_y
 _atom_site_fract_z
 _atom_site_occupancy
  H  H0  1  0.77910181  -0.09390442  0.62182596  1.0
  H  H1  1  1.09390442  0.22089819  0.62182596  1.0
  H  H2  1  0.90609558  -0.22089819  0.37817404  1.0
  H  H3  1  1.22089819  0.09390442  0.37817404  1.0
  H  H4  1  1.36630237  0.17377827  0.64867511  1.0
  H  H5  1  0.82622173  -0.36630237  0.64867511  1.0
  H  H6  1  1.17377827  0.36630237  0.35132489  1.0
  H  H7  1  0.63369763  -0.17377827  0.35132489  1.0
  C  C8  1  0.71470230  -0.71470230  0.83638608  1.0
  C  C9  1  0.28529770  -0.28529770  0.16361392  1.0
  C  C10  1  0.56339871  -0.56339871  0.95301617  1.0
  C  C11  1  0.43660129  -0.43660129  0.04698383  1.0
  N  N12  1  0.78761511  -0.21238489  0.50000000  1.0
  N  N13  1  1.21238489  0.21238489  0.50000000  1.0
  O  O14  1  1.66562953  0.12022983  0.79116041  1.0
  O  O15  1  0.87977017  -0.66562953  0.79116041  1.0
  O  O16  1  1.12022983  0.66562953  0.20883959  1.0
  O  O17  1  0.33437047  -0.12022983  0.20883959  1.0
