# generated using pymatgen
data_Na5Li3(TiS4)2
_symmetry_space_group_name_H-M   'P 1'
_cell_length_a   10.11949090
_cell_length_b   10.11949090
_cell_length_c   12.19113319
_cell_angle_alpha   52.89744213
_cell_angle_beta   127.10255787
_cell_angle_gamma   122.60802851
_symmetry_Int_Tables_number   1
_chemical_formula_structural   Na5Li3(TiS4)2
_chemical_formula_sum   'Na10 Li6 Ti4 S16'
_cell_volume   763.47868984
_cell_formula_units_Z   2
loop_
 _symmetry_equiv_pos_site_id
 _symmetry_equiv_pos_as_xyz
  1  'x, y, z'
loop_
 _atom_site_type_symbol
 _atom_site_label
 _atom_site_symmetry_multiplicity
 _atom_site_fract_x
 _atom_site_fract_y
 _atom_site_fract_z
 _atom_site_occupancy
  Na  Na0  1  1.88655709  0.08500015  0.53470244  1.0
  Na  Na1  1  0.91499985  -0.88655709  0.03470244  1.0
  Na  Na2  1  1.08500015  0.88655709  0.96529756  1.0
  Na  Na3  1  0.11344291  -0.08500015  0.46529756  1.0
  Na  Na4  1  0.40213733  0.10533524  0.77862726  1.0
  Na  Na5  1  0.89466476  -0.40213733  0.27862726  1.0
  Na  Na6  1  1.10533524  0.40213733  0.72137274  1.0
  Na  Na7  1  1.59786267  -0.10533524  0.22137274  1.0
  Na  Na8  1  0.50941061  0.50941061  0.75000000  1.0
  Na  Na9  1  0.49058939  0.49058939  0.25000000  1.0
  Li  Li10  1  0.69034021  0.30588445  0.62730069  1.0
  Li  Li11  1  0.69411555  -0.69034021  0.12730069  1.0
  Li  Li12  1  1.30588445  0.69034021  0.87269931  1.0
  Li  Li13  1  1.30965979  -0.30588445  0.37269931  1.0
  Li  Li14  1  1.50000000  -0.00000000  0.50000000  1.0
  Li  Li15  1  1.00000000  0.50000000  -0.00000000  1.0
  Ti  Ti16  1  0.65041125  -0.18038722  0.86461157  1.0
  Ti  Ti17  1  1.18038722  -0.65041125  0.36461157  1.0
  Ti  Ti18  1  0.81961278  0.65041125  0.63538843  1.0
  Ti  Ti19  1  1.34958875  0.18038722  0.13538843  1.0
  S  S20  1  1.61860257  -0.21221324  0.50485583  1.0
  S  S21  1  1.21221324  -0.61860257  0.00485583  1.0
  S  S22  1  0.78778676  0.61860257  0.99514417  1.0
  S  S23  1  0.38139743  0.21221324  0.49514417  1.0
  S  S24  1  0.81443265  0.07487004  0.74885616  1.0
  S  S25  1  0.92512996  -0.81443265  0.24885616  1.0
  S  S26  1  1.07487004  0.81443265  0.75114384  1.0
  S  S27  1  1.18556735  -0.07487004  0.25114384  1.0
  S  S28  1  0.38445846  -0.25654765  0.69170406  1.0
  S  S29  1  1.25654765  -0.38445846  0.19170406  1.0
  S  S30  1  0.74345235  0.38445846  0.80829594  1.0
  S  S31  1  1.61554154  0.25654765  0.30829594  1.0
  S  S32  1  0.39637447  0.16538044  0.98183544  1.0
  S  S33  1  0.83461956  0.60362553  0.48183544  1.0
  S  S34  1  1.16538044  -0.60362553  0.51816456  1.0
  S  S35  1  1.60362553  -0.16538044  0.01816456  1.0
