# generated using pymatgen
data_Na2Co(Si2O5)2
_symmetry_space_group_name_H-M   'P 1'
_cell_length_a   7.01957018
_cell_length_b   9.86527546
_cell_length_c   8.08061629
_cell_angle_alpha   67.01538436
_cell_angle_beta   62.50041307
_cell_angle_gamma   78.07008736
_symmetry_Int_Tables_number   1
_chemical_formula_structural   Na2Co(Si2O5)2
_chemical_formula_sum   'Na4 Co2 Si8 O20'
_cell_volume   456.71266021
_cell_formula_units_Z   2
loop_
 _symmetry_equiv_pos_site_id
 _symmetry_equiv_pos_as_xyz
  1  'x, y, z'
loop_
 _atom_site_type_symbol
 _atom_site_label
 _atom_site_symmetry_multiplicity
 _atom_site_fract_x
 _atom_site_fract_y
 _atom_site_fract_z
 _atom_site_occupancy
  Na  Na0  1  -0.11414344  -0.98977937  0.27125666  1.0
  Na  Na1  1  0.11414344  -0.01022063  0.72874334  1.0
  Na  Na2  1  0.53773325  -0.57799906  0.22479676  1.0
  Na  Na3  1  -0.53773325  -0.42200094  0.77520324  1.0
  Co  Co4  1  -0.06476514  -0.41670860  0.80518246  1.0
  Co  Co5  1  0.06476514  -0.58329140  0.19481754  1.0
  Si  Si6  1  -0.76087739  -0.74155160  0.87715420  1.0
  Si  Si7  1  0.76087739  -0.25844840  0.12284580  1.0
  Si  Si8  1  -0.30756147  -0.79958726  0.57513743  1.0
  Si  Si9  1  0.30756147  -0.20041274  0.42486257  1.0
  Si  Si10  1  0.37590384  -0.86361883  0.21553917  1.0
  Si  Si11  1  -0.37590384  -0.13638117  0.78446083  1.0
  Si  Si12  1  -0.19194600  -0.75110975  0.88341014  1.0
  Si  Si13  1  0.19194600  -0.24889025  0.11658986  1.0
  O  O14  1  -0.24125735  -0.58042810  0.85666464  1.0
  O  O15  1  0.24125735  -0.41957190  0.14333536  1.0
  O  O16  1  0.04617909  -0.81701225  0.88159225  1.0
  O  O17  1  -0.04617909  -0.18298775  0.11840775  1.0
  O  O18  1  -0.27085300  -0.26998288  0.70337388  1.0
  O  O19  1  0.27085300  -0.73001712  0.29662612  1.0
  O  O20  1  0.18929806  -0.19831805  0.28928302  1.0
  O  O21  1  -0.18929806  -0.80168195  0.71071698  1.0
  O  O22  1  -0.31793497  -0.97495676  0.60215207  1.0
  O  O23  1  0.31793497  -0.02504324  0.39784793  1.0
  O  O24  1  -0.55395354  -0.72994546  0.66310559  1.0
  O  O25  1  0.55395354  -0.27005454  0.33689441  1.0
  O  O26  1  -0.18604126  -0.71343941  0.34286314  1.0
  O  O27  1  0.18604126  -0.28656059  0.65713686  1.0
  O  O28  1  -0.82896435  -0.58496896  0.90959123  1.0
  O  O29  1  0.82896435  -0.41503104  0.09040877  1.0
  O  O30  1  0.29239563  -0.86940721  0.05760781  1.0
  O  O31  1  -0.29239563  -0.13059279  0.94239219  1.0
  O  O32  1  0.64287733  -0.85927764  0.10422825  1.0
  O  O33  1  -0.64287733  -0.14072236  0.89577175  1.0
