# generated using pymatgen
data_CeB2Ru
_symmetry_space_group_name_H-M   'P 1'
_cell_length_a   5.92231211
_cell_length_b   5.38299653
_cell_length_c   6.46861017
_cell_angle_alpha   90.00000000
_cell_angle_beta   90.00000000
_cell_angle_gamma   90.00000000
_symmetry_Int_Tables_number   1
_chemical_formula_structural   CeB2Ru
_chemical_formula_sum   'Ce4 B8 Ru4'
_cell_volume   206.21790499
_cell_formula_units_Z   4
loop_
 _symmetry_equiv_pos_site_id
 _symmetry_equiv_pos_as_xyz
  1  'x, y, z'
loop_
 _atom_site_type_symbol
 _atom_site_label
 _atom_site_symmetry_multiplicity
 _atom_site_fract_x
 _atom_site_fract_y
 _atom_site_fract_z
 _atom_site_occupancy
  Ce  Ce0  1  1.00047426  0.75000000  0.65536998  1.0
  Ce  Ce1  1  0.50047426  0.75000000  0.84463002  1.0
  Ce  Ce2  1  -0.00047426  0.25000000  0.34463002  1.0
  Ce  Ce3  1  0.49952574  0.25000000  0.15536998  1.0
  B  B4  1  0.62233145  0.91056888  0.46189312  1.0
  B  B5  1  0.62233145  0.58943112  0.46189312  1.0
  B  B6  1  0.12233145  0.91056888  0.03810688  1.0
  B  B7  1  0.12233145  0.58943112  0.03810688  1.0
  B  B8  1  0.37766855  0.41056888  0.53810688  1.0
  B  B9  1  0.37766855  0.08943112  0.53810688  1.0
  B  B10  1  0.87766855  0.41056888  0.96189312  1.0
  B  B11  1  0.87766855  0.08943112  0.96189312  1.0
  Ru  Ru12  1  0.80916875  0.75000000  0.18427063  1.0
  Ru  Ru13  1  0.30916875  0.75000000  0.31572937  1.0
  Ru  Ru14  1  0.19083125  0.25000000  0.81572937  1.0
  Ru  Ru15  1  0.69083125  0.25000000  0.68427063  1.0
