# generated using pymatgen
data_HfSO6
_symmetry_space_group_name_H-M   'P 1'
_cell_length_a   11.47896397
_cell_length_b   5.66303799
_cell_length_c   6.89190115
_cell_angle_alpha   90.00000000
_cell_angle_beta   90.00000000
_cell_angle_gamma   90.00000000
_symmetry_Int_Tables_number   1
_chemical_formula_structural   HfSO6
_chemical_formula_sum   'Hf4 S4 O24'
_cell_volume   448.01360983
_cell_formula_units_Z   4
loop_
 _symmetry_equiv_pos_site_id
 _symmetry_equiv_pos_as_xyz
  1  'x, y, z'
loop_
 _atom_site_type_symbol
 _atom_site_label
 _atom_site_symmetry_multiplicity
 _atom_site_fract_x
 _atom_site_fract_y
 _atom_site_fract_z
 _atom_site_occupancy
  Hf  Hf0  1  0.06929114  0.75000000  0.66476054  1.0
  Hf  Hf1  1  0.56929114  0.75000000  0.83523946  1.0
  Hf  Hf2  1  0.93070886  0.25000000  0.33523946  1.0
  Hf  Hf3  1  0.43070886  0.25000000  0.16476054  1.0
  S  S4  1  0.85498293  0.75000000  0.04421692  1.0
  S  S5  1  0.35498293  0.75000000  0.45578308  1.0
  S  S6  1  0.14501707  0.25000000  0.95578308  1.0
  S  S7  1  0.64501707  0.25000000  0.54421692  1.0
  O  O8  1  0.14596821  0.46423303  0.83173215  1.0
  O  O9  1  0.14596821  0.03576697  0.83173215  1.0
  O  O10  1  0.64596821  0.46423303  0.66826785  1.0
  O  O11  1  0.64596821  0.03576697  0.66826785  1.0
  O  O12  1  0.85403179  0.96423303  0.16826785  1.0
  O  O13  1  0.85403179  0.53576697  0.16826785  1.0
  O  O14  1  0.35403179  0.96423303  0.33173215  1.0
  O  O15  1  0.35403179  0.53576697  0.33173215  1.0
  O  O16  1  0.46006473  0.75000000  0.58082174  1.0
  O  O17  1  0.96006473  0.75000000  0.91917826  1.0
  O  O18  1  0.53993527  0.25000000  0.41917826  1.0
  O  O19  1  0.03993527  0.25000000  0.08082174  1.0
  O  O20  1  0.44630113  0.49959932  0.93540012  1.0
  O  O21  1  0.44630113  0.00040068  0.93540012  1.0
  O  O22  1  0.94630113  0.49959932  0.56459988  1.0
  O  O23  1  0.94630113  0.00040068  0.56459988  1.0
  O  O24  1  0.55369887  0.99959932  0.06459988  1.0
  O  O25  1  0.55369887  0.50040068  0.06459988  1.0
  O  O26  1  0.05369887  0.99959932  0.43540012  1.0
  O  O27  1  0.05369887  0.50040068  0.43540012  1.0
  O  O28  1  0.24964731  0.75000000  0.57872609  1.0
  O  O29  1  0.74964731  0.75000000  0.92127391  1.0
  O  O30  1  0.75035269  0.25000000  0.42127391  1.0
  O  O31  1  0.25035269  0.25000000  0.07872609  1.0
