# generated using pymatgen
data_Ca2MnGaO5
_symmetry_space_group_name_H-M   'P 1'
_cell_length_a   5.38024867
_cell_length_b   14.96094177
_cell_length_c   5.59817279
_cell_angle_alpha   90.00000000
_cell_angle_beta   90.00000000
_cell_angle_gamma   90.00000000
_symmetry_Int_Tables_number   1
_chemical_formula_structural   Ca2MnGaO5
_chemical_formula_sum   'Ca8 Mn4 Ga4 O20'
_cell_volume   450.61700876
_cell_formula_units_Z   4
loop_
 _symmetry_equiv_pos_site_id
 _symmetry_equiv_pos_as_xyz
  1  'x, y, z'
loop_
 _atom_site_type_symbol
 _atom_site_label
 _atom_site_symmetry_multiplicity
 _atom_site_fract_x
 _atom_site_fract_y
 _atom_site_fract_z
 _atom_site_occupancy
  Ca  Ca0  1  0.47979231  0.39107955  0.02613058  1.0
  Ca  Ca1  1  0.47979231  0.10892045  0.02613058  1.0
  Ca  Ca2  1  0.97979231  0.39107955  0.47386942  1.0
  Ca  Ca3  1  0.97979231  0.10892045  0.47386942  1.0
  Ca  Ca4  1  0.52020769  0.89107955  0.97386942  1.0
  Ca  Ca5  1  0.52020769  0.60892045  0.97386942  1.0
  Ca  Ca6  1  0.02020769  0.89107955  0.52613058  1.0
  Ca  Ca7  1  0.02020769  0.60892045  0.52613058  1.0
  Mn  Mn8  1  0.50000000  0.50000000  0.50000000  1.0
  Mn  Mn9  1  0.50000000  0.00000000  0.50000000  1.0
  Mn  Mn10  1  0.00000000  0.50000000  0.00000000  1.0
  Mn  Mn11  1  0.00000000  0.00000000  0.00000000  1.0
  Ga  Ga12  1  0.45359322  0.25000000  0.56656034  1.0
  Ga  Ga13  1  0.95359322  0.25000000  0.93343966  1.0
  Ga  Ga14  1  0.54640678  0.75000000  0.43343966  1.0
  Ga  Ga15  1  0.04640678  0.75000000  0.06656034  1.0
  O  O16  1  0.46461370  0.85738896  0.57413787  1.0
  O  O17  1  0.46461370  0.64261104  0.57413787  1.0
  O  O18  1  0.96461370  0.85738896  0.92586213  1.0
  O  O19  1  0.96461370  0.64261104  0.92586213  1.0
  O  O20  1  0.53538630  0.35738896  0.42586213  1.0
  O  O21  1  0.53538630  0.14261104  0.42586213  1.0
  O  O22  1  0.03538630  0.35738896  0.07413787  1.0
  O  O23  1  0.03538630  0.14261104  0.07413787  1.0
  O  O24  1  0.23571791  0.48524470  0.73414290  1.0
  O  O25  1  0.23571791  0.01475530  0.73414290  1.0
  O  O26  1  0.73571791  0.48524470  0.76585710  1.0
  O  O27  1  0.73571791  0.01475530  0.76585710  1.0
  O  O28  1  0.76428209  0.98524470  0.26585710  1.0
  O  O29  1  0.76428209  0.51475530  0.26585710  1.0
  O  O30  1  0.26428209  0.98524470  0.23414290  1.0
  O  O31  1  0.26428209  0.51475530  0.23414290  1.0
  O  O32  1  0.10048999  0.25000000  0.62188871  1.0
  O  O33  1  0.60048999  0.25000000  0.87811129  1.0
  O  O34  1  0.89951001  0.75000000  0.37811129  1.0
  O  O35  1  0.39951001  0.75000000  0.12188871  1.0
