# generated using pymatgen
data_RbC(N2O)2
_symmetry_space_group_name_H-M   'P 1'
_cell_length_a   7.45717334
_cell_length_b   7.45717334
_cell_length_c   9.82684017
_cell_angle_alpha   75.77379271
_cell_angle_beta   104.22620729
_cell_angle_gamma   77.59020632
_symmetry_Int_Tables_number   1
_chemical_formula_structural   RbC(N2O)2
_chemical_formula_sum   'Rb4 C4 N16 O8'
_cell_volume   490.92902238
_cell_formula_units_Z   4
loop_
 _symmetry_equiv_pos_site_id
 _symmetry_equiv_pos_as_xyz
  1  'x, y, z'
loop_
 _atom_site_type_symbol
 _atom_site_label
 _atom_site_symmetry_multiplicity
 _atom_site_fract_x
 _atom_site_fract_y
 _atom_site_fract_z
 _atom_site_occupancy
  Rb  Rb0  1  1.04545635  0.04545635  0.75000000  1.0
  Rb  Rb1  1  0.95454365  -0.04545635  0.25000000  1.0
  Rb  Rb2  1  1.45811977  0.45811977  0.75000000  1.0
  Rb  Rb3  1  0.54188023  -0.45811977  0.25000000  1.0
  C  C4  1  0.83301755  -0.36708845  0.95369145  1.0
  C  C5  1  0.63291155  -0.16698245  0.54630855  1.0
  C  C6  1  1.16698245  0.36708845  0.04630855  1.0
  C  C7  1  1.36708845  0.16698245  0.45369145  1.0
  N  N8  1  0.61564308  -0.05781231  0.87429998  1.0
  N  N9  1  0.94218769  -0.38435692  0.62570002  1.0
  N  N10  1  1.38435692  0.05781231  0.12570002  1.0
  N  N11  1  1.05781231  0.38435692  0.37429998  1.0
  N  N12  1  1.15749314  0.55397298  0.98140123  1.0
  N  N13  1  1.55397298  0.15749314  0.51859877  1.0
  N  N14  1  0.84250686  -0.55397298  0.01859877  1.0
  N  N15  1  0.44602702  -0.15749314  0.48140123  1.0
  N  N16  1  0.99024105  -0.31243245  0.93481782  1.0
  N  N17  1  0.68756755  -0.00975895  0.56518218  1.0
  N  N18  1  1.00975895  0.31243245  0.06518218  1.0
  N  N19  1  1.31243245  0.00975895  0.43481782  1.0
  N  N20  1  0.64679496  -0.24692172  0.89967685  1.0
  N  N21  1  0.75307828  -0.35320504  0.60032315  1.0
  N  N22  1  1.35320504  0.24692172  0.10032315  1.0
  N  N23  1  1.24692172  0.35320504  0.39967685  1.0
  O  O24  1  1.44357826  0.04615508  0.80399241  1.0
  O  O25  1  1.04615508  0.44357826  0.69600759  1.0
  O  O26  1  0.55642174  -0.04615508  0.19600759  1.0
  O  O27  1  0.95384492  -0.44357826  0.30399241  1.0
  O  O28  1  1.74377664  0.01952330  0.91908714  1.0
  O  O29  1  1.01952330  0.74377664  0.58091286  1.0
  O  O30  1  0.25622336  -0.01952330  0.08091286  1.0
  O  O31  1  0.98047670  -0.74377664  0.41908714  1.0
