# generated using pymatgen
data_CdH6C(IN)3
_symmetry_space_group_name_H-M   'P 1'
_cell_length_a   9.19947477
_cell_length_b   9.19947477
_cell_length_c   8.48154115
_cell_angle_alpha   84.65833882
_cell_angle_beta   95.34166118
_cell_angle_gamma   62.69628222
_symmetry_Int_Tables_number   1
_chemical_formula_structural   CdH6C(IN)3
_chemical_formula_sum   'Cd2 H12 C2 I6 N6'
_cell_volume   627.52899754
_cell_formula_units_Z   2
loop_
 _symmetry_equiv_pos_site_id
 _symmetry_equiv_pos_as_xyz
  1  'x, y, z'
loop_
 _atom_site_type_symbol
 _atom_site_label
 _atom_site_symmetry_multiplicity
 _atom_site_fract_x
 _atom_site_fract_y
 _atom_site_fract_z
 _atom_site_occupancy
  Cd  Cd0  1  0.97786413  -0.07143780  0.50526501  1.0
  Cd  Cd1  1  0.07143780  0.02213587  0.00526501  1.0
  H  H2  1  0.71767007  -0.33407591  0.83560479  1.0
  H  H3  1  0.33407591  0.28232993  0.33560479  1.0
  H  H4  1  0.92794999  -0.34269920  0.03394410  1.0
  H  H5  1  0.34269920  0.07205001  0.53394410  1.0
  H  H6  1  1.33479353  -0.54215902  0.39718423  1.0
  H  H7  1  0.54215902  -0.33479353  0.89718423  1.0
  H  H8  1  1.33151066  -0.50570774  0.66564578  1.0
  H  H9  1  0.50570774  -0.33151066  0.16564578  1.0
  H  H10  1  0.33095631  0.34273189  0.80634958  1.0
  H  H11  1  0.65726811  -0.33095631  0.30634958  1.0
  H  H12  1  0.34013026  0.10733428  0.73196214  1.0
  H  H13  1  0.89266572  -0.34013026  0.23196214  1.0
  C  C14  1  0.34294690  0.28959149  0.57832261  1.0
  C  C15  1  0.71040851  -0.34294690  0.07832261  1.0
  I  I16  1  0.86041132  -0.30135226  0.56276601  1.0
  I  I17  1  0.30135226  0.13958868  0.06276601  1.0
  I  I18  1  1.22954237  -0.32305081  0.01154588  1.0
  I  I19  1  0.32305081  -0.22954237  0.51154588  1.0
  I  I20  1  0.87455469  -0.81327887  0.69678270  1.0
  I  I21  1  0.81327887  0.12544531  0.19678270  1.0
  N  N22  1  0.65518486  -0.34196155  0.92632091  1.0
  N  N23  1  0.34196155  0.34481514  0.42632091  1.0
  N  N24  1  0.34503681  0.37805625  0.69385767  1.0
  N  N25  1  0.62194375  -0.34503681  0.19385767  1.0
  N  N26  1  0.34581923  0.14398040  0.61674861  1.0
  N  N27  1  0.85601960  -0.34581923  0.11674861  1.0
