# generated using pymatgen
data_Al2TeSO9
_symmetry_space_group_name_H-M   'P 1'
_cell_length_a   5.11173324
_cell_length_b   9.32768586
_cell_length_c   6.94791307
_cell_angle_alpha   90.00000000
_cell_angle_beta   83.79393352
_cell_angle_gamma   90.00000000
_symmetry_Int_Tables_number   1
_chemical_formula_structural   Al2TeSO9
_chemical_formula_sum   'Al4 Te2 S2 O18'
_cell_volume   329.33949038
_cell_formula_units_Z   2
loop_
 _symmetry_equiv_pos_site_id
 _symmetry_equiv_pos_as_xyz
  1  'x, y, z'
loop_
 _atom_site_type_symbol
 _atom_site_label
 _atom_site_symmetry_multiplicity
 _atom_site_fract_x
 _atom_site_fract_y
 _atom_site_fract_z
 _atom_site_occupancy
  O  O0  1  0.94019448  0.89230343  0.93869604  1.0
  O  O1  1  0.94019448  0.60769657  0.93869604  1.0
  O  O2  1  0.05980552  0.39230343  0.06130396  1.0
  O  O3  1  0.05980552  0.10769657  0.06130396  1.0
  O  O4  1  0.93977709  0.38173603  0.67721278  1.0
  O  O5  1  0.93977709  0.11826397  0.67721278  1.0
  O  O6  1  0.06022291  0.88173603  0.32278722  1.0
  O  O7  1  0.06022291  0.61826397  0.32278722  1.0
  O  O8  1  0.74162440  0.25000000  0.41995214  1.0
  O  O9  1  0.25837560  0.75000000  0.58004786  1.0
  O  O10  1  0.58735722  0.25000000  0.90823723  1.0
  O  O11  1  0.41264278  0.75000000  0.09176277  1.0
  O  O12  1  0.49436006  0.94005573  0.83563277  1.0
  O  O13  1  0.49436006  0.55994427  0.83563277  1.0
  O  O14  1  0.50563994  0.44005573  0.16436723  1.0
  O  O15  1  0.50563994  0.05994427  0.16436723  1.0
  O  O16  1  0.21998897  0.25000000  0.44039586  1.0
  O  O17  1  0.78001103  0.75000000  0.55960414  1.0
  Al  Al18  1  0.75904360  0.42988480  0.92396077  1.0
  Al  Al19  1  0.75904360  0.07011520  0.92396077  1.0
  Al  Al20  1  0.24095640  0.92988480  0.07603923  1.0
  Al  Al21  1  0.24095640  0.57011520  0.07603923  1.0
  S  S22  1  0.93569617  0.25000000  0.55374287  1.0
  S  S23  1  0.06430383  0.75000000  0.44625713  1.0
  Te  Te24  1  0.31563867  0.25000000  0.14253450  1.0
  Te  Te25  1  0.68436133  0.75000000  0.85746550  1.0
