# generated using pymatgen
data_RbZn2P2HO8
_symmetry_space_group_name_H-M   'P 1'
_cell_length_a   9.90642778
_cell_length_b   8.97584040
_cell_length_c   5.31812274
_cell_angle_alpha   73.54865954
_cell_angle_beta   77.80043370
_cell_angle_gamma   75.02475523
_symmetry_Int_Tables_number   1
_chemical_formula_structural   RbZn2P2HO8
_chemical_formula_sum   'Rb2 Zn4 P4 H2 O16'
_cell_volume   433.22040932
_cell_formula_units_Z   2
loop_
 _symmetry_equiv_pos_site_id
 _symmetry_equiv_pos_as_xyz
  1  'x, y, z'
loop_
 _atom_site_type_symbol
 _atom_site_label
 _atom_site_symmetry_multiplicity
 _atom_site_fract_x
 _atom_site_fract_y
 _atom_site_fract_z
 _atom_site_occupancy
  Rb  Rb0  1  -0.82388450  -0.70363630  -0.70611509  1.0
  Rb  Rb1  1  -0.17611550  -0.29636370  -0.29388491  1.0
  Zn  Zn2  1  -0.61096802  -0.11118193  -0.19033155  1.0
  Zn  Zn3  1  -0.38903198  -0.88881807  -0.80966845  1.0
  Zn  Zn4  1  -0.72606535  -0.38149630  -0.39116058  1.0
  Zn  Zn5  1  -0.27393465  -0.61850370  -0.60883942  1.0
  P  P6  1  -0.54990379  -0.75517184  -0.33123735  1.0
  P  P7  1  -0.45009621  -0.24482816  -0.66876265  1.0
  P  P8  1  -0.88541089  -0.24533353  -0.89683050  1.0
  P  P9  1  -0.11458911  -0.75466647  -0.10316950  1.0
  H  H10  1  -0.09612482  -0.07632965  -0.94569622  1.0
  H  H11  1  -0.90387518  -0.92367035  -0.05430378  1.0
  O  O12  1  -0.64877705  -0.59484950  -0.43297611  1.0
  O  O13  1  -0.35122295  -0.40515050  -0.56702389  1.0
  O  O14  1  -0.81492258  -0.10014896  -0.03382731  1.0
  O  O15  1  -0.18507742  -0.89985104  -0.96617269  1.0
  O  O16  1  -0.47539102  -0.22826380  -0.95325244  1.0
  O  O17  1  -0.52460898  -0.77173620  -0.04674756  1.0
  O  O18  1  -0.04765662  -0.19148807  -0.94203391  1.0
  O  O19  1  -0.95234338  -0.80851193  -0.05796609  1.0
  O  O20  1  -0.81974197  -0.38680672  -0.02418733  1.0
  O  O21  1  -0.18025803  -0.61319328  -0.97581267  1.0
  O  O22  1  -0.38224013  -0.11227381  -0.64635653  1.0
  O  O23  1  -0.61775987  -0.88772619  -0.35364347  1.0
  O  O24  1  -0.59656589  -0.23141422  -0.47213810  1.0
  O  O25  1  -0.40343411  -0.76858578  -0.52786190  1.0
  O  O26  1  -0.88581989  -0.29622842  -0.59458637  1.0
  O  O27  1  -0.11418011  -0.70377158  -0.40541363  1.0
