# generated using pymatgen
data_SrTeO3
_symmetry_space_group_name_H-M   'P 1'
_cell_length_a   9.14688950
_cell_length_b   6.03325582
_cell_length_c   12.30799488
_cell_angle_alpha   90.07066717
_cell_angle_beta   69.41281988
_cell_angle_gamma   93.11230806
_symmetry_Int_Tables_number   1
_chemical_formula_structural   SrTeO3
_chemical_formula_sum   'Sr6 Te6 O18'
_cell_volume   634.79303491
_cell_formula_units_Z   6
loop_
 _symmetry_equiv_pos_site_id
 _symmetry_equiv_pos_as_xyz
  1  'x, y, z'
loop_
 _atom_site_type_symbol
 _atom_site_label
 _atom_site_symmetry_multiplicity
 _atom_site_fract_x
 _atom_site_fract_y
 _atom_site_fract_z
 _atom_site_occupancy
  Sr  Sr0  1  -0.99823991  0.03437816  -0.48280057  1.0
  Sr  Sr1  1  -0.31436887  -0.04462014  -0.16266813  1.0
  Sr  Sr2  1  -0.27665345  -0.00881774  -0.67011496  1.0
  Sr  Sr3  1  -0.61550524  -0.54389099  -0.58972772  1.0
  Sr  Sr4  1  -0.35910322  -0.48623398  -0.92543342  1.0
  Sr  Sr5  1  -0.30727429  -0.49220689  -0.41076143  1.0
  O  O6  1  -0.37230258  -0.09481274  -0.33890492  1.0
  O  O7  1  -0.72398589  0.04249226  -0.60661174  1.0
  O  O8  1  -0.16160271  -0.20740274  -0.05043250  1.0
  O  O9  1  -0.46358360  -0.24861795  -0.75444920  1.0
  O  O10  1  -0.08131393  -0.26687306  -0.33147543  1.0
  O  O11  1  -0.06897044  -0.13387137  -0.84488985  1.0
  O  O12  1  -0.50886443  -0.33463567  -0.04492613  1.0
  O  O13  1  -0.11216621  -0.24991254  -0.59324445  1.0
  O  O14  1  -0.49086593  -0.25686322  -0.50068343  1.0
  O  O15  1  -0.53202462  -0.64834231  -0.23565782  1.0
  O  O16  1  -0.84417055  -0.62491591  -0.41960730  1.0
  O  O17  1  -0.78847011  -0.41927144  -0.70085769  1.0
  O  O18  1  -0.46639550  -0.78207034  -0.02147690  1.0
  O  O19  1  -0.45120651  -0.77872209  -0.49497149  1.0
  O  O20  1  -0.44141807  -0.77672183  -0.76774992  1.0
  O  O21  1  -0.87759609  -1.41228732  -0.04488745  1.0
  O  O22  1  -0.09641916  -0.71847773  -0.60029875  1.0
  O  O23  1  -0.16067203  -0.73449970  -0.29673876  1.0
  Te  Te24  1  0.02620008  -0.13465570  -0.01228618  1.0
  Te  Te25  1  -0.54488299  -0.02341630  -0.38584778  1.0
  Te  Te26  1  -0.61380077  -0.60990631  -0.06949026  1.0
  Te  Te27  1  -1.00067068  -0.52350068  -0.28149973  1.0
  Te  Te28  1  0.00379495  -0.46504780  -0.70552206  1.0
  Te  Te29  1  -0.59956723  -1.01707592  -0.76538403  1.0
