# generated using pymatgen
data_BaCuSbS3
_symmetry_space_group_name_H-M   'P 1'
_cell_length_a   11.76466039
_cell_length_b   12.59632417
_cell_length_c   8.44011779
_cell_angle_alpha   90.00000000
_cell_angle_beta   90.00000000
_cell_angle_gamma   90.00000000
_symmetry_Int_Tables_number   1
_chemical_formula_structural   BaCuSbS3
_chemical_formula_sum   'Ba8 Cu8 Sb8 S24'
_cell_volume   1250.75351382
_cell_formula_units_Z   8
loop_
 _symmetry_equiv_pos_site_id
 _symmetry_equiv_pos_as_xyz
  1  'x, y, z'
loop_
 _atom_site_type_symbol
 _atom_site_label
 _atom_site_symmetry_multiplicity
 _atom_site_fract_x
 _atom_site_fract_y
 _atom_site_fract_z
 _atom_site_occupancy
  Ba  Ba0  1  0.82828458  0.02025938  0.00000000  1.0
  Ba  Ba1  1  0.17171542  0.97974062  0.00000000  1.0
  Ba  Ba2  1  0.67171542  0.52025938  0.00000000  1.0
  Ba  Ba3  1  0.32828458  0.47974062  0.00000000  1.0
  Ba  Ba4  1  0.49674352  0.83125070  0.50000000  1.0
  Ba  Ba5  1  0.50325648  0.16874930  0.50000000  1.0
  Ba  Ba6  1  0.00325648  0.33125070  0.50000000  1.0
  Ba  Ba7  1  0.99674352  0.66874930  0.50000000  1.0
  Cu  Cu8  1  0.76663515  0.82341672  0.74208240  1.0
  Cu  Cu9  1  0.23336485  0.17658328  0.74208240  1.0
  Cu  Cu10  1  0.73336485  0.32341672  0.25791760  1.0
  Cu  Cu11  1  0.26663515  0.67658328  0.25791760  1.0
  Cu  Cu12  1  0.23336485  0.17658328  0.25791760  1.0
  Cu  Cu13  1  0.76663515  0.82341672  0.25791760  1.0
  Cu  Cu14  1  0.26663515  0.67658328  0.74208240  1.0
  Cu  Cu15  1  0.73336485  0.32341672  0.74208240  1.0
  Sb  Sb16  1  0.19780661  0.96300004  0.50000000  1.0
  Sb  Sb17  1  0.80219339  0.03699996  0.50000000  1.0
  Sb  Sb18  1  0.30219339  0.46300004  0.50000000  1.0
  Sb  Sb19  1  0.69780661  0.53699996  0.50000000  1.0
  Sb  Sb20  1  0.00391095  0.28189709  0.00000000  1.0
  Sb  Sb21  1  0.99608905  0.71810291  0.00000000  1.0
  Sb  Sb22  1  0.49608905  0.78189709  0.00000000  1.0
  Sb  Sb23  1  0.50391095  0.21810291  0.00000000  1.0
  S  S24  1  0.03375184  0.15379402  0.21862219  1.0
  S  S25  1  0.96624816  0.84620598  0.21862219  1.0
  S  S26  1  0.46624816  0.65379402  0.78137781  1.0
  S  S27  1  0.53375184  0.34620598  0.78137781  1.0
  S  S28  1  0.96624816  0.84620598  0.78137781  1.0
  S  S29  1  0.03375184  0.15379402  0.78137781  1.0
  S  S30  1  0.53375184  0.34620598  0.21862219  1.0
  S  S31  1  0.46624816  0.65379402  0.21862219  1.0
  S  S32  1  0.24007914  0.76567524  0.50000000  1.0
  S  S33  1  0.75992086  0.23432476  0.50000000  1.0
  S  S34  1  0.25992086  0.26567524  0.50000000  1.0
  S  S35  1  0.74007914  0.73432476  0.50000000  1.0
  S  S36  1  0.66620451  0.98855186  0.71046647  1.0
  S  S37  1  0.33379549  0.01144814  0.71046647  1.0
  S  S38  1  0.83379549  0.48855186  0.28953353  1.0
  S  S39  1  0.16620451  0.51144814  0.28953353  1.0
  S  S40  1  0.33379549  0.01144814  0.28953353  1.0
  S  S41  1  0.66620451  0.98855186  0.28953353  1.0
  S  S42  1  0.16620451  0.51144814  0.71046647  1.0
  S  S43  1  0.83379549  0.48855186  0.71046647  1.0
  S  S44  1  0.70740311  0.76844280  0.00000000  1.0
  S  S45  1  0.29259689  0.23155720  0.00000000  1.0
  S  S46  1  0.79259689  0.26844280  0.00000000  1.0
  S  S47  1  0.20740311  0.73155720  0.00000000  1.0
