# generated using pymatgen
data_SmC2
_symmetry_space_group_name_H-M   'P 1'
_cell_length_a   4.22538040
_cell_length_b   4.22538040
_cell_length_c   4.22538040
_cell_angle_alpha   125.57164620
_cell_angle_beta   125.57164620
_cell_angle_gamma   80.59331649
_symmetry_Int_Tables_number   1
_chemical_formula_structural   SmC2
_chemical_formula_sum   'Sm1 C2'
_cell_volume   48.13391499
_cell_formula_units_Z   1
loop_
 _symmetry_equiv_pos_site_id
 _symmetry_equiv_pos_as_xyz
  1  'x, y, z'
loop_
 _atom_site_type_symbol
 _atom_site_label
 _atom_site_symmetry_multiplicity
 _atom_site_fract_x
 _atom_site_fract_y
 _atom_site_fract_z
 _atom_site_occupancy
  Sm  Sm0  1  0.00000000  0.00000000  0.00000000  1.0
  C  C1  1  0.59950251  0.59950251  1.00000000  1.0
  C  C2  1  0.40049749  0.40049749  0.00000000  1.0
