# generated using pymatgen
data_Ba2CoF6
_symmetry_space_group_name_H-M   'P 1'
_cell_length_a   5.77040805
_cell_length_b   5.77040805
_cell_length_c   4.60836583
_cell_angle_alpha   90.00000000
_cell_angle_beta   90.00000000
_cell_angle_gamma   120.00000000
_symmetry_Int_Tables_number   1
_chemical_formula_structural   Ba2CoF6
_chemical_formula_sum   'Ba2 Co1 F6'
_cell_volume   132.88948864
_cell_formula_units_Z   1
loop_
 _symmetry_equiv_pos_site_id
 _symmetry_equiv_pos_as_xyz
  1  'x, y, z'
loop_
 _atom_site_type_symbol
 _atom_site_label
 _atom_site_symmetry_multiplicity
 _atom_site_fract_x
 _atom_site_fract_y
 _atom_site_fract_z
 _atom_site_occupancy
  Ba  Ba0  1  0.33333333  0.66666667  0.26392352  1.0
  Ba  Ba1  1  0.66666667  0.33333333  0.73607648  1.0
  Co  Co2  1  0.00000000  0.00000000  0.00000000  1.0
  F  F3  1  0.34139906  0.17069953  0.22925558  1.0
  F  F4  1  0.17069953  0.34139906  0.77074442  1.0
  F  F5  1  0.17069953  0.82930047  0.77074442  1.0
  F  F6  1  0.82930047  0.17069953  0.22925558  1.0
  F  F7  1  0.82930047  0.65860094  0.22925558  1.0
  F  F8  1  0.65860094  0.82930047  0.77074442  1.0
