# generated using pymatgen
data_Li3B(PO4)2
_symmetry_space_group_name_H-M   'P 1'
_cell_length_a   5.19301998
_cell_length_b   7.53012898
_cell_length_c   7.95013355
_cell_angle_alpha   101.84858024
_cell_angle_beta   106.28595502
_cell_angle_gamma   89.63779499
_symmetry_Int_Tables_number   1
_chemical_formula_structural   Li3B(PO4)2
_chemical_formula_sum   'Li6 B2 P4 O16'
_cell_volume   291.61536897
_cell_formula_units_Z   2
loop_
 _symmetry_equiv_pos_site_id
 _symmetry_equiv_pos_as_xyz
  1  'x, y, z'
loop_
 _atom_site_type_symbol
 _atom_site_label
 _atom_site_symmetry_multiplicity
 _atom_site_fract_x
 _atom_site_fract_y
 _atom_site_fract_z
 _atom_site_occupancy
  Li  Li0  1  0.22908959  0.86178005  0.69664799  1.0
  Li  Li1  1  0.77091041  0.13821995  0.30335201  1.0
  Li  Li2  1  0.32140262  0.50915927  0.85489346  1.0
  Li  Li3  1  0.67859738  0.49084073  0.14510654  1.0
  Li  Li4  1  0.85646702  0.47524585  0.60397123  1.0
  Li  Li5  1  0.14353298  0.52475415  0.39602877  1.0
  B  B6  1  0.74170225  0.03612391  0.76780847  1.0
  B  B7  1  0.25829775  0.96387609  0.23219153  1.0
  P  P8  1  0.62734420  0.78483586  0.45355539  1.0
  P  P9  1  0.37265580  0.21516414  0.54644461  1.0
  P  P10  1  0.87487087  0.74917507  0.94204888  1.0
  P  P11  1  0.12512913  0.25082493  0.05795112  1.0
  O  O12  1  0.94999354  0.17960035  0.85764641  1.0
  O  O13  1  0.05000646  0.82039965  0.14235359  1.0
  O  O14  1  0.52773553  0.88771685  0.29202204  1.0
  O  O15  1  0.47226447  0.11228315  0.70797796  1.0
  O  O16  1  0.05090797  0.68778983  0.81573664  1.0
  O  O17  1  0.94909203  0.31221017  0.18426336  1.0
  O  O18  1  0.79675147  0.62814339  0.39988413  1.0
  O  O19  1  0.20324853  0.37185661  0.60011587  1.0
  O  O20  1  0.70347608  0.91480658  0.88390169  1.0
  O  O21  1  0.29652392  0.08519342  0.11609831  1.0
  O  O22  1  0.68319794  0.59910632  0.94422090  1.0
  O  O23  1  0.31680206  0.40089368  0.05577910  1.0
  O  O24  1  0.82345616  0.93286592  0.61037786  1.0
  O  O25  1  0.17654384  0.06713408  0.38962214  1.0
  O  O26  1  0.39402125  0.72554292  0.51413502  1.0
  O  O27  1  0.60597875  0.27445708  0.48586498  1.0
