# generated using pymatgen
data_Tl4SiSe4
_symmetry_space_group_name_H-M   'P 1'
_cell_length_a   7.17037410
_cell_length_b   7.17037410
_cell_length_c   25.34678125
_cell_angle_alpha   81.56047364
_cell_angle_beta   98.43952636
_cell_angle_gamma   117.08574601
_symmetry_Int_Tables_number   1
_chemical_formula_structural   Tl4SiSe4
_chemical_formula_sum   'Tl16 Si4 Se16'
_cell_volume   1142.95871795
_cell_formula_units_Z   4
loop_
 _symmetry_equiv_pos_site_id
 _symmetry_equiv_pos_as_xyz
  1  'x, y, z'
loop_
 _atom_site_type_symbol
 _atom_site_label
 _atom_site_symmetry_multiplicity
 _atom_site_fract_x
 _atom_site_fract_y
 _atom_site_fract_z
 _atom_site_occupancy
  Tl  Tl0  1  1.28030999  0.64710622  0.50115906  1.0
  Tl  Tl1  1  0.35289378  -0.28030999  1.00115906  1.0
  Tl  Tl2  1  0.64710622  0.28030999  -0.00115906  1.0
  Tl  Tl3  1  0.71969001  0.35289378  0.49884094  1.0
  Tl  Tl4  1  0.34497709  -0.05363393  0.16332912  1.0
  Tl  Tl5  1  1.05363393  0.65502291  0.66332912  1.0
  Tl  Tl6  1  0.94636607  0.34497709  0.33667088  1.0
  Tl  Tl7  1  0.65502291  0.05363393  0.83667088  1.0
  Tl  Tl8  1  1.31680747  0.09019576  0.32775635  1.0
  Tl  Tl9  1  0.90980424  0.68319253  0.82775635  1.0
  Tl  Tl10  1  1.09019576  0.31680747  0.17224365  1.0
  Tl  Tl11  1  1.68319253  -0.09019576  0.67224365  1.0
  Tl  Tl12  1  0.82225169  0.82225169  0.25000000  1.0
  Tl  Tl13  1  1.17774831  0.17774831  0.75000000  1.0
  Tl  Tl14  1  -0.00000000  0.00000000  0.50000000  1.0
  Tl  Tl15  1  0.00000000  0.00000000  0.00000000  1.0
  Si  Si16  1  0.55872263  -0.31032603  0.37684254  1.0
  Si  Si17  1  1.31032603  0.44127737  0.87684254  1.0
  Si  Si18  1  0.68967397  0.55872263  0.12315746  1.0
  Si  Si19  1  0.44127737  0.31032603  0.62315746  1.0
  Se  Se20  1  1.70812699  -0.10998585  0.11722224  1.0
  Se  Se21  1  1.10998585  0.29187301  0.61722224  1.0
  Se  Se22  1  0.89001415  0.70812699  0.38277776  1.0
  Se  Se23  1  1.29187301  0.10998585  0.88277776  1.0
  Se  Se24  1  0.39916474  -0.30308709  0.29187774  1.0
  Se  Se25  1  1.30308709  -0.39916474  0.79187774  1.0
  Se  Se26  1  0.69691291  -0.60083526  0.20812226  1.0
  Se  Se27  1  0.60083526  0.30308709  0.70812226  1.0
  Se  Se28  1  0.58761385  -0.03069242  0.41796590  1.0
  Se  Se29  1  1.03069242  0.41238615  0.91796590  1.0
  Se  Se30  1  0.96930758  0.58761385  0.08203410  1.0
  Se  Se31  1  0.41238615  0.03069242  0.58203410  1.0
  Se  Se32  1  1.33888323  0.37713382  0.42242471  1.0
  Se  Se33  1  1.62286618  -0.33888323  0.92242471  1.0
  Se  Se34  1  1.37713382  0.33888323  0.07757529  1.0
  Se  Se35  1  0.66111677  0.62286618  0.57757529  1.0
