# generated using pymatgen
data_Sr(BrO3)2
_symmetry_space_group_name_H-M   'P 1'
_cell_length_a   7.20707379
_cell_length_b   7.20707379
_cell_length_c   7.54508489
_cell_angle_alpha   74.25576357
_cell_angle_beta   105.74423643
_cell_angle_gamma   65.11130238
_symmetry_Int_Tables_number   1
_chemical_formula_structural   Sr(BrO3)2
_chemical_formula_sum   'Sr2 Br4 O12'
_cell_volume   307.00326796
_cell_formula_units_Z   2
loop_
 _symmetry_equiv_pos_site_id
 _symmetry_equiv_pos_as_xyz
  1  'x, y, z'
loop_
 _atom_site_type_symbol
 _atom_site_label
 _atom_site_symmetry_multiplicity
 _atom_site_fract_x
 _atom_site_fract_y
 _atom_site_fract_z
 _atom_site_occupancy
  Sr  Sr0  1  1.06799611  0.18005739  0.62180005  1.0
  Sr  Sr1  1  0.81994261  -0.06799611  0.12180005  1.0
  Br  Br2  1  0.85291481  -0.21975561  0.66525497  1.0
  Br  Br3  1  1.21975561  0.14708519  0.16525497  1.0
  Br  Br4  1  1.41541483  0.45133830  0.59005338  1.0
  Br  Br5  1  0.54866170  -0.41541483  0.09005338  1.0
  O  O6  1  0.90875073  -0.06514640  0.49644891  1.0
  O  O7  1  1.06514640  0.09124927  -0.00355109  1.0
  O  O8  1  0.97543340  -0.20720128  0.88242653  1.0
  O  O9  1  1.20720128  0.02456660  0.38242653  1.0
  O  O10  1  0.64199245  -0.59409225  0.54202846  1.0
  O  O11  1  1.59409225  0.35800755  0.04202846  1.0
  O  O12  1  1.02749634  0.50954507  0.71105391  1.0
  O  O13  1  0.49045493  -0.02749634  0.21105391  1.0
  O  O14  1  1.20406191  0.54294215  0.36019649  1.0
  O  O15  1  0.45705785  -0.20406191  0.86019649  1.0
  O  O16  1  1.47125592  0.18702915  0.72643731  1.0
  O  O17  1  0.81297085  -0.47125592  0.22643731  1.0
