# generated using pymatgen
data_Cu4(BiS2)5
_symmetry_space_group_name_H-M   'P 1'
_cell_length_a   9.06565751
_cell_length_b   9.06565751
_cell_length_c   12.92568111
_cell_angle_alpha   72.99118084
_cell_angle_beta   107.00881916
_cell_angle_gamma   155.16278251
_symmetry_Int_Tables_number   1
_chemical_formula_structural   Cu4(BiS2)5
_chemical_formula_sum   'Cu4 Bi5 S10'
_cell_volume   425.72853211
_cell_formula_units_Z   1
loop_
 _symmetry_equiv_pos_site_id
 _symmetry_equiv_pos_as_xyz
  1  'x, y, z'
loop_
 _atom_site_type_symbol
 _atom_site_label
 _atom_site_symmetry_multiplicity
 _atom_site_fract_x
 _atom_site_fract_y
 _atom_site_fract_z
 _atom_site_occupancy
  Cu  Cu0  1  0.71451017  0.28548983  0.55286772  1.0
  Cu  Cu1  1  0.28548983  -0.28548983  0.44713228  1.0
  Cu  Cu2  1  0.90417738  0.09582262  0.99197264  1.0
  Cu  Cu3  1  0.09582262  -0.09582262  0.00802736  1.0
  Bi  Bi4  1  0.41217792  -0.41217792  0.72551282  1.0
  Bi  Bi5  1  0.58782208  0.41217792  0.27448718  1.0
  Bi  Bi6  1  -0.00000000  0.00000000  0.50000000  1.0
  Bi  Bi7  1  0.20059227  -0.20059227  0.83704052  1.0
  Bi  Bi8  1  0.79940773  0.20059227  0.16295948  1.0
  S  S9  1  0.54215656  0.45784344  0.66632853  1.0
  S  S10  1  0.45784344  -0.45784344  0.33367147  1.0
  S  S11  1  0.97582455  0.02417545  0.86833180  1.0
  S  S12  1  0.02417545  -0.02417545  0.13166820  1.0
  S  S13  1  0.76007987  0.23992013  0.73836731  1.0
  S  S14  1  0.23992013  -0.23992013  0.26163269  1.0
  S  S15  1  0.84683791  0.15316209  0.52785539  1.0
  S  S16  1  0.15316209  -0.15316209  0.47214461  1.0
  S  S17  1  0.33594757  -0.33594757  0.99820336  1.0
  S  S18  1  0.66405243  0.33594757  0.00179664  1.0
