# generated using pymatgen
data_HfNiGe
_symmetry_space_group_name_H-M   'P 1'
_cell_length_a   6.52620173
_cell_length_b   3.87249172
_cell_length_c   7.33724066
_cell_angle_alpha   90.00000000
_cell_angle_beta   90.00000000
_cell_angle_gamma   90.00000000
_symmetry_Int_Tables_number   1
_chemical_formula_structural   HfNiGe
_chemical_formula_sum   'Hf4 Ni4 Ge4'
_cell_volume   185.43160454
_cell_formula_units_Z   4
loop_
 _symmetry_equiv_pos_site_id
 _symmetry_equiv_pos_as_xyz
  1  'x, y, z'
loop_
 _atom_site_type_symbol
 _atom_site_label
 _atom_site_symmetry_multiplicity
 _atom_site_fract_x
 _atom_site_fract_y
 _atom_site_fract_z
 _atom_site_occupancy
  Hf  Hf0  1  0.98051922  0.75000000  0.68884610  1.0
  Hf  Hf1  1  0.48051922  0.75000000  0.81115390  1.0
  Hf  Hf2  1  0.01948078  0.25000000  0.31115390  1.0
  Hf  Hf3  1  0.51948078  0.25000000  0.18884610  1.0
  Ni  Ni4  1  0.86006115  0.75000000  0.06219022  1.0
  Ni  Ni5  1  0.36006115  0.75000000  0.43780978  1.0
  Ni  Ni6  1  0.13993885  0.25000000  0.93780978  1.0
  Ni  Ni7  1  0.63993885  0.25000000  0.56219022  1.0
  Ge  Ge8  1  0.73490477  0.75000000  0.38393786  1.0
  Ge  Ge9  1  0.23490477  0.75000000  0.11606214  1.0
  Ge  Ge10  1  0.26509523  0.25000000  0.61606214  1.0
  Ge  Ge11  1  0.76509523  0.25000000  0.88393786  1.0
