# generated using pymatgen
data_Mg(BH4)2
_symmetry_space_group_name_H-M   'P 1'
_cell_length_a   4.26349611
_cell_length_b   4.26349611
_cell_length_c   6.25127270
_cell_angle_alpha   90.00000000
_cell_angle_beta   90.00000000
_cell_angle_gamma   120.00000000
_symmetry_Int_Tables_number   1
_chemical_formula_structural   Mg(BH4)2
_chemical_formula_sum   'Mg1 B2 H8'
_cell_volume   98.40809348
_cell_formula_units_Z   1
loop_
 _symmetry_equiv_pos_site_id
 _symmetry_equiv_pos_as_xyz
  1  'x, y, z'
loop_
 _atom_site_type_symbol
 _atom_site_label
 _atom_site_symmetry_multiplicity
 _atom_site_fract_x
 _atom_site_fract_y
 _atom_site_fract_z
 _atom_site_occupancy
  Mg  Mg0  1  0.00000000  0.00000000  0.00000000  1.0
  B  B1  1  0.66666667  0.33333333  0.82477677  1.0
  B  B2  1  0.33333333  0.66666667  0.17522323  1.0
  H  H3  1  0.35928977  0.17964489  0.75041901  1.0
  H  H4  1  0.82035511  0.64071023  0.75041901  1.0
  H  H5  1  0.82035511  0.17964489  0.75041901  1.0
  H  H6  1  0.64071023  0.82035511  0.24958099  1.0
  H  H7  1  0.17964489  0.35928977  0.24958099  1.0
  H  H8  1  0.17964489  0.82035511  0.24958099  1.0
  H  H9  1  0.66666667  0.33333333  0.01939606  1.0
  H  H10  1  0.33333333  0.66666667  0.98060394  1.0
