# generated using pymatgen
data_Ni7Bi3
_symmetry_space_group_name_H-M   'P 1'
_cell_length_a   5.01594659
_cell_length_b   7.22655601
_cell_length_c   9.74246584
_cell_angle_alpha   90.00000000
_cell_angle_beta   90.00000000
_cell_angle_gamma   90.00000000
_symmetry_Int_Tables_number   1
_chemical_formula_structural   Ni7Bi3
_chemical_formula_sum   'Ni14 Bi6'
_cell_volume   353.14508652
_cell_formula_units_Z   2
loop_
 _symmetry_equiv_pos_site_id
 _symmetry_equiv_pos_as_xyz
  1  'x, y, z'
loop_
 _atom_site_type_symbol
 _atom_site_label
 _atom_site_symmetry_multiplicity
 _atom_site_fract_x
 _atom_site_fract_y
 _atom_site_fract_z
 _atom_site_occupancy
  Ni  Ni0  1  -0.00000000  0.00000000  -0.00000000  1.0
  Ni  Ni1  1  0.50000000  0.00000000  -0.00000000  1.0
  Ni  Ni2  1  -0.00802419  0.33959916  0.37866310  1.0
  Ni  Ni3  1  0.50802419  0.66040084  0.37866310  1.0
  Ni  Ni4  1  0.49197581  0.66040084  0.62133690  1.0
  Ni  Ni5  1  0.00802419  0.33959916  0.62133690  1.0
  Ni  Ni6  1  0.00802419  0.66040084  0.62133690  1.0
  Ni  Ni7  1  0.49197581  0.33959916  0.62133690  1.0
  Ni  Ni8  1  0.50802419  0.33959916  0.37866310  1.0
  Ni  Ni9  1  -0.00802419  0.66040084  0.37866310  1.0
  Ni  Ni10  1  0.75000000  0.18465500  0.17247546  1.0
  Ni  Ni11  1  0.75000000  0.81534500  0.17247546  1.0
  Ni  Ni12  1  0.25000000  0.81534500  0.82752454  1.0
  Ni  Ni13  1  0.25000000  0.18465500  0.82752454  1.0
  Bi  Bi14  1  0.25000000  0.28251562  0.14205418  1.0
  Bi  Bi15  1  0.25000000  0.71748438  0.14205418  1.0
  Bi  Bi16  1  0.75000000  0.71748438  0.85794582  1.0
  Bi  Bi17  1  0.75000000  0.28251562  0.85794582  1.0
  Bi  Bi18  1  0.75000000  0.00000000  0.40269968  1.0
  Bi  Bi19  1  0.25000000  0.00000000  0.59730032  1.0
