# generated using pymatgen
data_SrSeO3
_symmetry_space_group_name_H-M   'P 1'
_cell_length_a   12.79719048
_cell_length_b   5.59150779
_cell_length_c   4.48590057
_cell_angle_alpha   90.00000000
_cell_angle_beta   90.00000000
_cell_angle_gamma   90.00000000
_symmetry_Int_Tables_number   1
_chemical_formula_structural   SrSeO3
_chemical_formula_sum   'Sr4 Se4 O12'
_cell_volume   320.99126349
_cell_formula_units_Z   4
loop_
 _symmetry_equiv_pos_site_id
 _symmetry_equiv_pos_as_xyz
  1  'x, y, z'
loop_
 _atom_site_type_symbol
 _atom_site_label
 _atom_site_symmetry_multiplicity
 _atom_site_fract_x
 _atom_site_fract_y
 _atom_site_fract_z
 _atom_site_occupancy
  Sr  Sr0  1  0.65251716  0.25000000  0.98882029  1.0
  Sr  Sr1  1  0.15251716  0.25000000  0.51117971  1.0
  Sr  Sr2  1  0.34748284  0.75000000  0.01117971  1.0
  Sr  Sr3  1  0.84748284  0.75000000  0.48882029  1.0
  Se  Se4  1  0.92100665  0.25000000  0.01287337  1.0
  Se  Se5  1  0.42100665  0.25000000  0.48712663  1.0
  Se  Se6  1  0.07899335  0.75000000  0.98712663  1.0
  Se  Se7  1  0.57899335  0.75000000  0.51287337  1.0
  O  O8  1  0.83523272  0.48836213  0.98546053  1.0
  O  O9  1  0.83523272  0.01163787  0.98546053  1.0
  O  O10  1  0.33523272  0.48836213  0.51453947  1.0
  O  O11  1  0.33523272  0.01163787  0.51453947  1.0
  O  O12  1  0.16476728  0.98836213  0.01453947  1.0
  O  O13  1  0.16476728  0.51163787  0.01453947  1.0
  O  O14  1  0.66476728  0.98836213  0.48546053  1.0
  O  O15  1  0.66476728  0.51163787  0.48546053  1.0
  O  O16  1  0.95012585  0.25000000  0.38638073  1.0
  O  O17  1  0.45012585  0.25000000  0.11361927  1.0
  O  O18  1  0.04987415  0.75000000  0.61361927  1.0
  O  O19  1  0.54987415  0.75000000  0.88638073  1.0
