# generated using pymatgen
data_YZrSb
_symmetry_space_group_name_H-M   'P 1'
_cell_length_a   8.85310435
_cell_length_b   8.85310435
_cell_length_c   8.85310435
_cell_angle_alpha   152.06099960
_cell_angle_beta   152.06099960
_cell_angle_gamma   39.92422943
_symmetry_Int_Tables_number   1
_chemical_formula_structural   YZrSb
_chemical_formula_sum   'Y2 Zr2 Sb2'
_cell_volume   152.03051169
_cell_formula_units_Z   2
loop_
 _symmetry_equiv_pos_site_id
 _symmetry_equiv_pos_as_xyz
  1  'x, y, z'
loop_
 _atom_site_type_symbol
 _atom_site_label
 _atom_site_symmetry_multiplicity
 _atom_site_fract_x
 _atom_site_fract_y
 _atom_site_fract_z
 _atom_site_occupancy
  Y  Y0  1  0.67663445  0.67663445  1.00000000  1.0
  Y  Y1  1  0.32336555  0.32336555  -0.00000000  1.0
  Zr  Zr2  1  0.50000000  0.00000000  0.50000000  1.0
  Zr  Zr3  1  0.00000000  0.50000000  0.50000000  1.0
  Sb  Sb4  1  0.86695976  0.86695976  1.00000000  1.0
  Sb  Sb5  1  0.13304024  0.13304024  -0.00000000  1.0
