# generated using pymatgen
data_KNiPH2O5
_symmetry_space_group_name_H-M   'P 1'
_cell_length_a   5.60152034
_cell_length_b   8.34505865
_cell_length_c   4.76619880
_cell_angle_alpha   90.00000000
_cell_angle_beta   90.00000000
_cell_angle_gamma   90.00000000
_symmetry_Int_Tables_number   1
_chemical_formula_structural   KNiPH2O5
_chemical_formula_sum   'K2 Ni2 P2 H4 O10'
_cell_volume   222.79603791
_cell_formula_units_Z   2
loop_
 _symmetry_equiv_pos_site_id
 _symmetry_equiv_pos_as_xyz
  1  'x, y, z'
loop_
 _atom_site_type_symbol
 _atom_site_label
 _atom_site_symmetry_multiplicity
 _atom_site_fract_x
 _atom_site_fract_y
 _atom_site_fract_z
 _atom_site_occupancy
  O  O0  1  0.50000000  0.88882075  0.56536926  1.0
  O  O1  1  0.00000000  0.11117925  0.06536926  1.0
  O  O2  1  0.50000000  0.68040666  0.18309210  1.0
  O  O3  1  0.00000000  0.31959334  0.68309210  1.0
  O  O4  1  0.50000000  0.29275706  0.63321051  1.0
  O  O5  1  0.00000000  0.70724294  0.13321051  1.0
  O  O6  1  0.27735016  0.62270569  0.64998897  1.0
  O  O7  1  0.77735016  0.37729431  0.14998897  1.0
  O  O8  1  0.72264984  0.62270569  0.64998897  1.0
  O  O9  1  0.22264984  0.37729431  0.14998897  1.0
  P  P10  1  0.50000000  0.70813942  0.50359829  1.0
  P  P11  1  0.00000000  0.29186058  0.00359829  1.0
  H  H12  1  0.14017529  0.68759948  0.01199138  1.0
  H  H13  1  0.64017529  0.31240052  0.51199138  1.0
  H  H14  1  0.85982471  0.68759948  0.01199138  1.0
  H  H15  1  0.35982471  0.31240052  0.51199138  1.0
  K  K16  1  0.50000000  0.04434894  0.05857753  1.0
  K  K17  1  0.00000000  0.95565106  0.55857753  1.0
  Ni  Ni18  1  0.50000000  0.48460207  0.92839160  1.0
  Ni  Ni19  1  0.00000000  0.51539793  0.42839160  1.0
