# generated using pymatgen
data_Si5Ir4
_symmetry_space_group_name_H-M   'P 1'
_cell_length_a   5.93385839
_cell_length_b   3.64904314
_cell_length_c   12.44503988
_cell_angle_alpha   90.00000000
_cell_angle_beta   100.14762982
_cell_angle_gamma   90.00000000
_symmetry_Int_Tables_number   1
_chemical_formula_structural   Si5Ir4
_chemical_formula_sum   'Si10 Ir8'
_cell_volume   265.25594616
_cell_formula_units_Z   2
loop_
 _symmetry_equiv_pos_site_id
 _symmetry_equiv_pos_as_xyz
  1  'x, y, z'
loop_
 _atom_site_type_symbol
 _atom_site_label
 _atom_site_symmetry_multiplicity
 _atom_site_fract_x
 _atom_site_fract_y
 _atom_site_fract_z
 _atom_site_occupancy
  Si  Si0  1  0.97328684  0.25000000  0.64141555  1.0
  Si  Si1  1  0.02671316  0.75000000  0.35858445  1.0
  Si  Si2  1  0.53119345  0.25000000  0.27497873  1.0
  Si  Si3  1  0.46880655  0.75000000  0.72502127  1.0
  Si  Si4  1  0.50559663  0.25000000  0.57815199  1.0
  Si  Si5  1  0.49440337  0.75000000  0.42184801  1.0
  Si  Si6  1  0.35491121  0.25000000  0.86306778  1.0
  Si  Si7  1  0.64508879  0.75000000  0.13693222  1.0
  Si  Si8  1  0.10980455  0.25000000  0.07489767  1.0
  Si  Si9  1  0.89019545  0.75000000  0.92510233  1.0
  Ir  Ir10  1  0.89617163  0.25000000  0.22678142  1.0
  Ir  Ir11  1  0.10382837  0.75000000  0.77321858  1.0
  Ir  Ir12  1  0.78319800  0.25000000  0.45108105  1.0
  Ir  Ir13  1  0.21680200  0.75000000  0.54891895  1.0
  Ir  Ir14  1  0.70682981  0.25000000  0.76969231  1.0
  Ir  Ir15  1  0.29317019  0.75000000  0.23030769  1.0
  Ir  Ir16  1  0.69987932  0.25000000  0.99939901  1.0
  Ir  Ir17  1  0.30012068  0.75000000  0.00060099  1.0
