# generated using pymatgen
data_K2NaAlP2
_symmetry_space_group_name_H-M   'P 1'
_cell_length_a   8.66121968
_cell_length_b   8.66121968
_cell_length_c   8.66121968
_cell_angle_alpha   134.76340275
_cell_angle_beta   64.03145409
_cell_angle_gamma   137.19721433
_symmetry_Int_Tables_number   1
_chemical_formula_structural   K2NaAlP2
_chemical_formula_sum   'K4 Na2 Al2 P4'
_cell_volume   309.25337756
_cell_formula_units_Z   2
loop_
 _symmetry_equiv_pos_site_id
 _symmetry_equiv_pos_as_xyz
  1  'x, y, z'
loop_
 _atom_site_type_symbol
 _atom_site_label
 _atom_site_symmetry_multiplicity
 _atom_site_fract_x
 _atom_site_fract_y
 _atom_site_fract_z
 _atom_site_occupancy
  K  K0  1  0.17628447  0.25691462  0.43319908  1.0
  K  K1  1  0.32371553  0.75691462  1.08063015  1.0
  K  K2  1  0.67628447  1.24308538  0.91936985  1.0
  K  K3  1  0.82371553  0.74308538  0.56680092  1.0
  Na  Na4  1  0.25000000  0.75000000  0.50000000  1.0
  Na  Na5  1  0.75000000  1.25000000  0.50000000  1.0
  Al  Al6  1  0.25000000  0.25000000  0.00000000  1.0
  Al  Al7  1  0.75000000  0.75000000  0.00000000  1.0
  P  P8  1  0.40874658  0.30283481  0.71158139  1.0
  P  P9  1  0.09125342  0.80283481  0.89408823  1.0
  P  P10  1  0.90874658  1.19716519  1.10591177  1.0
  P  P11  1  0.59125342  0.69716519  0.28841861  1.0
