# generated using pymatgen
data_Sr2CaTeO6
_symmetry_space_group_name_H-M   'P 1'
_cell_length_a   5.87037103
_cell_length_b   5.99021827
_cell_length_c   10.19895499
_cell_angle_alpha   90.00000000
_cell_angle_beta   124.98997998
_cell_angle_gamma   90.00000000
_symmetry_Int_Tables_number   1
_chemical_formula_structural   Sr2CaTeO6
_chemical_formula_sum   'Sr4 Ca2 Te2 O12'
_cell_volume   293.82014183
_cell_formula_units_Z   2
loop_
 _symmetry_equiv_pos_site_id
 _symmetry_equiv_pos_as_xyz
  1  'x, y, z'
loop_
 _atom_site_type_symbol
 _atom_site_label
 _atom_site_symmetry_multiplicity
 _atom_site_fract_x
 _atom_site_fract_y
 _atom_site_fract_z
 _atom_site_occupancy
  Sr  Sr0  1  0.24065742  0.45681024  0.25124402  1.0
  Sr  Sr1  1  0.24065742  0.04318976  0.75124402  1.0
  Sr  Sr2  1  0.75934258  0.95681024  0.24875598  1.0
  Sr  Sr3  1  0.75934258  0.54318976  0.74875598  1.0
  Ca  Ca4  1  0.50000000  0.00000000  0.50000000  1.0
  Ca  Ca5  1  0.50000000  0.50000000  -0.00000000  1.0
  Te  Te6  1  0.00000000  0.00000000  0.00000000  1.0
  Te  Te7  1  -0.00000000  0.50000000  0.50000000  1.0
  O  O8  1  0.31781650  0.03137316  0.23070975  1.0
  O  O9  1  0.31781650  0.46862684  0.73070975  1.0
  O  O10  1  0.68218350  0.53137316  0.26929025  1.0
  O  O11  1  0.68218350  0.96862684  0.76929025  1.0
  O  O12  1  0.86391436  0.72788637  0.05068333  1.0
  O  O13  1  0.86391436  0.77211363  0.55068333  1.0
  O  O14  1  0.13608564  0.22788637  0.44931667  1.0
  O  O15  1  0.13608564  0.27211363  0.94931667  1.0
  O  O16  1  0.76857373  0.19147365  0.04208127  1.0
  O  O17  1  0.76857373  0.30852635  0.54208127  1.0
  O  O18  1  0.23142627  0.69147365  0.45791873  1.0
  O  O19  1  0.23142627  0.80852635  0.95791873  1.0
