# generated using pymatgen
data_KInBr4
_symmetry_space_group_name_H-M   'P 1'
_cell_length_a   8.03232236
_cell_length_b   10.86698588
_cell_length_c   10.84435585
_cell_angle_alpha   90.00000000
_cell_angle_beta   90.00000000
_cell_angle_gamma   90.00000000
_symmetry_Int_Tables_number   1
_chemical_formula_structural   KInBr4
_chemical_formula_sum   'K4 In4 Br16'
_cell_volume   946.57273925
_cell_formula_units_Z   4
loop_
 _symmetry_equiv_pos_site_id
 _symmetry_equiv_pos_as_xyz
  1  'x, y, z'
loop_
 _atom_site_type_symbol
 _atom_site_label
 _atom_site_symmetry_multiplicity
 _atom_site_fract_x
 _atom_site_fract_y
 _atom_site_fract_z
 _atom_site_occupancy
  K  K0  1  0.67986212  0.25000000  0.75000000  1.0
  K  K1  1  0.17986212  0.25000000  0.25000000  1.0
  K  K2  1  0.32013788  0.75000000  0.25000000  1.0
  K  K3  1  0.82013788  0.75000000  0.75000000  1.0
  In  In4  1  0.75000000  0.50000000  0.17797208  1.0
  In  In5  1  0.75000000  0.00000000  0.32202792  1.0
  In  In6  1  0.25000000  0.50000000  0.82202792  1.0
  In  In7  1  0.25000000  0.00000000  0.67797208  1.0
  Br  Br8  1  0.99553476  0.46179804  0.68540673  1.0
  Br  Br9  1  0.99553476  0.03820196  0.81459327  1.0
  Br  Br10  1  0.49553476  0.46179804  0.31459327  1.0
  Br  Br11  1  0.49553476  0.03820196  0.18540673  1.0
  Br  Br12  1  0.00446524  0.96179804  0.18540673  1.0
  Br  Br13  1  0.00446524  0.53820196  0.31459327  1.0
  Br  Br14  1  0.50446524  0.96179804  0.81459327  1.0
  Br  Br15  1  0.50446524  0.53820196  0.68540673  1.0
  Br  Br16  1  0.83876924  0.31415471  0.05044343  1.0
  Br  Br17  1  0.83876924  0.18584529  0.44955657  1.0
  Br  Br18  1  0.33876924  0.31415471  0.94955657  1.0
  Br  Br19  1  0.33876924  0.18584529  0.55044343  1.0
  Br  Br20  1  0.16123076  0.81415471  0.55044343  1.0
  Br  Br21  1  0.16123076  0.68584529  0.94955657  1.0
  Br  Br22  1  0.66123076  0.81415471  0.44955657  1.0
  Br  Br23  1  0.66123076  0.68584529  0.05044343  1.0
