# generated using pymatgen
data_NbBr5
_symmetry_space_group_name_H-M   'P 1'
_cell_length_a   13.93511140
_cell_length_b   19.83524996
_cell_length_c   6.70108405
_cell_angle_alpha   90.00000000
_cell_angle_beta   90.00000000
_cell_angle_gamma   90.00000000
_symmetry_Int_Tables_number   1
_chemical_formula_structural   NbBr5
_chemical_formula_sum   'Nb8 Br40'
_cell_volume   1852.22263731
_cell_formula_units_Z   8
loop_
 _symmetry_equiv_pos_site_id
 _symmetry_equiv_pos_as_xyz
  1  'x, y, z'
loop_
 _atom_site_type_symbol
 _atom_site_label
 _atom_site_symmetry_multiplicity
 _atom_site_fract_x
 _atom_site_fract_y
 _atom_site_fract_z
 _atom_site_occupancy
  Nb  Nb0  1  0.37492645  0.85750309  0.50857909  1.0
  Nb  Nb1  1  0.37492645  0.64249691  0.50857909  1.0
  Nb  Nb2  1  0.87492645  0.85750309  0.99142091  1.0
  Nb  Nb3  1  0.87492645  0.64249691  0.99142091  1.0
  Nb  Nb4  1  0.62507355  0.35750309  0.49142091  1.0
  Nb  Nb5  1  0.62507355  0.14249691  0.49142091  1.0
  Nb  Nb6  1  0.12507355  0.35750309  0.00857909  1.0
  Nb  Nb7  1  0.12507355  0.14249691  0.00857909  1.0
  Br  Br8  1  0.44763887  0.75000000  0.71747143  1.0
  Br  Br9  1  0.94763887  0.75000000  0.78252857  1.0
  Br  Br10  1  0.55236113  0.25000000  0.28252857  1.0
  Br  Br11  1  0.05236113  0.25000000  0.21747143  1.0
  Br  Br12  1  0.48100230  0.34605278  0.70806755  1.0
  Br  Br13  1  0.48100230  0.15394722  0.70806755  1.0
  Br  Br14  1  0.98100230  0.34605278  0.79193245  1.0
  Br  Br15  1  0.98100230  0.15394722  0.79193245  1.0
  Br  Br16  1  0.51899770  0.84605278  0.29193245  1.0
  Br  Br17  1  0.51899770  0.65394722  0.29193245  1.0
  Br  Br18  1  0.01899770  0.84605278  0.20806755  1.0
  Br  Br19  1  0.01899770  0.65394722  0.20806755  1.0
  Br  Br20  1  0.45540981  0.93304761  0.74195779  1.0
  Br  Br21  1  0.45540981  0.56695239  0.74195779  1.0
  Br  Br22  1  0.95540981  0.93304761  0.75804221  1.0
  Br  Br23  1  0.95540981  0.56695239  0.75804221  1.0
  Br  Br24  1  0.54459019  0.43304761  0.25804221  1.0
  Br  Br25  1  0.54459019  0.06695239  0.25804221  1.0
  Br  Br26  1  0.04459019  0.43304761  0.24195779  1.0
  Br  Br27  1  0.04459019  0.06695239  0.24195779  1.0
  Br  Br28  1  0.23059790  0.84595382  0.72442939  1.0
  Br  Br29  1  0.23059790  0.65404618  0.72442939  1.0
  Br  Br30  1  0.73059790  0.84595382  0.77557061  1.0
  Br  Br31  1  0.73059790  0.65404618  0.77557061  1.0
  Br  Br32  1  0.76940210  0.34595382  0.27557061  1.0
  Br  Br33  1  0.76940210  0.15404618  0.27557061  1.0
  Br  Br34  1  0.26940210  0.34595382  0.22442939  1.0
  Br  Br35  1  0.26940210  0.15404618  0.22442939  1.0
  Br  Br36  1  0.20546249  0.43348561  0.77610147  1.0
  Br  Br37  1  0.20546249  0.06651439  0.77610147  1.0
  Br  Br38  1  0.70546249  0.43348561  0.72389853  1.0
  Br  Br39  1  0.70546249  0.06651439  0.72389853  1.0
  Br  Br40  1  0.79453751  0.93348561  0.22389853  1.0
  Br  Br41  1  0.79453751  0.56651439  0.22389853  1.0
  Br  Br42  1  0.29453751  0.93348561  0.27610147  1.0
  Br  Br43  1  0.29453751  0.56651439  0.27610147  1.0
  Br  Br44  1  0.30218185  0.75000000  0.29949981  1.0
  Br  Br45  1  0.80218185  0.75000000  0.20050019  1.0
  Br  Br46  1  0.69781815  0.25000000  0.70050019  1.0
  Br  Br47  1  0.19781815  0.25000000  0.79949981  1.0
