# generated using pymatgen
data_FeWClO4
_symmetry_space_group_name_H-M   'P 1'
_cell_length_a   6.76153289
_cell_length_b   6.76153289
_cell_length_c   5.79883414
_cell_angle_alpha   90.00000000
_cell_angle_beta   90.00000000
_cell_angle_gamma   90.00000000
_symmetry_Int_Tables_number   1
_chemical_formula_structural   FeWClO4
_chemical_formula_sum   'Fe2 W2 Cl2 O8'
_cell_volume   265.11299551
_cell_formula_units_Z   2
loop_
 _symmetry_equiv_pos_site_id
 _symmetry_equiv_pos_as_xyz
  1  'x, y, z'
loop_
 _atom_site_type_symbol
 _atom_site_label
 _atom_site_symmetry_multiplicity
 _atom_site_fract_x
 _atom_site_fract_y
 _atom_site_fract_z
 _atom_site_occupancy
  Fe  Fe0  1  0.00000000  0.50000000  0.73521214  1.0
  Fe  Fe1  1  0.50000000  0.00000000  0.26478786  1.0
  W  W2  1  0.50000000  0.50000000  0.00000000  1.0
  W  W3  1  0.00000000  0.00000000  0.00000000  1.0
  Cl  Cl4  1  0.50000000  0.00000000  0.64433516  1.0
  Cl  Cl5  1  0.00000000  0.50000000  0.35566484  1.0
  O  O6  1  0.71609677  0.50000000  0.82093132  1.0
  O  O7  1  0.28390323  0.50000000  0.82093132  1.0
  O  O8  1  0.00000000  0.21609677  0.82093132  1.0
  O  O9  1  0.00000000  0.78390323  0.82093132  1.0
  O  O10  1  0.78390323  0.00000000  0.17906868  1.0
  O  O11  1  0.21609677  0.00000000  0.17906868  1.0
  O  O12  1  0.50000000  0.28390323  0.17906868  1.0
  O  O13  1  0.50000000  0.71609677  0.17906868  1.0
