# generated using pymatgen
data_Ba6Lu2(WO6)3
_symmetry_space_group_name_H-M   'P 1'
_cell_length_a   14.77920475
_cell_length_b   14.77920475
_cell_length_c   14.77920475
_cell_angle_alpha   23.06581246
_cell_angle_beta   23.06581246
_cell_angle_gamma   23.06581246
_symmetry_Int_Tables_number   1
_chemical_formula_structural   Ba6Lu2(WO6)3
_chemical_formula_sum   'Ba6 Lu2 W3 O18'
_cell_volume   434.92040769
_cell_formula_units_Z   1
loop_
 _symmetry_equiv_pos_site_id
 _symmetry_equiv_pos_as_xyz
  1  'x, y, z'
loop_
 _atom_site_type_symbol
 _atom_site_label
 _atom_site_symmetry_multiplicity
 _atom_site_fract_x
 _atom_site_fract_y
 _atom_site_fract_z
 _atom_site_occupancy
  Ba  Ba0  1  0.91218694  0.91218694  0.91218694  1.0
  Ba  Ba1  1  1.08781306  1.08781306  0.08781306  1.0
  Ba  Ba2  1  0.81262464  0.81262464  0.81262464  1.0
  Ba  Ba3  1  1.18737536  1.18737536  0.18737536  1.0
  Ba  Ba4  1  1.63640684  0.63640684  0.63640684  1.0
  Ba  Ba5  1  1.36359316  0.36359316  0.36359316  1.0
  Lu  Lu6  1  0.72454059  0.72454059  0.72454059  1.0
  Lu  Lu7  1  1.27545941  1.27545941  0.27545941  1.0
  W  W8  1  1.55175768  0.55175768  0.55175768  1.0
  W  W9  1  1.44824232  0.44824232  0.44824232  1.0
  W  W10  1  0.00000000  -0.00000000  -0.00000000  1.0
  O  O11  1  1.42714990  0.42714990  0.89219183  1.0
  O  O12  1  1.42714990  0.89219183  0.42714990  1.0
  O  O13  1  1.10780817  0.57285010  0.57285010  1.0
  O  O14  1  1.57285010  0.10780817  0.57285010  1.0
  O  O15  1  1.57285010  0.57285010  0.10780817  1.0
  O  O16  1  0.89219183  1.42714990  0.42714990  1.0
  O  O17  1  1.31118661  0.31118661  0.78583892  1.0
  O  O18  1  1.31118661  0.78583892  0.31118661  1.0
  O  O19  1  1.21416108  0.68881339  0.68881339  1.0
  O  O20  1  1.68881339  0.21416108  0.68881339  1.0
  O  O21  1  1.68881339  0.68881339  0.21416108  1.0
  O  O22  1  0.78583892  1.31118661  0.31118661  1.0
  O  O23  1  1.13017208  1.13017208  0.66227504  1.0
  O  O24  1  1.13017208  1.66227504  0.13017208  1.0
  O  O25  1  1.33772496  0.86982792  -0.13017208  1.0
  O  O26  1  0.86982792  1.33772496  -0.13017208  1.0
  O  O27  1  0.86982792  0.86982792  0.33772496  1.0
  O  O28  1  1.66227504  1.13017208  0.13017208  1.0
