# generated using pymatgen
data_AlC3SeSNCl5
_symmetry_space_group_name_H-M   'P 1'
_cell_length_a   9.64025285
_cell_length_b   12.36494168
_cell_length_c   10.39569885
_cell_angle_alpha   90.00000000
_cell_angle_beta   90.31474863
_cell_angle_gamma   90.00000000
_symmetry_Int_Tables_number   1
_chemical_formula_structural   AlC3SeSNCl5
_chemical_formula_sum   'Al4 C12 Se4 S4 N4 Cl20'
_cell_volume   1239.16070937
_cell_formula_units_Z   4
loop_
 _symmetry_equiv_pos_site_id
 _symmetry_equiv_pos_as_xyz
  1  'x, y, z'
loop_
 _atom_site_type_symbol
 _atom_site_label
 _atom_site_symmetry_multiplicity
 _atom_site_fract_x
 _atom_site_fract_y
 _atom_site_fract_z
 _atom_site_occupancy
  Al  Al0  1  0.64578136  0.93403794  0.72143761  1.0
  Al  Al1  1  0.35421864  0.06596206  0.27856239  1.0
  Al  Al2  1  0.35421864  0.43403794  0.77856239  1.0
  Al  Al3  1  0.64578136  0.56596206  0.22143761  1.0
  C  C4  1  0.10293908  0.95516966  0.92110811  1.0
  C  C5  1  0.89706092  0.04483034  0.07889189  1.0
  C  C6  1  0.89706092  0.45516966  0.57889189  1.0
  C  C7  1  0.10293908  0.54483034  0.42110811  1.0
  C  C8  1  0.03673426  0.88705633  0.00777463  1.0
  C  C9  1  0.96326574  0.11294367  0.99222537  1.0
  C  C10  1  0.96326574  0.38705633  0.49222537  1.0
  C  C11  1  0.03673426  0.61294367  0.50777463  1.0
  C  C12  1  0.93186467  0.93087574  0.08885534  1.0
  C  C13  1  0.06813533  0.06912426  0.91114466  1.0
  C  C14  1  0.06813533  0.43087574  0.41114466  1.0
  C  C15  1  0.93186467  0.56912426  0.58885534  1.0
  Se  Se16  1  0.26405017  0.07041435  0.73589904  1.0
  Se  Se17  1  0.73594983  0.92958565  0.26410096  1.0
  Se  Se18  1  0.73594983  0.57041435  0.76410096  1.0
  Se  Se19  1  0.26405017  0.42958565  0.23589904  1.0
  S  S20  1  0.23116215  0.90801844  0.82043069  1.0
  S  S21  1  0.76883785  0.09198156  0.17956931  1.0
  S  S22  1  0.76883785  0.40801844  0.67956931  1.0
  S  S23  1  0.23116215  0.59198156  0.32043069  1.0
  N  N24  1  0.86529408  0.86768728  0.17285618  1.0
  N  N25  1  0.13470592  0.13231272  0.82714382  1.0
  N  N26  1  0.13470592  0.36768728  0.32714382  1.0
  N  N27  1  0.86529408  0.63231272  0.67285618  1.0
  Cl  Cl28  1  0.07929327  0.75332389  0.01501011  1.0
  Cl  Cl29  1  0.92070673  0.24667611  0.98498989  1.0
  Cl  Cl30  1  0.92070673  0.25332389  0.48498989  1.0
  Cl  Cl31  1  0.07929327  0.74667611  0.51501011  1.0
  Cl  Cl32  1  0.46527457  0.88643138  0.61016038  1.0
  Cl  Cl33  1  0.53472543  0.11356862  0.38983962  1.0
  Cl  Cl34  1  0.53472543  0.38643138  0.88983962  1.0
  Cl  Cl35  1  0.46527457  0.61356862  0.11016038  1.0
  Cl  Cl36  1  0.69142459  0.80867540  0.86205706  1.0
  Cl  Cl37  1  0.30857541  0.19132460  0.13794294  1.0
  Cl  Cl38  1  0.30857541  0.30867540  0.63794294  1.0
  Cl  Cl39  1  0.69142459  0.69132460  0.36205706  1.0
  Cl  Cl40  1  0.82256990  0.96278646  0.59988381  1.0
  Cl  Cl41  1  0.17743010  0.03721354  0.40011619  1.0
  Cl  Cl42  1  0.17743010  0.46278646  0.90011619  1.0
  Cl  Cl43  1  0.82256990  0.53721354  0.09988381  1.0
  Cl  Cl44  1  0.59332971  0.08020977  0.82491020  1.0
  Cl  Cl45  1  0.40667029  0.91979023  0.17508980  1.0
  Cl  Cl46  1  0.40667029  0.58020977  0.67508980  1.0
  Cl  Cl47  1  0.59332971  0.41979023  0.32491020  1.0
