# generated using pymatgen
data_K2SnN6
_symmetry_space_group_name_H-M   'P 1'
_cell_length_a   6.41398972
_cell_length_b   6.41398972
_cell_length_c   6.41398972
_cell_angle_alpha   59.92534378
_cell_angle_beta   59.92534378
_cell_angle_gamma   59.92534378
_symmetry_Int_Tables_number   1
_chemical_formula_structural   K2SnN6
_chemical_formula_sum   'K2 Sn1 N6'
_cell_volume   186.26605058
_cell_formula_units_Z   1
loop_
 _symmetry_equiv_pos_site_id
 _symmetry_equiv_pos_as_xyz
  1  'x, y, z'
loop_
 _atom_site_type_symbol
 _atom_site_label
 _atom_site_symmetry_multiplicity
 _atom_site_fract_x
 _atom_site_fract_y
 _atom_site_fract_z
 _atom_site_occupancy
  K  K0  1  0.75028484  0.75028484  0.75028484  1.0
  K  K1  1  1.24971516  1.24971516  0.24971516  1.0
  Sn  Sn2  1  -0.00000000  -0.00000000  0.00000000  1.0
  N  N3  1  1.23939777  1.23939777  -0.23962753  1.0
  N  N4  1  1.23939777  0.76037247  0.23939777  1.0
  N  N5  1  1.23962753  0.76060223  0.76060223  1.0
  N  N6  1  1.76060223  0.23962753  0.76060223  1.0
  N  N7  1  1.76060223  0.76060223  0.23962753  1.0
  N  N8  1  0.76037247  1.23939777  0.23939777  1.0
