# generated using pymatgen
data_SiO2
_symmetry_space_group_name_H-M   'P 1'
_cell_length_a   10.13558060
_cell_length_b   10.13558060
_cell_length_c   10.26880061
_cell_angle_alpha   90.00000000
_cell_angle_beta   90.00000000
_cell_angle_gamma   120.00000000
_symmetry_Int_Tables_number   1
_chemical_formula_structural   SiO2
_chemical_formula_sum   'Si12 O24'
_cell_volume   913.58217198
_cell_formula_units_Z   12
loop_
 _symmetry_equiv_pos_site_id
 _symmetry_equiv_pos_as_xyz
  1  'x, y, z'
loop_
 _atom_site_type_symbol
 _atom_site_label
 _atom_site_symmetry_multiplicity
 _atom_site_fract_x
 _atom_site_fract_y
 _atom_site_fract_z
 _atom_site_occupancy
  Si  Si0  1  0.43090754  0.56909246  0.10267572  1.0
  Si  Si1  1  0.43090754  0.86181509  0.10267572  1.0
  Si  Si2  1  0.13818491  0.56909246  0.10267572  1.0
  Si  Si3  1  0.56909246  0.43090754  0.89732428  1.0
  Si  Si4  1  0.56909246  0.13818491  0.89732428  1.0
  Si  Si5  1  0.86181509  0.43090754  0.89732428  1.0
  Si  Si6  1  0.56909246  0.43090754  0.60267572  1.0
  Si  Si7  1  0.56909246  0.13818491  0.60267572  1.0
  Si  Si8  1  0.86181509  0.43090754  0.60267572  1.0
  Si  Si9  1  0.43090754  0.56909246  0.39732428  1.0
  Si  Si10  1  0.43090754  0.86181509  0.39732428  1.0
  Si  Si11  1  0.13818491  0.56909246  0.39732428  1.0
  O  O12  1  -0.00000000  0.50000000  0.00000000  1.0
  O  O13  1  0.50000000  0.50000000  0.00000000  1.0
  O  O14  1  0.50000000  0.00000000  0.00000000  1.0
  O  O15  1  -0.00000000  0.50000000  0.50000000  1.0
  O  O16  1  0.50000000  0.50000000  0.50000000  1.0
  O  O17  1  0.50000000  0.00000000  0.50000000  1.0
  O  O18  1  0.50782264  0.75391132  0.08172828  1.0
  O  O19  1  0.24608868  0.75391132  0.08172828  1.0
  O  O20  1  0.24608868  0.49217736  0.08172828  1.0
  O  O21  1  0.49217736  0.24608868  0.91827172  1.0
  O  O22  1  0.75391132  0.24608868  0.91827172  1.0
  O  O23  1  0.75391132  0.50782264  0.91827172  1.0
  O  O24  1  0.49217736  0.24608868  0.58172828  1.0
  O  O25  1  0.75391132  0.24608868  0.58172828  1.0
  O  O26  1  0.75391132  0.50782264  0.58172828  1.0
  O  O27  1  0.50782264  0.75391132  0.41827172  1.0
  O  O28  1  0.24608868  0.75391132  0.41827172  1.0
  O  O29  1  0.24608868  0.49217736  0.41827172  1.0
  O  O30  1  0.93268989  0.46634495  0.75000000  1.0
  O  O31  1  0.53365505  0.46634495  0.75000000  1.0
  O  O32  1  0.53365505  0.06731011  0.75000000  1.0
  O  O33  1  0.06731011  0.53365505  0.25000000  1.0
  O  O34  1  0.46634495  0.53365505  0.25000000  1.0
  O  O35  1  0.46634495  0.93268989  0.25000000  1.0
