# generated using pymatgen
data_Fe3(SiO4)2
_symmetry_space_group_name_H-M   'P 1'
_cell_length_a   5.94878258
_cell_length_b   4.85800543
_cell_length_c   10.29223633
_cell_angle_alpha   90.00000000
_cell_angle_beta   91.13571380
_cell_angle_gamma   90.00000000
_symmetry_Int_Tables_number   1
_chemical_formula_structural   Fe3(SiO4)2
_chemical_formula_sum   'Fe6 Si4 O16'
_cell_volume   297.37915106
_cell_formula_units_Z   2
loop_
 _symmetry_equiv_pos_site_id
 _symmetry_equiv_pos_as_xyz
  1  'x, y, z'
loop_
 _atom_site_type_symbol
 _atom_site_label
 _atom_site_symmetry_multiplicity
 _atom_site_fract_x
 _atom_site_fract_y
 _atom_site_fract_z
 _atom_site_occupancy
  Fe  Fe0  1  0.73323068  -0.00751748  0.27315354  1.0
  Fe  Fe1  1  0.73323068  0.50751748  0.77315354  1.0
  Fe  Fe2  1  0.26676932  0.49248252  0.22684646  1.0
  Fe  Fe3  1  0.26676932  0.00751748  0.72684646  1.0
  Fe  Fe4  1  0.00000000  0.50000000  0.50000000  1.0
  Fe  Fe5  1  0.00000000  0.00000000  0.00000000  1.0
  Si  Si6  1  0.75764294  0.43857789  0.09497222  1.0
  Si  Si7  1  0.75764294  0.06142211  0.59497222  1.0
  Si  Si8  1  0.24235706  0.93857789  0.40502778  1.0
  Si  Si9  1  0.24235706  0.56142211  0.90502778  1.0
  O  O10  1  0.97733707  0.27118360  0.16420025  1.0
  O  O11  1  0.97733707  0.22881640  0.66420025  1.0
  O  O12  1  0.02266293  0.77118360  0.33579975  1.0
  O  O13  1  0.02266293  0.72881640  0.83579975  1.0
  O  O14  1  0.76311744  0.18576623  0.44627606  1.0
  O  O15  1  0.76311744  0.31423377  0.94627606  1.0
  O  O16  1  0.23688256  0.68576623  0.05372394  1.0
  O  O17  1  0.23688256  0.81423377  0.55372394  1.0
  O  O18  1  0.55108391  0.31058375  0.18037164  1.0
  O  O19  1  0.55108391  0.18941625  0.68037164  1.0
  O  O20  1  0.44891609  0.81058375  0.31962836  1.0
  O  O21  1  0.44891609  0.68941625  0.81962836  1.0
  O  O22  1  0.22853782  0.27355907  0.39775552  1.0
  O  O23  1  0.22853782  0.22644093  0.89775552  1.0
  O  O24  1  0.77146218  0.77355907  0.10224448  1.0
  O  O25  1  0.77146218  0.72644093  0.60224448  1.0
