# generated using pymatgen
data_Mn5O8
_symmetry_space_group_name_H-M   'P 1'
_cell_length_a   5.82960153
_cell_length_b   5.82960153
_cell_length_c   4.93589541
_cell_angle_alpha   77.09724387
_cell_angle_beta   102.90275613
_cell_angle_gamma   121.11816052
_symmetry_Int_Tables_number   1
_chemical_formula_structural   Mn5O8
_chemical_formula_sum   'Mn5 O8'
_cell_volume   138.80415503
_cell_formula_units_Z   1
loop_
 _symmetry_equiv_pos_site_id
 _symmetry_equiv_pos_as_xyz
  1  'x, y, z'
loop_
 _atom_site_type_symbol
 _atom_site_label
 _atom_site_symmetry_multiplicity
 _atom_site_fract_x
 _atom_site_fract_y
 _atom_site_fract_z
 _atom_site_occupancy
  O  O0  1  0.90028303  0.09971697  0.61605133  1.0
  O  O1  1  0.09971697  -0.09971697  0.38394867  1.0
  O  O2  1  0.60244175  0.39755825  0.40079469  1.0
  O  O3  1  0.39755825  -0.39755825  0.59920532  1.0
  O  O4  1  0.34382415  0.11061427  0.88079369  1.0
  O  O5  1  0.88938573  0.65617585  0.88079369  1.0
  O  O6  1  1.11061427  0.34382415  0.11920631  1.0
  O  O7  1  0.65617585  -0.11061427  0.11920631  1.0
  Mn  Mn8  1  0.28228463  -0.28228463  0.87635431  1.0
  Mn  Mn9  1  0.71771537  0.28228463  0.12364569  1.0
  Mn  Mn10  1  0.00000000  0.00000000  0.00000000  1.0
  Mn  Mn11  1  0.74315510  0.74315510  0.50000000  1.0
  Mn  Mn12  1  0.25684490  0.25684490  0.50000000  1.0
