# generated using pymatgen
data_Cs2Sb2Pd
_symmetry_space_group_name_H-M   'P 1'
_cell_length_a   8.54635122
_cell_length_b   8.54635122
_cell_length_c   6.93460701
_cell_angle_alpha   90.00000000
_cell_angle_beta   90.00000000
_cell_angle_gamma   126.50182018
_symmetry_Int_Tables_number   1
_chemical_formula_structural   Cs2Sb2Pd
_chemical_formula_sum   'Cs4 Sb4 Pd2'
_cell_volume   407.14756370
_cell_formula_units_Z   2
loop_
 _symmetry_equiv_pos_site_id
 _symmetry_equiv_pos_as_xyz
  1  'x, y, z'
loop_
 _atom_site_type_symbol
 _atom_site_label
 _atom_site_symmetry_multiplicity
 _atom_site_fract_x
 _atom_site_fract_y
 _atom_site_fract_z
 _atom_site_occupancy
  Cs  Cs0  1  0.19916934  0.80083066  0.75000000  1.0
  Cs  Cs1  1  -0.19916934  0.19916934  0.25000000  1.0
  Cs  Cs2  1  -0.40150459  0.40150459  0.75000000  1.0
  Cs  Cs3  1  0.40150459  0.59849541  0.25000000  1.0
  Sb  Sb4  1  0.08257756  0.28188079  0.75000000  1.0
  Sb  Sb5  1  0.28188079  1.08257756  0.25000000  1.0
  Sb  Sb6  1  0.71811921  0.91742244  0.75000000  1.0
  Sb  Sb7  1  -0.08257756  0.71811921  0.25000000  1.0
  Pd  Pd8  1  0.00000000  0.00000000  0.00000000  1.0
  Pd  Pd9  1  0.00000000  0.00000000  0.50000000  1.0
