# generated using pymatgen
data_InSe
_symmetry_space_group_name_H-M   'P 1'
_cell_length_a   4.09014664
_cell_length_b   4.09014664
_cell_length_c   18.35031577
_cell_angle_alpha   90.00000000
_cell_angle_beta   90.00000000
_cell_angle_gamma   120.00000000
_symmetry_Int_Tables_number   1
_chemical_formula_structural   InSe
_chemical_formula_sum   'In4 Se4'
_cell_volume   265.85934484
_cell_formula_units_Z   4
loop_
 _symmetry_equiv_pos_site_id
 _symmetry_equiv_pos_as_xyz
  1  'x, y, z'
loop_
 _atom_site_type_symbol
 _atom_site_label
 _atom_site_symmetry_multiplicity
 _atom_site_fract_x
 _atom_site_fract_y
 _atom_site_fract_z
 _atom_site_occupancy
  In  In0  1  0.33333333  0.66666667  0.32695337  1.0
  In  In1  1  0.33333333  0.66666667  0.17304663  1.0
  In  In2  1  0.66666667  0.33333333  0.82695337  1.0
  In  In3  1  0.66666667  0.33333333  0.67304663  1.0
  Se  Se4  1  0.33333333  0.66666667  0.89633633  1.0
  Se  Se5  1  0.33333333  0.66666667  0.60366367  1.0
  Se  Se6  1  0.66666667  0.33333333  0.39633633  1.0
  Se  Se7  1  0.66666667  0.33333333  0.10366367  1.0
