# generated using pymatgen
data_Nb3GaAu
_symmetry_space_group_name_H-M   'P 1'
_cell_length_a   7.01807534
_cell_length_b   7.01807534
_cell_length_c   7.01807534
_cell_angle_alpha   90.00000000
_cell_angle_beta   90.00000000
_cell_angle_gamma   90.00000000
_symmetry_Int_Tables_number   1
_chemical_formula_structural   Nb3GaAu
_chemical_formula_sum   'Nb12 Ga4 Au4'
_cell_volume   345.66394140
_cell_formula_units_Z   4
loop_
 _symmetry_equiv_pos_site_id
 _symmetry_equiv_pos_as_xyz
  1  'x, y, z'
loop_
 _atom_site_type_symbol
 _atom_site_label
 _atom_site_symmetry_multiplicity
 _atom_site_fract_x
 _atom_site_fract_y
 _atom_site_fract_z
 _atom_site_occupancy
  Nb  Nb0  1  0.04362515  0.86798097  0.70295883  1.0
  Nb  Nb1  1  0.29704117  0.54362515  0.63201903  1.0
  Nb  Nb2  1  0.36798097  0.79704117  0.95637485  1.0
  Nb  Nb3  1  0.54362515  0.63201903  0.29704117  1.0
  Nb  Nb4  1  0.79704117  0.95637485  0.36798097  1.0
  Nb  Nb5  1  0.86798097  0.70295883  0.04362515  1.0
  Nb  Nb6  1  0.95637485  0.36798097  0.79704117  1.0
  Nb  Nb7  1  0.70295883  0.04362515  0.86798097  1.0
  Nb  Nb8  1  0.63201903  0.29704117  0.54362515  1.0
  Nb  Nb9  1  0.45637485  0.13201903  0.20295883  1.0
  Nb  Nb10  1  0.20295883  0.45637485  0.13201903  1.0
  Nb  Nb11  1  0.13201903  0.20295883  0.45637485  1.0
  Ga  Ga12  1  0.81339954  0.31339954  0.18660046  1.0
  Ga  Ga13  1  0.31339954  0.18660046  0.81339954  1.0
  Ga  Ga14  1  0.18660046  0.81339954  0.31339954  1.0
  Ga  Ga15  1  0.68660046  0.68660046  0.68660046  1.0
  Au  Au16  1  0.43532040  0.93532040  0.56467960  1.0
  Au  Au17  1  0.93532040  0.56467960  0.43532040  1.0
  Au  Au18  1  0.56467960  0.43532040  0.93532040  1.0
  Au  Au19  1  0.06467960  0.06467960  0.06467960  1.0
