# generated using pymatgen
data_Zr6Zn23Ge
_symmetry_space_group_name_H-M   'P 1'
_cell_length_a   8.78405675
_cell_length_b   8.78405675
_cell_length_c   8.78405675
_cell_angle_alpha   60.00000000
_cell_angle_beta   60.00000000
_cell_angle_gamma   60.00000000
_symmetry_Int_Tables_number   1
_chemical_formula_structural   Zr6Zn23Ge
_chemical_formula_sum   'Zr6 Zn23 Ge1'
_cell_volume   479.25913685
_cell_formula_units_Z   1
loop_
 _symmetry_equiv_pos_site_id
 _symmetry_equiv_pos_as_xyz
  1  'x, y, z'
loop_
 _atom_site_type_symbol
 _atom_site_label
 _atom_site_symmetry_multiplicity
 _atom_site_fract_x
 _atom_site_fract_y
 _atom_site_fract_z
 _atom_site_occupancy
  Zr  Zr0  1  -0.71476243  0.71476243  0.71476243  1.0
  Zr  Zr1  1  -0.28523757  0.28523757  0.71476243  1.0
  Zr  Zr2  1  0.71476243  0.71476243  -0.71476243  1.0
  Zr  Zr3  1  0.28523757  1.28523757  -0.28523757  1.0
  Zr  Zr4  1  0.28523757  -0.28523757  1.28523757  1.0
  Zr  Zr5  1  -0.28523757  0.28523757  0.28523757  1.0
  Zn  Zn6  1  0.66275492  0.66275492  -0.33724508  1.0
  Zn  Zn7  1  0.33724508  1.33724508  -0.01173525  1.0
  Zn  Zn8  1  1.33724508  -0.01173525  0.33724508  1.0
  Zn  Zn9  1  1.01173525  0.66275492  0.66275492  1.0
  Zn  Zn10  1  -0.01173525  1.33724508  0.33724508  1.0
  Zn  Zn11  1  0.66275492  1.01173525  -0.33724508  1.0
  Zn  Zn12  1  0.66275492  0.66275492  1.01173525  1.0
  Zn  Zn13  1  1.33724508  0.33724508  0.33724508  1.0
  Zn  Zn14  1  0.87548712  0.87548712  -0.12451288  1.0
  Zn  Zn15  1  1.12451288  0.12451288  0.62646135  1.0
  Zn  Zn16  1  1.12451288  0.62646135  0.12451288  1.0
  Zn  Zn17  1  0.37353865  0.87548712  -0.12451288  1.0
  Zn  Zn18  1  1.62646135  0.12451288  0.12451288  1.0
  Zn  Zn19  1  0.87548712  0.37353865  -0.12451288  1.0
  Zn  Zn20  1  0.87548712  0.87548712  -0.62646135  1.0
  Zn  Zn21  1  1.12451288  0.12451288  0.12451288  1.0
  Zn  Zn22  1  1.50000000  0.00000000  -0.00000000  1.0
  Zn  Zn23  1  1.00000000  0.50000000  -0.50000000  1.0
  Zn  Zn24  1  0.00000000  1.50000000  -0.00000000  1.0
  Zn  Zn25  1  0.50000000  1.00000000  -0.50000000  1.0
  Zn  Zn26  1  -0.00000000  -0.00000000  0.50000000  1.0
  Zn  Zn27  1  0.50000000  -0.50000000  1.00000000  1.0
  Zn  Zn28  1  -0.00000000  -0.00000000  0.00000000  1.0
  Ge  Ge29  1  -0.50000000  0.50000000  0.50000000  1.0
