# generated using pymatgen
data_Mg4Ta2O9
_symmetry_space_group_name_H-M   'P 1'
_cell_length_a   5.20280916
_cell_length_b   5.20280916
_cell_length_c   14.16175343
_cell_angle_alpha   90.00000000
_cell_angle_beta   90.00000000
_cell_angle_gamma   120.00000000
_symmetry_Int_Tables_number   1
_chemical_formula_structural   Mg4Ta2O9
_chemical_formula_sum   'Mg8 Ta4 O18'
_cell_volume   331.98881528
_cell_formula_units_Z   2
loop_
 _symmetry_equiv_pos_site_id
 _symmetry_equiv_pos_as_xyz
  1  'x, y, z'
loop_
 _atom_site_type_symbol
 _atom_site_label
 _atom_site_symmetry_multiplicity
 _atom_site_fract_x
 _atom_site_fract_y
 _atom_site_fract_z
 _atom_site_occupancy
  Mg  Mg0  1  0.33333333  0.66666667  0.01654597  1.0
  Mg  Mg1  1  0.33333333  0.66666667  0.51654597  1.0
  Mg  Mg2  1  0.66666667  0.33333333  0.48345403  1.0
  Mg  Mg3  1  0.66666667  0.33333333  0.98345403  1.0
  Mg  Mg4  1  0.33333333  0.66666667  0.30900163  1.0
  Mg  Mg5  1  0.33333333  0.66666667  0.80900163  1.0
  Mg  Mg6  1  0.66666667  0.33333333  0.19099837  1.0
  Mg  Mg7  1  0.66666667  0.33333333  0.69099837  1.0
  Ta  Ta8  1  0.00000000  0.00000000  0.14291517  1.0
  Ta  Ta9  1  0.00000000  0.00000000  0.64291517  1.0
  Ta  Ta10  1  0.00000000  0.00000000  0.35708483  1.0
  Ta  Ta11  1  0.00000000  0.00000000  0.85708483  1.0
  O  O12  1  0.97126594  0.65399102  0.08471821  1.0
  O  O13  1  0.97126594  0.31727492  0.58471821  1.0
  O  O14  1  0.65399102  0.97126594  0.41528179  1.0
  O  O15  1  0.65399102  0.68272508  0.91528179  1.0
  O  O16  1  0.68272508  0.65399102  0.58471821  1.0
  O  O17  1  0.68272508  0.02873406  0.08471821  1.0
  O  O18  1  0.34600898  0.02873406  0.58471821  1.0
  O  O19  1  0.34600898  0.31727492  0.08471821  1.0
  O  O20  1  0.02873406  0.68272508  0.41528179  1.0
  O  O21  1  0.02873406  0.34600898  0.91528179  1.0
  O  O22  1  0.31727492  0.97126594  0.91528179  1.0
  O  O23  1  0.31727492  0.34600898  0.41528179  1.0
  O  O24  1  0.71177430  0.71177430  0.25000000  1.0
  O  O25  1  0.71177430  0.00000000  0.75000000  1.0
  O  O26  1  -0.00000000  0.71177430  0.75000000  1.0
  O  O27  1  0.00000000  0.28822570  0.25000000  1.0
  O  O28  1  0.28822570  0.28822570  0.75000000  1.0
  O  O29  1  0.28822570  0.00000000  0.25000000  1.0
