# generated using pymatgen
data_Cr2B(PO4)3
_symmetry_space_group_name_H-M   'P 1'
_cell_length_a   8.06310321
_cell_length_b   8.06310321
_cell_length_c   7.46863883
_cell_angle_alpha   90.00000000
_cell_angle_beta   90.00000000
_cell_angle_gamma   120.00000000
_symmetry_Int_Tables_number   1
_chemical_formula_structural   Cr2B(PO4)3
_chemical_formula_sum   'Cr4 B2 P6 O24'
_cell_volume   420.51019294
_cell_formula_units_Z   2
loop_
 _symmetry_equiv_pos_site_id
 _symmetry_equiv_pos_as_xyz
  1  'x, y, z'
loop_
 _atom_site_type_symbol
 _atom_site_label
 _atom_site_symmetry_multiplicity
 _atom_site_fract_x
 _atom_site_fract_y
 _atom_site_fract_z
 _atom_site_occupancy
  Cr  Cr0  1  0.33333333  0.66666667  0.44212502  1.0
  Cr  Cr1  1  0.33333333  0.66666667  0.05787498  1.0
  Cr  Cr2  1  0.66666667  0.33333333  0.94212502  1.0
  Cr  Cr3  1  0.66666667  0.33333333  0.55787498  1.0
  B  B4  1  0.00000000  0.00000000  0.25000000  1.0
  B  B5  1  0.00000000  0.00000000  0.75000000  1.0
  P  P6  1  0.68422622  0.63411437  0.25000000  1.0
  P  P7  1  0.63411437  0.94988815  0.75000000  1.0
  P  P8  1  0.94988815  0.31577378  0.25000000  1.0
  P  P9  1  0.36588563  0.05011185  0.25000000  1.0
  P  P10  1  0.31577378  0.36588563  0.75000000  1.0
  P  P11  1  0.05011185  0.68422622  0.75000000  1.0
  O  O12  1  0.72707428  0.56188470  0.42266960  1.0
  O  O13  1  0.72707428  0.56188470  0.07733040  1.0
  O  O14  1  0.56188470  0.83481041  0.92266960  1.0
  O  O15  1  0.56188470  0.83481041  0.57733040  1.0
  O  O16  1  0.83481041  0.27292572  0.42266960  1.0
  O  O17  1  0.83481041  0.27292572  0.07733040  1.0
  O  O18  1  0.43811530  0.16518959  0.42266960  1.0
  O  O19  1  0.43811530  0.16518959  0.07733040  1.0
  O  O20  1  0.27292572  0.43811530  0.92266960  1.0
  O  O21  1  0.27292572  0.43811530  0.57733040  1.0
  O  O22  1  0.16518959  0.72707428  0.92266960  1.0
  O  O23  1  0.16518959  0.72707428  0.57733040  1.0
  O  O24  1  0.13680536  0.94743526  0.25000000  1.0
  O  O25  1  0.94743526  0.81062990  0.75000000  1.0
  O  O26  1  0.81062990  0.86319464  0.25000000  1.0
  O  O27  1  0.05256474  0.18937010  0.25000000  1.0
  O  O28  1  0.86319464  0.05256474  0.75000000  1.0
  O  O29  1  0.18937010  0.13680536  0.75000000  1.0
  O  O30  1  0.39782911  0.87328464  0.25000000  1.0
  O  O31  1  0.87328464  0.47545553  0.75000000  1.0
  O  O32  1  0.47545553  0.60217089  0.25000000  1.0
  O  O33  1  0.12671536  0.52454447  0.25000000  1.0
  O  O34  1  0.60217089  0.12671536  0.75000000  1.0
  O  O35  1  0.52454447  0.39782911  0.75000000  1.0
