# generated using pymatgen
data_HfCoAs
_symmetry_space_group_name_H-M   'P 1'
_cell_length_a   6.46644580
_cell_length_b   3.82289280
_cell_length_c   7.26346801
_cell_angle_alpha   90.00000000
_cell_angle_beta   90.00000000
_cell_angle_gamma   90.00000000
_symmetry_Int_Tables_number   1
_chemical_formula_structural   HfCoAs
_chemical_formula_sum   'Hf4 Co4 As4'
_cell_volume   179.55677224
_cell_formula_units_Z   4
loop_
 _symmetry_equiv_pos_site_id
 _symmetry_equiv_pos_as_xyz
  1  'x, y, z'
loop_
 _atom_site_type_symbol
 _atom_site_label
 _atom_site_symmetry_multiplicity
 _atom_site_fract_x
 _atom_site_fract_y
 _atom_site_fract_z
 _atom_site_occupancy
  Hf  Hf0  1  0.97963311  0.75000000  0.68646219  1.0
  Hf  Hf1  1  0.47963311  0.75000000  0.81353781  1.0
  Hf  Hf2  1  0.02036689  0.25000000  0.31353781  1.0
  Hf  Hf3  1  0.52036689  0.25000000  0.18646219  1.0
  Co  Co4  1  0.86130256  0.75000000  0.06353672  1.0
  Co  Co5  1  0.36130256  0.75000000  0.43646328  1.0
  Co  Co6  1  0.13869744  0.25000000  0.93646328  1.0
  Co  Co7  1  0.63869744  0.25000000  0.56353672  1.0
  As  As8  1  0.73223037  0.75000000  0.38377157  1.0
  As  As9  1  0.23223037  0.75000000  0.11622843  1.0
  As  As10  1  0.26776963  0.25000000  0.61622843  1.0
  As  As11  1  0.76776963  0.25000000  0.88377157  1.0
