# generated using pymatgen
data_In(GaAu)2
_symmetry_space_group_name_H-M   'P 1'
_cell_length_a   4.31431820
_cell_length_b   4.31431820
_cell_length_c   13.08707024
_cell_angle_alpha   90.00000000
_cell_angle_beta   90.00000000
_cell_angle_gamma   120.00000000
_symmetry_Int_Tables_number   1
_chemical_formula_structural   In(GaAu)2
_chemical_formula_sum   'In2 Ga4 Au4'
_cell_volume   210.95868562
_cell_formula_units_Z   2
loop_
 _symmetry_equiv_pos_site_id
 _symmetry_equiv_pos_as_xyz
  1  'x, y, z'
loop_
 _atom_site_type_symbol
 _atom_site_label
 _atom_site_symmetry_multiplicity
 _atom_site_fract_x
 _atom_site_fract_y
 _atom_site_fract_z
 _atom_site_occupancy
  In  In0  1  -0.00000000  0.00000000  0.25000000  1.0
  In  In1  1  0.00000000  0.00000000  0.75000000  1.0
  Ga  Ga2  1  0.33333333  0.66666667  0.93429678  1.0
  Ga  Ga3  1  0.33333333  0.66666667  0.56570322  1.0
  Ga  Ga4  1  0.66666667  0.33333333  0.43429678  1.0
  Ga  Ga5  1  0.66666667  0.33333333  0.06570322  1.0
  Au  Au6  1  0.33333333  0.66666667  0.36242327  1.0
  Au  Au7  1  0.33333333  0.66666667  0.13757673  1.0
  Au  Au8  1  0.66666667  0.33333333  0.86242327  1.0
  Au  Au9  1  0.66666667  0.33333333  0.63757673  1.0
