# generated using pymatgen
data_V2Cd2O7
_symmetry_space_group_name_H-M   'P 1'
_cell_length_a   6.94792802
_cell_length_b   7.14479431
_cell_length_c   6.69330047
_cell_angle_alpha   63.81420298
_cell_angle_beta   79.21813145
_cell_angle_gamma   82.81157499
_symmetry_Int_Tables_number   1
_chemical_formula_structural   V2Cd2O7
_chemical_formula_sum   'V4 Cd4 O14'
_cell_volume   292.55887131
_cell_formula_units_Z   2
loop_
 _symmetry_equiv_pos_site_id
 _symmetry_equiv_pos_as_xyz
  1  'x, y, z'
loop_
 _atom_site_type_symbol
 _atom_site_label
 _atom_site_symmetry_multiplicity
 _atom_site_fract_x
 _atom_site_fract_y
 _atom_site_fract_z
 _atom_site_occupancy
  V  V0  1  0.16383314  0.25774189  0.71020138  1.0
  V  V1  1  0.83616686  0.74225811  0.28979862  1.0
  V  V2  1  0.45684210  0.34453104  0.22656894  1.0
  V  V3  1  0.54315790  0.65546896  0.77343106  1.0
  Cd  Cd4  1  0.33919853  0.83775555  0.24118652  1.0
  Cd  Cd5  1  0.66080147  0.16224445  0.75881348  1.0
  Cd  Cd6  1  0.02859716  0.75507741  0.74989077  1.0
  Cd  Cd7  1  0.97140284  0.24492259  0.25010923  1.0
  O  O8  1  0.33256159  0.08421854  0.85905583  1.0
  O  O9  1  0.66743841  0.91578146  0.14094417  1.0
  O  O10  1  0.04376768  0.38956742  0.86130535  1.0
  O  O11  1  0.95623232  0.61043258  0.13869465  1.0
  O  O12  1  0.28854547  0.43007853  0.45833601  1.0
  O  O13  1  0.71145453  0.56992147  0.54166399  1.0
  O  O14  1  0.99341717  0.12373770  0.65911167  1.0
  O  O15  1  0.00658283  0.87626230  0.34088833  1.0
  O  O16  1  0.29705551  0.16664203  0.27269786  1.0
  O  O17  1  0.70294449  0.83335797  0.72730214  1.0
  O  O18  1  0.64670942  0.24819759  0.37760711  1.0
  O  O19  1  0.35329058  0.75180241  0.62239289  1.0
  O  O20  1  0.58399380  0.36990800  0.94733365  1.0
  O  O21  1  0.41600620  0.63009200  0.05266635  1.0
