# generated using pymatgen
data_K5Tl3O
_symmetry_space_group_name_H-M   'P 1'
_cell_length_a   17.42301395
_cell_length_b   17.42301395
_cell_length_c   8.88805032
_cell_angle_alpha   90.00000000
_cell_angle_beta   90.00000000
_cell_angle_gamma   151.85512773
_symmetry_Int_Tables_number   1
_chemical_formula_structural   K5Tl3O
_chemical_formula_sum   'K20 Tl12 O4'
_cell_volume   1272.68620016
_cell_formula_units_Z   4
loop_
 _symmetry_equiv_pos_site_id
 _symmetry_equiv_pos_as_xyz
  1  'x, y, z'
loop_
 _atom_site_type_symbol
 _atom_site_label
 _atom_site_symmetry_multiplicity
 _atom_site_fract_x
 _atom_site_fract_y
 _atom_site_fract_z
 _atom_site_occupancy
  K  K0  1  0.01392363  1.54587973  0.25000000  1.0
  K  K1  1  -0.45412027  1.01392363  0.75000000  1.0
  K  K2  1  -0.54587973  0.98607637  0.25000000  1.0
  K  K3  1  -0.01392363  1.45412027  0.75000000  1.0
  K  K4  1  -0.12278862  1.61713892  0.25000000  1.0
  K  K5  1  -0.38286108  0.87721138  0.75000000  1.0
  K  K6  1  -0.61713892  1.12278862  0.25000000  1.0
  K  K7  1  0.12278862  1.38286108  0.75000000  1.0
  K  K8  1  -0.28994635  1.69668880  0.25000000  1.0
  K  K9  1  -0.30331120  0.71005365  0.75000000  1.0
  K  K10  1  -0.69668880  1.28994635  0.25000000  1.0
  K  K11  1  0.28994635  1.30331120  0.75000000  1.0
  K  K12  1  -0.95040275  0.95040275  0.96728874  1.0
  K  K13  1  -0.95040275  0.95040275  0.53271126  1.0
  K  K14  1  -0.04959725  1.04959725  0.46728874  1.0
  K  K15  1  -0.04959725  1.04959725  0.03271126  1.0
  K  K16  1  -0.82103677  0.82103677  0.96585522  1.0
  K  K17  1  -0.82103677  0.82103677  0.53414478  1.0
  K  K18  1  -0.17896323  1.17896323  0.46585522  1.0
  K  K19  1  -0.17896323  1.17896323  0.03414478  1.0
  Tl  Tl20  1  0.16385049  1.41235796  0.25000000  1.0
  Tl  Tl21  1  -0.58764204  1.16385049  0.75000000  1.0
  Tl  Tl22  1  -0.41235796  0.83614951  0.25000000  1.0
  Tl  Tl23  1  -0.16385049  1.58764204  0.75000000  1.0
  Tl  Tl24  1  -0.68362472  0.68362472  0.44442770  1.0
  Tl  Tl25  1  -0.68362472  0.68362472  0.05557230  1.0
  Tl  Tl26  1  -0.31637528  1.31637528  0.94442770  1.0
  Tl  Tl27  1  -0.31637528  1.31637528  0.55557230  1.0
  Tl  Tl28  1  -0.57577286  0.57577286  0.46656191  1.0
  Tl  Tl29  1  -0.57577286  0.57577286  0.03343809  1.0
  Tl  Tl30  1  -0.42422714  1.42422714  0.96656191  1.0
  Tl  Tl31  1  -0.42422714  1.42422714  0.53343809  1.0
  O  O32  1  -0.99137414  0.99137414  0.25000000  1.0
  O  O33  1  -0.00862586  1.00862586  0.75000000  1.0
  O  O34  1  -0.82276969  0.82276969  0.25000000  1.0
  O  O35  1  -0.17723031  1.17723031  0.75000000  1.0
