# generated using pymatgen
data_Al5BO9
_symmetry_space_group_name_H-M   'P 1'
_cell_length_a   8.10780231
_cell_length_b   8.10780231
_cell_length_c   7.77521693
_cell_angle_alpha   90.00000000
_cell_angle_beta   90.00000000
_cell_angle_gamma   138.54539647
_symmetry_Int_Tables_number   1
_chemical_formula_structural   Al5BO9
_chemical_formula_sum   'Al10 B2 O18'
_cell_volume   338.37178651
_cell_formula_units_Z   2
loop_
 _symmetry_equiv_pos_site_id
 _symmetry_equiv_pos_as_xyz
  1  'x, y, z'
loop_
 _atom_site_type_symbol
 _atom_site_label
 _atom_site_symmetry_multiplicity
 _atom_site_fract_x
 _atom_site_fract_y
 _atom_site_fract_z
 _atom_site_occupancy
  Al  Al0  1  -0.63246778  1.13621862  0.31403665  1.0
  Al  Al1  1  0.13621862  1.36753222  0.81403665  1.0
  Al  Al2  1  -0.13621862  1.63246778  0.31403665  1.0
  Al  Al3  1  -0.36753222  0.86378138  0.81403665  1.0
  Al  Al4  1  -0.74452785  0.74452785  0.49847137  1.0
  Al  Al5  1  -0.25547215  1.25547215  -0.00152863  1.0
  Al  Al6  1  -0.70339059  0.70339059  0.14762070  1.0
  Al  Al7  1  -0.29660941  1.29660941  0.64762070  1.0
  Al  Al8  1  -0.55660737  0.55660737  0.49818223  1.0
  Al  Al9  1  -0.44339263  1.44339263  0.99818223  1.0
  B  B10  1  -0.98447002  0.98447002  0.03538354  1.0
  B  B11  1  -0.01552998  1.01552998  0.53538354  1.0
  O  O12  1  -0.74281919  1.16149200  0.09942434  1.0
  O  O13  1  0.16149200  1.25718081  0.59942434  1.0
  O  O14  1  -0.16149200  1.74281919  0.09942434  1.0
  O  O15  1  -0.25718081  0.83850800  0.59942434  1.0
  O  O16  1  -0.44757385  0.93296792  0.01421674  1.0
  O  O17  1  -0.06703208  1.55242615  0.51421674  1.0
  O  O18  1  0.06703208  1.44757385  0.01421674  1.0
  O  O19  1  -0.55242615  1.06703208  0.51421674  1.0
  O  O20  1  -0.95373513  0.95373513  0.40764831  1.0
  O  O21  1  -0.04626487  1.04626487  0.90764831  1.0
  O  O22  1  -0.80900027  0.80900027  0.25016984  1.0
  O  O23  1  -0.19099973  1.19099973  0.75016984  1.0
  O  O24  1  -0.64813930  0.64813930  0.35112005  1.0
  O  O25  1  -0.35186070  1.35186070  0.85112005  1.0
  O  O26  1  -0.45473164  1.45473164  0.38627714  1.0
  O  O27  1  -0.54526836  0.54526836  0.88627714  1.0
  O  O28  1  -0.33126489  1.33126489  0.18157137  1.0
  O  O29  1  -0.66873511  0.66873511  0.68157137  1.0
