# generated using pymatgen
data_LaCo9Si4
_symmetry_space_group_name_H-M   'P 1'
_cell_length_a   7.95140582
_cell_length_b   7.95140582
_cell_length_c   7.95140582
_cell_angle_alpha   121.58125485
_cell_angle_beta   121.58125485
_cell_angle_gamma   87.28233342
_symmetry_Int_Tables_number   1
_chemical_formula_structural   LaCo9Si4
_chemical_formula_sum   'La2 Co18 Si8'
_cell_volume   346.56127389
_cell_formula_units_Z   2
loop_
 _symmetry_equiv_pos_site_id
 _symmetry_equiv_pos_as_xyz
  1  'x, y, z'
loop_
 _atom_site_type_symbol
 _atom_site_label
 _atom_site_symmetry_multiplicity
 _atom_site_fract_x
 _atom_site_fract_y
 _atom_site_fract_z
 _atom_site_occupancy
  La  La0  1  0.75000000  0.75000000  1.00000000  1.0
  La  La1  1  0.25000000  0.25000000  -0.00000000  1.0
  Co  Co2  1  0.69084558  1.19084558  1.24156730  1.0
  Co  Co3  1  1.05072172  0.55072172  1.24156730  1.0
  Co  Co4  1  0.44927828  0.69084558  0.50000000  1.0
  Co  Co5  1  0.80915442  1.05072172  1.50000000  1.0
  Co  Co6  1  1.19084558  0.94927828  1.50000000  1.0
  Co  Co7  1  0.55072172  0.30915442  0.50000000  1.0
  Co  Co8  1  0.94927828  0.44927828  0.75843270  1.0
  Co  Co9  1  0.30915442  0.80915442  0.75843270  1.0
  Co  Co10  1  0.80016129  0.93095299  1.73111428  1.0
  Co  Co11  1  0.69983871  0.43095299  1.13079170  1.0
  Co  Co12  1  0.43095299  0.30016129  0.73111428  1.0
  Co  Co13  1  0.06904701  0.80016129  0.86920830  1.0
  Co  Co14  1  0.30016129  0.56904701  0.86920830  1.0
  Co  Co15  1  0.19983871  0.06904701  0.26888572  1.0
  Co  Co16  1  0.93095299  0.19983871  1.13079170  1.0
  Co  Co17  1  0.56904701  0.69983871  1.26888572  1.0
  Co  Co18  1  0.50000000  -0.00000000  0.50000000  1.0
  Co  Co19  1  0.00000000  0.50000000  0.50000000  1.0
  Si  Si20  1  1.21017416  0.71017416  1.16293231  1.0
  Si  Si21  1  0.45275815  0.95275815  1.16293231  1.0
  Si  Si22  1  1.04724185  1.21017416  1.50000000  1.0
  Si  Si23  1  0.28982584  0.45275815  0.50000000  1.0
  Si  Si24  1  0.71017416  0.54724185  0.50000000  1.0
  Si  Si25  1  0.95275815  0.78982584  1.50000000  1.0
  Si  Si26  1  0.54724185  1.04724185  0.83706769  1.0
  Si  Si27  1  0.78982584  0.28982584  0.83706769  1.0
