# generated using pymatgen
data_RbMo2P(ClO3)2
_symmetry_space_group_name_H-M   'P 1'
_cell_length_a   10.75113534
_cell_length_b   10.75113534
_cell_length_c   12.02221485
_cell_angle_alpha   90.00000000
_cell_angle_beta   90.00000000
_cell_angle_gamma   90.00000000
_symmetry_Int_Tables_number   1
_chemical_formula_structural   RbMo2P(ClO3)2
_chemical_formula_sum   'Rb4 Mo8 P4 Cl8 O24'
_cell_volume   1389.61068011
_cell_formula_units_Z   4
loop_
 _symmetry_equiv_pos_site_id
 _symmetry_equiv_pos_as_xyz
  1  'x, y, z'
loop_
 _atom_site_type_symbol
 _atom_site_label
 _atom_site_symmetry_multiplicity
 _atom_site_fract_x
 _atom_site_fract_y
 _atom_site_fract_z
 _atom_site_occupancy
  Rb  Rb0  1  0.75000000  0.25000000  -0.00000000  1.0
  Rb  Rb1  1  0.75000000  0.75000000  0.00000000  1.0
  Rb  Rb2  1  0.25000000  0.75000000  -0.00000000  1.0
  Rb  Rb3  1  0.25000000  0.25000000  0.00000000  1.0
  Mo  Mo4  1  0.12527192  0.37472808  0.62796395  1.0
  Mo  Mo5  1  0.12527192  0.62527192  0.62796395  1.0
  Mo  Mo6  1  0.62527192  0.87472808  0.37203605  1.0
  Mo  Mo7  1  0.62527192  0.12527192  0.37203605  1.0
  Mo  Mo8  1  0.37472808  0.12527192  0.37203605  1.0
  Mo  Mo9  1  0.37472808  0.87472808  0.37203605  1.0
  Mo  Mo10  1  0.87472808  0.62527192  0.62796395  1.0
  Mo  Mo11  1  0.87472808  0.37472808  0.62796395  1.0
  P  P12  1  0.75000000  0.25000000  0.50000000  1.0
  P  P13  1  0.75000000  0.75000000  0.50000000  1.0
  P  P14  1  0.25000000  0.75000000  0.50000000  1.0
  P  P15  1  0.25000000  0.25000000  0.50000000  1.0
  Cl  Cl16  1  0.37680968  0.12319032  0.80321964  1.0
  Cl  Cl17  1  0.37680968  0.87680968  0.80321964  1.0
  Cl  Cl18  1  0.87680968  0.62319032  0.19678036  1.0
  Cl  Cl19  1  0.87680968  0.37680968  0.19678036  1.0
  Cl  Cl20  1  0.12319032  0.37680968  0.19678036  1.0
  Cl  Cl21  1  0.12319032  0.62319032  0.19678036  1.0
  Cl  Cl22  1  0.62319032  0.87680968  0.80321964  1.0
  Cl  Cl23  1  0.62319032  0.12319032  0.80321964  1.0
  O  O24  1  0.12159826  0.71654069  0.76803451  1.0
  O  O25  1  0.12159826  0.28345931  0.76803451  1.0
  O  O26  1  0.62159826  0.21654069  0.23196549  1.0
  O  O27  1  0.62159826  0.78345931  0.23196549  1.0
  O  O28  1  0.71654069  0.12159826  0.23196549  1.0
  O  O29  1  0.71654069  0.87840174  0.23196549  1.0
  O  O30  1  0.21654069  0.62159826  0.76803451  1.0
  O  O31  1  0.21654069  0.37840174  0.76803451  1.0
  O  O32  1  0.87840174  0.71654069  0.76803451  1.0
  O  O33  1  0.87840174  0.28345931  0.76803451  1.0
  O  O34  1  0.37840174  0.21654069  0.23196549  1.0
  O  O35  1  0.37840174  0.78345931  0.23196549  1.0
  O  O36  1  0.28345931  0.12159826  0.23196549  1.0
  O  O37  1  0.28345931  0.87840174  0.23196549  1.0
  O  O38  1  0.78345931  0.62159826  0.76803451  1.0
  O  O39  1  0.78345931  0.37840174  0.76803451  1.0
  O  O40  1  0.14564814  0.35435186  0.46141768  1.0
  O  O41  1  0.14564814  0.64564814  0.46141768  1.0
  O  O42  1  0.64564814  0.85435186  0.53858232  1.0
  O  O43  1  0.64564814  0.14564814  0.53858232  1.0
  O  O44  1  0.35435186  0.14564814  0.53858232  1.0
  O  O45  1  0.35435186  0.85435186  0.53858232  1.0
  O  O46  1  0.85435186  0.64564814  0.46141768  1.0
  O  O47  1  0.85435186  0.35435186  0.46141768  1.0
