# generated using pymatgen
data_Cd(InTe2)2
_symmetry_space_group_name_H-M   'P 1'
_cell_length_a   7.78608590
_cell_length_b   7.78608590
_cell_length_c   7.78608590
_cell_angle_alpha   131.50307520
_cell_angle_beta   131.50307520
_cell_angle_gamma   71.01500704
_symmetry_Int_Tables_number   1
_chemical_formula_structural   Cd(InTe2)2
_chemical_formula_sum   'Cd1 In2 Te4'
_cell_volume   259.23912782
_cell_formula_units_Z   1
loop_
 _symmetry_equiv_pos_site_id
 _symmetry_equiv_pos_as_xyz
  1  'x, y, z'
loop_
 _atom_site_type_symbol
 _atom_site_label
 _atom_site_symmetry_multiplicity
 _atom_site_fract_x
 _atom_site_fract_y
 _atom_site_fract_z
 _atom_site_occupancy
  Cd  Cd0  1  0.50000000  0.50000000  1.00000000  1.0
  In  In1  1  0.25000000  0.75000000  0.50000000  1.0
  In  In2  1  0.00000000  0.00000000  0.00000000  1.0
  Te  Te3  1  0.40879372  0.91296956  1.04704420  1.0
  Te  Te4  1  1.08703044  1.13407464  1.49582415  1.0
  Te  Te5  1  0.86592536  0.36174951  0.95295580  1.0
  Te  Te6  1  0.63825049  0.59120628  0.50417585  1.0
