# generated using pymatgen
data_LaTaO4
_symmetry_space_group_name_H-M   'P 1'
_cell_length_a   7.61382713
_cell_length_b   7.94642869
_cell_length_c   11.24559825
_cell_angle_alpha   90.00000000
_cell_angle_beta   90.00000000
_cell_angle_gamma   90.00000000
_symmetry_Int_Tables_number   1
_chemical_formula_structural   LaTaO4
_chemical_formula_sum   'La8 Ta8 O32'
_cell_volume   680.38944443
_cell_formula_units_Z   8
loop_
 _symmetry_equiv_pos_site_id
 _symmetry_equiv_pos_as_xyz
  1  'x, y, z'
loop_
 _atom_site_type_symbol
 _atom_site_label
 _atom_site_symmetry_multiplicity
 _atom_site_fract_x
 _atom_site_fract_y
 _atom_site_fract_z
 _atom_site_occupancy
  La  La0  1  0.27399276  0.62970108  0.52732992  1.0
  La  La1  1  0.27399276  0.87029892  0.02732992  1.0
  La  La2  1  0.77399276  0.62970108  0.97267008  1.0
  La  La3  1  0.77399276  0.87029892  0.47267008  1.0
  La  La4  1  0.72600724  0.12970108  0.97267008  1.0
  La  La5  1  0.72600724  0.37029892  0.47267008  1.0
  La  La6  1  0.22600724  0.12970108  0.52732992  1.0
  La  La7  1  0.22600724  0.37029892  0.02732992  1.0
  Ta  Ta8  1  0.50140353  0.87828357  0.74750776  1.0
  Ta  Ta9  1  0.50140353  0.62171643  0.24750776  1.0
  Ta  Ta10  1  1.00140353  0.87828357  0.75249224  1.0
  Ta  Ta11  1  1.00140353  0.62171643  0.25249224  1.0
  Ta  Ta12  1  0.49859647  0.37828357  0.75249224  1.0
  Ta  Ta13  1  0.49859647  0.12171643  0.25249224  1.0
  Ta  Ta14  1  -0.00140353  0.37828357  0.74750776  1.0
  Ta  Ta15  1  -0.00140353  0.12171643  0.24750776  1.0
  O  O16  1  0.48524309  0.62669041  0.72967268  1.0
  O  O17  1  0.48524309  0.87330959  0.22967268  1.0
  O  O18  1  0.98524309  0.62669041  0.77032732  1.0
  O  O19  1  0.98524309  0.87330959  0.27032732  1.0
  O  O20  1  0.51475691  0.12669041  0.77032732  1.0
  O  O21  1  0.51475691  0.37330959  0.27032732  1.0
  O  O22  1  0.01475691  0.12669041  0.72967268  1.0
  O  O23  1  0.01475691  0.37330959  0.22967268  1.0
  O  O24  1  0.41996764  0.89608566  0.58519250  1.0
  O  O25  1  0.41996764  0.60391434  0.08519250  1.0
  O  O26  1  0.91996764  0.89608566  0.91480750  1.0
  O  O27  1  0.91996764  0.60391434  0.41480750  1.0
  O  O28  1  0.58003236  0.39608566  0.91480750  1.0
  O  O29  1  0.58003236  0.10391434  0.41480750  1.0
  O  O30  1  0.08003236  0.39608566  0.58519250  1.0
  O  O31  1  0.08003236  0.10391434  0.08519250  1.0
  O  O32  1  0.24954368  0.87487989  0.80845400  1.0
  O  O33  1  0.24954368  0.62512011  0.30845400  1.0
  O  O34  1  0.74954368  0.87487989  0.69154600  1.0
  O  O35  1  0.74954368  0.62512011  0.19154600  1.0
  O  O36  1  0.75045632  0.37487989  0.69154600  1.0
  O  O37  1  0.75045632  0.12512011  0.19154600  1.0
  O  O38  1  0.25045632  0.37487989  0.80845400  1.0
  O  O39  1  0.25045632  0.12512011  0.30845400  1.0
  O  O40  1  0.06487684  0.85907642  0.57869400  1.0
  O  O41  1  0.06487684  0.64092358  0.07869400  1.0
  O  O42  1  0.56487684  0.85907642  0.92130600  1.0
  O  O43  1  0.56487684  0.64092358  0.42130600  1.0
  O  O44  1  0.93512316  0.35907642  0.92130600  1.0
  O  O45  1  0.93512316  0.14092358  0.42130600  1.0
  O  O46  1  0.43512316  0.35907642  0.57869400  1.0
  O  O47  1  0.43512316  0.14092358  0.07869400  1.0
