# generated using pymatgen
data_NbPt3
_symmetry_space_group_name_H-M   'P 1'
_cell_length_a   4.91872160
_cell_length_b   5.59705133
_cell_length_c   9.37951432
_cell_angle_alpha   90.00000000
_cell_angle_beta   100.63319280
_cell_angle_gamma   90.00000000
_symmetry_Int_Tables_number   1
_chemical_formula_structural   NbPt3
_chemical_formula_sum   'Nb4 Pt12'
_cell_volume   253.78717753
_cell_formula_units_Z   4
loop_
 _symmetry_equiv_pos_site_id
 _symmetry_equiv_pos_as_xyz
  1  'x, y, z'
loop_
 _atom_site_type_symbol
 _atom_site_label
 _atom_site_symmetry_multiplicity
 _atom_site_fract_x
 _atom_site_fract_y
 _atom_site_fract_z
 _atom_site_occupancy
  Nb  Nb0  1  0.37946892  0.75000000  0.62231878  1.0
  Nb  Nb1  1  0.62053108  0.25000000  0.37768122  1.0
  Nb  Nb2  1  0.21302997  0.75000000  0.12736952  1.0
  Nb  Nb3  1  0.78697003  0.25000000  0.87263048  1.0
  Pt  Pt4  1  0.88038843  -0.00091681  0.62585557  1.0
  Pt  Pt5  1  0.88038843  0.50091681  0.62585557  1.0
  Pt  Pt6  1  0.11961157  0.49908319  0.37414443  1.0
  Pt  Pt7  1  0.11961157  0.00091681  0.37414443  1.0
  Pt  Pt8  1  0.29143336  -0.00159450  0.87718902  1.0
  Pt  Pt9  1  0.29143336  0.50159450  0.87718902  1.0
  Pt  Pt10  1  0.70856664  0.49840550  0.12281098  1.0
  Pt  Pt11  1  0.70856664  0.00159450  0.12281098  1.0
  Pt  Pt12  1  0.79200988  0.75000000  0.87185456  1.0
  Pt  Pt13  1  0.20799012  0.25000000  0.12814544  1.0
  Pt  Pt14  1  0.60886094  0.75000000  0.37561452  1.0
  Pt  Pt15  1  0.39113906  0.25000000  0.62438548  1.0
