# generated using pymatgen
data_BaB4O7
_symmetry_space_group_name_H-M   'P 1'
_cell_length_a   9.08612521
_cell_length_b   11.08734450
_cell_length_c   4.34394004
_cell_angle_alpha   90.00000000
_cell_angle_beta   90.00000000
_cell_angle_gamma   90.00000000
_symmetry_Int_Tables_number   1
_chemical_formula_structural   BaB4O7
_chemical_formula_sum   'Ba4 B16 O28'
_cell_volume   437.61286502
_cell_formula_units_Z   4
loop_
 _symmetry_equiv_pos_site_id
 _symmetry_equiv_pos_as_xyz
  1  'x, y, z'
loop_
 _atom_site_type_symbol
 _atom_site_label
 _atom_site_symmetry_multiplicity
 _atom_site_fract_x
 _atom_site_fract_y
 _atom_site_fract_z
 _atom_site_occupancy
  Ba  Ba0  1  0.14694877  0.75000000  0.26865447  1.0
  Ba  Ba1  1  0.64694877  0.75000000  0.23134553  1.0
  Ba  Ba2  1  0.85305123  0.25000000  0.73134553  1.0
  Ba  Ba3  1  0.35305123  0.25000000  0.76865447  1.0
  B  B4  1  0.41067242  0.87358980  0.79242894  1.0
  B  B5  1  0.41067242  0.62641020  0.79242894  1.0
  B  B6  1  0.91067242  0.87358980  0.70757106  1.0
  B  B7  1  0.91067242  0.62641020  0.70757106  1.0
  B  B8  1  0.58932758  0.37358980  0.20757106  1.0
  B  B9  1  0.58932758  0.12641020  0.20757106  1.0
  B  B10  1  0.08932758  0.37358980  0.29242894  1.0
  B  B11  1  0.08932758  0.12641020  0.29242894  1.0
  B  B12  1  0.15805769  0.99949078  0.77522003  1.0
  B  B13  1  0.15805769  0.50050922  0.77522003  1.0
  B  B14  1  0.65805769  0.99949078  0.72477997  1.0
  B  B15  1  0.65805769  0.50050922  0.72477997  1.0
  B  B16  1  0.84194231  0.49949078  0.22477997  1.0
  B  B17  1  0.84194231  0.00050922  0.22477997  1.0
  B  B18  1  0.34194231  0.49949078  0.27522003  1.0
  B  B19  1  0.34194231  0.00050922  0.27522003  1.0
  O  O20  1  0.38978274  0.89403203  0.12248905  1.0
  O  O21  1  0.38978274  0.60596797  0.12248905  1.0
  O  O22  1  0.88978274  0.89403203  0.37751095  1.0
  O  O23  1  0.88978274  0.60596797  0.37751095  1.0
  O  O24  1  0.61021726  0.39403203  0.87751095  1.0
  O  O25  1  0.61021726  0.10596797  0.87751095  1.0
  O  O26  1  0.11021726  0.39403203  0.62248905  1.0
  O  O27  1  0.11021726  0.10596797  0.62248905  1.0
  O  O28  1  0.30402684  0.96125186  0.61935280  1.0
  O  O29  1  0.30402684  0.53874814  0.61935280  1.0
  O  O30  1  0.80402684  0.96125186  0.88064720  1.0
  O  O31  1  0.80402684  0.53874814  0.88064720  1.0
  O  O32  1  0.69597316  0.46125186  0.38064720  1.0
  O  O33  1  0.69597316  0.03874814  0.38064720  1.0
  O  O34  1  0.19597316  0.46125186  0.11935280  1.0
  O  O35  1  0.19597316  0.03874814  0.11935280  1.0
  O  O36  1  0.06346404  0.89599364  0.79477213  1.0
  O  O37  1  0.06346404  0.60400636  0.79477213  1.0
  O  O38  1  0.56346404  0.89599364  0.70522787  1.0
  O  O39  1  0.56346404  0.60400636  0.70522787  1.0
  O  O40  1  0.93653596  0.39599364  0.20522787  1.0
  O  O41  1  0.93653596  0.10400636  0.20522787  1.0
  O  O42  1  0.43653596  0.39599364  0.29477213  1.0
  O  O43  1  0.43653596  0.10400636  0.29477213  1.0
  O  O44  1  0.36762601  0.75000000  0.71179910  1.0
  O  O45  1  0.86762601  0.75000000  0.78820090  1.0
  O  O46  1  0.63237399  0.25000000  0.28820090  1.0
  O  O47  1  0.13237399  0.25000000  0.21179910  1.0
