# generated using pymatgen
data_HgTe(HO)7
_symmetry_space_group_name_H-M   'P 1'
_cell_length_a   8.74257776
_cell_length_b   7.35876467
_cell_length_c   6.02698939
_cell_angle_alpha   87.20778637
_cell_angle_beta   105.00689107
_cell_angle_gamma   91.60443651
_symmetry_Int_Tables_number   1
_chemical_formula_structural   HgTe(HO)7
_chemical_formula_sum   'Hg2 Te2 H14 O14'
_cell_volume   374.02745028
_cell_formula_units_Z   2
loop_
 _symmetry_equiv_pos_site_id
 _symmetry_equiv_pos_as_xyz
  1  'x, y, z'
loop_
 _atom_site_type_symbol
 _atom_site_label
 _atom_site_symmetry_multiplicity
 _atom_site_fract_x
 _atom_site_fract_y
 _atom_site_fract_z
 _atom_site_occupancy
  Hg  Hg0  1  -0.60596101  -0.96997615  -0.68595417  1.0
  Hg  Hg1  1  -0.39403899  -0.03002385  -0.31404583  1.0
  Te  Te2  1  -0.50000000  -0.50000000  0.00000000  1.0
  Te  Te3  1  0.00000000  0.00000000  0.00000000  1.0
  H  H4  1  -0.28497721  -0.73316369  -0.92424400  1.0
  H  H5  1  -0.71502279  -0.26683631  -0.07575600  1.0
  H  H6  1  -0.25691684  -0.29498003  -0.88742335  1.0
  H  H7  1  -0.74308316  -0.70501997  -0.11257665  1.0
  H  H8  1  0.03136050  -0.71683812  -0.76100691  1.0
  H  H9  1  -1.03136050  -0.28316188  -0.23899309  1.0
  H  H10  1  -0.64955992  -0.55656808  -0.70046119  1.0
  H  H11  1  -0.35044008  -0.44343192  -0.29953881  1.0
  H  H12  1  -0.86701657  -0.41095127  -0.68436520  1.0
  H  H13  1  -0.13298343  -0.58904873  -0.31563480  1.0
  H  H14  1  -0.94312847  -0.13454283  -0.58903218  1.0
  H  H15  1  -0.05687153  -0.86545717  -0.41096782  1.0
  H  H16  1  -0.79196020  -0.55232386  -0.47976786  1.0
  H  H17  1  -0.20803980  -0.44767614  -0.52023214  1.0
  O  O18  1  -0.79060923  -0.89223131  -0.98320351  1.0
  O  O19  1  -0.20939077  -0.10776869  -0.01679649  1.0
  O  O20  1  -0.39551147  -0.73727514  -1.01933234  1.0
  O  O21  1  -0.60448853  -0.26272486  0.01933234  1.0
  O  O22  1  -0.05152839  -0.81604581  -0.79046740  1.0
  O  O23  1  -0.94847161  -0.18395419  -0.20953260  1.0
  O  O24  1  -0.54518268  -0.60332828  -0.71344787  1.0
  O  O25  1  -0.45481732  -0.39667172  -0.28655213  1.0
  O  O26  1  -0.90611189  -0.17047972  -0.72091059  1.0
  O  O27  1  -0.09388811  -0.82952028  -0.27908941  1.0
  O  O28  1  -0.83191619  -0.53834042  -0.65033299  1.0
  O  O29  1  -0.16808381  -0.46165958  -0.34966701  1.0
  O  O30  1  -0.70617809  -0.59585208  -0.19409583  1.0
  O  O31  1  -0.29382191  -0.40414792  -0.80590417  1.0
