# generated using pymatgen
data_NaAlH4
_symmetry_space_group_name_H-M   'P 1'
_cell_length_a   6.62169179
_cell_length_b   6.62169179
_cell_length_c   6.62169179
_cell_angle_alpha   135.61773477
_cell_angle_beta   135.61773477
_cell_angle_gamma   64.57188012
_symmetry_Int_Tables_number   1
_chemical_formula_structural   NaAlH4
_chemical_formula_sum   'Na2 Al2 H8'
_cell_volume   140.05986017
_cell_formula_units_Z   2
loop_
 _symmetry_equiv_pos_site_id
 _symmetry_equiv_pos_as_xyz
  1  'x, y, z'
loop_
 _atom_site_type_symbol
 _atom_site_label
 _atom_site_symmetry_multiplicity
 _atom_site_fract_x
 _atom_site_fract_y
 _atom_site_fract_z
 _atom_site_occupancy
  Na  Na0  1  0.25000000  0.75000000  0.50000000  1.0
  Na  Na1  1  0.50000000  0.50000000  1.00000000  1.0
  Al  Al2  1  0.75000000  0.25000000  0.50000000  1.0
  Al  Al3  1  0.00000000  0.00000000  0.00000000  1.0
  H  H4  1  0.22250501  0.31536601  0.37709273  1.0
  H  H5  1  0.93827328  0.84541228  1.62290727  1.0
  H  H6  1  0.81172672  0.40458772  0.87709273  1.0
  H  H7  1  0.52749499  0.93463399  1.12290727  1.0
  H  H8  1  0.68463399  1.06172672  0.90713900  1.0
  H  H9  1  1.15458772  0.77749499  1.09286100  1.0
  H  H10  1  0.59541228  0.47250501  0.40713900  1.0
  H  H11  1  1.06536601  1.18827328  1.59286100  1.0
