# generated using pymatgen
data_Hg7Cl2O3
_symmetry_space_group_name_H-M   'P 1'
_cell_length_a   6.62577058
_cell_length_b   11.87562559
_cell_length_c   14.85306050
_cell_angle_alpha   90.00000000
_cell_angle_beta   90.00000000
_cell_angle_gamma   90.00000000
_symmetry_Int_Tables_number   1
_chemical_formula_structural   Hg7Cl2O3
_chemical_formula_sum   'Hg28 Cl8 O12'
_cell_volume   1168.71560027
_cell_formula_units_Z   4
loop_
 _symmetry_equiv_pos_site_id
 _symmetry_equiv_pos_as_xyz
  1  'x, y, z'
loop_
 _atom_site_type_symbol
 _atom_site_label
 _atom_site_symmetry_multiplicity
 _atom_site_fract_x
 _atom_site_fract_y
 _atom_site_fract_z
 _atom_site_occupancy
  Hg  Hg0  1  0.53819603  0.61869115  0.92194891  1.0
  Hg  Hg1  1  0.53819603  0.61869115  0.57805109  1.0
  Hg  Hg2  1  0.53819603  0.88130885  0.42194891  1.0
  Hg  Hg3  1  0.53819603  0.88130885  0.07805109  1.0
  Hg  Hg4  1  0.46180397  0.11869115  0.92194891  1.0
  Hg  Hg5  1  0.46180397  0.11869115  0.57805109  1.0
  Hg  Hg6  1  0.46180397  0.38130885  0.42194891  1.0
  Hg  Hg7  1  0.46180397  0.38130885  0.07805109  1.0
  Hg  Hg8  1  0.32716829  0.79144566  0.86911457  1.0
  Hg  Hg9  1  0.32716829  0.79144566  0.63088543  1.0
  Hg  Hg10  1  0.32716829  0.70855434  0.36911457  1.0
  Hg  Hg11  1  0.32716829  0.70855434  0.13088543  1.0
  Hg  Hg12  1  0.67283171  0.29144566  0.86911457  1.0
  Hg  Hg13  1  0.67283171  0.29144566  0.63088543  1.0
  Hg  Hg14  1  0.67283171  0.20855434  0.36911457  1.0
  Hg  Hg15  1  0.67283171  0.20855434  0.13088543  1.0
  Hg  Hg16  1  0.85958832  0.54028375  0.75000000  1.0
  Hg  Hg17  1  0.85958832  0.95971625  0.25000000  1.0
  Hg  Hg18  1  0.14041168  0.04028375  0.75000000  1.0
  Hg  Hg19  1  0.14041168  0.45971625  0.25000000  1.0
  Hg  Hg20  1  0.84642234  0.75923417  0.75000000  1.0
  Hg  Hg21  1  0.84642234  0.74076583  0.25000000  1.0
  Hg  Hg22  1  0.15357766  0.25923417  0.75000000  1.0
  Hg  Hg23  1  0.15357766  0.24076583  0.25000000  1.0
  Hg  Hg24  1  0.00000000  0.00000000  0.00000000  1.0
  Hg  Hg25  1  0.00000000  0.00000000  0.50000000  1.0
  Hg  Hg26  1  0.00000000  0.50000000  0.50000000  1.0
  Hg  Hg27  1  0.00000000  0.50000000  0.00000000  1.0
  Cl  Cl28  1  0.68532670  0.95022005  0.75000000  1.0
  Cl  Cl29  1  0.68532670  0.54977995  0.25000000  1.0
  Cl  Cl30  1  0.31467330  0.45022005  0.75000000  1.0
  Cl  Cl31  1  0.31467330  0.04977995  0.25000000  1.0
  Cl  Cl32  1  0.92796601  0.75000000  0.00000000  1.0
  Cl  Cl33  1  0.92796601  0.75000000  0.50000000  1.0
  Cl  Cl34  1  0.07203399  0.25000000  0.00000000  1.0
  Cl  Cl35  1  0.07203399  0.25000000  0.50000000  1.0
  O  O36  1  0.71805597  0.47161198  0.94755826  1.0
  O  O37  1  0.71805597  0.47161198  0.55244174  1.0
  O  O38  1  0.71805597  0.02838802  0.44755826  1.0
  O  O39  1  0.71805597  0.02838802  0.05244174  1.0
  O  O40  1  0.28194403  0.97161198  0.94755826  1.0
  O  O41  1  0.28194403  0.97161198  0.55244174  1.0
  O  O42  1  0.28194403  0.52838802  0.44755826  1.0
  O  O43  1  0.28194403  0.52838802  0.05244174  1.0
  O  O44  1  0.84238571  0.36260781  0.75000000  1.0
  O  O45  1  0.84238571  0.13739219  0.25000000  1.0
  O  O46  1  0.15761429  0.86260781  0.75000000  1.0
  O  O47  1  0.15761429  0.63739219  0.25000000  1.0
