# generated using pymatgen
data_LiAlSiO5
_symmetry_space_group_name_H-M   'P 1'
_cell_length_a   10.05597739
_cell_length_b   7.95214364
_cell_length_c   5.02772274
_cell_angle_alpha   90.00000000
_cell_angle_beta   90.00000000
_cell_angle_gamma   90.00000000
_symmetry_Int_Tables_number   1
_chemical_formula_structural   LiAlSiO5
_chemical_formula_sum   'Li4 Al4 Si4 O20'
_cell_volume   402.04977575
_cell_formula_units_Z   4
loop_
 _symmetry_equiv_pos_site_id
 _symmetry_equiv_pos_as_xyz
  1  'x, y, z'
loop_
 _atom_site_type_symbol
 _atom_site_label
 _atom_site_symmetry_multiplicity
 _atom_site_fract_x
 _atom_site_fract_y
 _atom_site_fract_z
 _atom_site_occupancy
  O  O0  1  0.46761802  0.34011806  0.39967717  1.0
  O  O1  1  0.96761802  0.15988194  0.39967717  1.0
  O  O2  1  0.53238198  0.65988194  0.89967717  1.0
  O  O3  1  0.03238198  0.84011806  0.89967717  1.0
  O  O4  1  0.29888537  0.51153600  0.00212121  1.0
  O  O5  1  0.79888537  -0.01153600  0.00212121  1.0
  O  O6  1  0.70111463  0.48846400  0.50212121  1.0
  O  O7  1  0.20111463  1.01153600  0.50212121  1.0
  O  O8  1  0.18600388  0.34445411  0.46305933  1.0
  O  O9  1  0.68600388  0.15554589  0.46305933  1.0
  O  O10  1  0.81399612  0.65554589  -0.03694067  1.0
  O  O11  1  0.31399612  0.84445411  -0.03694067  1.0
  O  O12  1  0.16334631  0.15152935  0.02429084  1.0
  O  O13  1  0.66334631  0.34847065  0.02429084  1.0
  O  O14  1  0.83665369  0.84847065  0.52429084  1.0
  O  O15  1  0.33665369  0.65152935  0.52429084  1.0
  O  O16  1  0.49850840  0.93337395  0.69246640  1.0
  O  O17  1  0.99850840  0.56662605  0.69246640  1.0
  O  O18  1  0.50149160  0.06662605  1.19246640  1.0
  O  O19  1  0.00149160  0.43337395  1.19246640  1.0
  Al  Al20  1  0.32413825  0.46237628  0.34145380  1.0
  Al  Al21  1  0.82413825  0.03762372  0.34145380  1.0
  Al  Al22  1  0.67586175  0.53762372  0.84145380  1.0
  Al  Al23  1  0.17586175  0.96237628  0.84145380  1.0
  Li  Li24  1  0.36468986  0.89283946  0.35815065  1.0
  Li  Li25  1  0.86468986  0.60716054  0.35815065  1.0
  Li  Li26  1  0.63531014  0.10716054  0.85815065  1.0
  Li  Li27  1  0.13531014  0.39283946  0.85815065  1.0
  Si  Si28  1  0.12709190  0.16571381  0.34098061  1.0
  Si  Si29  1  0.62709190  0.33428619  0.34098061  1.0
  Si  Si30  1  0.87290810  0.83428619  0.84098061  1.0
  Si  Si31  1  0.37290810  0.66571381  0.84098061  1.0
