# generated using pymatgen
data_MgH8(ClO6)2
_symmetry_space_group_name_H-M   'P 1'
_cell_length_a   7.11276712
_cell_length_b   7.11276712
_cell_length_c   6.14409002
_cell_angle_alpha   69.92544982
_cell_angle_beta   110.07455018
_cell_angle_gamma   112.15394352
_symmetry_Int_Tables_number   1
_chemical_formula_structural   MgH8(ClO6)2
_chemical_formula_sum   'Mg1 H8 Cl2 O12'
_cell_volume   262.10576160
_cell_formula_units_Z   1
loop_
 _symmetry_equiv_pos_site_id
 _symmetry_equiv_pos_as_xyz
  1  'x, y, z'
loop_
 _atom_site_type_symbol
 _atom_site_label
 _atom_site_symmetry_multiplicity
 _atom_site_fract_x
 _atom_site_fract_y
 _atom_site_fract_z
 _atom_site_occupancy
  Mg  Mg0  1  -0.00509740  -0.00509740  0.00000000  1.0
  H  H1  1  1.26941091  0.37705720  0.86949209  1.0
  H  H2  1  1.37705720  0.26941091  0.13050791  1.0
  H  H3  1  1.22683283  0.96162276  0.74383208  1.0
  H  H4  1  1.96162276  0.22683283  0.25616792  1.0
  H  H5  1  1.02900049  0.76354191  0.74343856  1.0
  H  H6  1  1.76354191  0.02900049  0.25656144  1.0
  H  H7  1  0.61285137  -0.27976558  0.86937649  1.0
  H  H8  1  0.72023442  -0.38714863  0.13062351  1.0
  Cl  Cl9  1  0.69659879  -0.70683033  0.59529204  1.0
  Cl  Cl10  1  0.29316967  -0.30340121  0.40470796  1.0
  O  O11  1  0.35249643  -0.36284928  0.66983689  1.0
  O  O12  1  0.63715072  -0.64750357  0.33016311  1.0
  O  O13  1  0.83316350  -0.84320589  0.66340484  1.0
  O  O14  1  0.15679411  -0.16683650  0.33659516  1.0
  O  O15  1  1.17753362  0.51061904  0.31452235  1.0
  O  O16  1  1.51061904  0.17753362  0.68547765  1.0
  O  O17  1  0.81208508  -0.52074586  0.68529490  1.0
  O  O18  1  0.47925414  -0.18791492  0.31470510  1.0
  O  O19  1  1.10104169  0.88914410  0.80358816  1.0
  O  O20  1  1.88914410  0.10104169  0.19641184  1.0
  O  O21  1  1.25007559  0.25007559  -0.00000000  1.0
  O  O22  1  0.73971902  -0.26028098  -0.00000000  1.0
