# generated using pymatgen
data_KSb4F13
_symmetry_space_group_name_H-M   'P 1'
_cell_length_a   7.66920251
_cell_length_b   7.66920251
_cell_length_c   7.66920251
_cell_angle_alpha   100.06420744
_cell_angle_beta   100.06420744
_cell_angle_gamma   130.57905768
_symmetry_Int_Tables_number   1
_chemical_formula_structural   KSb4F13
_chemical_formula_sum   'K1 Sb4 F13'
_cell_volume   311.22604786
_cell_formula_units_Z   1
loop_
 _symmetry_equiv_pos_site_id
 _symmetry_equiv_pos_as_xyz
  1  'x, y, z'
loop_
 _atom_site_type_symbol
 _atom_site_label
 _atom_site_symmetry_multiplicity
 _atom_site_fract_x
 _atom_site_fract_y
 _atom_site_fract_z
 _atom_site_occupancy
  K  K0  1  0.75000000  0.25000000  0.50000000  1.0
  Sb  Sb1  1  1.26184817  1.44879598  1.21731136  1.0
  Sb  Sb2  1  0.95546320  1.73815183  1.18694781  1.0
  Sb  Sb3  1  1.23148462  1.04453680  0.78268864  1.0
  Sb  Sb4  1  1.55120402  0.76851538  0.81305219  1.0
  F  F5  1  0.56426223  0.51206266  0.78048053  1.0
  F  F6  1  1.21621830  0.43573777  0.94780042  1.0
  F  F7  1  0.73158213  0.78378170  1.21951947  1.0
  F  F8  1  0.48793734  1.26841787  1.05219958  1.0
  F  F9  1  1.71769917  1.88199376  1.63129962  1.0
  F  F10  1  0.91360045  1.28230083  1.16429459  1.0
  F  F11  1  1.25069414  1.08639955  0.36870038  1.0
  F  F12  1  1.11800624  0.74930586  0.83570541  1.0
  F  F13  1  1.23749680  1.51047239  1.57230183  1.0
  F  F14  1  1.33480503  1.76250320  1.27297559  1.0
  F  F15  1  0.93817055  0.66519497  0.42769817  1.0
  F  F16  1  1.48952761  1.06182945  0.72702441  1.0
  F  F17  1  0.00000000  0.00000000  0.00000000  1.0
