# generated using pymatgen
data_TlPHO3
_symmetry_space_group_name_H-M   'P 1'
_cell_length_a   5.75285322
_cell_length_b   8.49974700
_cell_length_c   8.01433287
_cell_angle_alpha   90.00000000
_cell_angle_beta   94.24891610
_cell_angle_gamma   90.00000000
_symmetry_Int_Tables_number   1
_chemical_formula_structural   TlPHO3
_chemical_formula_sum   'Tl4 P4 H4 O12'
_cell_volume   390.80616397
_cell_formula_units_Z   4
loop_
 _symmetry_equiv_pos_site_id
 _symmetry_equiv_pos_as_xyz
  1  'x, y, z'
loop_
 _atom_site_type_symbol
 _atom_site_label
 _atom_site_symmetry_multiplicity
 _atom_site_fract_x
 _atom_site_fract_y
 _atom_site_fract_z
 _atom_site_occupancy
  Tl  Tl0  1  0.03132061  0.75124786  0.09937510  1.0
  Tl  Tl1  1  0.96867939  0.25124786  0.40062490  1.0
  Tl  Tl2  1  0.96867939  0.24875214  0.90062490  1.0
  Tl  Tl3  1  0.03132061  0.74875214  0.59937510  1.0
  P  P4  1  0.47811253  0.44817899  0.12475369  1.0
  P  P5  1  0.52188747  0.94817899  0.37524631  1.0
  P  P6  1  0.52188747  0.55182101  0.87524631  1.0
  P  P7  1  0.47811253  0.05182101  0.62475369  1.0
  H  H8  1  0.53821934  0.64803863  0.30327846  1.0
  H  H9  1  0.46178066  0.14803863  0.19672154  1.0
  H  H10  1  0.46178066  0.35196137  0.69672154  1.0
  H  H11  1  0.53821934  0.85196137  0.80327846  1.0
  O  O12  1  0.21978873  0.45345083  0.15711021  1.0
  O  O13  1  0.78021127  0.95345083  0.34288979  1.0
  O  O14  1  0.78021127  0.54654917  0.84288979  1.0
  O  O15  1  0.21978873  0.04654917  0.65711021  1.0
  O  O16  1  0.59586063  0.28542040  0.12771474  1.0
  O  O17  1  0.40413937  0.78542040  0.37228526  1.0
  O  O18  1  0.40413937  0.71457960  0.87228526  1.0
  O  O19  1  0.59586063  0.21457960  0.62771474  1.0
  O  O20  1  0.63161726  0.55719971  0.25439575  1.0
  O  O21  1  0.36838274  0.05719971  0.24560425  1.0
  O  O22  1  0.36838274  0.44280029  0.74560425  1.0
  O  O23  1  0.63161726  0.94280029  0.75439575  1.0
