# generated using pymatgen
data_Y12(ReC3)5
_symmetry_space_group_name_H-M   'P 1'
_cell_length_a   10.74692576
_cell_length_b   10.74692576
_cell_length_c   5.09639657
_cell_angle_alpha   90.00000000
_cell_angle_beta   90.00000000
_cell_angle_gamma   120.00000000
_symmetry_Int_Tables_number   1
_chemical_formula_structural   Y12(ReC3)5
_chemical_formula_sum   'Y12 Re5 C15'
_cell_volume   509.75599814
_cell_formula_units_Z   1
loop_
 _symmetry_equiv_pos_site_id
 _symmetry_equiv_pos_as_xyz
  1  'x, y, z'
loop_
 _atom_site_type_symbol
 _atom_site_label
 _atom_site_symmetry_multiplicity
 _atom_site_fract_x
 _atom_site_fract_y
 _atom_site_fract_z
 _atom_site_occupancy
  Y  Y0  1  0.18578433  0.73020957  0.00000000  1.0
  Y  Y1  1  0.73020957  0.18578433  0.00000000  1.0
  Y  Y2  1  0.54442524  0.81421567  0.00000000  1.0
  Y  Y3  1  0.26979043  0.45557476  0.00000000  1.0
  Y  Y4  1  0.81421567  0.54442524  0.00000000  1.0
  Y  Y5  1  0.45557476  0.26979043  0.00000000  1.0
  Y  Y6  1  0.57263667  0.57263667  0.50000000  1.0
  Y  Y7  1  0.00000000  0.42736333  0.50000000  1.0
  Y  Y8  1  0.42736333  0.00000000  0.50000000  1.0
  Y  Y9  1  0.20587542  0.20587542  0.50000000  1.0
  Y  Y10  1  -0.00000000  0.79412458  0.50000000  1.0
  Y  Y11  1  0.79412458  0.00000000  0.50000000  1.0
  Re  Re12  1  0.84762390  0.84762390  0.00000000  1.0
  Re  Re13  1  -0.00000000  0.15237610  0.00000000  1.0
  Re  Re14  1  0.15237610  0.00000000  0.00000000  1.0
  Re  Re15  1  0.33333333  0.66666667  0.50000000  1.0
  Re  Re16  1  0.66666667  0.33333333  0.50000000  1.0
  C  C17  1  0.21377412  0.21377412  0.00000000  1.0
  C  C18  1  -0.00000000  0.78622588  0.00000000  1.0
  C  C19  1  0.78622588  0.00000000  0.00000000  1.0
  C  C20  1  0.18927625  0.72038634  0.50000000  1.0
  C  C21  1  0.72038634  0.18927625  0.50000000  1.0
  C  C22  1  0.53111009  0.81072375  0.50000000  1.0
  C  C23  1  0.27961366  0.46888991  0.50000000  1.0
  C  C24  1  0.81072375  0.53111009  0.50000000  1.0
  C  C25  1  0.46888991  0.27961366  0.50000000  1.0
  C  C26  1  0.66732307  0.66732307  0.00000000  1.0
  C  C27  1  -0.00000000  0.33267693  0.00000000  1.0
  C  C28  1  0.33267693  0.00000000  0.00000000  1.0
  C  C29  1  0.54114990  0.54114990  0.00000000  1.0
  C  C30  1  -0.00000000  0.45885010  0.00000000  1.0
  C  C31  1  0.45885010  0.00000000  0.00000000  1.0
