# generated using pymatgen
data_LiBeH3
_symmetry_space_group_name_H-M   'P 1'
_cell_length_a   6.10854669
_cell_length_b   6.16438884
_cell_length_c   13.26532730
_cell_angle_alpha   90.00000000
_cell_angle_beta   98.16839357
_cell_angle_gamma   90.00000000
_symmetry_Int_Tables_number   1
_chemical_formula_structural   LiBeH3
_chemical_formula_sum   'Li12 Be12 H36'
_cell_volume   494.44429386
_cell_formula_units_Z   12
loop_
 _symmetry_equiv_pos_site_id
 _symmetry_equiv_pos_as_xyz
  1  'x, y, z'
loop_
 _atom_site_type_symbol
 _atom_site_label
 _atom_site_symmetry_multiplicity
 _atom_site_fract_x
 _atom_site_fract_y
 _atom_site_fract_z
 _atom_site_occupancy
  Li  Li0  1  0.99385515  0.61857481  0.74719550  1.0
  Li  Li1  1  0.00614485  0.11857481  0.75280450  1.0
  Li  Li2  1  0.00614485  0.38142519  0.25280450  1.0
  Li  Li3  1  0.99385515  0.88142519  0.24719550  1.0
  Li  Li4  1  0.76170543  0.38454282  0.90765503  1.0
  Li  Li5  1  0.23829457  0.88454282  0.59234497  1.0
  Li  Li6  1  0.23829457  0.61545718  0.09234497  1.0
  Li  Li7  1  0.76170543  0.11545718  0.40765503  1.0
  Li  Li8  1  0.74706554  0.87037891  0.89905543  1.0
  Li  Li9  1  0.25293446  0.37037891  0.60094457  1.0
  Li  Li10  1  0.25293446  0.12962109  0.10094457  1.0
  Li  Li11  1  0.74706554  0.62962109  0.39905543  1.0
  Be  Be12  1  0.77381328  0.09432659  0.08778130  1.0
  Be  Be13  1  0.22618672  0.59432659  0.41221870  1.0
  Be  Be14  1  0.22618672  0.90567341  0.91221870  1.0
  Be  Be15  1  0.77381328  0.40567341  0.58778130  1.0
  Be  Be16  1  0.77896882  0.66554938  0.09235031  1.0
  Be  Be17  1  0.22103118  0.16554938  0.40764969  1.0
  Be  Be18  1  0.22103118  0.33445062  0.90764969  1.0
  Be  Be19  1  0.77896882  0.83445062  0.59235031  1.0
  Be  Be20  1  0.43145159  0.61710215  0.81547997  1.0
  Be  Be21  1  0.56854841  0.11710215  0.68452003  1.0
  Be  Be22  1  0.56854841  0.38289785  0.18452003  1.0
  Be  Be23  1  0.43145159  0.88289785  0.31547997  1.0
  H  H24  1  0.66356598  0.61807845  0.80835427  1.0
  H  H25  1  0.33643402  0.11807845  0.69164573  1.0
  H  H26  1  0.33643402  0.38192155  0.19164573  1.0
  H  H27  1  0.66356598  0.88192155  0.30835427  1.0
  H  H28  1  0.70929060  0.11558629  0.77985762  1.0
  H  H29  1  0.29070940  0.61558629  0.72014238  1.0
  H  H30  1  0.29070940  0.88441371  0.22014238  1.0
  H  H31  1  0.70929060  0.38441371  0.27985762  1.0
  H  H32  1  0.97515424  0.14804366  0.15086990  1.0
  H  H33  1  0.02484576  0.64804366  0.34913010  1.0
  H  H34  1  0.02484576  0.85195634  0.84913010  1.0
  H  H35  1  0.97515424  0.35195634  0.65086990  1.0
  H  H36  1  0.97706817  0.61820212  0.15897207  1.0
  H  H37  1  0.02293183  0.11820212  0.34102793  1.0
  H  H38  1  0.02293183  0.38179788  0.84102793  1.0
  H  H39  1  0.97706817  0.88179788  0.65897207  1.0
  H  H40  1  0.77300650  0.12246428  0.98185631  1.0
  H  H41  1  0.22699350  0.62246428  0.51814369  1.0
  H  H42  1  0.22699350  0.87753572  0.01814369  1.0
  H  H43  1  0.77300650  0.37753572  0.48185631  1.0
  H  H44  1  0.80409578  0.63276754  0.99047060  1.0
  H  H45  1  0.19590422  0.13276754  0.50952940  1.0
  H  H46  1  0.19590422  0.36723246  0.00952940  1.0
  H  H47  1  0.80409578  0.86723246  0.49047060  1.0
  H  H48  1  0.58022474  0.19480021  0.11916555  1.0
  H  H49  1  0.41977526  0.69480021  0.38083445  1.0
  H  H50  1  0.41977526  0.80519979  0.88083445  1.0
  H  H51  1  0.58022474  0.30519979  0.61916555  1.0
  H  H52  1  0.57881654  0.56524100  0.11627760  1.0
  H  H53  1  0.42118346  0.06524100  0.38372240  1.0
  H  H54  1  0.42118346  0.43475900  0.88372240  1.0
  H  H55  1  0.57881654  0.93475900  0.61627760  1.0
  H  H56  1  0.71635874  0.88063408  0.11847792  1.0
  H  H57  1  0.28364126  0.38063408  0.38152208  1.0
  H  H58  1  0.28364126  0.11936592  0.88152208  1.0
  H  H59  1  0.71635874  0.61936592  0.61847792  1.0
