# generated using pymatgen
data_La2Mn3Cu9As7
_symmetry_space_group_name_H-M   'P 1'
_cell_length_a   9.94624917
_cell_length_b   9.94624917
_cell_length_c   4.06303982
_cell_angle_alpha   90.00000000
_cell_angle_beta   90.00000000
_cell_angle_gamma   120.00000000
_symmetry_Int_Tables_number   1
_chemical_formula_structural   La2Mn3Cu9As7
_chemical_formula_sum   'La2 Mn3 Cu9 As7'
_cell_volume   348.09707974
_cell_formula_units_Z   1
loop_
 _symmetry_equiv_pos_site_id
 _symmetry_equiv_pos_as_xyz
  1  'x, y, z'
loop_
 _atom_site_type_symbol
 _atom_site_label
 _atom_site_symmetry_multiplicity
 _atom_site_fract_x
 _atom_site_fract_y
 _atom_site_fract_z
 _atom_site_occupancy
  La  La0  1  0.00000000  0.00000000  0.50000000  1.0
  La  La1  1  0.66666667  0.33333333  0.00000000  1.0
  Mn  Mn2  1  0.23595682  0.44793279  0.50000000  1.0
  Mn  Mn3  1  0.21197598  0.76404318  0.50000000  1.0
  Mn  Mn4  1  0.55206721  0.78802402  0.50000000  1.0
  Cu  Cu5  1  0.70053534  0.61714853  0.50000000  1.0
  Cu  Cu6  1  0.91661320  0.29946466  0.50000000  1.0
  Cu  Cu7  1  0.38285147  0.08338680  0.50000000  1.0
  Cu  Cu8  1  0.48959616  0.54111323  0.00000000  1.0
  Cu  Cu9  1  0.05151707  0.51040384  0.00000000  1.0
  Cu  Cu10  1  0.45888677  0.94848293  0.00000000  1.0
  Cu  Cu11  1  0.27940861  0.24602016  0.00000000  1.0
  Cu  Cu12  1  0.96661155  0.72059139  0.00000000  1.0
  Cu  Cu13  1  0.75397984  0.03338845  0.00000000  1.0
  As  As14  1  0.44424915  0.36391363  0.50000000  1.0
  As  As15  1  0.91966448  0.55575085  0.50000000  1.0
  As  As16  1  0.63608637  0.08033552  0.50000000  1.0
  As  As17  1  0.03289053  0.25154624  0.00000000  1.0
  As  As18  1  0.21865571  0.96710947  0.00000000  1.0
  As  As19  1  0.74845376  0.78134429  0.00000000  1.0
  As  As20  1  0.33333333  0.66666667  0.00000000  1.0
