# generated using pymatgen
data_CsC3N3O
_symmetry_space_group_name_H-M   'P 1'
_cell_length_a   7.90775728
_cell_length_b   14.34563579
_cell_length_c   5.84790808
_cell_angle_alpha   90.00000000
_cell_angle_beta   93.64826257
_cell_angle_gamma   90.00000000
_symmetry_Int_Tables_number   1
_chemical_formula_structural   CsC3N3O
_chemical_formula_sum   'Cs4 C12 N12 O4'
_cell_volume   662.05286701
_cell_formula_units_Z   4
loop_
 _symmetry_equiv_pos_site_id
 _symmetry_equiv_pos_as_xyz
  1  'x, y, z'
loop_
 _atom_site_type_symbol
 _atom_site_label
 _atom_site_symmetry_multiplicity
 _atom_site_fract_x
 _atom_site_fract_y
 _atom_site_fract_z
 _atom_site_occupancy
  Cs  Cs0  1  0.75626867  0.38134592  0.60012592  1.0
  Cs  Cs1  1  0.75626867  0.11865408  0.10012592  1.0
  Cs  Cs2  1  0.24373133  0.88134592  0.89987408  1.0
  Cs  Cs3  1  0.24373133  0.61865408  0.39987408  1.0
  C  C4  1  0.89181417  0.65137122  0.91996979  1.0
  C  C5  1  0.89181417  0.84862878  0.41996979  1.0
  C  C6  1  0.10818583  0.15137122  0.58003021  1.0
  C  C7  1  0.10818583  0.34862878  0.08003021  1.0
  C  C8  1  0.74983673  0.87080739  0.54395216  1.0
  C  C9  1  0.74983673  0.62919261  0.04395216  1.0
  C  C10  1  0.25016327  0.37080739  0.95604784  1.0
  C  C11  1  0.25016327  0.12919261  0.45604784  1.0
  C  C12  1  0.58594601  0.65671493  0.95943042  1.0
  C  C13  1  0.58594601  0.84328507  0.45943042  1.0
  C  C14  1  0.41405399  0.15671493  0.54056958  1.0
  C  C15  1  0.41405399  0.34328507  0.04056958  1.0
  N  N16  1  1.01040166  0.66998973  0.81919745  1.0
  N  N17  1  1.01040166  0.83001027  0.31919745  1.0
  N  N18  1  -0.01040166  0.16998973  0.68080255  1.0
  N  N19  1  -0.01040166  0.33001027  0.18080255  1.0
  N  N20  1  0.77811338  0.91757711  0.74616974  1.0
  N  N21  1  0.77811338  0.58242289  0.24616974  1.0
  N  N22  1  0.22188662  0.41757711  0.75383026  1.0
  N  N23  1  0.22188662  0.08242289  0.25383026  1.0
  N  N24  1  0.44685371  0.67719658  0.90026703  1.0
  N  N25  1  0.44685371  0.82280342  0.40026703  1.0
  N  N26  1  0.55314629  0.17719658  0.59973297  1.0
  N  N27  1  0.55314629  0.32280342  0.09973297  1.0
  O  O28  1  0.65009721  0.93531205  0.85819953  1.0
  O  O29  1  0.65009721  0.56468795  0.35819953  1.0
  O  O30  1  0.34990279  0.43531205  0.64180047  1.0
  O  O31  1  0.34990279  0.06468795  0.14180047  1.0
