# generated using pymatgen
data_SnF2
_symmetry_space_group_name_H-M   'P 1'
_cell_length_a   7.21633594
_cell_length_b   7.21633594
_cell_length_c   14.25608730
_cell_angle_alpha   72.90169774
_cell_angle_beta   107.09830226
_cell_angle_gamma   137.45066686
_symmetry_Int_Tables_number   1
_chemical_formula_structural   SnF2
_chemical_formula_sum   'Sn8 F16'
_cell_volume   476.38159472
_cell_formula_units_Z   8
loop_
 _symmetry_equiv_pos_site_id
 _symmetry_equiv_pos_as_xyz
  1  'x, y, z'
loop_
 _atom_site_type_symbol
 _atom_site_label
 _atom_site_symmetry_multiplicity
 _atom_site_fract_x
 _atom_site_fract_y
 _atom_site_fract_z
 _atom_site_occupancy
  Sn  Sn0  1  0.87791524  0.12053418  0.81459108  1.0
  Sn  Sn1  1  0.87946582  -0.87791524  0.31459108  1.0
  Sn  Sn2  1  1.12053418  0.87791524  0.68540892  1.0
  Sn  Sn3  1  1.12208476  -0.12053418  0.18540892  1.0
  Sn  Sn4  1  0.59482124  0.34044175  0.94188949  1.0
  Sn  Sn5  1  0.65955825  0.40517876  0.44188949  1.0
  Sn  Sn6  1  1.34044175  -0.40517876  0.55811051  1.0
  Sn  Sn7  1  1.40517876  -0.34044175  0.05811051  1.0
  F  F8  1  0.67923849  0.02628630  0.96245424  1.0
  F  F9  1  0.97371370  -0.67923849  0.46245424  1.0
  F  F10  1  1.02628630  0.67923849  0.53754576  1.0
  F  F11  1  1.32076151  -0.02628630  0.03754576  1.0
  F  F12  1  0.48129422  -0.02199210  0.69747484  1.0
  F  F13  1  1.02199210  -0.48129422  0.19747484  1.0
  F  F14  1  0.97800790  0.48129422  0.80252516  1.0
  F  F15  1  1.51870578  0.02199210  0.30252516  1.0
  F  F16  1  0.32463571  0.09512805  0.82121721  1.0
  F  F17  1  0.90487195  0.67536429  0.32121721  1.0
  F  F18  1  1.09512805  -0.67536429  0.67878279  1.0
  F  F19  1  1.67536429  -0.09512805  0.17878279  1.0
  F  F20  1  1.30328720  -0.62565810  0.91341570  1.0
  F  F21  1  1.62565810  -0.30328720  0.41341570  1.0
  F  F22  1  0.37434190  0.30328720  0.58658430  1.0
  F  F23  1  0.69671280  0.62565810  0.08658430  1.0
