# generated using pymatgen
data_FeH8(ClO2)2
_symmetry_space_group_name_H-M   'P 1'
_cell_length_a   5.81908395
_cell_length_b   7.73499209
_cell_length_c   8.46168351
_cell_angle_alpha   90.00000000
_cell_angle_beta   111.28732701
_cell_angle_gamma   90.00000000
_symmetry_Int_Tables_number   1
_chemical_formula_structural   FeH8(ClO2)2
_chemical_formula_sum   'Fe2 H16 Cl4 O8'
_cell_volume   354.87934305
_cell_formula_units_Z   2
loop_
 _symmetry_equiv_pos_site_id
 _symmetry_equiv_pos_as_xyz
  1  'x, y, z'
loop_
 _atom_site_type_symbol
 _atom_site_label
 _atom_site_symmetry_multiplicity
 _atom_site_fract_x
 _atom_site_fract_y
 _atom_site_fract_z
 _atom_site_occupancy
  Fe  Fe0  1  -0.00000000  0.50000000  0.50000000  1.0
  Fe  Fe1  1  0.00000000  0.00000000  0.00000000  1.0
  H  H2  1  0.91203947  0.92119156  0.29830429  1.0
  H  H3  1  0.91203947  0.57880844  0.79830429  1.0
  H  H4  1  0.08796053  0.42119156  0.20169571  1.0
  H  H5  1  0.08796053  0.07880844  0.70169571  1.0
  H  H6  1  0.89673811  0.92481623  0.65526314  1.0
  H  H7  1  0.89673811  0.57518377  0.15526314  1.0
  H  H8  1  0.10326189  0.42481623  0.84473686  1.0
  H  H9  1  0.10326189  0.07518377  0.34473686  1.0
  H  H10  1  0.59601619  0.30780266  0.49342375  1.0
  H  H11  1  0.59601619  0.19219734  0.99342375  1.0
  H  H12  1  0.40398381  0.80780266  0.00657625  1.0
  H  H13  1  0.40398381  0.69219734  0.50657625  1.0
  H  H14  1  0.59359189  0.31428554  0.30785687  1.0
  H  H15  1  0.59359189  0.18571446  0.80785687  1.0
  H  H16  1  0.40640811  0.81428554  0.19214313  1.0
  H  H17  1  0.40640811  0.68571446  0.69214313  1.0
  Cl  Cl18  1  0.71124721  0.76221885  0.42952658  1.0
  Cl  Cl19  1  0.71124721  0.73778115  0.92952658  1.0
  Cl  Cl20  1  0.28875279  0.26221885  0.07047342  1.0
  Cl  Cl21  1  0.28875279  0.23778115  0.57047342  1.0
  O  O22  1  0.99329526  0.49785238  0.24840531  1.0
  O  O23  1  0.99329526  0.00214762  0.74840531  1.0
  O  O24  1  0.00670474  0.99785238  0.25159469  1.0
  O  O25  1  0.00670474  0.50214762  0.75159469  1.0
  O  O26  1  0.70329109  0.32709244  0.42761030  1.0
  O  O27  1  0.70329109  0.17290756  0.92761030  1.0
  O  O28  1  0.29670891  0.82709244  0.07238970  1.0
  O  O29  1  0.29670891  0.67290756  0.57238970  1.0
