# generated using pymatgen
data_KCuPO4
_symmetry_space_group_name_H-M   'P 1'
_cell_length_a   5.12918286
_cell_length_b   9.77341703
_cell_length_c   8.31567067
_cell_angle_alpha   90.00000000
_cell_angle_beta   93.05738302
_cell_angle_gamma   90.00000000
_symmetry_Int_Tables_number   1
_chemical_formula_structural   KCuPO4
_chemical_formula_sum   'K4 Cu4 P4 O16'
_cell_volume   416.26825018
_cell_formula_units_Z   4
loop_
 _symmetry_equiv_pos_site_id
 _symmetry_equiv_pos_as_xyz
  1  'x, y, z'
loop_
 _atom_site_type_symbol
 _atom_site_label
 _atom_site_symmetry_multiplicity
 _atom_site_fract_x
 _atom_site_fract_y
 _atom_site_fract_z
 _atom_site_occupancy
  P  P0  1  0.23101309  0.31551084  0.93949992  1.0
  P  P1  1  0.76898691  0.81551084  0.06050008  1.0
  P  P2  1  0.24319830  0.08443375  0.45641270  1.0
  P  P3  1  0.75680170  0.58443375  0.54358730  1.0
  O  O4  1  0.07950683  0.39872813  0.06721260  1.0
  O  O5  1  0.92049317  0.89872813  0.93278740  1.0
  O  O6  1  0.52261439  0.34534145  0.94603064  1.0
  O  O7  1  0.47738561  0.84534145  0.05396936  1.0
  O  O8  1  0.17240476  0.15991033  0.93813317  1.0
  O  O9  1  0.82759524  0.65991033  0.06186683  1.0
  O  O10  1  0.28429308  0.11102158  0.27292229  1.0
  O  O11  1  0.71570692  0.61102158  0.72707771  1.0
  O  O12  1  0.34685855  0.21262152  0.55006946  1.0
  O  O13  1  0.65314145  0.71262152  0.44993054  1.0
  O  O14  1  0.94572514  0.06450061  0.48298733  1.0
  O  O15  1  0.05427486  0.56450061  0.51701267  1.0
  O  O16  1  0.07613079  0.38016502  0.77950996  1.0
  O  O17  1  0.92386921  0.88016502  0.22049004  1.0
  O  O18  1  0.59488346  0.45992681  0.47751450  1.0
  O  O19  1  0.40511654  0.95992681  0.52248550  1.0
  Cu  Cu20  1  0.86988021  0.50954782  0.90648082  1.0
  Cu  Cu21  1  0.13011979  0.00954782  0.09351918  1.0
  Cu  Cu22  1  0.26182350  0.40148953  0.57968688  1.0
  Cu  Cu23  1  -0.26182350  0.90148953  0.42031312  1.0
  K  K24  1  0.71368769  0.12629649  0.76449806  1.0
  K  K25  1  0.28631231  0.62629649  0.23550194  1.0
  K  K26  1  0.73073020  0.27204613  0.26209439  1.0
  K  K27  1  0.26926980  0.77204613  0.73790561  1.0
