# generated using pymatgen
data_Si
_symmetry_space_group_name_H-M   'P 1'
_cell_length_a   5.71346123
_cell_length_b   5.71346123
_cell_length_c   6.57918524
_cell_angle_alpha   74.94123526
_cell_angle_beta   105.05876474
_cell_angle_gamma   140.52799156
_symmetry_Int_Tables_number   1
_chemical_formula_structural   Si
_chemical_formula_sum   Si6
_cell_volume   131.22459752
_cell_formula_units_Z   6
loop_
 _symmetry_equiv_pos_site_id
 _symmetry_equiv_pos_as_xyz
  1  'x, y, z'
loop_
 _atom_site_type_symbol
 _atom_site_label
 _atom_site_symmetry_multiplicity
 _atom_site_fract_x
 _atom_site_fract_y
 _atom_site_fract_z
 _atom_site_occupancy
  Si  Si0  1  0.93990625  0.06009375  0.81708137  1.0
  Si  Si1  1  0.06009375  -0.06009375  0.18291863  1.0
  Si  Si2  1  0.26186224  -0.26186224  0.10962443  1.0
  Si  Si3  1  0.73813776  0.26186224  0.89037557  1.0
  Si  Si4  1  0.48246940  -0.48246940  0.31568374  1.0
  Si  Si5  1  0.51753060  0.48246940  0.68431626  1.0
