# generated using pymatgen
data_V2(Co7B2)3
_symmetry_space_group_name_H-M   'P 1'
_cell_length_a   7.35129241
_cell_length_b   7.35129241
_cell_length_c   7.35129241
_cell_angle_alpha   60.00000000
_cell_angle_beta   60.00000000
_cell_angle_gamma   60.00000000
_symmetry_Int_Tables_number   1
_chemical_formula_structural   V2(Co7B2)3
_chemical_formula_sum   'V2 Co21 B6'
_cell_volume   280.91575429
_cell_formula_units_Z   1
loop_
 _symmetry_equiv_pos_site_id
 _symmetry_equiv_pos_as_xyz
  1  'x, y, z'
loop_
 _atom_site_type_symbol
 _atom_site_label
 _atom_site_symmetry_multiplicity
 _atom_site_fract_x
 _atom_site_fract_y
 _atom_site_fract_z
 _atom_site_occupancy
  V  V0  1  0.75000000  0.75000000  -0.25000000  1.0
  V  V1  1  1.25000000  0.25000000  0.25000000  1.0
  Co  Co2  1  1.66146530  -0.00000000  0.00000000  1.0
  Co  Co3  1  1.00000000  0.33853470  -0.33853470  1.0
  Co  Co4  1  1.00000000  0.66146530  -0.66146530  1.0
  Co  Co5  1  1.33853470  0.00000000  -0.00000000  1.0
  Co  Co6  1  -0.00000000  1.66146530  0.00000000  1.0
  Co  Co7  1  0.33853470  1.00000000  -0.33853470  1.0
  Co  Co8  1  0.00000000  0.00000000  0.66146530  1.0
  Co  Co9  1  0.33853470  -0.33853470  1.00000000  1.0
  Co  Co10  1  0.66146530  1.00000000  -0.66146530  1.0
  Co  Co11  1  0.00000000  1.33853470  -0.00000000  1.0
  Co  Co12  1  0.66146530  -0.66146530  1.00000000  1.0
  Co  Co13  1  0.00000000  0.00000000  0.33853470  1.0
  Co  Co14  1  0.61952940  0.61952940  -0.38047060  1.0
  Co  Co15  1  0.38047060  1.38047060  -0.14141179  1.0
  Co  Co16  1  1.38047060  -0.14141179  0.38047060  1.0
  Co  Co17  1  1.14141179  0.61952940  0.61952940  1.0
  Co  Co18  1  -0.14141179  1.38047060  0.38047060  1.0
  Co  Co19  1  0.61952940  1.14141179  -0.38047060  1.0
  Co  Co20  1  0.61952940  0.61952940  1.14141179  1.0
  Co  Co21  1  1.38047060  0.38047060  0.38047060  1.0
  Co  Co22  1  -0.00000000  -0.00000000  0.00000000  1.0
  B  B23  1  -0.72496192  0.72496192  0.72496192  1.0
  B  B24  1  -0.27503808  0.27503808  0.72496192  1.0
  B  B25  1  0.72496192  0.72496192  -0.72496192  1.0
  B  B26  1  0.27503808  1.27503808  -0.27503808  1.0
  B  B27  1  0.27503808  -0.27503808  1.27503808  1.0
  B  B28  1  -0.27503808  0.27503808  0.27503808  1.0
