# generated using pymatgen
data_CsAl
_symmetry_space_group_name_H-M   'P 1'
_cell_length_a   11.41334657
_cell_length_b   4.76934238
_cell_length_c   7.10245872
_cell_angle_alpha   90.00000000
_cell_angle_beta   90.00000000
_cell_angle_gamma   90.00000000
_symmetry_Int_Tables_number   1
_chemical_formula_structural   CsAl
_chemical_formula_sum   'Cs4 Al4'
_cell_volume   386.61635643
_cell_formula_units_Z   4
loop_
 _symmetry_equiv_pos_site_id
 _symmetry_equiv_pos_as_xyz
  1  'x, y, z'
loop_
 _atom_site_type_symbol
 _atom_site_label
 _atom_site_symmetry_multiplicity
 _atom_site_fract_x
 _atom_site_fract_y
 _atom_site_fract_z
 _atom_site_occupancy
  Cs  Cs0  1  0.67256024  0.25000000  0.44624953  1.0
  Cs  Cs1  1  0.17256024  0.25000000  0.05375047  1.0
  Cs  Cs2  1  0.32743976  0.75000000  0.55375047  1.0
  Cs  Cs3  1  0.82743976  0.75000000  0.94624953  1.0
  Al  Al4  1  0.01415928  0.25000000  0.55406484  1.0
  Al  Al5  1  0.51415928  0.25000000  0.94593516  1.0
  Al  Al6  1  0.98584072  0.75000000  0.44593516  1.0
  Al  Al7  1  0.48584072  0.75000000  0.05406484  1.0
