# generated using pymatgen
data_BiC2O5
_symmetry_space_group_name_H-M   'P 1'
_cell_length_a   6.30095495
_cell_length_b   11.57534184
_cell_length_c   5.81501531
_cell_angle_alpha   90.00000000
_cell_angle_beta   90.00000000
_cell_angle_gamma   90.00000000
_symmetry_Int_Tables_number   1
_chemical_formula_structural   BiC2O5
_chemical_formula_sum   'Bi4 C8 O20'
_cell_volume   424.12225556
_cell_formula_units_Z   4
loop_
 _symmetry_equiv_pos_site_id
 _symmetry_equiv_pos_as_xyz
  1  'x, y, z'
loop_
 _atom_site_type_symbol
 _atom_site_label
 _atom_site_symmetry_multiplicity
 _atom_site_fract_x
 _atom_site_fract_y
 _atom_site_fract_z
 _atom_site_occupancy
  C  C0  1  0.41008409  0.97722593  0.58614894  1.0
  C  C1  1  0.41008409  0.52277407  0.58614894  1.0
  C  C2  1  0.91008409  0.97722593  0.91385106  1.0
  C  C3  1  0.91008409  0.52277407  0.91385106  1.0
  C  C4  1  0.58991591  0.47722593  0.41385106  1.0
  C  C5  1  0.58991591  0.02277407  0.41385106  1.0
  C  C6  1  0.08991591  0.47722593  0.08614894  1.0
  C  C7  1  0.08991591  0.02277407  0.08614894  1.0
  O  O8  1  0.42266004  0.87352335  0.65054577  1.0
  O  O9  1  0.42266004  0.62647665  0.65054577  1.0
  O  O10  1  0.92266004  0.87352335  0.84945423  1.0
  O  O11  1  0.92266004  0.62647665  0.84945423  1.0
  O  O12  1  0.57733996  0.37352335  0.34945423  1.0
  O  O13  1  0.57733996  0.12647665  0.34945423  1.0
  O  O14  1  0.07733996  0.37352335  0.15054577  1.0
  O  O15  1  0.07733996  0.12647665  0.15054577  1.0
  O  O16  1  0.26944948  0.45174922  0.64383072  1.0
  O  O17  1  0.26944948  0.04825078  0.64383072  1.0
  O  O18  1  0.76944948  0.45174922  0.85616928  1.0
  O  O19  1  0.76944948  0.04825078  0.85616928  1.0
  O  O20  1  0.73055052  0.95174922  0.35616928  1.0
  O  O21  1  0.73055052  0.54825078  0.35616928  1.0
  O  O22  1  0.23055052  0.95174922  0.14383072  1.0
  O  O23  1  0.23055052  0.54825078  0.14383072  1.0
  O  O24  1  0.01240828  0.75000000  0.34492937  1.0
  O  O25  1  0.51240828  0.75000000  0.15507063  1.0
  O  O26  1  0.98759172  0.25000000  0.65507063  1.0
  O  O27  1  0.48759172  0.25000000  0.84492937  1.0
  Bi  Bi28  1  0.19364020  0.75000000  1.04771361  1.0
  Bi  Bi29  1  0.69364020  0.75000000  0.45228639  1.0
  Bi  Bi30  1  0.80635980  0.25000000  -0.04771361  1.0
  Bi  Bi31  1  0.30635980  0.25000000  0.54771361  1.0
