# generated using pymatgen
data_In3SnI5
_symmetry_space_group_name_H-M   'P 1'
_cell_length_a   9.12405105
_cell_length_b   9.12405105
_cell_length_c   17.74057702
_cell_angle_alpha   82.91106108
_cell_angle_beta   97.08893892
_cell_angle_gamma   89.82546791
_symmetry_Int_Tables_number   1
_chemical_formula_structural   In3SnI5
_chemical_formula_sum   'In12 Sn4 I20'
_cell_volume   1454.12974292
_cell_formula_units_Z   4
loop_
 _symmetry_equiv_pos_site_id
 _symmetry_equiv_pos_as_xyz
  1  'x, y, z'
loop_
 _atom_site_type_symbol
 _atom_site_label
 _atom_site_symmetry_multiplicity
 _atom_site_fract_x
 _atom_site_fract_y
 _atom_site_fract_z
 _atom_site_occupancy
  In  In0  1  1.71619130  0.05631519  0.47830633  1.0
  In  In1  1  0.94368481  -0.71619130  0.97830633  1.0
  In  In2  1  1.05631519  0.71619130  0.02169367  1.0
  In  In3  1  0.28380870  -0.05631519  0.52169367  1.0
  In  In4  1  0.24699683  -0.03499855  0.25028639  1.0
  In  In5  1  1.03499855  0.75300317  0.75028639  1.0
  In  In6  1  0.96500145  -0.75300317  0.24971361  1.0
  In  In7  1  1.75300317  0.03499855  0.74971361  1.0
  In  In8  1  0.74365915  -0.25634085  0.25000000  1.0
  In  In9  1  1.25634085  0.25634085  0.75000000  1.0
  In  In10  1  1.45868055  0.45868055  0.25000000  1.0
  In  In11  1  0.54131945  -0.45868055  0.75000000  1.0
  Sn  Sn12  1  1.56077754  0.15022406  0.08825576  1.0
  Sn  Sn13  1  0.84977594  -0.56077754  0.58825576  1.0
  Sn  Sn14  1  1.15022406  0.56077754  0.41174424  1.0
  Sn  Sn15  1  0.43922246  -0.15022406  0.91174424  1.0
  I  I16  1  0.87937334  -0.01598135  0.10460857  1.0
  I  I17  1  1.01598135  0.12062666  0.60460857  1.0
  I  I18  1  0.98401865  -0.12062666  0.39539143  1.0
  I  I19  1  1.12062666  0.01598135  0.89539143  1.0
  I  I20  1  0.43965201  -0.26450285  0.39348630  1.0
  I  I21  1  1.26450285  0.56034799  0.89348630  1.0
  I  I22  1  0.73549715  -0.56034799  0.10651370  1.0
  I  I23  1  1.56034799  0.26450285  0.60651370  1.0
  I  I24  1  0.41040323  -0.17877671  0.10304814  1.0
  I  I25  1  1.17877671  0.58959677  0.60304814  1.0
  I  I26  1  0.82122329  -0.58959677  0.39695186  1.0
  I  I27  1  1.58959677  0.17877671  0.89695186  1.0
  I  I28  1  1.60793597  0.09497337  0.26426147  1.0
  I  I29  1  0.90502663  -0.60793597  0.76426147  1.0
  I  I30  1  1.09497337  0.60793597  0.23573853  1.0
  I  I31  1  0.39206403  -0.09497337  0.73573853  1.0
  I  I32  1  1.29850207  0.25513430  0.38712841  1.0
  I  I33  1  0.74486570  -0.29850207  0.88712841  1.0
  I  I34  1  1.25513430  0.29850207  0.11287159  1.0
  I  I35  1  0.70149793  -0.25513430  0.61287159  1.0
