# generated using pymatgen
data_LiIn(WO4)2
_symmetry_space_group_name_H-M   'P 1'
_cell_length_a   7.67597531
_cell_length_b   7.67597531
_cell_length_c   4.99932141
_cell_angle_alpha   89.23794399
_cell_angle_beta   90.76205601
_cell_angle_gamma   78.56134524
_symmetry_Int_Tables_number   1
_chemical_formula_structural   LiIn(WO4)2
_chemical_formula_sum   'Li2 In2 W4 O16'
_cell_volume   288.64856334
_cell_formula_units_Z   2
loop_
 _symmetry_equiv_pos_site_id
 _symmetry_equiv_pos_as_xyz
  1  'x, y, z'
loop_
 _atom_site_type_symbol
 _atom_site_label
 _atom_site_symmetry_multiplicity
 _atom_site_fract_x
 _atom_site_fract_y
 _atom_site_fract_z
 _atom_site_occupancy
  Li  Li0  1  1.36096526  0.36096526  0.25000000  1.0
  Li  Li1  1  0.63903474  -0.36096526  0.75000000  1.0
  In  In2  1  0.83457011  -0.16542989  0.25000000  1.0
  In  In3  1  1.16542989  0.16542989  0.75000000  1.0
  W  W4  1  0.34588762  -0.16865588  0.25672719  1.0
  W  W5  1  1.16865588  0.65411238  0.75672719  1.0
  W  W6  1  0.83134412  -0.65411238  0.24327281  1.0
  W  W7  1  1.65411238  0.16865588  0.74327281  1.0
  O  O8  1  0.69050704  -0.05078494  0.89631071  1.0
  O  O9  1  1.05078494  0.30949296  0.39631071  1.0
  O  O10  1  0.94921506  -0.30949296  0.60368929  1.0
  O  O11  1  1.30949296  0.05078494  0.10368929  1.0
  O  O12  1  1.80101203  0.09156872  0.43329056  1.0
  O  O13  1  0.90843128  -0.80101203  0.93329056  1.0
  O  O14  1  1.09156872  0.80101203  0.06670944  1.0
  O  O15  1  0.19898797  -0.09156872  0.56670944  1.0
  O  O16  1  0.56611451  -0.19231303  0.40080741  1.0
  O  O17  1  1.19231303  0.43388549  0.90080741  1.0
  O  O18  1  0.80768697  -0.43388549  0.09919259  1.0
  O  O19  1  1.43388549  0.19231303  0.59919259  1.0
  O  O20  1  1.59633930  0.30799122  0.04992573  1.0
  O  O21  1  0.69200878  -0.59633930  0.54992573  1.0
  O  O22  1  1.30799122  0.59633930  0.45007427  1.0
  O  O23  1  0.40366070  -0.30799122  0.95007427  1.0
