# generated using pymatgen
data_VP2H6NO6
_symmetry_space_group_name_H-M   'P 1'
_cell_length_a   5.39799475
_cell_length_b   5.39799475
_cell_length_c   13.05770537
_cell_angle_alpha   90.00000000
_cell_angle_beta   90.00000000
_cell_angle_gamma   120.00000000
_symmetry_Int_Tables_number   1
_chemical_formula_structural   VP2H6NO6
_chemical_formula_sum   'V2 P4 H12 N2 O12'
_cell_volume   329.50530644
_cell_formula_units_Z   2
loop_
 _symmetry_equiv_pos_site_id
 _symmetry_equiv_pos_as_xyz
  1  'x, y, z'
loop_
 _atom_site_type_symbol
 _atom_site_label
 _atom_site_symmetry_multiplicity
 _atom_site_fract_x
 _atom_site_fract_y
 _atom_site_fract_z
 _atom_site_occupancy
  V  V0  1  0.33333333  0.66666667  0.05172231  1.0
  V  V1  1  0.66666667  0.33333333  0.55172231  1.0
  P  P2  1  0.33333333  0.66666667  0.67284002  1.0
  P  P3  1  0.66666667  0.33333333  0.17284002  1.0
  P  P4  1  0.00000000  0.00000000  0.00114155  1.0
  P  P5  1  0.00000000  0.00000000  0.50114155  1.0
  H  H6  1  0.53995834  0.76997917  0.37610271  1.0
  H  H7  1  0.76997917  0.53995834  0.87610271  1.0
  H  H8  1  0.76997917  0.23002083  0.87610271  1.0
  H  H9  1  0.23002083  0.76997917  0.37610271  1.0
  H  H10  1  0.23002083  0.46004166  0.37610271  1.0
  H  H11  1  0.46004166  0.23002083  0.87610271  1.0
  H  H12  1  0.33333333  0.66666667  0.26924542  1.0
  H  H13  1  0.66666667  0.33333333  0.76924542  1.0
  H  H14  1  0.33333333  0.66666667  0.78091553  1.0
  H  H15  1  0.66666667  0.33333333  0.28091553  1.0
  H  H16  1  0.00000000  0.00000000  0.10842176  1.0
  H  H17  1  0.00000000  0.00000000  0.60842176  1.0
  N  N18  1  0.33333333  0.66666667  0.34825016  1.0
  N  N19  1  0.66666667  0.33333333  0.84825016  1.0
  O  O20  1  0.98509683  0.49254841  0.14212670  1.0
  O  O21  1  0.49254841  0.98509683  0.64212670  1.0
  O  O22  1  0.49254841  0.50745159  0.64212670  1.0
  O  O23  1  0.50745159  0.49254841  0.14212670  1.0
  O  O24  1  0.50745159  0.01490317  0.14212670  1.0
  O  O25  1  0.01490317  0.50745159  0.64212670  1.0
  O  O26  1  0.31356278  0.15678139  0.46145834  1.0
  O  O27  1  0.15678139  0.31356278  0.96145834  1.0
  O  O28  1  0.15678139  0.84321861  0.96145834  1.0
  O  O29  1  0.84321861  0.15678139  0.46145834  1.0
  O  O30  1  0.84321861  0.68643722  0.46145834  1.0
  O  O31  1  0.68643722  0.84321861  0.96145834  1.0
