# generated using pymatgen
data_C
_symmetry_space_group_name_H-M   'P 1'
_cell_length_a   4.88209321
_cell_length_b   5.56373337
_cell_length_c   4.27381444
_cell_angle_alpha   90.00000000
_cell_angle_beta   90.00000000
_cell_angle_gamma   90.00000000
_symmetry_Int_Tables_number   1
_chemical_formula_structural   C
_chemical_formula_sum   C16
_cell_volume   116.08818939
_cell_formula_units_Z   16
loop_
 _symmetry_equiv_pos_site_id
 _symmetry_equiv_pos_as_xyz
  1  'x, y, z'
loop_
 _atom_site_type_symbol
 _atom_site_label
 _atom_site_symmetry_multiplicity
 _atom_site_fract_x
 _atom_site_fract_y
 _atom_site_fract_z
 _atom_site_occupancy
  C  C0  1  0.50000018  0.35006271  0.31920154  1.0
  C  C1  1  0.49999982  0.64993729  0.31920154  1.0
  C  C2  1  0.99999982  0.14993729  0.68079846  1.0
  C  C3  1  0.00000018  0.85006271  0.68079846  1.0
  C  C4  1  0.50000018  0.64993729  0.68079846  1.0
  C  C5  1  0.49999982  0.35006271  0.68079846  1.0
  C  C6  1  0.99999982  0.85006271  0.31920154  1.0
  C  C7  1  0.00000018  0.14993729  0.31920154  1.0
  C  C8  1  0.75000004  0.24999988  0.15704642  1.0
  C  C9  1  0.24999996  0.75000012  0.15704642  1.0
  C  C10  1  0.74999996  0.25000012  0.84295358  1.0
  C  C11  1  0.25000004  0.74999988  0.84295358  1.0
  C  C12  1  0.75000004  0.75000012  0.84295358  1.0
  C  C13  1  0.24999996  0.24999988  0.84295358  1.0
  C  C14  1  0.74999996  0.74999988  0.15704642  1.0
  C  C15  1  0.25000004  0.25000012  0.15704642  1.0
