# generated using pymatgen
data_ZnAu3
_symmetry_space_group_name_H-M   'P 1'
_cell_length_a   17.24881142
_cell_length_b   17.24881142
_cell_length_c   17.24881142
_cell_angle_alpha   161.02939714
_cell_angle_beta   161.02939714
_cell_angle_gamma   26.95396697
_symmetry_Int_Tables_number   1
_chemical_formula_structural   ZnAu3
_chemical_formula_sum   'Zn8 Au24'
_cell_volume   542.12161849
_cell_formula_units_Z   8
loop_
 _symmetry_equiv_pos_site_id
 _symmetry_equiv_pos_as_xyz
  1  'x, y, z'
loop_
 _atom_site_type_symbol
 _atom_site_label
 _atom_site_symmetry_multiplicity
 _atom_site_fract_x
 _atom_site_fract_y
 _atom_site_fract_z
 _atom_site_occupancy
  Zn  Zn0  1  0.43193810  0.93193810  0.50000000  1.0
  Zn  Zn1  1  0.93193810  0.43193810  0.50000000  1.0
  Zn  Zn2  1  0.31806190  0.31806190  -0.00000000  1.0
  Zn  Zn3  1  0.81806190  0.81806190  1.00000000  1.0
  Zn  Zn4  1  0.06806190  0.56806190  0.50000000  1.0
  Zn  Zn5  1  0.56806190  0.06806190  0.50000000  1.0
  Zn  Zn6  1  0.68193810  0.68193810  1.00000000  1.0
  Zn  Zn7  1  0.18193810  0.18193810  -0.00000000  1.0
  Au  Au8  1  0.30954299  0.80954299  0.50000000  1.0
  Au  Au9  1  0.80954299  0.30954299  0.50000000  1.0
  Au  Au10  1  0.44045701  0.44045701  0.00000000  1.0
  Au  Au11  1  0.94045701  0.94045701  1.00000000  1.0
  Au  Au12  1  0.19045701  0.69045701  0.50000000  1.0
  Au  Au13  1  0.69045701  0.19045701  0.50000000  1.0
  Au  Au14  1  0.55954299  0.55954299  1.00000000  1.0
  Au  Au15  1  0.05954299  0.05954299  0.00000000  1.0
  Au  Au16  1  1.12500000  0.62340164  0.99840164  1.0
  Au  Au17  1  0.62500000  0.62659836  0.50159836  1.0
  Au  Au18  1  1.12500000  1.12340164  1.49840164  1.0
  Au  Au19  1  0.62500000  1.12659836  1.00159836  1.0
  Au  Au20  1  0.37659836  0.37500000  0.50159836  1.0
  Au  Au21  1  0.37340164  0.87500000  0.99840164  1.0
  Au  Au22  1  0.87659836  0.37500000  1.00159836  1.0
  Au  Au23  1  0.87340164  0.87500000  1.49840164  1.0
  Au  Au24  1  0.31788124  0.81788124  1.13576247  1.0
  Au  Au25  1  0.81788124  0.68211876  1.50000000  1.0
  Au  Au26  1  1.06788124  1.06788124  1.63576247  1.0
  Au  Au27  1  0.56788124  0.93211876  1.00000000  1.0
  Au  Au28  1  0.68211876  0.18211876  0.86423753  1.0
  Au  Au29  1  0.18211876  0.31788124  0.50000000  1.0
  Au  Au30  1  0.43211876  0.43211876  0.36423753  1.0
  Au  Au31  1  0.93211876  0.56788124  1.00000000  1.0
