# generated using pymatgen
data_Cs2RbCo(CN)6
_symmetry_space_group_name_H-M   'P 1'
_cell_length_a   7.87755444
_cell_length_b   8.28456344
_cell_length_c   13.77657474
_cell_angle_alpha   90.00000000
_cell_angle_beta   124.59098677
_cell_angle_gamma   90.00000000
_symmetry_Int_Tables_number   1
_chemical_formula_structural   Cs2RbCo(CN)6
_chemical_formula_sum   'Cs4 Rb2 Co2 C12 N12'
_cell_volume   740.15249361
_cell_formula_units_Z   2
loop_
 _symmetry_equiv_pos_site_id
 _symmetry_equiv_pos_as_xyz
  1  'x, y, z'
loop_
 _atom_site_type_symbol
 _atom_site_label
 _atom_site_symmetry_multiplicity
 _atom_site_fract_x
 _atom_site_fract_y
 _atom_site_fract_z
 _atom_site_occupancy
  Cs  Cs0  1  0.72763888  0.56482500  0.74780201  1.0
  Cs  Cs1  1  0.72763888  0.93517500  0.24780201  1.0
  Cs  Cs2  1  0.27236112  0.43517500  0.25219799  1.0
  Cs  Cs3  1  0.27236112  0.06482500  0.75219799  1.0
  Rb  Rb4  1  0.50000000  0.50000000  0.00000000  1.0
  Rb  Rb5  1  0.50000000  0.00000000  0.50000000  1.0
  Co  Co6  1  -0.00000000  0.50000000  0.50000000  1.0
  Co  Co7  1  0.00000000  0.00000000  0.00000000  1.0
  C  C8  1  0.07768154  0.47063890  0.65526644  1.0
  C  C9  1  0.07768154  0.02936110  0.15526644  1.0
  C  C10  1  0.92231846  0.52936110  0.34473356  1.0
  C  C11  1  0.92231846  0.97063890  0.84473356  1.0
  C  C12  1  0.22937489  0.37898634  0.53435344  1.0
  C  C13  1  0.22937489  0.12101366  0.03435344  1.0
  C  C14  1  0.77062511  0.62101366  0.46564656  1.0
  C  C15  1  0.77062511  0.87898634  0.96564656  1.0
  C  C16  1  0.83886311  0.31139142  0.45396458  1.0
  C  C17  1  0.83886311  0.18860858  0.95396458  1.0
  C  C18  1  0.16113689  0.68860858  0.54603542  1.0
  C  C19  1  0.16113689  0.81139142  0.04603542  1.0
  N  N20  1  0.12539467  0.44925131  0.75193615  1.0
  N  N21  1  0.12539467  0.05074869  0.25193615  1.0
  N  N22  1  0.87460533  0.55074869  0.24806385  1.0
  N  N23  1  0.87460533  0.94925131  0.74806385  1.0
  N  N24  1  0.37576429  0.30565925  0.55807484  1.0
  N  N25  1  0.37576429  0.19434075  0.05807484  1.0
  N  N26  1  0.62423571  0.69434075  0.44192516  1.0
  N  N27  1  0.62423571  0.80565925  0.94192516  1.0
  N  N28  1  0.73621055  0.19489046  0.42491084  1.0
  N  N29  1  0.73621055  0.30510954  0.92491084  1.0
  N  N30  1  0.26378945  0.80510954  0.57508916  1.0
  N  N31  1  0.26378945  0.69489046  0.07508916  1.0
