# generated using pymatgen
data_Si3N4
_symmetry_space_group_name_H-M   'P 1'
_cell_length_a   7.81132695
_cell_length_b   7.81132695
_cell_length_c   5.66145414
_cell_angle_alpha   90.00000000
_cell_angle_beta   90.00000000
_cell_angle_gamma   120.00000000
_symmetry_Int_Tables_number   1
_chemical_formula_structural   Si3N4
_chemical_formula_sum   'Si12 N16'
_cell_volume   299.16326041
_cell_formula_units_Z   4
loop_
 _symmetry_equiv_pos_site_id
 _symmetry_equiv_pos_as_xyz
  1  'x, y, z'
loop_
 _atom_site_type_symbol
 _atom_site_label
 _atom_site_symmetry_multiplicity
 _atom_site_fract_x
 _atom_site_fract_y
 _atom_site_fract_z
 _atom_site_occupancy
  Si  Si0  1  0.42966030  0.91756930  0.29134387  1.0
  Si  Si1  1  0.91756930  0.42966030  0.79134387  1.0
  Si  Si2  1  0.48790900  0.57033970  0.29134387  1.0
  Si  Si3  1  0.08243070  0.51209100  0.29134387  1.0
  Si  Si4  1  0.57033970  0.48790900  0.79134387  1.0
  Si  Si5  1  0.51209100  0.08243070  0.79134387  1.0
  Si  Si6  1  0.08617471  0.83270059  -0.00048725  1.0
  Si  Si7  1  0.83270059  0.08617471  0.49951275  1.0
  Si  Si8  1  0.74652588  0.91382529  -0.00048725  1.0
  Si  Si9  1  0.16729941  0.25347412  -0.00048725  1.0
  Si  Si10  1  0.91382529  0.74652588  0.49951275  1.0
  Si  Si11  1  0.25347412  0.16729941  0.49951275  1.0
  N  N12  1  0.34452029  0.95455841  0.01859912  1.0
  N  N13  1  0.95455841  0.34452029  0.51859912  1.0
  N  N14  1  0.61003812  0.65547971  0.01859912  1.0
  N  N15  1  0.04544159  0.38996188  0.01859912  1.0
  N  N16  1  0.65547971  0.61003812  0.51859912  1.0
  N  N17  1  0.38996188  0.04544159  0.51859912  1.0
  N  N18  1  0.00424465  0.68538579  0.25339682  1.0
  N  N19  1  0.68538579  0.00424465  0.75339682  1.0
  N  N20  1  0.68114115  0.99575535  0.25339682  1.0
  N  N21  1  0.31461421  0.31885885  0.25339682  1.0
  N  N22  1  0.99575535  0.68114115  0.75339682  1.0
  N  N23  1  0.31885885  0.31461421  0.75339682  1.0
  N  N24  1  0.33333333  0.66666667  0.34702797  1.0
  N  N25  1  0.66666667  0.33333333  0.84702797  1.0
  N  N26  1  0.00000000  0.00000000  -0.00118566  1.0
  N  N27  1  0.00000000  0.00000000  0.49881434  1.0
