# generated using pymatgen
data_BRhO3
_symmetry_space_group_name_H-M   'P 1'
_cell_length_a   5.56423692
_cell_length_b   5.56423692
_cell_length_c   5.56423692
_cell_angle_alpha   49.77707867
_cell_angle_beta   49.77707867
_cell_angle_gamma   49.77707867
_symmetry_Int_Tables_number   1
_chemical_formula_structural   BRhO3
_chemical_formula_sum   'B2 Rh2 O6'
_cell_volume   92.37893594
_cell_formula_units_Z   2
loop_
 _symmetry_equiv_pos_site_id
 _symmetry_equiv_pos_as_xyz
  1  'x, y, z'
loop_
 _atom_site_type_symbol
 _atom_site_label
 _atom_site_symmetry_multiplicity
 _atom_site_fract_x
 _atom_site_fract_y
 _atom_site_fract_z
 _atom_site_occupancy
  B  B0  1  0.75000000  0.75000000  -0.25000000  1.0
  B  B1  1  0.25000000  0.25000000  0.25000000  1.0
  Rh  Rh2  1  1.00000000  -0.00000000  0.00000000  1.0
  Rh  Rh3  1  0.50000000  0.50000000  0.50000000  1.0
  O  O4  1  0.45534333  0.75000000  0.04465667  1.0
  O  O5  1  0.95534333  -0.45534333  0.25000000  1.0
  O  O6  1  0.25000000  0.95534333  -0.45534333  1.0
  O  O7  1  0.75000000  1.04465667  -0.54465667  1.0
  O  O8  1  0.54465667  0.25000000  -0.04465667  1.0
  O  O9  1  1.04465667  0.45534333  -0.25000000  1.0
