# generated using pymatgen
data_Hg3AsS4Cl
_symmetry_space_group_name_H-M   'P 1'
_cell_length_a   7.56502904
_cell_length_b   7.56502904
_cell_length_c   9.82692335
_cell_angle_alpha   90.00000000
_cell_angle_beta   90.00000000
_cell_angle_gamma   120.00000000
_symmetry_Int_Tables_number   1
_chemical_formula_structural   Hg3AsS4Cl
_chemical_formula_sum   'Hg6 As2 S8 Cl2'
_cell_volume   487.04534718
_cell_formula_units_Z   2
loop_
 _symmetry_equiv_pos_site_id
 _symmetry_equiv_pos_as_xyz
  1  'x, y, z'
loop_
 _atom_site_type_symbol
 _atom_site_label
 _atom_site_symmetry_multiplicity
 _atom_site_fract_x
 _atom_site_fract_y
 _atom_site_fract_z
 _atom_site_occupancy
  Hg  Hg0  1  0.99599782  0.49799891  0.01688839  1.0
  Hg  Hg1  1  0.49799891  0.99599782  0.51688839  1.0
  Hg  Hg2  1  0.49799891  0.50200109  0.51688839  1.0
  Hg  Hg3  1  0.50200109  0.49799891  0.01688839  1.0
  Hg  Hg4  1  0.50200109  0.00400218  0.01688839  1.0
  Hg  Hg5  1  0.00400218  0.50200109  0.51688839  1.0
  As  As6  1  0.00000000  0.00000000  0.00771878  1.0
  As  As7  1  0.00000000  0.00000000  0.50771878  1.0
  S  S8  1  0.70039520  0.85019760  0.13096258  1.0
  S  S9  1  0.85019760  0.70039520  0.63096258  1.0
  S  S10  1  0.85019760  0.14980240  0.63096258  1.0
  S  S11  1  0.14980240  0.85019760  0.13096258  1.0
  S  S12  1  0.14980240  0.29960480  0.13096258  1.0
  S  S13  1  0.29960480  0.14980240  0.63096258  1.0
  S  S14  1  0.33333333  0.66666667  0.39174432  1.0
  S  S15  1  0.66666667  0.33333333  0.89174432  1.0
  Cl  Cl16  1  0.33333333  0.66666667  0.82278399  1.0
  Cl  Cl17  1  0.66666667  0.33333333  0.32278399  1.0
