# generated using pymatgen
data_SrLiGaN2
_symmetry_space_group_name_H-M   'P 1'
_cell_length_a   5.96693952
_cell_length_b   5.96693952
_cell_length_c   12.73017640
_cell_angle_alpha   89.31301752
_cell_angle_beta   90.68698248
_cell_angle_gamma   61.53288686
_symmetry_Int_Tables_number   1
_chemical_formula_structural   SrLiGaN2
_chemical_formula_sum   'Sr6 Li6 Ga6 N12'
_cell_volume   398.33835559
_cell_formula_units_Z   6
loop_
 _symmetry_equiv_pos_site_id
 _symmetry_equiv_pos_as_xyz
  1  'x, y, z'
loop_
 _atom_site_type_symbol
 _atom_site_label
 _atom_site_symmetry_multiplicity
 _atom_site_fract_x
 _atom_site_fract_y
 _atom_site_fract_z
 _atom_site_occupancy
  Sr  Sr0  1  0.94604651  -0.94604651  0.74386812  1.0
  Sr  Sr1  1  0.05395349  -0.05395349  0.25613188  1.0
  Sr  Sr2  1  0.82218512  -0.17781488  0.50000000  1.0
  Sr  Sr3  1  1.17781488  0.17781488  0.50000000  1.0
  Sr  Sr4  1  0.83397436  -0.16602564  -0.00000000  1.0
  Sr  Sr5  1  1.16602564  0.16602564  -0.00000000  1.0
  Li  Li6  1  1.44554258  0.18669660  0.68154078  1.0
  Li  Li7  1  0.81330340  -0.44554258  0.68154078  1.0
  Li  Li8  1  1.18669660  0.44554258  0.31845922  1.0
  Li  Li9  1  0.55445742  -0.18669660  0.31845922  1.0
  Li  Li10  1  0.59461526  -0.59461526  0.91831166  1.0
  Li  Li11  1  0.40538474  -0.40538474  0.08168834  1.0
  Ga  Ga12  1  0.51095172  -0.18585493  0.81249162  1.0
  Ga  Ga13  1  1.18585493  0.48904828  0.81249162  1.0
  Ga  Ga14  1  0.81414507  -0.48904828  0.18750838  1.0
  Ga  Ga15  1  1.48904828  0.18585493  0.18750838  1.0
  Ga  Ga16  1  0.60781564  -0.60781564  0.41116930  1.0
  Ga  Ga17  1  0.39218436  -0.39218436  0.58883070  1.0
  N  N18  1  0.45542189  -0.13658830  0.65674653  1.0
  N  N19  1  1.13658830  0.54457811  0.65674653  1.0
  N  N20  1  0.86341170  -0.54457811  0.34325347  1.0
  N  N21  1  1.54457811  0.13658830  0.34325347  1.0
  N  N22  1  1.49797023  0.14779899  0.85091957  1.0
  N  N23  1  0.85220101  -0.49797023  0.85091957  1.0
  N  N24  1  1.14779899  0.49797023  0.14908043  1.0
  N  N25  1  0.50202977  -0.14779899  0.14908043  1.0
  N  N26  1  0.72040207  -0.72040207  0.56692855  1.0
  N  N27  1  0.27959793  -0.27959793  0.43307145  1.0
  N  N28  1  0.25004102  -0.25004102  0.89142517  1.0
  N  N29  1  0.74995898  -0.74995898  0.10857483  1.0
