# generated using pymatgen
data_Na2Ti3O7
_symmetry_space_group_name_H-M   'P 1'
_cell_length_a   8.67007086
_cell_length_b   3.81309942
_cell_length_c   9.22828470
_cell_angle_alpha   90.00000000
_cell_angle_beta   101.79892937
_cell_angle_gamma   90.00000000
_symmetry_Int_Tables_number   1
_chemical_formula_structural   Na2Ti3O7
_chemical_formula_sum   'Na4 Ti6 O14'
_cell_volume   298.63954543
_cell_formula_units_Z   2
loop_
 _symmetry_equiv_pos_site_id
 _symmetry_equiv_pos_as_xyz
  1  'x, y, z'
loop_
 _atom_site_type_symbol
 _atom_site_label
 _atom_site_symmetry_multiplicity
 _atom_site_fract_x
 _atom_site_fract_y
 _atom_site_fract_z
 _atom_site_occupancy
  Na  Na0  1  0.18132389  0.25000000  0.59154332  1.0
  Na  Na1  1  0.81867611  0.75000000  0.40845668  1.0
  Na  Na2  1  -0.00065073  0.25000000  0.15769367  1.0
  Na  Na3  1  1.00065073  0.75000000  0.84230633  1.0
  Ti  Ti4  1  0.74753974  0.25000000  0.67493485  1.0
  Ti  Ti5  1  0.25246026  0.75000000  0.32506515  1.0
  Ti  Ti6  1  0.64624746  0.25000000  0.98499398  1.0
  Ti  Ti7  1  0.35375254  0.75000000  0.01500602  1.0
  Ti  Ti8  1  0.53135706  0.25000000  0.27980754  1.0
  Ti  Ti9  1  0.46864294  0.75000000  0.72019246  1.0
  O  O10  1  0.41506258  0.25000000  0.04395891  1.0
  O  O11  1  0.58493742  0.75000000  0.95604109  1.0
  O  O12  1  0.94154112  0.25000000  0.65446698  1.0
  O  O13  1  0.05845888  0.75000000  0.34553302  1.0
  O  O14  1  0.82233620  0.25000000  0.90815441  1.0
  O  O15  1  0.17766380  0.75000000  0.09184559  1.0
  O  O16  1  0.71789211  0.25000000  0.18629459  1.0
  O  O17  1  0.28210789  0.75000000  0.81370541  1.0
  O  O18  1  0.65028663  0.25000000  0.46115218  1.0
  O  O19  1  0.34971337  0.75000000  0.53884782  1.0
  O  O20  1  0.51344126  0.25000000  0.75261183  1.0
  O  O21  1  0.48655874  0.75000000  0.24738817  1.0
  O  O22  1  0.30566897  0.25000000  0.31807152  1.0
  O  O23  1  0.69433103  0.75000000  0.68192848  1.0
