# generated using pymatgen
data_Cs2CuF6
_symmetry_space_group_name_H-M   'P 1'
_cell_length_a   6.52879514
_cell_length_b   6.52879514
_cell_length_c   6.52879514
_cell_angle_alpha   122.05156492
_cell_angle_beta   122.05156492
_cell_angle_gamma   86.48186006
_symmetry_Int_Tables_number   1
_chemical_formula_structural   Cs2CuF6
_chemical_formula_sum   'Cs2 Cu1 F6'
_cell_volume   190.28886182
_cell_formula_units_Z   1
loop_
 _symmetry_equiv_pos_site_id
 _symmetry_equiv_pos_as_xyz
  1  'x, y, z'
loop_
 _atom_site_type_symbol
 _atom_site_label
 _atom_site_symmetry_multiplicity
 _atom_site_fract_x
 _atom_site_fract_y
 _atom_site_fract_z
 _atom_site_occupancy
  Cs  Cs0  1  0.25000000  0.75000000  0.50000000  1.0
  Cs  Cs1  1  0.75000000  0.25000000  0.50000000  1.0
  Cu  Cu2  1  0.00000000  0.00000000  0.00000000  1.0
  F  F3  1  0.79707629  0.79707629  1.59415258  1.0
  F  F4  1  1.20292371  0.79707629  1.00000000  1.0
  F  F5  1  0.79707629  0.20292371  1.00000000  1.0
  F  F6  1  0.20292371  0.20292371  0.40584742  1.0
  F  F7  1  0.79323639  0.79323639  1.00000000  1.0
  F  F8  1  1.20676361  1.20676361  1.00000000  1.0
