# generated using pymatgen
data_TlPb8Br9O4
_symmetry_space_group_name_H-M   'P 1'
_cell_length_a   12.64012210
_cell_length_b   12.64012210
_cell_length_c   8.40001653
_cell_angle_alpha   90.00000000
_cell_angle_beta   90.00000000
_cell_angle_gamma   90.00000000
_symmetry_Int_Tables_number   1
_chemical_formula_structural   TlPb8Br9O4
_chemical_formula_sum   'Tl2 Pb16 Br18 O8'
_cell_volume   1342.09320885
_cell_formula_units_Z   2
loop_
 _symmetry_equiv_pos_site_id
 _symmetry_equiv_pos_as_xyz
  1  'x, y, z'
loop_
 _atom_site_type_symbol
 _atom_site_label
 _atom_site_symmetry_multiplicity
 _atom_site_fract_x
 _atom_site_fract_y
 _atom_site_fract_z
 _atom_site_occupancy
  Tl  Tl0  1  0.00000000  0.50000000  0.65550004  1.0
  Tl  Tl1  1  0.50000000  0.00000000  0.34449996  1.0
  Pb  Pb2  1  0.94293852  0.86431488  0.64623755  1.0
  Pb  Pb3  1  0.05706148  0.13568512  0.64623755  1.0
  Pb  Pb4  1  0.36431488  0.55706148  0.64623755  1.0
  Pb  Pb5  1  0.63568512  0.44293852  0.64623755  1.0
  Pb  Pb6  1  0.55706148  0.63568512  0.35376245  1.0
  Pb  Pb7  1  0.44293852  0.36431488  0.35376245  1.0
  Pb  Pb8  1  0.13568512  0.94293852  0.35376245  1.0
  Pb  Pb9  1  0.86431488  0.05706148  0.35376245  1.0
  Pb  Pb10  1  0.77045937  0.08641099  0.82494005  1.0
  Pb  Pb11  1  0.22954063  0.91358901  0.82494005  1.0
  Pb  Pb12  1  0.58641099  0.72954063  0.82494005  1.0
  Pb  Pb13  1  0.41358901  0.27045937  0.82494005  1.0
  Pb  Pb14  1  0.72954063  0.41358901  0.17505995  1.0
  Pb  Pb15  1  0.27045937  0.58641099  0.17505995  1.0
  Pb  Pb16  1  0.91358901  0.77045937  0.17505995  1.0
  Pb  Pb17  1  0.08641099  0.22954063  0.17505995  1.0
  Br  Br18  1  0.00000000  0.00000000  0.00000000  1.0
  Br  Br19  1  0.50000000  0.50000000  0.00000000  1.0
  Br  Br20  1  0.88477781  0.28886140  0.88346847  1.0
  Br  Br21  1  0.11522219  0.71113860  0.88346847  1.0
  Br  Br22  1  0.78886140  0.61522219  0.88346847  1.0
  Br  Br23  1  0.21113860  0.38477781  0.88346847  1.0
  Br  Br24  1  0.61522219  0.21113860  0.11653153  1.0
  Br  Br25  1  0.38477781  0.78886140  0.11653153  1.0
  Br  Br26  1  0.71113860  0.88477781  0.11653153  1.0
  Br  Br27  1  0.28886140  0.11522219  0.11653153  1.0
  Br  Br28  1  0.11831094  0.68246853  0.39503991  1.0
  Br  Br29  1  0.88168906  0.31753147  0.39503991  1.0
  Br  Br30  1  0.18246853  0.38168906  0.39503991  1.0
  Br  Br31  1  0.81753147  0.61831094  0.39503991  1.0
  Br  Br32  1  0.38168906  0.81753147  0.60496009  1.0
  Br  Br33  1  0.61831094  0.18246853  0.60496009  1.0
  Br  Br34  1  0.31753147  0.11831094  0.60496009  1.0
  Br  Br35  1  0.68246853  0.88168906  0.60496009  1.0
  O  O36  1  0.89217333  0.04705514  0.62830359  1.0
  O  O37  1  0.10782667  0.95294486  0.62830359  1.0
  O  O38  1  0.54705514  0.60782667  0.62830359  1.0
  O  O39  1  0.45294486  0.39217333  0.62830359  1.0
  O  O40  1  0.60782667  0.45294486  0.37169641  1.0
  O  O41  1  0.39217333  0.54705514  0.37169641  1.0
  O  O42  1  0.95294486  0.89217333  0.37169641  1.0
  O  O43  1  0.04705514  0.10782667  0.37169641  1.0
