# generated using pymatgen
data_Al5HO8
_symmetry_space_group_name_H-M   'P 1'
_cell_length_a   5.74884489
_cell_length_b   5.74884489
_cell_length_c   8.75912158
_cell_angle_alpha   90.00000000
_cell_angle_beta   90.00000000
_cell_angle_gamma   120.00000000
_symmetry_Int_Tables_number   1
_chemical_formula_structural   Al5HO8
_chemical_formula_sum   'Al10 H2 O16'
_cell_volume   250.69886511
_cell_formula_units_Z   2
loop_
 _symmetry_equiv_pos_site_id
 _symmetry_equiv_pos_as_xyz
  1  'x, y, z'
loop_
 _atom_site_type_symbol
 _atom_site_label
 _atom_site_symmetry_multiplicity
 _atom_site_fract_x
 _atom_site_fract_y
 _atom_site_fract_z
 _atom_site_occupancy
  Al  Al0  1  0.82633735  0.17366265  0.87799355  1.0
  Al  Al1  1  0.82633735  0.65267471  0.87799355  1.0
  Al  Al2  1  0.34732529  0.17366265  0.87799355  1.0
  Al  Al3  1  0.17366265  0.82633735  0.37799355  1.0
  Al  Al4  1  0.17366265  0.34732529  0.37799355  1.0
  Al  Al5  1  0.65267471  0.82633735  0.37799355  1.0
  Al  Al6  1  0.33333333  0.66666667  0.67396362  1.0
  Al  Al7  1  0.66666667  0.33333333  0.17396362  1.0
  Al  Al8  1  0.66666667  0.33333333  0.54579365  1.0
  Al  Al9  1  0.33333333  0.66666667  0.04579365  1.0
  H  H10  1  -0.00000000  -0.00000000  0.86143198  1.0
  H  H11  1  0.00000000  0.00000000  0.36143198  1.0
  O  O12  1  0.00000000  -0.00000000  0.47791967  1.0
  O  O13  1  -0.00000000  -0.00000000  -0.02208033  1.0
  O  O14  1  0.48320611  0.51679389  0.51332520  1.0
  O  O15  1  0.48320611  0.96641223  0.51332520  1.0
  O  O16  1  0.03358777  0.51679389  0.51332520  1.0
  O  O17  1  0.51679389  0.48320611  0.01332520  1.0
  O  O18  1  0.51679389  0.03358777  0.01332520  1.0
  O  O19  1  0.96641223  0.48320611  0.01332520  1.0
  O  O20  1  0.17042883  0.82957117  0.77996649  1.0
  O  O21  1  0.17042883  0.34085766  0.77996649  1.0
  O  O22  1  0.65914234  0.82957117  0.77996649  1.0
  O  O23  1  0.82957117  0.17042883  0.27996649  1.0
  O  O24  1  0.82957117  0.65914234  0.27996649  1.0
  O  O25  1  0.34085766  0.17042883  0.27996649  1.0
  O  O26  1  0.66666667  0.33333333  0.76033536  1.0
  O  O27  1  0.33333333  0.66666667  0.26033536  1.0
