# generated using pymatgen
data_Sm2Pt2Pb
_symmetry_space_group_name_H-M   'P 1'
_cell_length_a   7.95097918
_cell_length_b   7.95097918
_cell_length_c   3.83631024
_cell_angle_alpha   90.00000000
_cell_angle_beta   90.00000000
_cell_angle_gamma   90.00000000
_symmetry_Int_Tables_number   1
_chemical_formula_structural   Sm2Pt2Pb
_chemical_formula_sum   'Sm4 Pt4 Pb2'
_cell_volume   242.52412896
_cell_formula_units_Z   2
loop_
 _symmetry_equiv_pos_site_id
 _symmetry_equiv_pos_as_xyz
  1  'x, y, z'
loop_
 _atom_site_type_symbol
 _atom_site_label
 _atom_site_symmetry_multiplicity
 _atom_site_fract_x
 _atom_site_fract_y
 _atom_site_fract_z
 _atom_site_occupancy
  Sm  Sm0  1  0.32647223  0.17352777  0.50000000  1.0
  Sm  Sm1  1  0.82647223  0.32647223  0.50000000  1.0
  Sm  Sm2  1  0.67352777  0.82647223  0.50000000  1.0
  Sm  Sm3  1  0.17352777  0.67352777  0.50000000  1.0
  Pt  Pt4  1  0.87371574  0.62628426  0.00000000  1.0
  Pt  Pt5  1  0.37371574  0.87371574  0.00000000  1.0
  Pt  Pt6  1  0.12628426  0.37371574  0.00000000  1.0
  Pt  Pt7  1  0.62628426  0.12628426  0.00000000  1.0
  Pb  Pb8  1  0.50000000  0.50000000  0.00000000  1.0
  Pb  Pb9  1  0.00000000  0.00000000  0.00000000  1.0
