# generated using pymatgen
data_CaTiF5
_symmetry_space_group_name_H-M   'P 1'
_cell_length_a   5.66916332
_cell_length_b   5.66916332
_cell_length_c   7.76373718
_cell_angle_alpha   70.08196642
_cell_angle_beta   109.91803358
_cell_angle_gamma   107.84229301
_symmetry_Int_Tables_number   1
_chemical_formula_structural   CaTiF5
_chemical_formula_sum   'Ca2 Ti2 F10'
_cell_volume   215.38842173
_cell_formula_units_Z   2
loop_
 _symmetry_equiv_pos_site_id
 _symmetry_equiv_pos_as_xyz
  1  'x, y, z'
loop_
 _atom_site_type_symbol
 _atom_site_label
 _atom_site_symmetry_multiplicity
 _atom_site_fract_x
 _atom_site_fract_y
 _atom_site_fract_z
 _atom_site_occupancy
  Ca  Ca0  1  0.54032155  0.54032155  0.75000000  1.0
  Ca  Ca1  1  0.45967845  0.45967845  0.25000000  1.0
  Ti  Ti2  1  0.00000000  0.00000000  0.00000000  1.0
  Ti  Ti3  1  0.00000000  0.00000000  0.50000000  1.0
  F  F4  1  0.75255313  0.20964126  0.38206797  1.0
  F  F5  1  0.79035874  0.24744687  0.88206797  1.0
  F  F6  1  1.20964126  -0.24744687  0.11793203  1.0
  F  F7  1  1.24744687  -0.20964126  0.61793203  1.0
  F  F8  1  0.31070516  0.29062391  0.96868224  1.0
  F  F9  1  0.70937609  0.68929484  0.46868224  1.0
  F  F10  1  1.29062391  -0.68929484  0.53131776  1.0
  F  F11  1  1.68929484  -0.29062391  0.03131776  1.0
  F  F12  1  0.90576130  0.90576130  0.75000000  1.0
  F  F13  1  0.09423870  0.09423870  0.25000000  1.0
