# generated using pymatgen
data_XeIF7
_symmetry_space_group_name_H-M   'P 1'
_cell_length_a   8.13627547
_cell_length_b   8.13627547
_cell_length_c   8.13627547
_cell_angle_alpha   121.25032432
_cell_angle_beta   121.25032432
_cell_angle_gamma   87.84768239
_symmetry_Int_Tables_number   1
_chemical_formula_structural   XeIF7
_chemical_formula_sum   'Xe2 I2 F14'
_cell_volume   373.37318999
_cell_formula_units_Z   2
loop_
 _symmetry_equiv_pos_site_id
 _symmetry_equiv_pos_as_xyz
  1  'x, y, z'
loop_
 _atom_site_type_symbol
 _atom_site_label
 _atom_site_symmetry_multiplicity
 _atom_site_fract_x
 _atom_site_fract_y
 _atom_site_fract_z
 _atom_site_occupancy
  Xe  Xe0  1  0.50000000  0.00000000  0.50000000  1.0
  Xe  Xe1  1  0.00000000  0.50000000  0.50000000  1.0
  I  I2  1  0.79010740  0.79010740  1.00000000  1.0
  I  I3  1  0.20989260  0.20989260  0.00000000  1.0
  F  F4  1  0.53093799  0.70388331  0.70218918  1.0
  F  F5  1  0.99830587  1.17125119  1.70218918  1.0
  F  F6  1  0.82874881  0.53093799  0.82705468  1.0
  F  F7  1  0.29611669  0.99830587  0.82705468  1.0
  F  F8  1  1.00169413  0.82874881  1.29781082  1.0
  F  F9  1  0.46906201  0.29611669  0.29781082  1.0
  F  F10  1  0.70388331  1.00169413  1.17294532  1.0
  F  F11  1  1.17125119  0.46906201  1.17294532  1.0
  F  F12  1  0.92247115  0.74632933  1.66880048  1.0
  F  F13  1  0.25367067  0.92247115  1.17614183  1.0
  F  F14  1  0.07752885  0.25367067  0.33119952  1.0
  F  F15  1  0.74632933  0.07752885  0.82385817  1.0
  F  F16  1  0.62576182  0.62576182  1.00000000  1.0
  F  F17  1  0.37423818  0.37423818  0.00000000  1.0
