# generated using pymatgen
data_Na4Ga2S5
_symmetry_space_group_name_H-M   'P 1'
_cell_length_a   8.04624694
_cell_length_b   6.18348052
_cell_length_c   20.11933664
_cell_angle_alpha   90.00000000
_cell_angle_beta   91.41789818
_cell_angle_gamma   90.00000000
_symmetry_Int_Tables_number   1
_chemical_formula_structural   Na4Ga2S5
_chemical_formula_sum   'Na16 Ga8 S20'
_cell_volume   1000.70717545
_cell_formula_units_Z   4
loop_
 _symmetry_equiv_pos_site_id
 _symmetry_equiv_pos_as_xyz
  1  'x, y, z'
loop_
 _atom_site_type_symbol
 _atom_site_label
 _atom_site_symmetry_multiplicity
 _atom_site_fract_x
 _atom_site_fract_y
 _atom_site_fract_z
 _atom_site_occupancy
  Na  Na0  1  0.90225777  0.45563796  0.10283970  1.0
  Na  Na1  1  0.90225777  0.04436204  0.60283970  1.0
  Na  Na2  1  0.09774223  0.95563796  0.39716030  1.0
  Na  Na3  1  0.09774223  0.54436204  0.89716030  1.0
  Na  Na4  1  0.84536928  0.47289778  0.28295181  1.0
  Na  Na5  1  0.84536928  0.02710222  0.78295181  1.0
  Na  Na6  1  0.15463072  0.97289778  0.21704819  1.0
  Na  Na7  1  0.15463072  0.52710222  0.71704819  1.0
  Na  Na8  1  0.60848447  -0.00445571  0.20164446  1.0
  Na  Na9  1  0.60848447  0.50445571  0.70164446  1.0
  Na  Na10  1  0.39151553  0.49554429  0.29835554  1.0
  Na  Na11  1  0.39151553  1.00445571  0.79835554  1.0
  Na  Na12  1  0.42343945  0.24357576  0.45655301  1.0
  Na  Na13  1  0.42343945  0.25642424  0.95655301  1.0
  Na  Na14  1  0.57656055  0.74357576  0.04344699  1.0
  Na  Na15  1  0.57656055  0.75642424  0.54344699  1.0
  Ga  Ga16  1  0.84605573  0.41393794  0.46317394  1.0
  Ga  Ga17  1  0.84605573  0.08606206  0.96317394  1.0
  Ga  Ga18  1  0.15394427  0.91393794  0.03682606  1.0
  Ga  Ga19  1  0.15394427  0.58606206  0.53682606  1.0
  Ga  Ga20  1  0.66685049  0.93320066  0.36579013  1.0
  Ga  Ga21  1  0.66685049  0.56679934  0.86579013  1.0
  Ga  Ga22  1  0.33314951  0.43320066  0.13420987  1.0
  Ga  Ga23  1  0.33314951  0.06679934  0.63420987  1.0
  S  S24  1  0.88832074  0.97596379  0.07368569  1.0
  S  S25  1  0.88832074  0.52403621  0.57368569  1.0
  S  S26  1  0.11167926  0.47596379  0.42631431  1.0
  S  S27  1  0.11167926  0.02403621  0.92631431  1.0
  S  S28  1  0.86809280  0.98701202  0.29267625  1.0
  S  S29  1  0.86809280  0.51298798  0.79267625  1.0
  S  S30  1  0.13190720  0.48701202  0.20732375  1.0
  S  S31  1  0.13190720  0.01298798  0.70732375  1.0
  S  S32  1  0.75748327  0.06440576  0.47018716  1.0
  S  S33  1  0.75748327  0.43559424  0.97018716  1.0
  S  S34  1  0.24251673  0.56440576  0.02981284  1.0
  S  S35  1  0.24251673  0.93559424  0.52981284  1.0
  S  S36  1  0.40873765  0.02290700  0.32752030  1.0
  S  S37  1  0.40873765  0.47709300  0.82752030  1.0
  S  S38  1  0.59126235  0.52290700  0.17247970  1.0
  S  S39  1  0.59126235  0.97709300  0.67247970  1.0
  S  S40  1  0.36456854  0.07085282  0.09828403  1.0
  S  S41  1  0.36456854  0.42914718  0.59828403  1.0
  S  S42  1  0.63543146  0.57085282  0.40171597  1.0
  S  S43  1  0.63543146  0.92914718  0.90171597  1.0
