# generated using pymatgen
data_Ge5(BiTe4)2
_symmetry_space_group_name_H-M   'P 1'
_cell_length_a   4.30635742
_cell_length_b   4.30635742
_cell_length_c   28.14548682
_cell_angle_alpha   90.00000000
_cell_angle_beta   90.00000000
_cell_angle_gamma   120.00000000
_symmetry_Int_Tables_number   1
_chemical_formula_structural   Ge5(BiTe4)2
_chemical_formula_sum   'Ge5 Bi2 Te8'
_cell_volume   452.02196773
_cell_formula_units_Z   1
loop_
 _symmetry_equiv_pos_site_id
 _symmetry_equiv_pos_as_xyz
  1  'x, y, z'
loop_
 _atom_site_type_symbol
 _atom_site_label
 _atom_site_symmetry_multiplicity
 _atom_site_fract_x
 _atom_site_fract_y
 _atom_site_fract_z
 _atom_site_occupancy
  Ge  Ge0  1  0.33333333  0.66666667  0.24372560  1.0
  Ge  Ge1  1  0.66666667  0.33333333  0.75627440  1.0
  Ge  Ge2  1  0.33333333  0.66666667  0.87821671  1.0
  Ge  Ge3  1  0.66666667  0.33333333  0.12178329  1.0
  Ge  Ge4  1  0.00000000  0.00000000  0.00000000  1.0
  Bi  Bi5  1  0.00000000  0.00000000  0.37955922  1.0
  Bi  Bi6  1  0.00000000  0.00000000  0.62044078  1.0
  Te  Te7  1  0.33333333  0.66666667  0.06083596  1.0
  Te  Te8  1  0.66666667  0.33333333  0.93916404  1.0
  Te  Te9  1  0.33333333  0.66666667  0.44302986  1.0
  Te  Te10  1  0.66666667  0.33333333  0.55697014  1.0
  Te  Te11  1  0.33333333  0.66666667  0.69675158  1.0
  Te  Te12  1  0.66666667  0.33333333  0.30324842  1.0
  Te  Te13  1  0.00000000  0.00000000  0.18243638  1.0
  Te  Te14  1  0.00000000  0.00000000  0.81756362  1.0
