# generated using pymatgen
data_Ni11As8
_symmetry_space_group_name_H-M   'P 1'
_cell_length_a   6.91578330
_cell_length_b   6.91578330
_cell_length_c   21.96979415
_cell_angle_alpha   90.00000000
_cell_angle_beta   90.00000000
_cell_angle_gamma   90.00000000
_symmetry_Int_Tables_number   1
_chemical_formula_structural   Ni11As8
_chemical_formula_sum   'Ni44 As32'
_cell_volume   1050.77260345
_cell_formula_units_Z   4
loop_
 _symmetry_equiv_pos_site_id
 _symmetry_equiv_pos_as_xyz
  1  'x, y, z'
loop_
 _atom_site_type_symbol
 _atom_site_label
 _atom_site_symmetry_multiplicity
 _atom_site_fract_x
 _atom_site_fract_y
 _atom_site_fract_z
 _atom_site_occupancy
  Ni  Ni0  1  0.37648540  0.87376275  0.98197497  1.0
  Ni  Ni1  1  0.87648540  0.62623725  0.76802503  1.0
  Ni  Ni2  1  0.12623725  0.62351460  0.51802503  1.0
  Ni  Ni3  1  0.62623725  0.87648540  0.23197497  1.0
  Ni  Ni4  1  0.62351460  0.12623725  0.48197497  1.0
  Ni  Ni5  1  0.12351460  0.37376275  0.26802503  1.0
  Ni  Ni6  1  0.87376275  0.37648540  0.01802503  1.0
  Ni  Ni7  1  0.37376275  0.12351460  0.73197497  1.0
  Ni  Ni8  1  0.37261152  0.68162725  0.07868171  1.0
  Ni  Ni9  1  0.87261152  0.81837275  0.67131829  1.0
  Ni  Ni10  1  0.31837275  0.62738848  0.42131829  1.0
  Ni  Ni11  1  0.81837275  0.87261152  0.32868171  1.0
  Ni  Ni12  1  0.62738848  0.31837275  0.57868171  1.0
  Ni  Ni13  1  0.12738848  0.18162725  0.17131829  1.0
  Ni  Ni14  1  0.68162725  0.37261152  0.92131829  1.0
  Ni  Ni15  1  0.18162725  0.12738848  0.82868171  1.0
  Ni  Ni16  1  0.18904079  0.62247627  0.82869031  1.0
  Ni  Ni17  1  0.68904079  0.87752373  0.92130969  1.0
  Ni  Ni18  1  0.37752373  0.81095921  0.67130969  1.0
  Ni  Ni19  1  0.87752373  0.68904079  0.07869031  1.0
  Ni  Ni20  1  0.81095921  0.37752373  0.32869031  1.0
  Ni  Ni21  1  0.31095921  0.12247627  0.42130969  1.0
  Ni  Ni22  1  0.62247627  0.18904079  0.17130969  1.0
  Ni  Ni23  1  0.12247627  0.31095921  0.57869031  1.0
  Ni  Ni24  1  0.12737575  0.57078076  0.17188193  1.0
  Ni  Ni25  1  0.62737575  0.92921924  0.57811807  1.0
  Ni  Ni26  1  0.42921924  0.87262425  0.32811807  1.0
  Ni  Ni27  1  0.92921924  0.62737575  0.42188193  1.0
  Ni  Ni28  1  0.87262425  0.42921924  0.67188193  1.0
  Ni  Ni29  1  0.37262425  0.07078076  0.07811807  1.0
  Ni  Ni30  1  0.57078076  0.12737575  0.82811807  1.0
  Ni  Ni31  1  0.07078076  0.37262425  0.92188193  1.0
  Ni  Ni32  1  0.06403235  0.87764517  0.92155916  1.0
  Ni  Ni33  1  0.56403235  0.62235483  0.82844084  1.0
  Ni  Ni34  1  0.12235483  0.93596765  0.57844084  1.0
  Ni  Ni35  1  0.62235483  0.56403235  0.17155916  1.0
  Ni  Ni36  1  0.93596765  0.12235483  0.42155916  1.0
  Ni  Ni37  1  0.43596765  0.37764517  0.32844084  1.0
  Ni  Ni38  1  0.87764517  0.06403235  0.07844084  1.0
  Ni  Ni39  1  0.37764517  0.43596765  0.67155916  1.0
  Ni  Ni40  1  0.12306478  0.87693522  0.25000000  1.0
  Ni  Ni41  1  0.62306478  0.62306478  0.50000000  1.0
  Ni  Ni42  1  0.87693522  0.12306478  0.75000000  1.0
  Ni  Ni43  1  0.37693522  0.37693522  0.00000000  1.0
  As  As44  1  0.37664486  0.87452196  0.87452291  1.0
  As  As45  1  0.87664486  0.62547804  0.87547709  1.0
  As  As46  1  0.12547804  0.62335514  0.62547709  1.0
  As  As47  1  0.62547804  0.87664486  0.12452291  1.0
  As  As48  1  0.62335514  0.12547804  0.37452291  1.0
  As  As49  1  0.12335514  0.37452196  0.37547709  1.0
  As  As50  1  0.87452196  0.37664486  0.12547709  1.0
  As  As51  1  0.37452196  0.12335514  0.62452291  1.0
  As  As52  1  0.12110195  0.63053766  0.99980805  1.0
  As  As53  1  0.62110195  0.86946234  0.75019195  1.0
  As  As54  1  0.36946234  0.87889805  0.50019195  1.0
  As  As55  1  0.86946234  0.62110195  0.24980805  1.0
  As  As56  1  0.87889805  0.36946234  0.49980805  1.0
  As  As57  1  0.37889805  0.13053766  0.25019195  1.0
  As  As58  1  0.63053766  0.12110195  0.00019195  1.0
  As  As59  1  0.13053766  0.37889805  0.74980805  1.0
  As  As60  1  0.12452559  0.87616134  0.12866787  1.0
  As  As61  1  0.62452559  0.62383866  0.62133213  1.0
  As  As62  1  0.12383866  0.87547441  0.37133213  1.0
  As  As63  1  0.62383866  0.62452559  0.37866787  1.0
  As  As64  1  0.87547441  0.12383866  0.62866787  1.0
  As  As65  1  0.37547441  0.37616134  0.12133213  1.0
  As  As66  1  0.87616134  0.12452559  0.87133213  1.0
  As  As67  1  0.37616134  0.37547441  0.87866787  1.0
  As  As68  1  0.37906715  0.62093285  0.25000000  1.0
  As  As69  1  0.87906715  0.87906715  0.50000000  1.0
  As  As70  1  0.62093285  0.37906715  0.75000000  1.0
  As  As71  1  0.12093285  0.12093285  -0.00000000  1.0
  As  As72  1  0.86964079  0.13035921  0.25000000  1.0
  As  As73  1  0.36964079  0.36964079  0.50000000  1.0
  As  As74  1  0.13035921  0.86964079  0.75000000  1.0
  As  As75  1  0.63035921  0.63035921  0.00000000  1.0
