# generated using pymatgen
data_ZnHg3Se3Br2
_symmetry_space_group_name_H-M   'P 1'
_cell_length_a   8.99330434
_cell_length_b   8.99330434
_cell_length_c   7.57581868
_cell_angle_alpha   90.00000000
_cell_angle_beta   90.00000000
_cell_angle_gamma   120.00000000
_symmetry_Int_Tables_number   1
_chemical_formula_structural   ZnHg3Se3Br2
_chemical_formula_sum   'Zn2 Hg6 Se6 Br4'
_cell_volume   530.63853372
_cell_formula_units_Z   2
loop_
 _symmetry_equiv_pos_site_id
 _symmetry_equiv_pos_as_xyz
  1  'x, y, z'
loop_
 _atom_site_type_symbol
 _atom_site_label
 _atom_site_symmetry_multiplicity
 _atom_site_fract_x
 _atom_site_fract_y
 _atom_site_fract_z
 _atom_site_occupancy
  Zn  Zn0  1  0.00000000  0.00000000  0.80388757  1.0
  Zn  Zn1  1  0.00000000  0.00000000  0.19611243  1.0
  Hg  Hg2  1  0.50000000  0.00000000  0.00000000  1.0
  Hg  Hg3  1  0.50000000  0.50000000  0.00000000  1.0
  Hg  Hg4  1  -0.00000000  0.50000000  0.00000000  1.0
  Hg  Hg5  1  -0.00000000  0.50000000  0.50000000  1.0
  Hg  Hg6  1  0.50000000  0.00000000  0.50000000  1.0
  Hg  Hg7  1  0.50000000  0.50000000  0.50000000  1.0
  Se  Se8  1  0.24137612  0.30152804  0.77087694  1.0
  Se  Se9  1  0.06015192  0.75862388  0.77087694  1.0
  Se  Se10  1  0.69847196  0.93984808  0.77087694  1.0
  Se  Se11  1  0.75862388  0.69847196  0.22912306  1.0
  Se  Se12  1  0.93984808  0.24137612  0.22912306  1.0
  Se  Se13  1  0.30152804  0.06015192  0.22912306  1.0
  Br  Br14  1  0.66666667  0.33333333  0.38776267  1.0
  Br  Br15  1  0.33333333  0.66666667  0.61223733  1.0
  Br  Br16  1  0.66666667  0.33333333  0.84761582  1.0
  Br  Br17  1  0.33333333  0.66666667  0.15238418  1.0
