# generated using pymatgen
data_CsSbH4O5
_symmetry_space_group_name_H-M   'P 1'
_cell_length_a   7.53367059
_cell_length_b   6.76025472
_cell_length_c   6.76358786
_cell_angle_alpha   115.38776673
_cell_angle_beta   109.91515604
_cell_angle_gamma   87.29461503
_symmetry_Int_Tables_number   1
_chemical_formula_structural   CsSbH4O5
_chemical_formula_sum   'Cs2 Sb2 H8 O10'
_cell_volume   290.60204868
_cell_formula_units_Z   2
loop_
 _symmetry_equiv_pos_site_id
 _symmetry_equiv_pos_as_xyz
  1  'x, y, z'
loop_
 _atom_site_type_symbol
 _atom_site_label
 _atom_site_symmetry_multiplicity
 _atom_site_fract_x
 _atom_site_fract_y
 _atom_site_fract_z
 _atom_site_occupancy
  Cs  Cs0  1  -0.71160865  -0.51107798  -0.32966447  1.0
  Cs  Cs1  1  -0.28839135  -0.48892202  -0.67033553  1.0
  Sb  Sb2  1  -0.86013274  -0.87654949  -0.04106143  1.0
  Sb  Sb3  1  -0.13986726  -0.12345051  -0.95893857  1.0
  H  H4  1  -0.80862054  -0.45754235  -0.84133102  1.0
  H  H5  1  -0.19137946  -0.54245765  -0.15866898  1.0
  H  H6  1  -0.87167313  -0.12392479  -0.59231999  1.0
  H  H7  1  -0.12832687  -0.87607521  -0.40768001  1.0
  H  H8  1  -0.60732356  -0.99082921  -0.22956692  1.0
  H  H9  1  -0.39267644  -0.00917079  -0.77043308  1.0
  H  H10  1  -0.30399511  -0.93828290  -0.20501935  1.0
  H  H11  1  -0.69600489  -0.06171710  -0.79498065  1.0
  O  O12  1  -0.72029995  -0.57362994  -0.86576344  1.0
  O  O13  1  -0.27970005  -0.42637006  -0.13423656  1.0
  O  O14  1  -0.63433843  -0.97378757  -0.84252830  1.0
  O  O15  1  -0.36566157  -0.02621243  -0.15747170  1.0
  O  O16  1  -0.99539946  -0.81936329  -0.81192383  1.0
  O  O17  1  -0.00460054  -0.18063671  -0.18807617  1.0
  O  O18  1  -0.92164449  -0.22610694  -0.76239923  1.0
  O  O19  1  -0.07835551  -0.77389306  -0.23760077  1.0
  O  O20  1  -0.74292934  -0.96530506  -0.28888498  1.0
  O  O21  1  -0.25707066  -0.03469494  -0.71111502  1.0
