# generated using pymatgen
data_CsAg2BiS3
_symmetry_space_group_name_H-M   'P 1'
_cell_length_a   13.59770167
_cell_length_b   8.27201245
_cell_length_c   7.05115356
_cell_angle_alpha   90.00000000
_cell_angle_beta   99.56694180
_cell_angle_gamma   90.00000000
_symmetry_Int_Tables_number   1
_chemical_formula_structural   CsAg2BiS3
_chemical_formula_sum   'Cs4 Ag8 Bi4 S12'
_cell_volume   782.08568728
_cell_formula_units_Z   4
loop_
 _symmetry_equiv_pos_site_id
 _symmetry_equiv_pos_as_xyz
  1  'x, y, z'
loop_
 _atom_site_type_symbol
 _atom_site_label
 _atom_site_symmetry_multiplicity
 _atom_site_fract_x
 _atom_site_fract_y
 _atom_site_fract_z
 _atom_site_occupancy
  Cs  Cs0  1  0.82121376  0.88226420  0.17951744  1.0
  Cs  Cs1  1  0.82121376  0.61773580  0.67951744  1.0
  Cs  Cs2  1  0.17878624  0.38226420  0.32048256  1.0
  Cs  Cs3  1  0.17878624  0.11773580  0.82048256  1.0
  Ag  Ag4  1  0.90908809  0.24648340  0.47082571  1.0
  Ag  Ag5  1  0.90908809  0.25351660  0.97082571  1.0
  Ag  Ag6  1  0.09091191  0.74648340  0.02917429  1.0
  Ag  Ag7  1  0.09091191  0.75351660  0.52917429  1.0
  Ag  Ag8  1  0.73068742  0.35827591  0.14342625  1.0
  Ag  Ag9  1  0.73068742  0.14172409  0.64342625  1.0
  Ag  Ag10  1  0.26931258  0.85827591  0.35657375  1.0
  Ag  Ag11  1  0.26931258  0.64172409  0.85657375  1.0
  Bi  Bi12  1  0.49714980  0.13112203  0.25595520  1.0
  Bi  Bi13  1  0.49714980  0.36887797  0.75595520  1.0
  Bi  Bi14  1  0.50285020  0.63112203  0.24404480  1.0
  Bi  Bi15  1  0.50285020  0.86887797  0.74404480  1.0
  S  S16  1  0.90793066  0.44610068  0.22465182  1.0
  S  S17  1  0.90793066  0.05389932  0.72465182  1.0
  S  S18  1  0.09206934  0.94610068  0.27534818  1.0
  S  S19  1  0.09206934  0.55389932  0.77534818  1.0
  S  S20  1  0.62014049  0.35804951  0.45268706  1.0
  S  S21  1  0.62014049  0.14195049  0.95268706  1.0
  S  S22  1  0.37985951  0.85804951  0.04731294  1.0
  S  S23  1  0.37985951  0.64195049  0.54731294  1.0
  S  S24  1  0.61900041  0.87681178  0.45318712  1.0
  S  S25  1  0.61900041  0.62318822  0.95318712  1.0
  S  S26  1  0.38099959  0.37681178  0.04681288  1.0
  S  S27  1  0.38099959  0.12318822  0.54681288  1.0
