# generated using pymatgen
data_Sr2AuN
_symmetry_space_group_name_H-M   'P 1'
_cell_length_a   9.77625837
_cell_length_b   9.77625837
_cell_length_c   5.29374846
_cell_angle_alpha   90.00000000
_cell_angle_beta   90.00000000
_cell_angle_gamma   157.73059099
_symmetry_Int_Tables_number   1
_chemical_formula_structural   Sr2AuN
_chemical_formula_sum   'Sr4 Au2 N2'
_cell_volume   191.73634679
_cell_formula_units_Z   2
loop_
 _symmetry_equiv_pos_site_id
 _symmetry_equiv_pos_as_xyz
  1  'x, y, z'
loop_
 _atom_site_type_symbol
 _atom_site_label
 _atom_site_symmetry_multiplicity
 _atom_site_fract_x
 _atom_site_fract_y
 _atom_site_fract_z
 _atom_site_occupancy
  Sr  Sr0  1  -0.78548144  0.78548144  0.25000000  1.0
  Sr  Sr1  1  -0.21451856  1.21451856  0.75000000  1.0
  Sr  Sr2  1  -0.60084759  0.60084759  0.25000000  1.0
  Sr  Sr3  1  -0.39915241  1.39915241  0.75000000  1.0
  Au  Au4  1  -0.96045440  0.96045440  0.25000000  1.0
  Au  Au5  1  -0.03954560  1.03954560  0.75000000  1.0
  N  N6  1  -0.19257740  1.19257740  0.25000000  1.0
  N  N7  1  -0.80742260  0.80742260  0.75000000  1.0
