# generated using pymatgen
data_CuAg2(PO3)4
_symmetry_space_group_name_H-M   'P 1'
_cell_length_a   8.31769375
_cell_length_b   8.31769375
_cell_length_c   8.00660588
_cell_angle_alpha   86.82652400
_cell_angle_beta   93.17347600
_cell_angle_gamma   71.01740449
_symmetry_Int_Tables_number   1
_chemical_formula_structural   CuAg2(PO3)4
_chemical_formula_sum   'Cu2 Ag4 P8 O24'
_cell_volume   521.42054752
_cell_formula_units_Z   2
loop_
 _symmetry_equiv_pos_site_id
 _symmetry_equiv_pos_as_xyz
  1  'x, y, z'
loop_
 _atom_site_type_symbol
 _atom_site_label
 _atom_site_symmetry_multiplicity
 _atom_site_fract_x
 _atom_site_fract_y
 _atom_site_fract_z
 _atom_site_occupancy
  Cu  Cu0  1  0.63451841  -0.36548159  0.25000000  1.0
  Cu  Cu1  1  1.36548159  0.36548159  0.75000000  1.0
  Ag  Ag2  1  0.31947462  -0.01385107  0.17854449  1.0
  Ag  Ag3  1  1.01385107  0.68052538  0.67854449  1.0
  Ag  Ag4  1  0.98614893  -0.68052538  0.32145551  1.0
  Ag  Ag5  1  1.68052538  0.01385107  0.82145551  1.0
  P  P6  1  0.73857025  -0.05056132  0.37182029  1.0
  P  P7  1  1.05056132  0.26142975  0.87182029  1.0
  P  P8  1  0.94943868  -0.26142975  0.12817971  1.0
  P  P9  1  1.26142975  0.05056132  0.62817971  1.0
  P  P10  1  1.55958468  0.28831278  0.17579327  1.0
  P  P11  1  0.71168722  -0.55958468  0.67579327  1.0
  P  P12  1  1.28831278  0.55958468  0.32420673  1.0
  P  P13  1  0.44041532  -0.28831278  0.82420673  1.0
  O  O14  1  0.41542425  -0.34508953  0.34179821  1.0
  O  O15  1  1.34508953  0.58457575  0.84179821  1.0
  O  O16  1  0.65491047  -0.58457575  0.15820179  1.0
  O  O17  1  1.58457575  0.34508953  0.65820179  1.0
  O  O18  1  0.60563752  -0.13153252  0.31693172  1.0
  O  O19  1  1.13153252  0.39436248  0.81693172  1.0
  O  O20  1  0.86846748  -0.39436248  0.18306828  1.0
  O  O21  1  1.39436248  0.13153252  0.68306828  1.0
  O  O22  1  1.66137440  0.15238975  0.33177753  1.0
  O  O23  1  0.84761025  -0.66137440  0.83177753  1.0
  O  O24  1  1.15238975  0.66137440  0.16822247  1.0
  O  O25  1  0.33862560  -0.15238975  0.66822247  1.0
  O  O26  1  1.52983287  0.19776798  0.02649783  1.0
  O  O27  1  0.80223202  -0.52983287  0.52649783  1.0
  O  O28  1  1.19776798  0.52983287  0.47350217  1.0
  O  O29  1  0.47016713  -0.19776798  0.97350217  1.0
  O  O30  1  1.19052571  0.07937299  0.44806147  1.0
  O  O31  1  0.92062701  -0.19052571  0.94806147  1.0
  O  O32  1  1.07937299  0.19052571  0.05193853  1.0
  O  O33  1  0.80947429  -0.07937299  0.55193853  1.0
  O  O34  1  0.89505226  -0.10494774  0.25000000  1.0
  O  O35  1  1.10494774  0.10494774  0.75000000  1.0
  O  O36  1  1.37646816  0.37646816  0.25000000  1.0
  O  O37  1  0.62353184  -0.37646816  0.75000000  1.0
