# generated using pymatgen
data_H3C(N2O)2
_symmetry_space_group_name_H-M   'P 1'
_cell_length_a   5.16057814
_cell_length_b   5.16057814
_cell_length_c   8.68039008
_cell_angle_alpha   70.34806488
_cell_angle_beta   109.65193512
_cell_angle_gamma   96.05476204
_symmetry_Int_Tables_number   1
_chemical_formula_structural   H3C(N2O)2
_chemical_formula_sum   'H6 C2 N8 O4'
_cell_volume   205.01892054
_cell_formula_units_Z   2
loop_
 _symmetry_equiv_pos_site_id
 _symmetry_equiv_pos_as_xyz
  1  'x, y, z'
loop_
 _atom_site_type_symbol
 _atom_site_label
 _atom_site_symmetry_multiplicity
 _atom_site_fract_x
 _atom_site_fract_y
 _atom_site_fract_z
 _atom_site_occupancy
  H  H0  1  0.92415318  0.07584682  0.25328876  1.0
  H  H1  1  0.07584682  -0.07584682  0.74671124  1.0
  H  H2  1  0.83452032  0.16547968  0.57904692  1.0
  H  H3  1  0.16547968  -0.16547968  0.42095308  1.0
  H  H4  1  0.86962506  -0.86962506  0.79925989  1.0
  H  H5  1  1.13037494  -0.13037494  0.20074011  1.0
  C  C6  1  0.47437254  -0.47437254  0.90979938  1.0
  C  C7  1  0.52562746  0.47437254  0.09020062  1.0
  N  N8  1  0.67864250  0.32135750  0.36740811  1.0
  N  N9  1  0.32135750  -0.32135750  0.63259189  1.0
  N  N10  1  0.60519898  -0.60519898  0.84357871  1.0
  N  N11  1  1.39480102  -0.39480102  0.15642129  1.0
  N  N12  1  0.50699669  -0.50699669  0.67097074  1.0
  N  N13  1  1.49300331  -0.49300331  0.32902926  1.0
  N  N14  1  0.29498090  -0.29498090  0.77455385  1.0
  N  N15  1  0.70501910  0.29498090  0.22544615  1.0
  O  O16  1  0.92667015  0.07332985  0.70794309  1.0
  O  O17  1  0.07332985  -0.07332985  0.29205691  1.0
  O  O18  1  0.79467218  -0.79467218  0.92440529  1.0
  O  O19  1  1.20532782  -0.20532782  0.07559471  1.0
