# generated using pymatgen
data_VCl2O
_symmetry_space_group_name_H-M   'P 1'
_cell_length_a   7.25969003
_cell_length_b   7.25969003
_cell_length_c   7.25969003
_cell_angle_alpha   152.23787712
_cell_angle_beta   151.28047546
_cell_angle_gamma   40.37052974
_symmetry_Int_Tables_number   1
_chemical_formula_structural   VCl2O
_chemical_formula_sum   'V1 Cl2 O1'
_cell_volume   85.46692571
_cell_formula_units_Z   1
loop_
 _symmetry_equiv_pos_site_id
 _symmetry_equiv_pos_as_xyz
  1  'x, y, z'
loop_
 _atom_site_type_symbol
 _atom_site_label
 _atom_site_symmetry_multiplicity
 _atom_site_fract_x
 _atom_site_fract_y
 _atom_site_fract_z
 _atom_site_occupancy
  V  V0  1  0.50000000  0.00000000  0.50000000  1.0
  Cl  Cl1  1  0.62131750  0.62131750  1.00000000  1.0
  Cl  Cl2  1  0.37868250  0.37868250  0.00000000  1.0
  O  O3  1  0.00000000  0.00000000  0.00000000  1.0
