# generated using pymatgen
data_Ba3MnSb2O9
_symmetry_space_group_name_H-M   'P 1'
_cell_length_a   5.95725096
_cell_length_b   5.95725096
_cell_length_c   14.77114037
_cell_angle_alpha   90.00000000
_cell_angle_beta   90.00000000
_cell_angle_gamma   120.00000000
_symmetry_Int_Tables_number   1
_chemical_formula_structural   Ba3MnSb2O9
_chemical_formula_sum   'Ba6 Mn2 Sb4 O18'
_cell_volume   453.97971632
_cell_formula_units_Z   2
loop_
 _symmetry_equiv_pos_site_id
 _symmetry_equiv_pos_as_xyz
  1  'x, y, z'
loop_
 _atom_site_type_symbol
 _atom_site_label
 _atom_site_symmetry_multiplicity
 _atom_site_fract_x
 _atom_site_fract_y
 _atom_site_fract_z
 _atom_site_occupancy
  Ba  Ba0  1  0.33333333  0.66666667  0.41192659  1.0
  Ba  Ba1  1  0.33333333  0.66666667  0.08807341  1.0
  Ba  Ba2  1  0.66666667  0.33333333  0.91192659  1.0
  Ba  Ba3  1  0.66666667  0.33333333  0.58807341  1.0
  Ba  Ba4  1  0.00000000  0.00000000  0.25000000  1.0
  Ba  Ba5  1  0.00000000  0.00000000  0.75000000  1.0
  Mn  Mn6  1  0.00000000  0.00000000  0.50000000  1.0
  Mn  Mn7  1  0.00000000  0.00000000  0.00000000  1.0
  Sb  Sb8  1  0.33333333  0.66666667  0.84792734  1.0
  Sb  Sb9  1  0.33333333  0.66666667  0.65207266  1.0
  Sb  Sb10  1  0.66666667  0.33333333  0.34792734  1.0
  Sb  Sb11  1  0.66666667  0.33333333  0.15207266  1.0
  O  O12  1  0.16893066  0.83106934  0.91579784  1.0
  O  O13  1  0.16893066  0.83106934  0.58420216  1.0
  O  O14  1  0.16893066  0.33786132  0.91579784  1.0
  O  O15  1  0.16893066  0.33786132  0.58420216  1.0
  O  O16  1  0.83106934  0.16893066  0.41579784  1.0
  O  O17  1  0.83106934  0.16893066  0.08420216  1.0
  O  O18  1  0.83106934  0.66213868  0.41579784  1.0
  O  O19  1  0.83106934  0.66213868  0.08420216  1.0
  O  O20  1  0.66213868  0.83106934  0.91579784  1.0
  O  O21  1  0.66213868  0.83106934  0.58420216  1.0
  O  O22  1  0.33786132  0.16893066  0.41579784  1.0
  O  O23  1  0.33786132  0.16893066  0.08420216  1.0
  O  O24  1  0.51736164  0.48263836  0.25000000  1.0
  O  O25  1  0.51736164  0.03472329  0.25000000  1.0
  O  O26  1  0.48263836  0.51736164  0.75000000  1.0
  O  O27  1  0.48263836  0.96527671  0.75000000  1.0
  O  O28  1  0.96527671  0.48263836  0.25000000  1.0
  O  O29  1  0.03472329  0.51736164  0.75000000  1.0
