# generated using pymatgen
data_KCrCuF6
_symmetry_space_group_name_H-M   'P 1'
_cell_length_a   7.37837326
_cell_length_b   10.15461896
_cell_length_c   6.93552762
_cell_angle_alpha   90.00000000
_cell_angle_beta   93.25570954
_cell_angle_gamma   90.00000000
_symmetry_Int_Tables_number   1
_chemical_formula_structural   KCrCuF6
_chemical_formula_sum   'K4 Cr4 Cu4 F24'
_cell_volume   518.80272466
_cell_formula_units_Z   4
loop_
 _symmetry_equiv_pos_site_id
 _symmetry_equiv_pos_as_xyz
  1  'x, y, z'
loop_
 _atom_site_type_symbol
 _atom_site_label
 _atom_site_symmetry_multiplicity
 _atom_site_fract_x
 _atom_site_fract_y
 _atom_site_fract_z
 _atom_site_occupancy
  K  K0  1  0.74574634  0.38920464  0.99641200  1.0
  K  K1  1  0.74574634  0.11079536  0.49641200  1.0
  K  K2  1  0.25425366  0.88920464  0.50358800  1.0
  K  K3  1  0.25425366  0.61079536  0.00358800  1.0
  Cr  Cr4  1  0.50000000  0.00000000  -0.00000000  1.0
  Cr  Cr5  1  0.50000000  0.50000000  0.50000000  1.0
  Cr  Cr6  1  0.00000000  0.00000000  0.00000000  1.0
  Cr  Cr7  1  0.00000000  0.50000000  0.50000000  1.0
  Cu  Cu8  1  0.75158696  0.73685833  0.81690615  1.0
  Cu  Cu9  1  0.75158696  0.76314167  0.31690615  1.0
  Cu  Cu10  1  0.24841304  0.23685833  0.68309385  1.0
  Cu  Cu11  1  0.24841304  0.26314167  0.18309385  1.0
  F  F12  1  1.00146224  0.82526284  0.90443135  1.0
  F  F13  1  1.00146224  0.67473716  0.40443135  1.0
  F  F14  1  -0.00146224  0.32526284  0.59556865  1.0
  F  F15  1  -0.00146224  0.17473716  0.09556865  1.0
  F  F16  1  0.94882344  0.56082409  0.74859510  1.0
  F  F17  1  0.94882344  0.93917591  0.24859510  1.0
  F  F18  1  0.05117656  0.06082409  0.75140490  1.0
  F  F19  1  0.05117656  0.43917591  0.25140490  1.0
  F  F20  1  0.74602237  0.82642777  0.57596964  1.0
  F  F21  1  0.74602237  0.67357223  0.07596964  1.0
  F  F22  1  0.25397763  0.32642777  0.92403036  1.0
  F  F23  1  0.25397763  0.17357223  0.42403036  1.0
  F  F24  1  0.74593090  0.48801880  0.41684798  1.0
  F  F25  1  0.74593090  0.01198120  0.91684798  1.0
  F  F26  1  0.25406910  0.98801880  0.08315202  1.0
  F  F27  1  0.25406910  0.51198120  0.58315202  1.0
  F  F28  1  0.56951189  0.58233608  0.73874517  1.0
  F  F29  1  0.56951189  0.91766392  0.23874517  1.0
  F  F30  1  0.43048811  0.08233608  0.76125483  1.0
  F  F31  1  0.43048811  0.41766392  0.26125483  1.0
  F  F32  1  0.47132960  0.83570904  0.87580374  1.0
  F  F33  1  0.47132960  0.66429096  0.37580374  1.0
  F  F34  1  0.52867040  0.33570904  0.62419626  1.0
  F  F35  1  0.52867040  0.16429096  0.12419626  1.0
