# generated using pymatgen
data_Cs3SnPSe7
_symmetry_space_group_name_H-M   'P 1'
_cell_length_a   7.70581678
_cell_length_b   12.71665455
_cell_length_c   10.44661325
_cell_angle_alpha   101.21019728
_cell_angle_beta   110.77065555
_cell_angle_gamma   88.10338601
_symmetry_Int_Tables_number   1
_chemical_formula_structural   Cs3SnPSe7
_chemical_formula_sum   'Cs6 Sn2 P2 Se14'
_cell_volume   938.17532912
_cell_formula_units_Z   2
loop_
 _symmetry_equiv_pos_site_id
 _symmetry_equiv_pos_as_xyz
  1  'x, y, z'
loop_
 _atom_site_type_symbol
 _atom_site_label
 _atom_site_symmetry_multiplicity
 _atom_site_fract_x
 _atom_site_fract_y
 _atom_site_fract_z
 _atom_site_occupancy
  Cs  Cs0  1  0.67559235  0.39587825  -0.62354652  1.0
  Cs  Cs1  1  0.32440765  0.60412175  -0.37645348  1.0
  Cs  Cs2  1  0.62329939  0.01412220  -0.68283609  1.0
  Cs  Cs3  1  0.37670061  0.98587780  -0.31716391  1.0
  Cs  Cs4  1  0.04534233  0.79165816  -0.98706408  1.0
  Cs  Cs5  1  0.95465767  0.20834184  -0.01293592  1.0
  Sn  Sn6  1  0.59793854  0.63234928  -0.92819886  1.0
  Sn  Sn7  1  0.40206146  0.36765072  -0.07180114  1.0
  P  P8  1  0.23015673  0.22379644  -0.56068857  1.0
  P  P9  1  0.76984327  0.77620356  -0.43931143  1.0
  Se  Se10  1  0.92358888  0.63123234  -0.73049331  1.0
  Se  Se11  1  0.07641112  0.36876766  -0.26950669  1.0
  Se  Se12  1  0.04401047  0.20463694  -0.43218782  1.0
  Se  Se13  1  0.95598953  0.79536306  -0.56781218  1.0
  Se  Se14  1  0.33545739  0.52887437  -0.89567420  1.0
  Se  Se15  1  0.66454261  0.47112563  -0.10432580  1.0
  Se  Se16  1  0.52251563  0.80313110  -0.01326668  1.0
  Se  Se17  1  0.47748437  0.19686890  -0.98673332  1.0
  Se  Se18  1  0.15461159  0.36214828  -0.66124001  1.0
  Se  Se19  1  0.84538841  0.63785172  -0.33875999  1.0
  Se  Se20  1  0.12575674  0.06454623  -0.69573713  1.0
  Se  Se21  1  0.87424326  0.93545377  -0.30426287  1.0
  Se  Se22  1  0.52020526  0.23065318  -0.42146775  1.0
  Se  Se23  1  0.47979474  0.76934682  -0.57853225  1.0
