# generated using pymatgen
data_MnGeO3
_symmetry_space_group_name_H-M   'P 1'
_cell_length_a   6.88307513
_cell_length_b   6.88307513
_cell_length_c   5.34444493
_cell_angle_alpha   80.54694248
_cell_angle_beta   99.45305752
_cell_angle_gamma   93.94286099
_symmetry_Int_Tables_number   1
_chemical_formula_structural   MnGeO3
_chemical_formula_sum   'Mn4 Ge4 O12'
_cell_volume   246.14495752
_cell_formula_units_Z   4
loop_
 _symmetry_equiv_pos_site_id
 _symmetry_equiv_pos_as_xyz
  1  'x, y, z'
loop_
 _atom_site_type_symbol
 _atom_site_label
 _atom_site_symmetry_multiplicity
 _atom_site_fract_x
 _atom_site_fract_y
 _atom_site_fract_z
 _atom_site_occupancy
  Mn  Mn0  1  0.77326917  0.77326917  0.75000000  1.0
  Mn  Mn1  1  0.22673083  0.22673083  0.25000000  1.0
  Mn  Mn2  1  0.40287068  0.40287068  0.75000000  1.0
  Mn  Mn3  1  0.59712932  0.59712932  0.25000000  1.0
  Ge  Ge4  1  1.29357912  -0.11086379  0.77887945  1.0
  Ge  Ge5  1  1.11086379  -0.29357912  0.27887945  1.0
  Ge  Ge6  1  0.88913621  0.29357912  0.72112055  1.0
  Ge  Ge7  1  0.70642088  0.11086379  0.22112055  1.0
  O  O8  1  1.47511818  -0.29091408  0.86124758  1.0
  O  O9  1  1.29091408  -0.47511818  0.36124758  1.0
  O  O10  1  0.70908592  0.47511818  0.63875242  1.0
  O  O11  1  0.52488182  0.29091408  0.13875242  1.0
  O  O12  1  0.79231409  0.08142426  0.92463036  1.0
  O  O13  1  0.91857574  0.20768591  0.42463036  1.0
  O  O14  1  1.08142426  -0.20768591  0.57536964  1.0
  O  O15  1  1.20768591  -0.08142426  0.07536964  1.0
  O  O16  1  0.35566644  0.12116581  0.61855402  1.0
  O  O17  1  0.87883419  0.64433356  0.11855402  1.0
  O  O18  1  1.12116581  -0.64433356  0.88144598  1.0
  O  O19  1  1.64433356  -0.12116581  0.38144598  1.0
