# generated using pymatgen
data_Lu4In(CoGe2)2
_symmetry_space_group_name_H-M   'P 1'
_cell_length_a   7.88466499
_cell_length_b   7.88466499
_cell_length_c   6.90849442
_cell_angle_alpha   72.73109395
_cell_angle_beta   107.26890605
_cell_angle_gamma   149.33878151
_symmetry_Int_Tables_number   1
_chemical_formula_structural   Lu4In(CoGe2)2
_chemical_formula_sum   'Lu4 In1 Co2 Ge4'
_cell_volume   208.38752935
_cell_formula_units_Z   1
loop_
 _symmetry_equiv_pos_site_id
 _symmetry_equiv_pos_as_xyz
  1  'x, y, z'
loop_
 _atom_site_type_symbol
 _atom_site_label
 _atom_site_symmetry_multiplicity
 _atom_site_fract_x
 _atom_site_fract_y
 _atom_site_fract_z
 _atom_site_occupancy
  Lu  Lu0  1  0.65493571  -0.65493571  0.93913035  1.0
  Lu  Lu1  1  1.34506429  -0.34506429  0.06086965  1.0
  Lu  Lu2  1  1.40942936  -0.40942936  0.60958768  1.0
  Lu  Lu3  1  0.59057064  -0.59057064  0.39041232  1.0
  In  In4  1  0.00000000  0.00000000  0.00000000  1.0
  Co  Co5  1  0.77893194  -0.77893194  0.37078386  1.0
  Co  Co6  1  1.22106806  -0.22106806  0.62921614  1.0
  Ge  Ge7  1  0.93135346  -0.93135346  0.33901014  1.0
  Ge  Ge8  1  1.06864654  -0.06864654  0.66098986  1.0
  Ge  Ge9  1  0.79682713  -0.79682713  0.73579824  1.0
  Ge  Ge10  1  1.20317287  -0.20317287  0.26420176  1.0
