# generated using pymatgen
data_Ta3O8
_symmetry_space_group_name_H-M   'P 1'
_cell_length_a   16.99891239
_cell_length_b   3.91247963
_cell_length_c   9.11034108
_cell_angle_alpha   90.00000000
_cell_angle_beta   90.00000000
_cell_angle_gamma   90.00000000
_symmetry_Int_Tables_number   1
_chemical_formula_structural   Ta3O8
_chemical_formula_sum   'Ta12 O32'
_cell_volume   605.90963941
_cell_formula_units_Z   4
loop_
 _symmetry_equiv_pos_site_id
 _symmetry_equiv_pos_as_xyz
  1  'x, y, z'
loop_
 _atom_site_type_symbol
 _atom_site_label
 _atom_site_symmetry_multiplicity
 _atom_site_fract_x
 _atom_site_fract_y
 _atom_site_fract_z
 _atom_site_occupancy
  O  O0  1  0.25000000  0.00000000  0.46432275  1.0
  O  O1  1  0.75000000  0.00000000  0.53567725  1.0
  O  O2  1  0.36779873  0.00000000  0.62560258  1.0
  O  O3  1  0.63220127  0.00000000  0.37439742  1.0
  O  O4  1  0.13220127  0.00000000  0.62560258  1.0
  O  O5  1  0.86779873  0.00000000  0.37439742  1.0
  O  O6  1  0.32509446  0.00000000  0.88027503  1.0
  O  O7  1  0.67490554  0.00000000  0.11972497  1.0
  O  O8  1  0.17490554  0.00000000  0.88027503  1.0
  O  O9  1  0.82509446  0.00000000  0.11972497  1.0
  O  O10  1  0.33173069  0.00000000  0.20251876  1.0
  O  O11  1  0.66826931  0.00000000  0.79748124  1.0
  O  O12  1  0.16826931  0.00000000  0.20251876  1.0
  O  O13  1  0.83173069  0.00000000  0.79748124  1.0
  O  O14  1  0.25000000  0.50000000  0.69752847  1.0
  O  O15  1  0.75000000  0.50000000  0.30247153  1.0
  O  O16  1  0.50000000  0.00000000  0.00000000  1.0
  O  O17  1  0.00000000  0.00000000  0.00000000  1.0
  O  O18  1  0.47739801  0.00000000  0.33106822  1.0
  O  O19  1  0.52260199  0.00000000  0.66893178  1.0
  O  O20  1  0.02260199  0.00000000  0.33106822  1.0
  O  O21  1  0.97739801  0.00000000  0.66893178  1.0
  O  O22  1  0.43738679  0.50000000  0.82236808  1.0
  O  O23  1  0.56261321  0.50000000  0.17763192  1.0
  O  O24  1  0.06261321  0.50000000  0.82236808  1.0
  O  O25  1  0.93738679  0.50000000  0.17763192  1.0
  O  O26  1  0.25000000  0.50000000  0.04878846  1.0
  O  O27  1  0.75000000  0.50000000  0.95121154  1.0
  O  O28  1  0.37209935  0.50000000  0.41365132  1.0
  O  O29  1  0.62790065  0.50000000  0.58634868  1.0
  O  O30  1  0.12790065  0.50000000  0.41365132  1.0
  O  O31  1  0.87209935  0.50000000  0.58634868  1.0
  Ta  Ta32  1  0.25000000  0.00000000  0.69188502  1.0
  Ta  Ta33  1  0.75000000  0.00000000  0.30811498  1.0
  Ta  Ta34  1  0.36994676  0.00000000  0.40120717  1.0
  Ta  Ta35  1  0.63005324  0.00000000  0.59879283  1.0
  Ta  Ta36  1  0.13005324  0.00000000  0.40120717  1.0
  Ta  Ta37  1  0.86994676  0.00000000  0.59879283  1.0
  Ta  Ta38  1  0.44090054  0.00000000  0.81542084  1.0
  Ta  Ta39  1  0.55909946  0.00000000  0.18457916  1.0
  Ta  Ta40  1  0.05909946  0.00000000  0.81542084  1.0
  Ta  Ta41  1  0.94090054  0.00000000  0.18457916  1.0
  Ta  Ta42  1  0.25000000  0.00000000  0.05850504  1.0
  Ta  Ta43  1  0.75000000  0.00000000  0.94149496  1.0
