# generated using pymatgen
data_La2SbI2
_symmetry_space_group_name_H-M   'P 1'
_cell_length_a   12.06378557
_cell_length_b   12.06378557
_cell_length_c   12.06378557
_cell_angle_alpha   21.89237831
_cell_angle_beta   21.89237831
_cell_angle_gamma   21.89237832
_symmetry_Int_Tables_number   1
_chemical_formula_structural   La2SbI2
_chemical_formula_sum   'La2 Sb1 I2'
_cell_volume   213.96019747
_cell_formula_units_Z   1
loop_
 _symmetry_equiv_pos_site_id
 _symmetry_equiv_pos_as_xyz
  1  'x, y, z'
loop_
 _atom_site_type_symbol
 _atom_site_label
 _atom_site_symmetry_multiplicity
 _atom_site_fract_x
 _atom_site_fract_y
 _atom_site_fract_z
 _atom_site_occupancy
  La  La0  1  1.61575214  0.61575214  0.61575214  1.0
  La  La1  1  1.38424786  0.38424786  0.38424786  1.0
  Sb  Sb2  1  0.00000000  0.00000000  0.00000000  1.0
  I  I3  1  0.77458403  0.77458403  0.77458403  1.0
  I  I4  1  1.22541597  1.22541597  0.22541597  1.0
