# generated using pymatgen
data_SrBe2(BO3)2
_symmetry_space_group_name_H-M   'P 1'
_cell_length_a   9.31709883
_cell_length_b   4.52456835
_cell_length_c   11.97628695
_cell_angle_alpha   90.00000000
_cell_angle_beta   114.59016106
_cell_angle_gamma   90.00000000
_symmetry_Int_Tables_number   1
_chemical_formula_structural   SrBe2(BO3)2
_chemical_formula_sum   'Sr4 Be8 B8 O24'
_cell_volume   459.08262936
_cell_formula_units_Z   4
loop_
 _symmetry_equiv_pos_site_id
 _symmetry_equiv_pos_as_xyz
  1  'x, y, z'
loop_
 _atom_site_type_symbol
 _atom_site_label
 _atom_site_symmetry_multiplicity
 _atom_site_fract_x
 _atom_site_fract_y
 _atom_site_fract_z
 _atom_site_occupancy
  Sr  Sr0  1  0.72876103  0.97126494  0.15315650  1.0
  Sr  Sr1  1  0.72876103  0.52873506  0.65315650  1.0
  Sr  Sr2  1  0.27123897  0.47126494  0.34684350  1.0
  Sr  Sr3  1  0.27123897  0.02873506  0.84684350  1.0
  Be  Be4  1  0.92161244  0.40245068  0.04673329  1.0
  Be  Be5  1  0.92161244  0.09754932  0.54673329  1.0
  Be  Be6  1  0.07838756  0.90245068  0.45326671  1.0
  Be  Be7  1  0.07838756  0.59754932  0.95326671  1.0
  Be  Be8  1  0.59147703  0.43632090  0.30653247  1.0
  Be  Be9  1  0.59147703  0.06367910  0.80653247  1.0
  Be  Be10  1  0.40852297  0.93632090  0.19346753  1.0
  Be  Be11  1  0.40852297  0.56367910  0.69346753  1.0
  B  B12  1  0.90494876  0.43722548  0.35523964  1.0
  B  B13  1  0.90494876  0.06277452  0.85523964  1.0
  B  B14  1  0.09505124  0.93722548  0.14476036  1.0
  B  B15  1  0.09505124  0.56277452  0.64476036  1.0
  B  B16  1  0.63018983  0.90615336  0.42322656  1.0
  B  B17  1  0.63018983  0.59384664  0.92322656  1.0
  B  B18  1  0.36981017  0.40615336  0.07677344  1.0
  B  B19  1  0.36981017  0.09384664  0.57677344  1.0
  O  O20  1  0.97786159  0.12683482  0.14005256  1.0
  O  O21  1  0.97786159  0.37316518  0.64005256  1.0
  O  O22  1  0.02213841  0.62683482  0.35994744  1.0
  O  O23  1  0.02213841  0.87316518  0.85994744  1.0
  O  O24  1  0.94038268  0.16334943  0.41392919  1.0
  O  O25  1  0.94038268  0.33665057  0.91392919  1.0
  O  O26  1  0.05961732  0.66334943  0.08607081  1.0
  O  O27  1  0.05961732  0.83665057  0.58607081  1.0
  O  O28  1  0.74879881  0.99398748  0.78668569  1.0
  O  O29  1  0.74879881  0.50601252  0.28668569  1.0
  O  O30  1  0.25120119  0.49398748  0.71331431  1.0
  O  O31  1  0.25120119  0.00601252  0.21331431  1.0
  O  O32  1  0.74624196  0.48945385  0.02970995  1.0
  O  O33  1  0.74624196  0.01054615  0.52970995  1.0
  O  O34  1  0.25375804  0.98945385  0.47029005  1.0
  O  O35  1  0.25375804  0.51054615  0.97029005  1.0
  O  O36  1  0.55970319  0.07890298  0.31743231  1.0
  O  O37  1  0.55970319  0.42109702  0.81743231  1.0
  O  O38  1  0.44029681  0.57890298  0.18256769  1.0
  O  O39  1  0.44029681  0.92109702  0.68256769  1.0
  O  O40  1  0.42217706  0.11842917  0.08046057  1.0
  O  O41  1  0.42217706  0.38157083  0.58046057  1.0
  O  O42  1  0.57782294  0.61842917  0.41953943  1.0
  O  O43  1  0.57782294  0.88157083  0.91953943  1.0
