# generated using pymatgen
data_Na2Ca4ZrNbSi4O17F
_symmetry_space_group_name_H-M   'P 1'
_cell_length_a   7.36465860
_cell_length_b   10.38003737
_cell_length_c   10.94290093
_cell_angle_alpha   90.00000000
_cell_angle_beta   108.88789855
_cell_angle_gamma   90.00000000
_symmetry_Int_Tables_number   1
_chemical_formula_structural   Na2Ca4ZrNbSi4O17F
_chemical_formula_sum   'Na4 Ca8 Zr2 Nb2 Si8 O34 F2'
_cell_volume   791.49052462
_cell_formula_units_Z   2
loop_
 _symmetry_equiv_pos_site_id
 _symmetry_equiv_pos_as_xyz
  1  'x, y, z'
loop_
 _atom_site_type_symbol
 _atom_site_label
 _atom_site_symmetry_multiplicity
 _atom_site_fract_x
 _atom_site_fract_y
 _atom_site_fract_z
 _atom_site_occupancy
  Na  Na0  1  0.18713567  0.42621118  0.12169458  1.0
  Na  Na1  1  0.81286433  0.92621118  0.87830542  1.0
  Na  Na2  1  0.94813960  0.07877320  0.63285347  1.0
  Na  Na3  1  0.05186040  0.57877320  0.36714653  1.0
  Ca  Ca4  1  0.05136066  0.19852793  0.34641187  1.0
  Ca  Ca5  1  0.94863934  0.69852793  0.65358813  1.0
  Ca  Ca6  1  0.29909576  0.31184338  0.85477019  1.0
  Ca  Ca7  1  0.70090424  0.81184338  0.14522981  1.0
  Ca  Ca8  1  0.44325935  0.08336288  0.63279329  1.0
  Ca  Ca9  1  0.55674065  0.58336288  0.36720671  1.0
  Ca  Ca10  1  0.79971852  0.31143756  0.84479132  1.0
  Ca  Ca11  1  0.20028148  0.81143756  0.15520868  1.0
  Zr  Zr12  1  0.55319428  0.20453536  0.34185535  1.0
  Zr  Zr13  1  0.44680572  0.70453536  0.65814465  1.0
  Nb  Nb14  1  0.69476260  0.44138901  0.13344940  1.0
  Nb  Nb15  1  0.30523740  0.94138901  0.86655060  1.0
  Si  Si16  1  0.13516232  0.12982552  0.07272917  1.0
  Si  Si17  1  0.86483768  0.62982552  0.92727083  1.0
  Si  Si18  1  0.69699469  0.12043383  0.08003952  1.0
  Si  Si19  1  0.30300531  0.62043383  0.91996048  1.0
  Si  Si20  1  0.37530439  0.38232500  0.56638646  1.0
  Si  Si21  1  0.62469561  0.88232500  0.43361354  1.0
  Si  Si22  1  0.93566692  0.38285450  0.56088791  1.0
  Si  Si23  1  0.06433308  0.88285450  0.43911209  1.0
  O  O24  1  0.92255681  0.09467661  0.08696132  1.0
  O  O25  1  0.07744319  0.59467661  0.91303868  1.0
  O  O26  1  0.13757529  0.37175999  0.52142225  1.0
  O  O27  1  0.86242471  0.87175999  0.47857775  1.0
  O  O28  1  0.11174669  0.25360201  0.97955649  1.0
  O  O29  1  0.88825331  0.75360201  0.02044351  1.0
  O  O30  1  0.62116544  0.25851615  0.00894383  1.0
  O  O31  1  0.37883456  0.75851615  0.99105617  1.0
  O  O32  1  0.79694657  0.49631823  0.98010121  1.0
  O  O33  1  0.20305343  0.99631823  0.01989879  1.0
  O  O34  1  0.58272005  0.99344466  0.00634891  1.0
  O  O35  1  0.41727995  0.49344466  0.99365109  1.0
  O  O36  1  0.27265202  0.16037103  0.22169687  1.0
  O  O37  1  0.72734798  0.66037103  0.77830313  1.0
  O  O38  1  0.70730581  0.12043704  0.23289165  1.0
  O  O39  1  0.29269419  0.62043704  0.76710835  1.0
  O  O40  1  0.42842823  0.53075753  0.54225053  1.0
  O  O41  1  0.57157177  0.03075753  0.45774947  1.0
  O  O42  1  0.84957463  0.52568946  0.51281264  1.0
  O  O43  1  0.15042537  0.02568946  0.48718736  1.0
  O  O44  1  0.41076115  0.27884817  0.46209720  1.0
  O  O45  1  0.58923885  0.77884817  0.53790280  1.0
  O  O46  1  0.81638766  0.26106064  0.47257409  1.0
  O  O47  1  0.18361234  0.76106064  0.52742591  1.0
  O  O48  1  0.47563431  0.32320197  0.70936370  1.0
  O  O49  1  0.52436569  0.82320197  0.29063630  1.0
  O  O50  1  0.98230149  0.35384065  0.71305525  1.0
  O  O51  1  0.01769851  0.85384065  0.28694475  1.0
  O  O52  1  0.93325385  0.37468334  0.22041920  1.0
  O  O53  1  0.06674615  0.87468334  0.77958080  1.0
  O  O54  1  0.54534399  0.37729024  0.24296913  1.0
  O  O55  1  0.45465601  0.87729024  0.75703087  1.0
  O  O56  1  0.27647894  0.10054098  0.78739474  1.0
  O  O57  1  0.72352106  0.60054098  0.21260526  1.0
  F  F58  1  0.75194207  0.10644194  0.75873090  1.0
  F  F59  1  0.24805793  0.60644194  0.24126910  1.0
