# generated using pymatgen
data_V3Pb5O12F
_symmetry_space_group_name_H-M   'P 1'
_cell_length_a   10.38079043
_cell_length_b   10.38079043
_cell_length_c   7.47665231
_cell_angle_alpha   90.00000000
_cell_angle_beta   90.00000000
_cell_angle_gamma   120.00000000
_symmetry_Int_Tables_number   1
_chemical_formula_structural   V3Pb5O12F
_chemical_formula_sum   'V6 Pb10 O24 F2'
_cell_volume   697.74810229
_cell_formula_units_Z   2
loop_
 _symmetry_equiv_pos_site_id
 _symmetry_equiv_pos_as_xyz
  1  'x, y, z'
loop_
 _atom_site_type_symbol
 _atom_site_label
 _atom_site_symmetry_multiplicity
 _atom_site_fract_x
 _atom_site_fract_y
 _atom_site_fract_z
 _atom_site_occupancy
  V  V0  1  0.62317567  0.59567947  0.25000000  1.0
  V  V1  1  0.59567947  0.97250380  0.75000000  1.0
  V  V2  1  0.97250380  0.37682433  0.25000000  1.0
  V  V3  1  0.40432053  0.02749620  0.25000000  1.0
  V  V4  1  0.37682433  0.40432053  0.75000000  1.0
  V  V5  1  0.02749620  0.62317567  0.75000000  1.0
  Pb  Pb6  1  -0.01752016  0.74735062  0.25000000  1.0
  Pb  Pb7  1  0.74735062  0.76487078  0.75000000  1.0
  Pb  Pb8  1  0.76487078  1.01752016  0.25000000  1.0
  Pb  Pb9  1  0.25264938  0.23512922  0.25000000  1.0
  Pb  Pb10  1  1.01752016  0.25264938  0.75000000  1.0
  Pb  Pb11  1  0.23512922  -0.01752016  0.75000000  1.0
  Pb  Pb12  1  0.33333333  0.66666667  0.49175573  1.0
  Pb  Pb13  1  0.33333333  0.66666667  0.00824427  1.0
  Pb  Pb14  1  0.66666667  0.33333333  0.99175573  1.0
  Pb  Pb15  1  0.66666667  0.33333333  0.50824427  1.0
  O  O16  1  0.73995555  0.65425202  0.43251112  1.0
  O  O17  1  0.73995555  0.65425202  0.06748888  1.0
  O  O18  1  0.65425202  0.91429647  0.93251112  1.0
  O  O19  1  0.65425202  0.91429647  0.56748888  1.0
  O  O20  1  0.91429647  0.26004445  0.43251112  1.0
  O  O21  1  0.91429647  0.26004445  0.06748888  1.0
  O  O22  1  0.34574798  0.08570353  0.43251112  1.0
  O  O23  1  0.34574798  0.08570353  0.06748888  1.0
  O  O24  1  0.26004445  0.34574798  0.93251112  1.0
  O  O25  1  0.26004445  0.34574798  0.56748888  1.0
  O  O26  1  0.08570353  0.73995555  0.93251112  1.0
  O  O27  1  0.08570353  0.73995555  0.56748888  1.0
  O  O28  1  0.33482373  0.83778125  0.25000000  1.0
  O  O29  1  0.83778125  0.50295752  0.75000000  1.0
  O  O30  1  0.50295752  0.66517627  0.25000000  1.0
  O  O31  1  0.16221875  0.49704248  0.25000000  1.0
  O  O32  1  0.66517627  0.16221875  0.75000000  1.0
  O  O33  1  0.49704248  0.33482373  0.75000000  1.0
  O  O34  1  0.52560506  0.40218809  0.25000000  1.0
  O  O35  1  0.40218809  0.87658303  0.75000000  1.0
  O  O36  1  0.87658303  0.47439494  0.25000000  1.0
  O  O37  1  0.59781191  0.12341697  0.25000000  1.0
  O  O38  1  0.47439494  0.59781191  0.75000000  1.0
  O  O39  1  0.12341697  0.52560506  0.75000000  1.0
  F  F40  1  -0.00000000  -0.00000000  0.25000000  1.0
  F  F41  1  0.00000000  0.00000000  0.75000000  1.0
