# generated using pymatgen
data_Nb2CuS4
_symmetry_space_group_name_H-M   'P 1'
_cell_length_a   10.03337006
_cell_length_b   3.35332365
_cell_length_c   13.52832278
_cell_angle_alpha   90.00000000
_cell_angle_beta   90.00000000
_cell_angle_gamma   90.00000000
_symmetry_Int_Tables_number   1
_chemical_formula_structural   Nb2CuS4
_chemical_formula_sum   'Nb8 Cu4 S16'
_cell_volume   455.16227471
_cell_formula_units_Z   4
loop_
 _symmetry_equiv_pos_site_id
 _symmetry_equiv_pos_as_xyz
  1  'x, y, z'
loop_
 _atom_site_type_symbol
 _atom_site_label
 _atom_site_symmetry_multiplicity
 _atom_site_fract_x
 _atom_site_fract_y
 _atom_site_fract_z
 _atom_site_occupancy
  Nb  Nb0  1  0.86139859  0.75000000  0.40215410  1.0
  Nb  Nb1  1  0.36139859  0.75000000  0.09784590  1.0
  Nb  Nb2  1  0.13860141  0.25000000  0.59784590  1.0
  Nb  Nb3  1  0.63860141  0.25000000  0.90215410  1.0
  Nb  Nb4  1  0.51600471  0.75000000  0.58885140  1.0
  Nb  Nb5  1  1.01600471  0.75000000  0.91114860  1.0
  Nb  Nb6  1  0.48399529  0.25000000  0.41114860  1.0
  Nb  Nb7  1  -0.01600471  0.25000000  0.08885140  1.0
  Cu  Cu8  1  0.74723712  0.75000000  0.17702620  1.0
  Cu  Cu9  1  0.24723712  0.75000000  0.32297380  1.0
  Cu  Cu10  1  0.25276288  0.25000000  0.82297380  1.0
  Cu  Cu11  1  0.75276288  0.25000000  0.67702620  1.0
  S  S12  1  0.94823586  0.75000000  0.58099157  1.0
  S  S13  1  0.44823586  0.75000000  0.91900843  1.0
  S  S14  1  0.05176414  0.25000000  0.41900843  1.0
  S  S15  1  0.55176414  0.25000000  0.08099157  1.0
  S  S16  1  0.80706327  0.75000000  0.01057945  1.0
  S  S17  1  0.30706327  0.75000000  0.48942055  1.0
  S  S18  1  0.19293673  0.25000000  0.98942055  1.0
  S  S19  1  0.69293673  0.25000000  0.51057945  1.0
  S  S20  1  0.62336740  0.75000000  0.75964989  1.0
  S  S21  1  0.12336740  0.75000000  0.74035011  1.0
  S  S22  1  0.37663260  0.25000000  0.24035011  1.0
  S  S23  1  0.87663260  0.25000000  0.25964989  1.0
  S  S24  1  0.62578688  0.75000000  0.32435127  1.0
  S  S25  1  0.12578688  0.75000000  0.17564873  1.0
  S  S26  1  0.37421312  0.25000000  0.67564873  1.0
  S  S27  1  0.87421312  0.25000000  0.82435127  1.0
