# generated using pymatgen
data_MoSCl3
_symmetry_space_group_name_H-M   'P 1'
_cell_length_a   9.14637099
_cell_length_b   9.14637099
_cell_length_c   12.23538481
_cell_angle_alpha   54.09449241
_cell_angle_beta   125.90550759
_cell_angle_gamma   134.06095086
_symmetry_Int_Tables_number   1
_chemical_formula_structural   MoSCl3
_chemical_formula_sum   'Mo4 S4 Cl12'
_cell_volume   567.02533056
_cell_formula_units_Z   4
loop_
 _symmetry_equiv_pos_site_id
 _symmetry_equiv_pos_as_xyz
  1  'x, y, z'
loop_
 _atom_site_type_symbol
 _atom_site_label
 _atom_site_symmetry_multiplicity
 _atom_site_fract_x
 _atom_site_fract_y
 _atom_site_fract_z
 _atom_site_occupancy
  Mo  Mo0  1  1.56026854  -0.37318564  0.61585624  1.0
  Mo  Mo1  1  1.37318564  -0.56026854  0.11585624  1.0
  Mo  Mo2  1  0.62681436  0.56026854  0.88414376  1.0
  Mo  Mo3  1  0.43973146  0.37318564  0.38414376  1.0
  S  S4  1  1.76548428  -0.08769861  0.71351003  1.0
  S  S5  1  1.08769861  -0.76548428  0.21351003  1.0
  S  S6  1  0.91230139  0.76548428  0.78648997  1.0
  S  S7  1  0.23451572  0.08769861  0.28648997  1.0
  Cl  Cl8  1  0.63406271  -0.25166219  0.97622130  1.0
  Cl  Cl9  1  1.25166219  -0.63406271  0.47622130  1.0
  Cl  Cl10  1  0.74833781  0.63406271  0.52377870  1.0
  Cl  Cl11  1  1.36593729  0.25166219  0.02377870  1.0
  Cl  Cl12  1  0.48851283  0.11465077  0.60193675  1.0
  Cl  Cl13  1  0.88534923  -0.48851283  0.10193675  1.0
  Cl  Cl14  1  1.11465077  0.48851283  0.89806325  1.0
  Cl  Cl15  1  1.51148717  -0.11465077  0.39806325  1.0
  Cl  Cl16  1  0.53383105  0.29534151  0.81845351  1.0
  Cl  Cl17  1  0.70465849  0.46616895  0.31845351  1.0
  Cl  Cl18  1  1.29534151  -0.46616895  0.68154649  1.0
  Cl  Cl19  1  1.46616895  -0.29534151  0.18154649  1.0
