# generated using pymatgen
data_Cu2SiHgS4
_symmetry_space_group_name_H-M   'P 1'
_cell_length_a   7.67170039
_cell_length_b   6.51171978
_cell_length_c   6.31194147
_cell_angle_alpha   90.00000000
_cell_angle_beta   90.00000000
_cell_angle_gamma   90.00000000
_symmetry_Int_Tables_number   1
_chemical_formula_structural   Cu2SiHgS4
_chemical_formula_sum   'Cu4 Si2 Hg2 S8'
_cell_volume   315.31911589
_cell_formula_units_Z   2
loop_
 _symmetry_equiv_pos_site_id
 _symmetry_equiv_pos_as_xyz
  1  'x, y, z'
loop_
 _atom_site_type_symbol
 _atom_site_label
 _atom_site_symmetry_multiplicity
 _atom_site_fract_x
 _atom_site_fract_y
 _atom_site_fract_z
 _atom_site_occupancy
  Cu  Cu0  1  0.24871595  0.17362300  0.00979091  1.0
  Cu  Cu1  1  0.74871595  0.82637700  0.50979091  1.0
  Cu  Cu2  1  0.75128405  0.17362300  0.00979091  1.0
  Cu  Cu3  1  0.25128405  0.82637700  0.50979091  1.0
  Si  Si4  1  0.50000000  0.31880055  0.50418306  1.0
  Si  Si5  1  0.00000000  0.68119945  0.00418306  1.0
  Hg  Hg6  1  0.50000000  0.65008122  0.01375399  1.0
  Hg  Hg7  1  0.00000000  0.34991878  0.51375399  1.0
  S  S8  1  0.27697614  0.15871265  0.37440005  1.0
  S  S9  1  0.77697614  0.84128735  0.87440005  1.0
  S  S10  1  0.72302386  0.15871265  0.37440005  1.0
  S  S11  1  0.22302386  0.84128735  0.87440005  1.0
  S  S12  1  0.50000000  0.28765013  0.84596307  1.0
  S  S13  1  0.00000000  0.71234987  0.34596307  1.0
  S  S14  1  0.50000000  0.64240375  0.42021796  1.0
  S  S15  1  0.00000000  0.35759625  0.92021796  1.0
