# generated using pymatgen
data_Na4Mo(NO)2
_symmetry_space_group_name_H-M   'P 1'
_cell_length_a   8.96661675
_cell_length_b   5.93354853
_cell_length_c   5.90232823
_cell_angle_alpha   69.08059880
_cell_angle_beta   71.60324903
_cell_angle_gamma   82.99432417
_symmetry_Int_Tables_number   1
_chemical_formula_structural   Na4Mo(NO)2
_chemical_formula_sum   'Na8 Mo2 N4 O4'
_cell_volume   278.32105368
_cell_formula_units_Z   2
loop_
 _symmetry_equiv_pos_site_id
 _symmetry_equiv_pos_as_xyz
  1  'x, y, z'
loop_
 _atom_site_type_symbol
 _atom_site_label
 _atom_site_symmetry_multiplicity
 _atom_site_fract_x
 _atom_site_fract_y
 _atom_site_fract_z
 _atom_site_occupancy
  Na  Na0  1  -0.55680631  -0.74027974  -0.47911259  1.0
  Na  Na1  1  -0.44319369  -0.25972026  -0.52088741  1.0
  Na  Na2  1  -0.40311865  -0.75738945  -0.05556124  1.0
  Na  Na3  1  -0.59688135  -0.24261055  -0.94443876  1.0
  Na  Na4  1  -0.18366360  -0.72271457  -0.61357534  1.0
  Na  Na5  1  -0.81633640  -0.27728543  -0.38642466  1.0
  Na  Na6  1  -0.01506469  -0.23800710  -0.75912867  1.0
  Na  Na7  1  -0.98493531  -0.76199290  -0.24087133  1.0
  Mo  Mo8  1  -0.76239641  -0.71976359  -0.84155210  1.0
  Mo  Mo9  1  -0.23760359  -0.28023641  -0.15844790  1.0
  N  N10  1  -0.35325964  -0.45533397  -0.84536376  1.0
  N  N11  1  -0.64674036  -0.54466603  -0.15463624  1.0
  N  N12  1  -0.63918775  -0.96108742  -0.70531699  1.0
  N  N13  1  -0.36081225  -0.03891258  -0.29468301  1.0
  O  O14  1  -0.81482502  -0.51724929  -0.64157882  1.0
  O  O15  1  -0.18517498  -0.48275071  -0.35842118  1.0
  O  O16  1  -0.94391964  -0.84213974  -0.85007154  1.0
  O  O17  1  -0.05608036  -0.15786026  -0.14992846  1.0
