# generated using pymatgen
data_NiH8(ClO2)2
_symmetry_space_group_name_H-M   'P 1'
_cell_length_a   5.95300593
_cell_length_b   9.47781895
_cell_length_c   11.58201923
_cell_angle_alpha   90.00000000
_cell_angle_beta   110.23992462
_cell_angle_gamma   90.00000000
_symmetry_Int_Tables_number   1
_chemical_formula_structural   NiH8(ClO2)2
_chemical_formula_sum   'Ni4 H32 Cl8 O16'
_cell_volume   613.12438647
_cell_formula_units_Z   4
loop_
 _symmetry_equiv_pos_site_id
 _symmetry_equiv_pos_as_xyz
  1  'x, y, z'
loop_
 _atom_site_type_symbol
 _atom_site_label
 _atom_site_symmetry_multiplicity
 _atom_site_fract_x
 _atom_site_fract_y
 _atom_site_fract_z
 _atom_site_occupancy
  Ni  Ni0  1  0.24961774  0.32438257  0.76008471  1.0
  Ni  Ni1  1  0.24961774  0.17561743  0.26008471  1.0
  Ni  Ni2  1  0.75038226  0.67561743  0.23991529  1.0
  Ni  Ni3  1  0.75038226  0.82438257  0.73991529  1.0
  H  H4  1  0.02742483  0.29725412  0.91833402  1.0
  H  H5  1  0.02742483  0.20274588  0.41833402  1.0
  H  H6  1  0.97257517  0.70274588  0.08166598  1.0
  H  H7  1  0.97257517  0.79725412  0.58166598  1.0
  H  H8  1  0.82370449  0.30861582  0.78745897  1.0
  H  H9  1  0.82370449  0.19138418  0.28745897  1.0
  H  H10  1  0.17629551  0.69138418  0.21254103  1.0
  H  H11  1  0.17629551  0.80861582  0.71254103  1.0
  H  H12  1  0.48913513  0.33860860  0.60846948  1.0
  H  H13  1  0.48913513  0.16139140  0.10846948  1.0
  H  H14  1  0.51086487  0.66139140  0.39153052  1.0
  H  H15  1  0.51086487  0.83860860  0.89153052  1.0
  H  H16  1  0.53195572  0.48105524  0.67786586  1.0
  H  H17  1  0.53195572  0.01894476  0.17786586  1.0
  H  H18  1  0.46804428  0.51894476  0.32213414  1.0
  H  H19  1  0.46804428  0.98105524  0.82213414  1.0
  H  H20  1  0.87770631  0.42918728  0.56453041  1.0
  H  H21  1  0.87770631  0.07081272  0.06453041  1.0
  H  H22  1  0.12229369  0.57081272  0.43546959  1.0
  H  H23  1  0.12229369  0.92918728  0.93546959  1.0
  H  H24  1  1.00720640  0.56056917  0.64699542  1.0
  H  H25  1  1.00720640  0.93943083  0.14699542  1.0
  H  H26  1  -0.00720640  0.43943083  0.35300458  1.0
  H  H27  1  -0.00720640  0.06056917  0.85300458  1.0
  H  H28  1  0.20526504  0.56035869  0.88388304  1.0
  H  H29  1  0.20526504  0.93964131  0.38388304  1.0
  H  H30  1  0.79473496  0.43964131  0.11611696  1.0
  H  H31  1  0.79473496  0.06035869  0.61611696  1.0
  H  H32  1  0.48315252  0.55171083  0.89590225  1.0
  H  H33  1  0.48315252  0.94828917  0.39590225  1.0
  H  H34  1  0.51684748  0.44828917  0.10409775  1.0
  H  H35  1  0.51684748  0.05171083  0.60409775  1.0
  Cl  Cl36  1  0.14299010  0.14007482  0.61315205  1.0
  Cl  Cl37  1  0.14299010  0.35992518  0.11315205  1.0
  Cl  Cl38  1  0.85700990  0.85992518  0.38684795  1.0
  Cl  Cl39  1  0.85700990  0.64007482  0.88684795  1.0
  Cl  Cl40  1  0.51452918  0.18109700  0.92089597  1.0
  Cl  Cl41  1  0.51452918  0.31890300  0.42089597  1.0
  Cl  Cl42  1  0.48547082  0.81890300  0.07910403  1.0
  Cl  Cl43  1  0.48547082  0.68109700  0.57910403  1.0
  O  O44  1  0.98330286  0.26630087  0.83146309  1.0
  O  O45  1  0.98330286  0.23369913  0.33146309  1.0
  O  O46  1  0.01669714  0.73369913  0.16853691  1.0
  O  O47  1  0.01669714  0.76630087  0.66853691  1.0
  O  O48  1  0.52971059  0.37766104  0.69270755  1.0
  O  O49  1  0.52971059  0.12233896  0.19270755  1.0
  O  O50  1  0.47028941  0.62233896  0.30729245  1.0
  O  O51  1  0.47028941  0.87766104  0.80729245  1.0
  O  O52  1  0.02454974  0.46037916  0.62892495  1.0
  O  O53  1  0.02454974  0.03962084  0.12892495  1.0
  O  O54  1  0.97545026  0.53962084  0.37107505  1.0
  O  O55  1  0.97545026  0.96037916  0.87107505  1.0
  O  O56  1  0.33106725  0.50030741  0.87228346  1.0
  O  O57  1  0.33106725  0.99969259  0.37228346  1.0
  O  O58  1  0.66893275  0.49969259  0.12771654  1.0
  O  O59  1  0.66893275  0.00030741  0.62771654  1.0
