# generated using pymatgen
data_Cs3Tm2Br9
_symmetry_space_group_name_H-M   'P 1'
_cell_length_a   10.44193005
_cell_length_b   10.44193005
_cell_length_c   10.44193005
_cell_angle_alpha   82.55418867
_cell_angle_beta   82.55418867
_cell_angle_gamma   82.55418867
_symmetry_Int_Tables_number   1
_chemical_formula_structural   Cs3Tm2Br9
_chemical_formula_sum   'Cs6 Tm4 Br18'
_cell_volume   1112.01426300
_cell_formula_units_Z   2
loop_
 _symmetry_equiv_pos_site_id
 _symmetry_equiv_pos_as_xyz
  1  'x, y, z'
loop_
 _atom_site_type_symbol
 _atom_site_label
 _atom_site_symmetry_multiplicity
 _atom_site_fract_x
 _atom_site_fract_y
 _atom_site_fract_z
 _atom_site_occupancy
  Cs  Cs0  1  0.58934448  0.25000000  -0.08934448  1.0
  Cs  Cs1  1  1.08934448  -0.58934448  -0.25000000  1.0
  Cs  Cs2  1  0.75000000  0.08934448  -0.58934448  1.0
  Cs  Cs3  1  0.25000000  0.91065552  -0.41065552  1.0
  Cs  Cs4  1  0.41065552  -0.25000000  0.08934448  1.0
  Cs  Cs5  1  0.91065552  -0.41065552  0.25000000  1.0
  Tm  Tm6  1  0.34521499  0.34521499  -0.65478501  1.0
  Tm  Tm7  1  0.84521499  0.84521499  -0.15478501  1.0
  Tm  Tm8  1  1.15478501  1.15478501  0.15478501  1.0
  Tm  Tm9  1  0.65478501  0.65478501  -0.34521499  1.0
  Br  Br10  1  0.23617223  0.58033739  -0.58474389  1.0
  Br  Br11  1  0.73617223  -0.08474389  0.08033739  1.0
  Br  Br12  1  1.08474389  -0.08033739  -0.73617223  1.0
  Br  Br13  1  0.58474389  0.76382777  -0.58033739  1.0
  Br  Br14  1  0.41966261  0.58474389  -0.23617223  1.0
  Br  Br15  1  0.91966261  -0.73617223  0.08474389  1.0
  Br  Br16  1  0.76382777  0.41966261  -0.41525611  1.0
  Br  Br17  1  0.26382777  0.08474389  -0.08033739  1.0
  Br  Br18  1  0.41525611  0.23617223  -0.41966261  1.0
  Br  Br19  1  0.91525611  0.08033739  -0.26382777  1.0
  Br  Br20  1  1.08033739  -0.26382777  -0.08474389  1.0
  Br  Br21  1  0.58033739  0.41525611  -0.76382777  1.0
  Br  Br22  1  1.09399443  1.25000000  0.40600557  1.0
  Br  Br23  1  0.59399443  0.90600557  -0.25000000  1.0
  Br  Br24  1  0.75000000  0.59399443  -0.09399443  1.0
  Br  Br25  1  1.25000000  1.40600557  0.09399443  1.0
  Br  Br26  1  0.90600557  0.75000000  -0.40600557  1.0
  Br  Br27  1  1.40600557  1.09399443  0.25000000  1.0
