# generated using pymatgen
data_Y2CdSe4
_symmetry_space_group_name_H-M   'P 1'
_cell_length_a   8.33846543
_cell_length_b   8.33846543
_cell_length_c   8.33846543
_cell_angle_alpha   60.00000000
_cell_angle_beta   60.00000000
_cell_angle_gamma   60.00000000
_symmetry_Int_Tables_number   1
_chemical_formula_structural   Y2CdSe4
_chemical_formula_sum   'Y4 Cd2 Se8'
_cell_volume   409.96180812
_cell_formula_units_Z   2
loop_
 _symmetry_equiv_pos_site_id
 _symmetry_equiv_pos_as_xyz
  1  'x, y, z'
loop_
 _atom_site_type_symbol
 _atom_site_label
 _atom_site_symmetry_multiplicity
 _atom_site_fract_x
 _atom_site_fract_y
 _atom_site_fract_z
 _atom_site_occupancy
  Y  Y0  1  1.12500000  -0.37500000  0.62500000  1.0
  Y  Y1  1  0.62500000  1.12500000  -0.37500000  1.0
  Y  Y2  1  0.62500000  0.62500000  0.12500000  1.0
  Y  Y3  1  0.62500000  0.62500000  -0.37500000  1.0
  Cd  Cd4  1  0.25000000  0.25000000  0.25000000  1.0
  Cd  Cd5  1  0.00000000  1.00000000  -0.00000000  1.0
  Se  Se6  1  -0.14575198  0.38191733  0.38191733  1.0
  Se  Se7  1  0.38191733  0.85424802  0.38191733  1.0
  Se  Se8  1  0.38191733  1.38191733  -0.14575198  1.0
  Se  Se9  1  0.38191733  0.38191733  0.38191733  1.0
  Se  Se10  1  0.39575198  0.86808267  -0.13191733  1.0
  Se  Se11  1  0.86808267  -0.60424802  0.86808267  1.0
  Se  Se12  1  0.86808267  0.86808267  -0.60424802  1.0
  Se  Se13  1  0.86808267  -0.13191733  0.86808267  1.0
