# generated using pymatgen
data_Rb2Be2Co(O3F4)2
_symmetry_space_group_name_H-M   'P 1'
_cell_length_a   7.02380563
_cell_length_b   11.00485751
_cell_length_c   7.96517148
_cell_angle_alpha   90.00000000
_cell_angle_beta   103.60091574
_cell_angle_gamma   90.00000000
_symmetry_Int_Tables_number   1
_chemical_formula_structural   Rb2Be2Co(O3F4)2
_chemical_formula_sum   'Rb4 Be4 Co2 O12 F16'
_cell_volume   598.41049120
_cell_formula_units_Z   2
loop_
 _symmetry_equiv_pos_site_id
 _symmetry_equiv_pos_as_xyz
  1  'x, y, z'
loop_
 _atom_site_type_symbol
 _atom_site_label
 _atom_site_symmetry_multiplicity
 _atom_site_fract_x
 _atom_site_fract_y
 _atom_site_fract_z
 _atom_site_occupancy
  Rb  Rb0  1  0.60536694  0.15581447  0.38878049  1.0
  Rb  Rb1  1  0.60536694  0.34418553  0.88878049  1.0
  Rb  Rb2  1  0.39463306  0.65581447  0.11121951  1.0
  Rb  Rb3  1  0.39463306  0.84418553  0.61121951  1.0
  Be  Be4  1  0.80330323  0.85050112  0.42336556  1.0
  Be  Be5  1  0.80330323  0.64949888  0.92336556  1.0
  Be  Be6  1  0.19669677  0.35050112  0.07663444  1.0
  Be  Be7  1  0.19669677  0.14949888  0.57663444  1.0
  Co  Co8  1  0.00000000  0.00000000  0.00000000  1.0
  Co  Co9  1  0.00000000  0.50000000  0.50000000  1.0
  O  O10  1  0.74887979  0.95389007  -0.02992745  1.0
  O  O11  1  0.74887979  0.54610993  0.47007255  1.0
  O  O12  1  0.25112021  0.45389007  0.52992745  1.0
  O  O13  1  0.25112021  0.04610993  1.02992745  1.0
  O  O14  1  0.02397709  0.58195579  0.30628851  1.0
  O  O15  1  0.02397709  0.91804421  0.80628851  1.0
  O  O16  1  0.97602291  0.08195579  0.19371149  1.0
  O  O17  1  0.97602291  0.41804421  0.69371149  1.0
  O  O18  1  0.11371546  0.87490250  0.12571096  1.0
  O  O19  1  0.11371546  0.62509750  0.62571096  1.0
  O  O20  1  0.88628454  0.37490250  0.37428904  1.0
  O  O21  1  0.88628454  0.12509750  0.87428904  1.0
  F  F22  1  0.63730800  0.75457089  0.39831745  1.0
  F  F23  1  0.63730800  0.74542911  0.89831745  1.0
  F  F24  1  0.36269200  0.25457089  0.10168255  1.0
  F  F25  1  0.36269200  0.24542911  0.60168255  1.0
  F  F26  1  0.75145694  0.94296819  0.26463575  1.0
  F  F27  1  0.75145694  0.55703181  0.76463575  1.0
  F  F28  1  0.24854306  0.44296819  0.23536425  1.0
  F  F29  1  0.24854306  0.05703181  0.73536425  1.0
  F  F30  1  0.78078985  0.56597424  0.08320038  1.0
  F  F31  1  0.78078985  0.93402576  0.58320038  1.0
  F  F32  1  0.21921015  0.06597424  0.41679962  1.0
  F  F33  1  0.21921015  0.43402576  0.91679962  1.0
  F  F34  1  1.01015368  0.79429093  0.44345284  1.0
  F  F35  1  1.01015368  0.70570907  0.94345284  1.0
  F  F36  1  -0.01015368  0.29429093  0.05654716  1.0
  F  F37  1  -0.01015368  0.20570907  0.55654716  1.0
