# generated using pymatgen
data_Y2Si3Pd
_symmetry_space_group_name_H-M   'P 1'
_cell_length_a   8.15757787
_cell_length_b   8.15757787
_cell_length_c   8.12361216
_cell_angle_alpha   90.00000000
_cell_angle_beta   90.00000000
_cell_angle_gamma   120.00000000
_symmetry_Int_Tables_number   1
_chemical_formula_structural   Y2Si3Pd
_chemical_formula_sum   'Y8 Si12 Pd4'
_cell_volume   468.16858533
_cell_formula_units_Z   4
loop_
 _symmetry_equiv_pos_site_id
 _symmetry_equiv_pos_as_xyz
  1  'x, y, z'
loop_
 _atom_site_type_symbol
 _atom_site_label
 _atom_site_symmetry_multiplicity
 _atom_site_fract_x
 _atom_site_fract_y
 _atom_site_fract_z
 _atom_site_occupancy
  Y  Y0  1  0.50001064  0.49998936  0.25000000  1.0
  Y  Y1  1  0.50001064  0.00002129  0.25000000  1.0
  Y  Y2  1  0.49998936  0.50001064  0.75000000  1.0
  Y  Y3  1  0.49998936  0.99997871  0.75000000  1.0
  Y  Y4  1  0.99997871  0.49998936  0.25000000  1.0
  Y  Y5  1  0.00002129  0.50001064  0.75000000  1.0
  Y  Y6  1  0.00000000  0.00000000  0.25000000  1.0
  Y  Y7  1  0.00000000  0.00000000  0.75000000  1.0
  Si  Si8  1  0.16589283  0.83410717  0.50003570  1.0
  Si  Si9  1  0.16589283  0.83410717  -0.00003570  1.0
  Si  Si10  1  0.16589283  0.33178566  0.50003570  1.0
  Si  Si11  1  0.16589283  0.33178566  -0.00003570  1.0
  Si  Si12  1  0.83410717  0.16589283  1.00003570  1.0
  Si  Si13  1  0.83410717  0.16589283  0.49996430  1.0
  Si  Si14  1  0.83410717  0.66821434  1.00003570  1.0
  Si  Si15  1  0.83410717  0.66821434  0.49996430  1.0
  Si  Si16  1  0.66821434  0.83410717  0.50003570  1.0
  Si  Si17  1  0.66821434  0.83410717  -0.00003570  1.0
  Si  Si18  1  0.33178566  0.16589283  1.00003570  1.0
  Si  Si19  1  0.33178566  0.16589283  0.49996430  1.0
  Pd  Pd20  1  0.33333333  0.66666667  0.49998363  1.0
  Pd  Pd21  1  0.33333333  0.66666667  0.00001637  1.0
  Pd  Pd22  1  0.66666667  0.33333333  0.99998363  1.0
  Pd  Pd23  1  0.66666667  0.33333333  0.50001637  1.0
