# generated using pymatgen
data_Ta5Ga3
_symmetry_space_group_name_H-M   'P 1'
_cell_length_a   7.69781685
_cell_length_b   7.69781685
_cell_length_c   7.69781685
_cell_angle_alpha   96.35749595
_cell_angle_beta   96.35749595
_cell_angle_gamma   141.12678444
_symmetry_Int_Tables_number   1
_chemical_formula_structural   Ta5Ga3
_chemical_formula_sum   'Ta10 Ga6'
_cell_volume   269.96129102
_cell_formula_units_Z   2
loop_
 _symmetry_equiv_pos_site_id
 _symmetry_equiv_pos_as_xyz
  1  'x, y, z'
loop_
 _atom_site_type_symbol
 _atom_site_label
 _atom_site_symmetry_multiplicity
 _atom_site_fract_x
 _atom_site_fract_y
 _atom_site_fract_z
 _atom_site_occupancy
  Ta  Ta0  1  0.27792664  0.42456504  0.70249168  1.0
  Ta  Ta1  1  1.22207336  0.92456504  1.14663840  1.0
  Ta  Ta2  1  0.92456504  0.77792664  1.70249168  1.0
  Ta  Ta3  1  0.57543496  1.27792664  0.85336160  1.0
  Ta  Ta4  1  0.77792664  1.07543496  0.85336160  1.0
  Ta  Ta5  1  0.72207336  0.57543496  1.29750832  1.0
  Ta  Ta6  1  1.42456504  0.72207336  1.14663840  1.0
  Ta  Ta7  1  0.07543496  0.22207336  0.29750832  1.0
  Ta  Ta8  1  0.75000000  1.25000000  0.50000000  1.0
  Ta  Ta9  1  0.25000000  0.75000000  0.50000000  1.0
  Ga  Ga10  1  0.83425234  0.33425234  1.16850468  1.0
  Ga  Ga11  1  0.66574766  0.83425234  0.50000000  1.0
  Ga  Ga12  1  1.33425234  1.16574766  1.50000000  1.0
  Ga  Ga13  1  0.16574766  0.66574766  0.83149532  1.0
  Ga  Ga14  1  0.25000000  0.25000000  0.00000000  1.0
  Ga  Ga15  1  0.75000000  0.75000000  0.00000000  1.0
