# generated using pymatgen
data_CaLaMgAl2Si3HO13
_symmetry_space_group_name_H-M   'P 1'
_cell_length_a   9.00533064
_cell_length_b   5.72926875
_cell_length_c   10.20738694
_cell_angle_alpha   90.00000000
_cell_angle_beta   114.60626347
_cell_angle_gamma   90.00000000
_symmetry_Int_Tables_number   1
_chemical_formula_structural   CaLaMgAl2Si3HO13
_chemical_formula_sum   'Ca2 La2 Mg2 Al4 Si6 H2 O26'
_cell_volume   478.81568818
_cell_formula_units_Z   2
loop_
 _symmetry_equiv_pos_site_id
 _symmetry_equiv_pos_as_xyz
  1  'x, y, z'
loop_
 _atom_site_type_symbol
 _atom_site_label
 _atom_site_symmetry_multiplicity
 _atom_site_fract_x
 _atom_site_fract_y
 _atom_site_fract_z
 _atom_site_occupancy
  Ca  Ca0  1  0.76158655  0.25000000  0.15125379  1.0
  Ca  Ca1  1  0.23841345  0.75000000  0.84874621  1.0
  La  La2  1  0.59291651  0.25000000  0.42505543  1.0
  La  La3  1  0.40708349  0.75000000  0.57494457  1.0
  Mg  Mg4  1  0.29304699  0.75000000  0.21137253  1.0
  Mg  Mg5  1  0.70695301  0.25000000  0.78862747  1.0
  Al  Al6  1  0.00000000  0.00000000  0.00000000  1.0
  Al  Al7  1  0.00000000  0.50000000  0.00000000  1.0
  Al  Al8  1  -0.00000000  0.00000000  0.50000000  1.0
  Al  Al9  1  -0.00000000  0.50000000  0.50000000  1.0
  Si  Si10  1  0.33529652  0.25000000  0.03877263  1.0
  Si  Si11  1  0.66470348  0.75000000  0.96122737  1.0
  Si  Si12  1  0.68487294  0.75000000  0.28130622  1.0
  Si  Si13  1  0.31512706  0.25000000  0.71869378  1.0
  Si  Si14  1  0.18396692  0.25000000  0.31993097  1.0
  Si  Si15  1  0.81603308  0.75000000  0.68006903  1.0
  H  H16  1  0.05600254  0.75000000  0.31895597  1.0
  H  H17  1  0.94399746  0.25000000  0.68104403  1.0
  O  O18  1  0.23454988  0.00660466  0.03418251  1.0
  O  O19  1  0.76545012  0.50660466  0.96581749  1.0
  O  O20  1  0.76545012  0.99339534  0.96581749  1.0
  O  O21  1  0.23454988  0.49339534  0.03418251  1.0
  O  O22  1  0.30807095  0.02483625  0.36066973  1.0
  O  O23  1  0.69192905  0.52483625  0.63933027  1.0
  O  O24  1  0.69192905  0.97516375  0.63933027  1.0
  O  O25  1  0.30807095  0.47516375  0.36066973  1.0
  O  O26  1  0.79441833  0.98912136  0.34181209  1.0
  O  O27  1  0.20558167  0.48912136  0.65818791  1.0
  O  O28  1  0.20558167  0.01087864  0.65818791  1.0
  O  O29  1  0.79441833  0.51087864  0.34181209  1.0
  O  O30  1  0.04790924  0.75000000  0.12532895  1.0
  O  O31  1  0.95209076  0.25000000  0.87467105  1.0
  O  O32  1  0.04448936  0.25000000  0.14913009  1.0
  O  O33  1  0.95551064  0.75000000  0.85086991  1.0
  O  O34  1  0.06464444  0.25000000  0.40850819  1.0
  O  O35  1  0.93535556  0.75000000  0.59149181  1.0
  O  O36  1  0.51123302  0.25000000  0.17512222  1.0
  O  O37  1  0.48876698  0.75000000  0.82487778  1.0
  O  O38  1  0.53501858  0.75000000  0.32812726  1.0
  O  O39  1  0.46498142  0.25000000  0.67187274  1.0
  O  O40  1  0.62163574  0.75000000  0.10453641  1.0
  O  O41  1  0.37836426  0.25000000  0.89546359  1.0
  O  O42  1  0.08014889  0.75000000  0.42350756  1.0
  O  O43  1  0.91985111  0.25000000  0.57649244  1.0
