# generated using pymatgen
data_LiCd2
_symmetry_space_group_name_H-M   'P 1'
_cell_length_a   7.27677223
_cell_length_b   7.27677223
_cell_length_c   7.27677223
_cell_angle_alpha   60.00000000
_cell_angle_beta   60.00000000
_cell_angle_gamma   60.00000000
_symmetry_Int_Tables_number   1
_chemical_formula_structural   LiCd2
_chemical_formula_sum   'Li4 Cd8'
_cell_volume   272.45911771
_cell_formula_units_Z   4
loop_
 _symmetry_equiv_pos_site_id
 _symmetry_equiv_pos_as_xyz
  1  'x, y, z'
loop_
 _atom_site_type_symbol
 _atom_site_label
 _atom_site_symmetry_multiplicity
 _atom_site_fract_x
 _atom_site_fract_y
 _atom_site_fract_z
 _atom_site_occupancy
  Li  Li0  1  0.62500000  -0.37500000  1.12500000  1.0
  Li  Li1  1  0.62500000  0.12500000  0.62500000  1.0
  Li  Li2  1  0.62500000  -0.37500000  0.62500000  1.0
  Li  Li3  1  1.12500000  -0.37500000  0.62500000  1.0
  Cd  Cd4  1  -0.10398507  0.89601493  0.31195520  1.0
  Cd  Cd5  1  0.89601493  -0.68804480  0.89601493  1.0
  Cd  Cd6  1  0.35398507  0.35398507  0.35398507  1.0
  Cd  Cd7  1  -0.06195520  0.35398507  0.35398507  1.0
  Cd  Cd8  1  -0.68804480  0.89601493  0.89601493  1.0
  Cd  Cd9  1  0.89601493  -0.10398507  0.89601493  1.0
  Cd  Cd10  1  0.35398507  -0.06195520  0.35398507  1.0
  Cd  Cd11  1  0.35398507  0.35398507  -0.06195520  1.0
