# generated using pymatgen
data_SrGaSn
_symmetry_space_group_name_H-M   'P 1'
_cell_length_a   4.62203157
_cell_length_b   4.62203157
_cell_length_c   18.79670246
_cell_angle_alpha   90.00000000
_cell_angle_beta   90.00000000
_cell_angle_gamma   120.00000000
_symmetry_Int_Tables_number   1
_chemical_formula_structural   SrGaSn
_chemical_formula_sum   'Sr4 Ga4 Sn4'
_cell_volume   347.75878864
_cell_formula_units_Z   4
loop_
 _symmetry_equiv_pos_site_id
 _symmetry_equiv_pos_as_xyz
  1  'x, y, z'
loop_
 _atom_site_type_symbol
 _atom_site_label
 _atom_site_symmetry_multiplicity
 _atom_site_fract_x
 _atom_site_fract_y
 _atom_site_fract_z
 _atom_site_occupancy
  Sr  Sr0  1  0.00000000  0.00000000  0.25000000  1.0
  Sr  Sr1  1  0.00000000  0.00000000  0.75000000  1.0
  Sr  Sr2  1  0.00000000  0.00000000  0.50000000  1.0
  Sr  Sr3  1  0.00000000  0.00000000  0.00000000  1.0
  Ga  Ga4  1  0.33333333  0.66666667  0.33796570  1.0
  Ga  Ga5  1  0.33333333  0.66666667  0.16203430  1.0
  Ga  Ga6  1  0.66666667  0.33333333  0.83796570  1.0
  Ga  Ga7  1  0.66666667  0.33333333  0.66203430  1.0
  Sn  Sn8  1  0.33333333  0.66666667  0.88398500  1.0
  Sn  Sn9  1  0.33333333  0.66666667  0.61601500  1.0
  Sn  Sn10  1  0.66666667  0.33333333  0.38398500  1.0
  Sn  Sn11  1  0.66666667  0.33333333  0.11601500  1.0
