# generated using pymatgen
data_AgSbF6
_symmetry_space_group_name_H-M   'P 1'
_cell_length_a   8.67021152
_cell_length_b   8.67021152
_cell_length_c   8.67021152
_cell_angle_alpha   109.47122063
_cell_angle_beta   109.47122063
_cell_angle_gamma   109.47122063
_symmetry_Int_Tables_number   1
_chemical_formula_structural   AgSbF6
_chemical_formula_sum   'Ag4 Sb4 F24'
_cell_volume   501.72666987
_cell_formula_units_Z   4
loop_
 _symmetry_equiv_pos_site_id
 _symmetry_equiv_pos_as_xyz
  1  'x, y, z'
loop_
 _atom_site_type_symbol
 _atom_site_label
 _atom_site_symmetry_multiplicity
 _atom_site_fract_x
 _atom_site_fract_y
 _atom_site_fract_z
 _atom_site_occupancy
  Ag  Ag0  1  1.00000000  0.50000000  1.00000000  1.0
  Ag  Ag1  1  0.50000000  0.50000000  0.50000000  1.0
  Ag  Ag2  1  1.00000000  1.00000000  1.50000000  1.0
  Ag  Ag3  1  1.50000000  1.00000000  1.00000000  1.0
  Sb  Sb4  1  0.50000000  0.50000000  -0.00000000  1.0
  Sb  Sb5  1  1.00000000  1.00000000  1.00000000  1.0
  Sb  Sb6  1  -0.00000000  0.50000000  0.50000000  1.0
  Sb  Sb7  1  0.50000000  1.00000000  0.50000000  1.0
  F  F8  1  0.75714352  0.70333711  0.17971676  1.0
  F  F9  1  1.25714352  1.07742676  1.05380640  1.0
  F  F10  1  1.02362036  0.57742676  1.32028324  1.0
  F  F11  1  1.52362036  1.20333711  1.44619360  1.0
  F  F12  1  1.55380640  1.47637964  1.79666289  1.0
  F  F13  1  1.05380640  1.25714352  1.07742676  1.0
  F  F14  1  0.17971676  0.75714352  0.70333711  1.0
  F  F15  1  0.67971676  0.97637964  0.42257324  1.0
  F  F16  1  1.57742676  1.32028324  1.02362036  1.0
  F  F17  1  1.07742676  1.05380640  1.25714352  1.0
  F  F18  1  0.79666289  0.55380640  0.47637964  1.0
  F  F19  1  1.29666289  0.82028324  1.24285648  1.0
  F  F20  1  0.97637964  1.42257324  0.67971676  1.0
  F  F21  1  0.47637964  0.79666289  0.55380640  1.0
  F  F22  1  1.24285648  1.29666289  1.82028324  1.0
  F  F23  1  0.74285648  0.92257324  0.94619360  1.0
  F  F24  1  1.82028324  1.24285648  1.29666289  1.0
  F  F25  1  1.32028324  1.02362036  1.57742676  1.0
  F  F26  1  0.44619360  0.52362036  0.20333711  1.0
  F  F27  1  0.94619360  0.74285648  0.92257324  1.0
  F  F28  1  1.20333711  1.44619360  1.52362036  1.0
  F  F29  1  0.70333711  1.17971676  0.75714352  1.0
  F  F30  1  0.42257324  0.67971676  0.97637964  1.0
  F  F31  1  0.92257324  0.94619360  0.74285648  1.0
