# generated using pymatgen
data_BaLiAl3N4
_symmetry_space_group_name_H-M   'P 1'
_cell_length_a   10.19309767
_cell_length_b   7.66377505
_cell_length_c   5.96429599
_cell_angle_alpha   79.41355115
_cell_angle_beta   76.61427926
_cell_angle_gamma   82.94720665
_symmetry_Int_Tables_number   1
_chemical_formula_structural   BaLiAl3N4
_chemical_formula_sum   'Ba4 Li4 Al12 N16'
_cell_volume   443.97254576
_cell_formula_units_Z   4
loop_
 _symmetry_equiv_pos_site_id
 _symmetry_equiv_pos_as_xyz
  1  'x, y, z'
loop_
 _atom_site_type_symbol
 _atom_site_label
 _atom_site_symmetry_multiplicity
 _atom_site_fract_x
 _atom_site_fract_y
 _atom_site_fract_z
 _atom_site_occupancy
  Ba  Ba0  1  -0.12811978  -0.63509262  -0.00088340  1.0
  Ba  Ba1  1  -0.87188022  -0.36490738  -0.99911660  1.0
  Ba  Ba2  1  -0.37204484  -0.88431420  -0.02662624  1.0
  Ba  Ba3  1  -0.62795516  -0.11568580  -0.97337376  1.0
  Li  Li4  1  -0.64416492  -0.67358031  -0.22752513  1.0
  Li  Li5  1  -0.35583508  -0.32641969  -0.77247487  1.0
  Li  Li6  1  -0.10676960  -0.83420426  -0.47132724  1.0
  Li  Li7  1  -0.89323040  -0.16579574  -0.52867276  1.0
  Al  Al8  1  -0.14700942  -0.21053614  -0.17088308  1.0
  Al  Al9  1  -0.85299058  -0.78946386  -0.82911692  1.0
  Al  Al10  1  -0.39797587  -0.43947851  -0.17840252  1.0
  Al  Al11  1  -0.60202413  -0.56052149  -0.82159748  1.0
  Al  Al12  1  -0.89863772  -0.94262681  -0.17902831  1.0
  Al  Al13  1  -0.10136228  -0.05737319  -0.82097169  1.0
  Al  Al14  1  -0.63186016  -0.29737970  -0.43418494  1.0
  Al  Al15  1  -0.36813984  -0.70262030  -0.56581506  1.0
  Al  Al16  1  -0.87534333  -0.54781542  -0.44796331  1.0
  Al  Al17  1  -0.12465667  -0.45218458  -0.55203669  1.0
  Al  Al18  1  -0.37492407  -0.06283740  -0.46941462  1.0
  Al  Al19  1  -0.62507593  -0.93716260  -0.53058538  1.0
  N  N20  1  -0.58828691  -0.43635741  -0.15378990  1.0
  N  N21  1  -0.41171309  -0.56364259  -0.84621010  1.0
  N  N22  1  -0.08227671  -0.98731962  -0.16454900  1.0
  N  N23  1  -0.91772329  -0.01268038  -0.83545100  1.0
  N  N24  1  -0.85216632  -0.70910756  -0.17200912  1.0
  N  N25  1  -0.14783368  -0.29089244  -0.82799088  1.0
  N  N26  1  -0.32795958  -0.21498248  -0.20620244  1.0
  N  N27  1  -0.67204042  -0.78501752  -0.79379756  1.0
  N  N28  1  -0.76100072  -0.08624456  -0.35068677  1.0
  N  N29  1  -0.23899928  -0.91375544  -0.64931323  1.0
  N  N30  1  -0.02779161  -0.36550254  -0.35869882  1.0
  N  N31  1  -0.97220839  -0.63449746  -0.64130118  1.0
  N  N32  1  -0.50366675  -0.85207896  -0.38707909  1.0
  N  N33  1  -0.49633325  -0.14792104  -0.61292091  1.0
  N  N34  1  -0.28205847  -0.57726556  -0.39698928  1.0
  N  N35  1  -0.71794153  -0.42273444  -0.60301072  1.0
