# generated using pymatgen
data_KH2C2(NO)4
_symmetry_space_group_name_H-M   'P 1'
_cell_length_a   7.00184284
_cell_length_b   8.40664035
_cell_length_c   7.16975097
_cell_angle_alpha   66.81132612
_cell_angle_beta   58.78280613
_cell_angle_gamma   70.84501451
_symmetry_Int_Tables_number   1
_chemical_formula_structural   KH2C2(NO)4
_chemical_formula_sum   'K2 H4 C4 N8 O8'
_cell_volume   327.60617970
_cell_formula_units_Z   2
loop_
 _symmetry_equiv_pos_site_id
 _symmetry_equiv_pos_as_xyz
  1  'x, y, z'
loop_
 _atom_site_type_symbol
 _atom_site_label
 _atom_site_symmetry_multiplicity
 _atom_site_fract_x
 _atom_site_fract_y
 _atom_site_fract_z
 _atom_site_occupancy
  K  K0  1  -0.03324239  -0.30233696  0.73624758  1.0
  K  K1  1  0.03324239  -0.69766304  0.26375242  1.0
  H  H2  1  -0.66890970  -0.35503938  0.91458697  1.0
  H  H3  1  0.66890970  -0.64496062  0.08541303  1.0
  H  H4  1  -0.57241036  -0.52271277  0.83269762  1.0
  H  H5  1  0.57241036  -0.47728723  0.16730238  1.0
  C  C6  1  0.42071639  -0.94537035  0.57527242  1.0
  C  C7  1  -0.42071639  -0.05462965  0.42472758  1.0
  C  C8  1  -0.67277926  -0.98497517  0.82085105  1.0
  C  C9  1  0.67277926  -0.01502483  0.17914895  1.0
  N  N10  1  0.33713450  -0.78330368  0.49669224  1.0
  N  N11  1  -0.33713450  -0.21669632  0.50330776  1.0
  N  N12  1  0.62506349  -0.85219994  0.04858109  1.0
  N  N13  1  -0.62506349  -0.14780006  0.95141891  1.0
  N  N14  1  -0.27869652  -0.82716059  0.82510741  1.0
  N  N15  1  0.27869652  -0.17283941  0.17489259  1.0
  N  N16  1  -0.80628805  -0.84124852  0.88064077  1.0
  N  N17  1  0.80628805  -0.15875148  0.11935923  1.0
  O  O18  1  0.19992864  -0.71786395  0.67976941  1.0
  O  O19  1  -0.19992864  -0.28213605  0.32023059  1.0
  O  O20  1  -0.15220773  -0.94500443  0.72783727  1.0
  O  O21  1  0.15220773  -0.05499557  0.27216273  1.0
  O  O22  1  -0.31961102  -0.67334232  0.70849613  1.0
  O  O23  1  0.31961102  -0.32665768  0.29150387  1.0
  O  O24  1  -0.71614490  -0.44805480  0.90412594  1.0
  O  O25  1  0.71614490  -0.55194520  0.09587406  1.0
