# generated using pymatgen
data_Cu2Te
_symmetry_space_group_name_H-M   'P 1'
_cell_length_a   4.11510340
_cell_length_b   4.11510340
_cell_length_c   6.24445825
_cell_angle_alpha   90.00000000
_cell_angle_beta   90.00000000
_cell_angle_gamma   90.00000000
_symmetry_Int_Tables_number   1
_chemical_formula_structural   Cu2Te
_chemical_formula_sum   'Cu4 Te2'
_cell_volume   105.74413050
_cell_formula_units_Z   2
loop_
 _symmetry_equiv_pos_site_id
 _symmetry_equiv_pos_as_xyz
  1  'x, y, z'
loop_
 _atom_site_type_symbol
 _atom_site_label
 _atom_site_symmetry_multiplicity
 _atom_site_fract_x
 _atom_site_fract_y
 _atom_site_fract_z
 _atom_site_occupancy
  Cu  Cu0  1  0.50000000  0.00000000  0.25862152  1.0
  Cu  Cu1  1  0.00000000  0.50000000  0.74137848  1.0
  Cu  Cu2  1  0.00000000  0.00000000  0.00000000  1.0
  Cu  Cu3  1  0.50000000  0.50000000  0.00000000  1.0
  Te  Te4  1  0.50000000  0.00000000  0.70455148  1.0
  Te  Te5  1  0.00000000  0.50000000  0.29544852  1.0
