# generated using pymatgen
data_LiH6BrO7
_symmetry_space_group_name_H-M   'P 1'
_cell_length_a   7.89418512
_cell_length_b   7.89418512
_cell_length_c   5.71700128
_cell_angle_alpha   90.00000000
_cell_angle_beta   90.00000000
_cell_angle_gamma   120.00000000
_symmetry_Int_Tables_number   1
_chemical_formula_structural   LiH6BrO7
_chemical_formula_sum   'Li2 H12 Br2 O14'
_cell_volume   308.54146252
_cell_formula_units_Z   2
loop_
 _symmetry_equiv_pos_site_id
 _symmetry_equiv_pos_as_xyz
  1  'x, y, z'
loop_
 _atom_site_type_symbol
 _atom_site_label
 _atom_site_symmetry_multiplicity
 _atom_site_fract_x
 _atom_site_fract_y
 _atom_site_fract_z
 _atom_site_occupancy
  Li  Li0  1  0.00000000  0.00000000  -0.00784342  1.0
  Li  Li1  1  0.00000000  0.00000000  0.49215658  1.0
  H  H2  1  0.73909166  0.67523767  0.23802970  1.0
  H  H3  1  0.73909166  0.06385399  0.23802970  1.0
  H  H4  1  0.67523767  0.73909166  0.73802970  1.0
  H  H5  1  0.67523767  0.93614601  0.73802970  1.0
  H  H6  1  0.93614601  0.67523767  0.23802970  1.0
  H  H7  1  0.93614601  0.26090834  0.23802970  1.0
  H  H8  1  0.32476233  0.26090834  0.23802970  1.0
  H  H9  1  0.32476233  0.06385399  0.23802970  1.0
  H  H10  1  0.26090834  0.93614601  0.73802970  1.0
  H  H11  1  0.26090834  0.32476233  0.73802970  1.0
  H  H12  1  0.06385399  0.73909166  0.73802970  1.0
  H  H13  1  0.06385399  0.32476233  0.73802970  1.0
  Br  Br14  1  0.33333333  0.66666667  0.29665109  1.0
  Br  Br15  1  0.66666667  0.33333333  0.79665109  1.0
  O  O16  1  0.10460113  0.55230056  0.19661948  1.0
  O  O17  1  0.55230056  0.10460113  0.69661948  1.0
  O  O18  1  0.55230056  0.44769944  0.69661948  1.0
  O  O19  1  0.44769944  0.55230056  0.19661948  1.0
  O  O20  1  0.44769944  0.89539887  0.19661948  1.0
  O  O21  1  0.89539887  0.44769944  0.69661948  1.0
  O  O22  1  0.23768986  0.11884493  0.24099417  1.0
  O  O23  1  0.11884493  0.23768986  0.74099417  1.0
  O  O24  1  0.11884493  0.88115507  0.74099417  1.0
  O  O25  1  0.88115507  0.11884493  0.24099417  1.0
  O  O26  1  0.88115507  0.76231014  0.24099417  1.0
  O  O27  1  0.76231014  0.88115507  0.74099417  1.0
  O  O28  1  0.33333333  0.66666667  0.58547316  1.0
  O  O29  1  0.66666667  0.33333333  0.08547316  1.0
