# generated using pymatgen
data_Sr2TiO3F2
_symmetry_space_group_name_H-M   'P 1'
_cell_length_a   3.80957268
_cell_length_b   3.80957268
_cell_length_c   15.89736258
_cell_angle_alpha   90.00000000
_cell_angle_beta   90.00000000
_cell_angle_gamma   90.00000000
_symmetry_Int_Tables_number   1
_chemical_formula_structural   Sr2TiO3F2
_chemical_formula_sum   'Sr4 Ti2 O6 F4'
_cell_volume   230.71594272
_cell_formula_units_Z   2
loop_
 _symmetry_equiv_pos_site_id
 _symmetry_equiv_pos_as_xyz
  1  'x, y, z'
loop_
 _atom_site_type_symbol
 _atom_site_label
 _atom_site_symmetry_multiplicity
 _atom_site_fract_x
 _atom_site_fract_y
 _atom_site_fract_z
 _atom_site_occupancy
  Sr  Sr0  1  0.50000000  0.00000000  0.60379926  1.0
  Sr  Sr1  1  0.00000000  0.50000000  0.39620074  1.0
  Sr  Sr2  1  0.50000000  0.00000000  0.90370798  1.0
  Sr  Sr3  1  0.00000000  0.50000000  0.09629202  1.0
  Ti  Ti4  1  0.50000000  0.00000000  0.26344528  1.0
  Ti  Ti5  1  0.00000000  0.50000000  0.73655472  1.0
  O  O6  1  0.00000000  0.00000000  0.29519308  1.0
  O  O7  1  0.50000000  0.50000000  0.70480692  1.0
  O  O8  1  0.50000000  0.50000000  0.29519308  1.0
  O  O9  1  0.00000000  0.00000000  0.70480692  1.0
  O  O10  1  0.50000000  0.00000000  0.15287807  1.0
  O  O11  1  0.00000000  0.50000000  0.84712193  1.0
  F  F12  1  0.50000000  0.00000000  0.44453414  1.0
  F  F13  1  0.00000000  0.50000000  0.55546586  1.0
  F  F14  1  0.00000000  0.00000000  0.00000000  1.0
  F  F15  1  0.50000000  0.50000000  0.00000000  1.0
