# generated using pymatgen
data_Li2ScO2
_symmetry_space_group_name_H-M   'P 1'
_cell_length_a   6.71641019
_cell_length_b   6.71641026
_cell_length_c   6.71641024
_cell_angle_alpha   126.11761482
_cell_angle_beta   126.11761455
_cell_angle_gamma   79.69491908
_symmetry_Int_Tables_number   1
_chemical_formula_structural   Li2ScO2
_chemical_formula_sum   'Li8 Sc4 O8'
_cell_volume   191.00063559
_cell_formula_units_Z   4
loop_
 _symmetry_equiv_pos_site_id
 _symmetry_equiv_pos_as_xyz
  1  'x, y, z'
loop_
 _atom_site_type_symbol
 _atom_site_label
 _atom_site_symmetry_multiplicity
 _atom_site_fract_x
 _atom_site_fract_y
 _atom_site_fract_z
 _atom_site_occupancy
  Li  Li0  1  1.24049019  0.53240588  0.70808431  1.0
  Li  Li1  1  0.92567843  0.71759412  1.20808431  1.0
  Li  Li2  1  0.82432157  0.53240588  0.29191569  1.0
  Li  Li3  1  0.50950981  0.71759412  0.79191569  1.0
  Li  Li4  1  0.46759412  0.17567843  0.70808431  1.0
  Li  Li5  1  0.28240588  0.49049018  0.20808431  1.0
  Li  Li6  1  0.46759412  0.75950982  1.29191569  1.0
  Li  Li7  1  0.28240588  1.07432157  0.79191569  1.0
  Sc  Sc8  1  0.37500000  0.12500000  0.25000000  1.0
  Sc  Sc9  1  0.87500000  0.12500000  0.75000000  1.0
  Sc  Sc10  1  0.87500000  1.12500000  1.25000000  1.0
  Sc  Sc11  1  0.87500000  0.62500000  0.75000000  1.0
  O  O12  1  0.63011023  -0.10163757  0.73174780  1.0
  O  O13  1  0.58338537  0.35163757  0.23174780  1.0
  O  O14  1  0.16661463  -0.10163757  0.26825220  1.0
  O  O15  1  1.11988977  0.35163757  0.76825220  1.0
  O  O16  1  1.10163757  0.83338537  0.73174780  1.0
  O  O17  1  0.64836243  0.88011023  1.23174780  1.0
  O  O18  1  1.10163757  1.36988977  1.26825220  1.0
  O  O19  1  0.64836243  0.41661463  0.76825220  1.0
