# generated using pymatgen
data_YCoB4
_symmetry_space_group_name_H-M   'P 1'
_cell_length_a   5.88987825
_cell_length_b   11.40751651
_cell_length_c   3.37561143
_cell_angle_alpha   90.00000000
_cell_angle_beta   90.00000000
_cell_angle_gamma   90.00000000
_symmetry_Int_Tables_number   1
_chemical_formula_structural   YCoB4
_chemical_formula_sum   'Y4 Co4 B16'
_cell_volume   226.80356291
_cell_formula_units_Z   4
loop_
 _symmetry_equiv_pos_site_id
 _symmetry_equiv_pos_as_xyz
  1  'x, y, z'
loop_
 _atom_site_type_symbol
 _atom_site_label
 _atom_site_symmetry_multiplicity
 _atom_site_fract_x
 _atom_site_fract_y
 _atom_site_fract_z
 _atom_site_occupancy
  Y  Y0  1  0.12806778  0.64993650  0.50000000  1.0
  Y  Y1  1  0.62806778  0.85006350  0.50000000  1.0
  Y  Y2  1  0.87193222  0.35006350  0.50000000  1.0
  Y  Y3  1  0.37193222  0.14993650  0.50000000  1.0
  Co  Co4  1  0.13500826  0.91063543  0.50000000  1.0
  Co  Co5  1  0.63500826  0.58936457  0.50000000  1.0
  Co  Co6  1  0.86499174  0.08936457  0.50000000  1.0
  Co  Co7  1  0.36499174  0.41063543  0.50000000  1.0
  B  B8  1  0.47776998  0.69066230  0.00000000  1.0
  B  B9  1  0.97776998  0.80933770  0.00000000  1.0
  B  B10  1  0.52223002  0.30933770  0.00000000  1.0
  B  B11  1  0.02223002  0.19066230  0.00000000  1.0
  B  B12  1  0.38901529  0.54603886  0.00000000  1.0
  B  B13  1  0.88901529  0.95396114  0.00000000  1.0
  B  B14  1  0.61098471  0.45396114  0.00000000  1.0
  B  B15  1  0.11098471  0.04603886  0.00000000  1.0
  B  B16  1  0.36071462  0.96756693  0.00000000  1.0
  B  B17  1  0.86071462  0.53243307  0.00000000  1.0
  B  B18  1  0.63928538  0.03243307  0.00000000  1.0
  B  B19  1  0.13928538  0.46756693  0.00000000  1.0
  B  B20  1  0.28261559  0.81554674  0.00000000  1.0
  B  B21  1  0.78261559  0.68445326  0.00000000  1.0
  B  B22  1  0.71738441  0.18445326  0.00000000  1.0
  B  B23  1  0.21738441  0.31554674  0.00000000  1.0
