# generated using pymatgen
data_Cr3BO6
_symmetry_space_group_name_H-M   'P 1'
_cell_length_a   9.98453071
_cell_length_b   8.48279371
_cell_length_c   4.44238666
_cell_angle_alpha   90.00000000
_cell_angle_beta   90.00000000
_cell_angle_gamma   90.00000000
_symmetry_Int_Tables_number   1
_chemical_formula_structural   Cr3BO6
_chemical_formula_sum   'Cr12 B4 O24'
_cell_volume   376.25555426
_cell_formula_units_Z   4
loop_
 _symmetry_equiv_pos_site_id
 _symmetry_equiv_pos_as_xyz
  1  'x, y, z'
loop_
 _atom_site_type_symbol
 _atom_site_label
 _atom_site_symmetry_multiplicity
 _atom_site_fract_x
 _atom_site_fract_y
 _atom_site_fract_z
 _atom_site_occupancy
  Cr  Cr0  1  0.63000079  0.43140802  0.00123464  1.0
  Cr  Cr1  1  0.63000079  0.06859198  0.00123464  1.0
  Cr  Cr2  1  0.13000079  0.43140802  0.49876536  1.0
  Cr  Cr3  1  0.13000079  0.06859198  0.49876536  1.0
  Cr  Cr4  1  0.36999921  0.93140802  0.99876536  1.0
  Cr  Cr5  1  0.36999921  0.56859198  0.99876536  1.0
  Cr  Cr6  1  0.86999921  0.93140802  0.50123464  1.0
  Cr  Cr7  1  0.86999921  0.56859198  0.50123464  1.0
  Cr  Cr8  1  0.90739773  0.25000000  0.03144511  1.0
  Cr  Cr9  1  0.40739773  0.25000000  0.46855489  1.0
  Cr  Cr10  1  0.09260227  0.75000000  0.96855489  1.0
  Cr  Cr11  1  0.59260227  0.75000000  0.53144511  1.0
  B  B12  1  0.72330316  0.25000000  0.58229211  1.0
  B  B13  1  0.22330316  0.25000000  0.91770789  1.0
  B  B14  1  0.27669684  0.75000000  0.41770789  1.0
  B  B15  1  0.77669684  0.75000000  0.08229211  1.0
  O  O16  1  0.96987440  0.42220120  0.26486521  1.0
  O  O17  1  0.96987440  0.07779880  0.26486521  1.0
  O  O18  1  0.46987440  0.42220120  0.23513479  1.0
  O  O19  1  0.46987440  0.07779880  0.23513479  1.0
  O  O20  1  0.03012560  0.92220120  0.73513479  1.0
  O  O21  1  0.03012560  0.57779880  0.73513479  1.0
  O  O22  1  0.53012560  0.92220120  0.76486521  1.0
  O  O23  1  0.53012560  0.57779880  0.76486521  1.0
  O  O24  1  0.70933061  0.88969768  0.23018951  1.0
  O  O25  1  0.70933061  0.61030232  0.23018951  1.0
  O  O26  1  0.20933061  0.88969768  0.26981049  1.0
  O  O27  1  0.20933061  0.61030232  0.26981049  1.0
  O  O28  1  0.29066939  0.38969768  0.76981049  1.0
  O  O29  1  0.29066939  0.11030232  0.76981049  1.0
  O  O30  1  0.79066939  0.38969768  0.73018951  1.0
  O  O31  1  0.79066939  0.11030232  0.73018951  1.0
  O  O32  1  0.72524366  0.25000000  0.25532657  1.0
  O  O33  1  0.22524366  0.25000000  0.24467343  1.0
  O  O34  1  0.27475634  0.75000000  0.74467343  1.0
  O  O35  1  0.77475634  0.75000000  0.75532657  1.0
  O  O36  1  0.58355600  0.25000000  0.71801031  1.0
  O  O37  1  0.08355600  0.25000000  0.78198969  1.0
  O  O38  1  0.41644400  0.75000000  0.28198969  1.0
  O  O39  1  0.91644400  0.75000000  0.21801031  1.0
