# generated using pymatgen
data_Mg5Rh2
_symmetry_space_group_name_H-M   'P 1'
_cell_length_a   8.59233840
_cell_length_b   8.59233840
_cell_length_c   8.08529400
_cell_angle_alpha   90.00000000
_cell_angle_beta   90.00000000
_cell_angle_gamma   120.00000000
_symmetry_Int_Tables_number   1
_chemical_formula_structural   Mg5Rh2
_chemical_formula_sum   'Mg20 Rh8'
_cell_volume   516.95077809
_cell_formula_units_Z   4
loop_
 _symmetry_equiv_pos_site_id
 _symmetry_equiv_pos_as_xyz
  1  'x, y, z'
loop_
 _atom_site_type_symbol
 _atom_site_label
 _atom_site_symmetry_multiplicity
 _atom_site_fract_x
 _atom_site_fract_y
 _atom_site_fract_z
 _atom_site_occupancy
  Mg  Mg0  1  0.19138750  0.80861250  0.43619830  1.0
  Mg  Mg1  1  0.19138750  0.80861250  0.06380170  1.0
  Mg  Mg2  1  0.19138750  0.38277501  0.43619830  1.0
  Mg  Mg3  1  0.19138750  0.38277501  0.06380170  1.0
  Mg  Mg4  1  0.80861250  0.19138750  0.93619830  1.0
  Mg  Mg5  1  0.80861250  0.19138750  0.56380170  1.0
  Mg  Mg6  1  0.80861250  0.61722499  0.93619830  1.0
  Mg  Mg7  1  0.80861250  0.61722499  0.56380170  1.0
  Mg  Mg8  1  0.61722499  0.80861250  0.43619830  1.0
  Mg  Mg9  1  0.61722499  0.80861250  0.06380170  1.0
  Mg  Mg10  1  0.38277501  0.19138750  0.93619830  1.0
  Mg  Mg11  1  0.38277501  0.19138750  0.56380170  1.0
  Mg  Mg12  1  0.54058157  0.45941843  0.25000000  1.0
  Mg  Mg13  1  0.54058157  0.08116314  0.25000000  1.0
  Mg  Mg14  1  0.45941843  0.54058157  0.75000000  1.0
  Mg  Mg15  1  0.45941843  0.91883686  0.75000000  1.0
  Mg  Mg16  1  0.91883686  0.45941843  0.25000000  1.0
  Mg  Mg17  1  0.08116314  0.54058157  0.75000000  1.0
  Mg  Mg18  1  0.00000000  0.00000000  0.50000000  1.0
  Mg  Mg19  1  0.00000000  0.00000000  0.00000000  1.0
  Rh  Rh20  1  0.33333333  0.66666667  0.25000000  1.0
  Rh  Rh21  1  0.66666667  0.33333333  0.75000000  1.0
  Rh  Rh22  1  0.87787662  0.12212338  0.25000000  1.0
  Rh  Rh23  1  0.87787662  0.75575325  0.25000000  1.0
  Rh  Rh24  1  0.12212338  0.87787662  0.75000000  1.0
  Rh  Rh25  1  0.12212338  0.24424675  0.75000000  1.0
  Rh  Rh26  1  0.24424675  0.12212338  0.25000000  1.0
  Rh  Rh27  1  0.75575325  0.87787662  0.75000000  1.0
