# generated using pymatgen
data_Ca4As3
_symmetry_space_group_name_H-M   'P 1'
_cell_length_a   11.57378871
_cell_length_b   12.14097878
_cell_length_c   10.42313610
_cell_angle_alpha   90.00000000
_cell_angle_beta   90.00000000
_cell_angle_gamma   90.00000000
_symmetry_Int_Tables_number   1
_chemical_formula_structural   Ca4As3
_chemical_formula_sum   'Ca32 As24'
_cell_volume   1464.62909741
_cell_formula_units_Z   8
loop_
 _symmetry_equiv_pos_site_id
 _symmetry_equiv_pos_as_xyz
  1  'x, y, z'
loop_
 _atom_site_type_symbol
 _atom_site_label
 _atom_site_symmetry_multiplicity
 _atom_site_fract_x
 _atom_site_fract_y
 _atom_site_fract_z
 _atom_site_occupancy
  Ca  Ca0  1  0.59468409  0.26447686  0.27225642  1.0
  Ca  Ca1  1  0.40531591  0.73552314  0.27225642  1.0
  Ca  Ca2  1  0.09468409  0.23552314  0.72774358  1.0
  Ca  Ca3  1  0.90531591  0.76447686  0.72774358  1.0
  Ca  Ca4  1  0.40531591  0.73552314  0.72774358  1.0
  Ca  Ca5  1  0.59468409  0.26447686  0.72774358  1.0
  Ca  Ca6  1  0.90531591  0.76447686  0.27225642  1.0
  Ca  Ca7  1  0.09468409  0.23552314  0.27225642  1.0
  Ca  Ca8  1  0.82440817  0.06718678  0.32421749  1.0
  Ca  Ca9  1  0.17559183  0.93281322  0.32421749  1.0
  Ca  Ca10  1  0.32440817  0.43281322  0.67578251  1.0
  Ca  Ca11  1  0.67559183  0.56718678  0.67578251  1.0
  Ca  Ca12  1  0.17559183  0.93281322  0.67578251  1.0
  Ca  Ca13  1  0.82440817  0.06718678  0.67578251  1.0
  Ca  Ca14  1  0.67559183  0.56718678  0.32421749  1.0
  Ca  Ca15  1  0.32440817  0.43281322  0.32421749  1.0
  Ca  Ca16  1  0.87555611  0.36480464  0.50000000  1.0
  Ca  Ca17  1  0.12444389  0.63519536  0.50000000  1.0
  Ca  Ca18  1  0.37555611  0.13519536  0.50000000  1.0
  Ca  Ca19  1  0.62444389  0.86480464  0.50000000  1.0
  Ca  Ca20  1  0.72639306  0.42428002  0.00000000  1.0
  Ca  Ca21  1  0.27360694  0.57571998  0.00000000  1.0
  Ca  Ca22  1  0.22639306  0.07571998  0.00000000  1.0
  Ca  Ca23  1  0.77360694  0.92428002  0.00000000  1.0
  Ca  Ca24  1  0.89860178  0.20663052  0.00000000  1.0
  Ca  Ca25  1  0.10139822  0.79336948  0.00000000  1.0
  Ca  Ca26  1  0.39860178  0.29336948  0.00000000  1.0
  Ca  Ca27  1  0.60139822  0.70663052  0.00000000  1.0
  Ca  Ca28  1  0.50000000  0.00000000  0.18450431  1.0
  Ca  Ca29  1  0.00000000  0.50000000  0.81549569  1.0
  Ca  Ca30  1  0.50000000  0.00000000  0.81549569  1.0
  Ca  Ca31  1  0.00000000  0.50000000  0.18450431  1.0
  As  As32  1  0.83778697  0.32346786  0.23333508  1.0
  As  As33  1  0.16221303  0.67653214  0.23333508  1.0
  As  As34  1  0.33778697  0.17653214  0.76666492  1.0
  As  As35  1  0.66221303  0.82346786  0.76666492  1.0
  As  As36  1  0.16221303  0.67653214  0.76666492  1.0
  As  As37  1  0.83778697  0.32346786  0.76666492  1.0
  As  As38  1  0.66221303  0.82346786  0.23333508  1.0
  As  As39  1  0.33778697  0.17653214  0.23333508  1.0
  As  As40  1  0.53947681  0.40178778  0.50000000  1.0
  As  As41  1  0.46052319  0.59821222  0.50000000  1.0
  As  As42  1  0.03947681  0.09821222  0.50000000  1.0
  As  As43  1  0.96052319  0.90178778  0.50000000  1.0
  As  As44  1  0.63559044  0.11440977  0.50000000  1.0
  As  As45  1  0.36440956  0.88559023  0.50000000  1.0
  As  As46  1  0.13559044  0.38559023  0.50000000  1.0
  As  As47  1  0.86440956  0.61440977  0.50000000  1.0
  As  As48  1  0.63949229  0.14305908  0.00000000  1.0
  As  As49  1  0.36050771  0.85694092  0.00000000  1.0
  As  As50  1  0.13949229  0.35694092  0.00000000  1.0
  As  As51  1  0.86050771  0.64305908  0.00000000  1.0
  As  As52  1  0.50000000  0.50000000  0.12264053  1.0
  As  As53  1  0.00000000  0.00000000  0.87735947  1.0
  As  As54  1  0.50000000  0.50000000  0.87735947  1.0
  As  As55  1  0.00000000  0.00000000  0.12264053  1.0
