# generated using pymatgen
data_ScO3
_symmetry_space_group_name_H-M   'P 1'
_cell_length_a   6.82875561
_cell_length_b   6.82875561
_cell_length_c   6.82875561
_cell_angle_alpha   109.47122063
_cell_angle_beta   109.47122063
_cell_angle_gamma   109.47122063
_symmetry_Int_Tables_number   1
_chemical_formula_structural   ScO3
_chemical_formula_sum   'Sc4 O12'
_cell_volume   245.13358683
_cell_formula_units_Z   4
loop_
 _symmetry_equiv_pos_site_id
 _symmetry_equiv_pos_as_xyz
  1  'x, y, z'
loop_
 _atom_site_type_symbol
 _atom_site_label
 _atom_site_symmetry_multiplicity
 _atom_site_fract_x
 _atom_site_fract_y
 _atom_site_fract_z
 _atom_site_occupancy
  Sc  Sc0  1  0.50000000  1.00000000  1.00000000  1.0
  Sc  Sc1  1  0.50000000  0.50000000  0.50000000  1.0
  Sc  Sc2  1  1.00000000  1.00000000  0.50000000  1.0
  Sc  Sc3  1  1.00000000  0.50000000  1.00000000  1.0
  O  O4  1  0.82065938  1.30246708  1.12312646  1.0
  O  O5  1  0.82065938  0.69753292  0.51819229  1.0
  O  O6  1  0.17934062  0.30246708  0.48180771  1.0
  O  O7  1  0.17934062  0.69753292  0.87687354  1.0
  O  O8  1  0.51819229  0.82065938  0.69753292  1.0
  O  O9  1  1.12312646  0.82065938  1.30246708  1.0
  O  O10  1  0.69753292  0.87687354  0.17934062  1.0
  O  O11  1  0.69753292  0.51819229  0.82065938  1.0
  O  O12  1  0.87687354  0.17934062  0.69753292  1.0
  O  O13  1  0.48180771  0.17934062  0.30246708  1.0
  O  O14  1  0.30246708  0.48180771  0.17934062  1.0
  O  O15  1  1.30246708  1.12312646  0.82065938  1.0
