# generated using pymatgen
data_Ca2SiO4
_symmetry_space_group_name_H-M   'P 1'
_cell_length_a   6.38246107
_cell_length_b   6.38246107
_cell_length_c   6.38246107
_cell_angle_alpha   147.15491638
_cell_angle_beta   147.15491638
_cell_angle_gamma   47.13445787
_symmetry_Int_Tables_number   1
_chemical_formula_structural   Ca2SiO4
_chemical_formula_sum   'Ca2 Si1 O4'
_cell_volume   76.19209616
_cell_formula_units_Z   1
loop_
 _symmetry_equiv_pos_site_id
 _symmetry_equiv_pos_as_xyz
  1  'x, y, z'
loop_
 _atom_site_type_symbol
 _atom_site_label
 _atom_site_symmetry_multiplicity
 _atom_site_fract_x
 _atom_site_fract_y
 _atom_site_fract_z
 _atom_site_occupancy
  Ca  Ca0  1  0.64622689  0.64622689  1.00000000  1.0
  Ca  Ca1  1  0.35377311  0.35377311  0.00000000  1.0
  Si  Si2  1  0.00000000  0.00000000  0.00000000  1.0
  O  O3  1  0.84436580  0.84436580  1.00000000  1.0
  O  O4  1  0.15563420  0.15563420  0.00000000  1.0
  O  O5  1  0.50000000  0.00000000  0.50000000  1.0
  O  O6  1  -0.00000000  0.50000000  0.50000000  1.0
