# generated using pymatgen
data_Ba3NaTaO6
_symmetry_space_group_name_H-M   'P 1'
_cell_length_a   7.21418958
_cell_length_b   7.21418958
_cell_length_c   7.21418958
_cell_angle_alpha   91.86534048
_cell_angle_beta   91.86534048
_cell_angle_gamma   91.86534048
_symmetry_Int_Tables_number   1
_chemical_formula_structural   Ba3NaTaO6
_chemical_formula_sum   'Ba6 Na2 Ta2 O12'
_cell_volume   374.84894883
_cell_formula_units_Z   2
loop_
 _symmetry_equiv_pos_site_id
 _symmetry_equiv_pos_as_xyz
  1  'x, y, z'
loop_
 _atom_site_type_symbol
 _atom_site_label
 _atom_site_symmetry_multiplicity
 _atom_site_fract_x
 _atom_site_fract_y
 _atom_site_fract_z
 _atom_site_occupancy
  Ba  Ba0  1  0.89924639  1.25000000  -0.39924639  1.0
  Ba  Ba1  1  1.39924639  0.10075361  -0.25000000  1.0
  Ba  Ba2  1  0.75000000  0.39924639  0.10075361  1.0
  Ba  Ba3  1  1.25000000  0.60075361  -0.10075361  1.0
  Ba  Ba4  1  1.10075361  -0.25000000  0.39924639  1.0
  Ba  Ba5  1  0.60075361  0.89924639  0.25000000  1.0
  Na  Na6  1  0.25000000  0.25000000  0.25000000  1.0
  Na  Na7  1  0.75000000  0.75000000  0.75000000  1.0
  Ta  Ta8  1  0.50000000  0.50000000  0.50000000  1.0
  Ta  Ta9  1  0.00000000  0.00000000  0.00000000  1.0
  O  O10  1  1.23380163  0.42282467  -0.44886167  1.0
  O  O11  1  0.73380163  1.05113833  -0.07717533  1.0
  O  O12  1  0.94886167  0.07717533  0.26619837  1.0
  O  O13  1  1.44886167  -0.23380163  0.57717533  1.0
  O  O14  1  1.57717533  0.44886167  -0.23380163  1.0
  O  O15  1  1.07717533  0.26619837  -0.05113833  1.0
  O  O16  1  0.76619837  0.57717533  0.44886167  1.0
  O  O17  1  1.26619837  -0.05113833  0.07717533  1.0
  O  O18  1  0.55113833  1.23380163  -0.57717533  1.0
  O  O19  1  1.05113833  0.92282467  -0.26619837  1.0
  O  O20  1  0.92282467  0.73380163  0.05113833  1.0
  O  O21  1  0.42282467  0.55113833  0.23380163  1.0
