# generated using pymatgen
data_Ti7O13
_symmetry_space_group_name_H-M   'P 1'
_cell_length_a   5.57440276
_cell_length_b   11.37892181
_cell_length_c   7.18398672
_cell_angle_alpha   96.07820273
_cell_angle_beta   108.69452588
_cell_angle_gamma   89.35982338
_symmetry_Int_Tables_number   1
_chemical_formula_structural   Ti7O13
_chemical_formula_sum   'Ti14 O26'
_cell_volume   429.09175690
_cell_formula_units_Z   2
loop_
 _symmetry_equiv_pos_site_id
 _symmetry_equiv_pos_as_xyz
  1  'x, y, z'
loop_
 _atom_site_type_symbol
 _atom_site_label
 _atom_site_symmetry_multiplicity
 _atom_site_fract_x
 _atom_site_fract_y
 _atom_site_fract_z
 _atom_site_occupancy
  Ti  Ti0  1  0.88862143  0.85171553  -0.26457778  1.0
  Ti  Ti1  1  0.11137857  0.14828447  -0.73542222  1.0
  Ti  Ti2  1  0.89167510  0.85538235  -0.76103672  1.0
  Ti  Ti3  1  0.10832490  0.14461765  -0.23896328  1.0
  Ti  Ti4  1  0.71555227  0.29257232  -0.98329373  1.0
  Ti  Ti5  1  0.28444773  0.70742768  -0.01670627  1.0
  Ti  Ti6  1  0.70532562  0.55153894  -0.28851298  1.0
  Ti  Ti7  1  0.29467438  0.44846106  -0.71148702  1.0
  Ti  Ti8  1  0.70507993  0.55525916  -0.79115611  1.0
  Ti  Ti9  1  0.29492007  0.44474084  -0.20884389  1.0
  Ti  Ti10  1  0.28455116  0.70575084  -0.51283715  1.0
  Ti  Ti11  1  0.71544884  0.29424916  -0.48716285  1.0
  Ti  Ti12  1  0.50000000  -0.00000000  -0.50000000  1.0
  Ti  Ti13  1  0.50000000  -0.00000000  0.00000000  1.0
  O  O14  1  0.00401862  0.79658347  0.00541664  1.0
  O  O15  1  0.99598138  0.20341653  -1.00541664  1.0
  O  O16  1  0.94740486  0.44443649  -0.84375255  1.0
  O  O17  1  0.05259514  0.55556351  -0.15624745  1.0
  O  O18  1  0.92357121  0.68370407  -0.68715228  1.0
  O  O19  1  0.07642879  0.31629593  -0.31284772  1.0
  O  O20  1  0.86014770  0.01300218  -0.83203941  1.0
  O  O21  1  0.13985230  0.98699782  -0.16796059  1.0
  O  O22  1  0.81719090  0.24968122  -0.71349636  1.0
  O  O23  1  0.18280910  0.75031878  -0.28650364  1.0
  O  O24  1  0.78253000  0.90039508  -0.52779035  1.0
  O  O25  1  0.21747000  0.09960492  -0.47220965  1.0
  O  O26  1  0.69815957  0.47222775  -0.55187364  1.0
  O  O27  1  0.30184043  0.52777225  -0.44812636  1.0
  O  O28  1  0.65008514  0.70640888  -0.36664814  1.0
  O  O29  1  0.34991486  0.29359112  -0.63335186  1.0
  O  O30  1  0.61565199  0.94895817  -0.23172499  1.0
  O  O31  1  0.38434801  0.05104183  -0.76827501  1.0
  O  O32  1  0.53383998  0.83386844  -0.92472362  1.0
  O  O33  1  0.46616002  0.16613156  -0.07527638  1.0
  O  O34  1  0.44200194  0.40755956  -0.93233458  1.0
  O  O35  1  0.55799806  0.59244044  -0.06766542  1.0
  O  O36  1  0.37284310  0.62427140  -0.76468470  1.0
  O  O37  1  0.62715690  0.37572860  -0.23531530  1.0
  O  O38  1  0.25674119  0.85938597  -0.59459971  1.0
  O  O39  1  0.74325881  0.14061403  -0.40540029  1.0
