# generated using pymatgen
data_Cs2Ti(AgS2)2
_symmetry_space_group_name_H-M   'P 1'
_cell_length_a   6.09475942
_cell_length_b   6.09475942
_cell_length_c   13.96773142
_cell_angle_alpha   90.00000000
_cell_angle_beta   90.00000000
_cell_angle_gamma   90.00000000
_symmetry_Int_Tables_number   1
_chemical_formula_structural   Cs2Ti(AgS2)2
_chemical_formula_sum   'Cs4 Ti2 Ag4 S8'
_cell_volume   518.84664138
_cell_formula_units_Z   2
loop_
 _symmetry_equiv_pos_site_id
 _symmetry_equiv_pos_as_xyz
  1  'x, y, z'
loop_
 _atom_site_type_symbol
 _atom_site_label
 _atom_site_symmetry_multiplicity
 _atom_site_fract_x
 _atom_site_fract_y
 _atom_site_fract_z
 _atom_site_occupancy
  Cs  Cs0  1  0.73475571  0.73475571  0.00000000  1.0
  Cs  Cs1  1  0.73475571  0.26524429  0.50000000  1.0
  Cs  Cs2  1  0.26524429  0.73475571  0.50000000  1.0
  Cs  Cs3  1  0.26524429  0.26524429  0.00000000  1.0
  Ti  Ti4  1  0.00000000  0.00000000  0.75000000  1.0
  Ti  Ti5  1  0.00000000  0.00000000  0.25000000  1.0
  Ag  Ag6  1  0.00000000  0.50000000  0.75000000  1.0
  Ag  Ag7  1  0.00000000  0.50000000  0.25000000  1.0
  Ag  Ag8  1  0.50000000  0.00000000  0.75000000  1.0
  Ag  Ag9  1  0.50000000  0.00000000  0.25000000  1.0
  S  S10  1  0.78621140  0.78621140  0.65098073  1.0
  S  S11  1  0.78621140  0.78621140  0.34901927  1.0
  S  S12  1  0.78621140  0.21378860  0.15098073  1.0
  S  S13  1  0.78621140  0.21378860  0.84901927  1.0
  S  S14  1  0.21378860  0.78621140  0.15098073  1.0
  S  S15  1  0.21378860  0.78621140  0.84901927  1.0
  S  S16  1  0.21378860  0.21378860  0.65098073  1.0
  S  S17  1  0.21378860  0.21378860  0.34901927  1.0
