# generated using pymatgen
data_BaLa(SbSe3)2
_symmetry_space_group_name_H-M   'P 1'
_cell_length_a   4.42382705
_cell_length_b   15.44155401
_cell_length_c   17.08496647
_cell_angle_alpha   90.00000000
_cell_angle_beta   92.80966570
_cell_angle_gamma   90.00000000
_symmetry_Int_Tables_number   1
_chemical_formula_structural   BaLa(SbSe3)2
_chemical_formula_sum   'Ba4 La4 Sb8 Se24'
_cell_volume   1165.68414247
_cell_formula_units_Z   4
loop_
 _symmetry_equiv_pos_site_id
 _symmetry_equiv_pos_as_xyz
  1  'x, y, z'
loop_
 _atom_site_type_symbol
 _atom_site_label
 _atom_site_symmetry_multiplicity
 _atom_site_fract_x
 _atom_site_fract_y
 _atom_site_fract_z
 _atom_site_occupancy
  Ba  Ba0  1  0.73127541  0.28649346  0.82754040  1.0
  Ba  Ba1  1  0.73127541  0.21350654  0.32754040  1.0
  Ba  Ba2  1  0.26872459  0.78649346  0.67245960  1.0
  Ba  Ba3  1  0.26872459  0.71350654  0.17245960  1.0
  La  La4  1  0.29608374  0.62705291  0.90866084  1.0
  La  La5  1  0.29608374  0.87294709  0.40866084  1.0
  La  La6  1  0.70391626  0.12705291  0.59133916  1.0
  La  La7  1  0.70391626  0.37294709  0.09133916  1.0
  Sb  Sb8  1  0.73960624  0.52495758  0.69925563  1.0
  Sb  Sb9  1  0.73960624  0.97504242  0.19925563  1.0
  Sb  Sb10  1  0.26039376  0.02495758  0.80074437  1.0
  Sb  Sb11  1  0.26039376  0.47504242  0.30074437  1.0
  Sb  Sb12  1  0.70854597  0.87073030  0.97372436  1.0
  Sb  Sb13  1  0.70854597  0.62926970  0.47372436  1.0
  Sb  Sb14  1  0.29145403  0.37073030  0.52627564  1.0
  Sb  Sb15  1  0.29145403  0.12926970  0.02627564  1.0
  Se  Se16  1  0.82559297  0.48665036  0.94157559  1.0
  Se  Se17  1  0.82559297  0.01334964  0.44157559  1.0
  Se  Se18  1  0.17440703  0.98665036  0.55842441  1.0
  Se  Se19  1  0.17440703  0.51334964  0.05842441  1.0
  Se  Se20  1  0.77086648  0.79145358  0.52313974  1.0
  Se  Se21  1  0.77086648  0.70854642  0.02313974  1.0
  Se  Se22  1  0.22913352  0.29145358  0.97686026  1.0
  Se  Se23  1  0.22913352  0.20854642  0.47686026  1.0
  Se  Se24  1  0.78317694  0.67357573  0.78121021  1.0
  Se  Se25  1  0.78317694  0.82642427  0.28121021  1.0
  Se  Se26  1  0.21682306  0.17357573  0.71878979  1.0
  Se  Se27  1  0.21682306  0.32642427  0.21878979  1.0
  Se  Se28  1  0.69004421  0.41667419  0.40977003  1.0
  Se  Se29  1  0.69004421  0.08332581  0.90977003  1.0
  Se  Se30  1  0.30995579  0.91667419  0.09022997  1.0
  Se  Se31  1  0.30995579  0.58332581  0.59022997  1.0
  Se  Se32  1  0.66436673  0.96662518  0.70225414  1.0
  Se  Se33  1  0.66436673  0.53337482  0.20225414  1.0
  Se  Se34  1  0.33563327  0.46662518  0.79774586  1.0
  Se  Se35  1  0.33563327  0.03337482  0.29774586  1.0
  Se  Se36  1  0.25334490  0.82955460  0.87267512  1.0
  Se  Se37  1  0.25334490  0.67044540  0.37267512  1.0
  Se  Se38  1  0.74665510  0.32955460  0.62732488  1.0
  Se  Se39  1  0.74665510  0.17044540  0.12732488  1.0
