# generated using pymatgen
data_Si2Bi2Rh3
_symmetry_space_group_name_H-M   'P 1'
_cell_length_a   7.03140033
_cell_length_b   7.03140033
_cell_length_c   7.45215177
_cell_angle_alpha   58.67227020
_cell_angle_beta   121.32772980
_cell_angle_gamma   115.78169980
_symmetry_Int_Tables_number   1
_chemical_formula_structural   Si2Bi2Rh3
_chemical_formula_sum   'Si4 Bi4 Rh6'
_cell_volume   261.90810281
_cell_formula_units_Z   2
loop_
 _symmetry_equiv_pos_site_id
 _symmetry_equiv_pos_as_xyz
  1  'x, y, z'
loop_
 _atom_site_type_symbol
 _atom_site_label
 _atom_site_symmetry_multiplicity
 _atom_site_fract_x
 _atom_site_fract_y
 _atom_site_fract_z
 _atom_site_occupancy
  Si  Si0  1  1.33518346  -0.68151569  0.17843100  1.0
  Si  Si1  1  1.68151569  -0.33518346  0.17843100  1.0
  Si  Si2  1  0.66481654  -0.31848431  0.82156900  1.0
  Si  Si3  1  1.31848431  0.33518346  0.82156900  1.0
  Bi  Bi4  1  0.74884341  0.25115659  0.77379376  1.0
  Bi  Bi5  1  0.25115659  -0.25115659  0.22620624  1.0
  Bi  Bi6  1  0.79548477  0.20451523  0.27464128  1.0
  Bi  Bi7  1  0.20451523  -0.20451523  0.72535872  1.0
  Rh  Rh8  1  1.00000000  0.50000000  0.50000000  1.0
  Rh  Rh9  1  0.50000000  -0.00000000  0.50000000  1.0
  Rh  Rh10  1  1.00756060  -0.00756060  0.21724265  1.0
  Rh  Rh11  1  -0.00756060  0.00756060  0.78275735  1.0
  Rh  Rh12  1  1.28784944  0.28784944  0.50000000  1.0
  Rh  Rh13  1  0.71215056  0.71215056  0.50000000  1.0
