# generated using pymatgen
data_Mn2FeMoO6
_symmetry_space_group_name_H-M   'P 1'
_cell_length_a   5.59373960
_cell_length_b   5.59373960
_cell_length_c   5.59373960
_cell_angle_alpha   53.73033289
_cell_angle_beta   53.73033289
_cell_angle_gamma   53.73033289
_symmetry_Int_Tables_number   1
_chemical_formula_structural   Mn2FeMoO6
_chemical_formula_sum   'Mn2 Fe1 Mo1 O6'
_cell_volume   105.62116681
_cell_formula_units_Z   1
loop_
 _symmetry_equiv_pos_site_id
 _symmetry_equiv_pos_as_xyz
  1  'x, y, z'
loop_
 _atom_site_type_symbol
 _atom_site_label
 _atom_site_symmetry_multiplicity
 _atom_site_fract_x
 _atom_site_fract_y
 _atom_site_fract_z
 _atom_site_occupancy
  Fe  Fe0  1  0.49629258  0.49629258  -0.50370742  1.0
  Mn  Mn1  1  0.69258177  -0.30741823  -0.30741823  1.0
  Mn  Mn2  1  0.20424584  0.20424584  0.20424584  1.0
  Mo  Mo3  1  0.00918991  0.00918991  0.00918991  1.0
  O  O4  1  0.29559729  0.90942020  -0.39060215  1.0
  O  O5  1  0.90942020  0.60939785  -0.70440271  1.0
  O  O6  1  0.60939785  0.29559729  -0.09057980  1.0
  O  O7  1  0.42321872  0.78551285  -0.91175699  1.0
  O  O8  1  0.78551285  0.08824301  -0.57678128  1.0
  O  O9  1  0.08824301  0.42321872  -0.21448715  1.0
