# generated using pymatgen
data_Nb2Te3
_symmetry_space_group_name_H-M   'P 1'
_cell_length_a   7.88150292
_cell_length_b   7.88150292
_cell_length_c   10.61211971
_cell_angle_alpha   58.21922282
_cell_angle_beta   121.78077718
_cell_angle_gamma   152.86083804
_symmetry_Int_Tables_number   1
_chemical_formula_structural   Nb2Te3
_chemical_formula_sum   'Nb4 Te6'
_cell_volume   252.74025911
_cell_formula_units_Z   2
loop_
 _symmetry_equiv_pos_site_id
 _symmetry_equiv_pos_as_xyz
  1  'x, y, z'
loop_
 _atom_site_type_symbol
 _atom_site_label
 _atom_site_symmetry_multiplicity
 _atom_site_fract_x
 _atom_site_fract_y
 _atom_site_fract_z
 _atom_site_occupancy
  Nb  Nb0  1  0.75623339  0.24376661  0.62785058  1.0
  Nb  Nb1  1  1.24376661  -0.24376661  0.37214942  1.0
  Nb  Nb2  1  0.66971373  0.33028627  0.88371349  1.0
  Nb  Nb3  1  1.33028627  -0.33028627  0.11628651  1.0
  Te  Te4  1  0.87675409  -0.87675409  0.34925996  1.0
  Te  Te5  1  0.12324591  -0.12324591  0.65074004  1.0
  Te  Te6  1  0.87302390  0.12697610  0.95782658  1.0
  Te  Te7  1  1.12697610  -0.12697610  0.04217342  1.0
  Te  Te8  1  1.40904134  -0.40904134  0.67404115  1.0
  Te  Te9  1  0.59095866  0.40904134  0.32595885  1.0
