# generated using pymatgen
data_KNaS
_symmetry_space_group_name_H-M   'P 1'
_cell_length_a   7.85260123
_cell_length_b   4.65310060
_cell_length_c   8.45475146
_cell_angle_alpha   90.00000000
_cell_angle_beta   90.00000000
_cell_angle_gamma   90.00000000
_symmetry_Int_Tables_number   1
_chemical_formula_structural   KNaS
_chemical_formula_sum   'K4 Na4 S4'
_cell_volume   308.92768599
_cell_formula_units_Z   4
loop_
 _symmetry_equiv_pos_site_id
 _symmetry_equiv_pos_as_xyz
  1  'x, y, z'
loop_
 _atom_site_type_symbol
 _atom_site_label
 _atom_site_symmetry_multiplicity
 _atom_site_fract_x
 _atom_site_fract_y
 _atom_site_fract_z
 _atom_site_occupancy
  K  K0  1  0.98390760  0.75000000  0.68161521  1.0
  K  K1  1  0.48390760  0.75000000  0.81838479  1.0
  K  K2  1  0.01609240  0.25000000  0.31838479  1.0
  K  K3  1  0.51609240  0.25000000  0.18161521  1.0
  Na  Na4  1  0.85538998  0.75000000  0.07378431  1.0
  Na  Na5  1  0.35538998  0.75000000  0.42621569  1.0
  Na  Na6  1  0.14461002  0.25000000  0.92621569  1.0
  Na  Na7  1  0.64461002  0.25000000  0.57378431  1.0
  S  S8  1  0.71931882  0.75000000  0.39266486  1.0
  S  S9  1  0.21931882  0.75000000  0.10733514  1.0
  S  S10  1  0.28068118  0.25000000  0.60733514  1.0
  S  S11  1  0.78068118  0.25000000  0.89266486  1.0
