# generated using pymatgen
data_MgV4(H4O7)2
_symmetry_space_group_name_H-M   'P 1'
_cell_length_a   8.16606542
_cell_length_b   6.54636225
_cell_length_c   6.37218706
_cell_angle_alpha   101.60499401
_cell_angle_beta   114.26722360
_cell_angle_gamma   83.90037159
_symmetry_Int_Tables_number   1
_chemical_formula_structural   MgV4(H4O7)2
_chemical_formula_sum   'Mg1 V4 H8 O14'
_cell_volume   304.09035323
_cell_formula_units_Z   1
loop_
 _symmetry_equiv_pos_site_id
 _symmetry_equiv_pos_as_xyz
  1  'x, y, z'
loop_
 _atom_site_type_symbol
 _atom_site_label
 _atom_site_symmetry_multiplicity
 _atom_site_fract_x
 _atom_site_fract_y
 _atom_site_fract_z
 _atom_site_occupancy
  O  O0  1  0.96981717  0.29306827  -0.95958380  1.0
  O  O1  1  0.03018283  0.70693173  -0.04041620  1.0
  O  O2  1  0.42275565  0.72582428  -0.93114915  1.0
  O  O3  1  0.57724435  0.27417572  -0.06885085  1.0
  O  O4  1  0.75484026  0.88779139  -0.91957587  1.0
  O  O5  1  0.24515974  0.11220861  -0.08042413  1.0
  O  O6  1  0.99464749  0.62737583  -0.62066159  1.0
  O  O7  1  0.00535251  0.37262417  -0.37933841  1.0
  O  O8  1  0.69065153  0.63378579  -0.47452270  1.0
  O  O9  1  0.30934847  0.36621421  -0.52547730  1.0
  O  O10  1  0.90140557  0.96966216  -0.34993724  1.0
  O  O11  1  0.09859443  0.03033784  -0.65006276  1.0
  O  O12  1  0.42658118  0.86119334  -0.34551312  1.0
  O  O13  1  0.57341882  0.13880666  -0.65448688  1.0
  H  H14  1  0.29840855  0.70935849  -0.95359548  1.0
  H  H15  1  0.70159145  0.29064151  -0.04640452  1.0
  H  H16  1  0.50199467  0.65610039  -0.80154264  1.0
  H  H17  1  0.49800533  0.34389961  -0.19845736  1.0
  H  H18  1  0.32717790  0.91834904  -0.47131940  1.0
  H  H19  1  0.67282210  0.08165096  -0.52868060  1.0
  H  H20  1  0.51082496  0.77926184  -0.40637265  1.0
  H  H21  1  0.48917504  0.22073816  -0.59362735  1.0
  Mg  Mg22  1  0.50000000  -0.00000000  -0.00000000  1.0
  V  V23  1  0.96706192  0.81634001  -0.81052585  1.0
  V  V24  1  0.03293808  0.18365999  -0.18947415  1.0
  V  V25  1  0.90481947  0.66852215  -0.37412225  1.0
  V  V26  1  0.09518053  0.33147785  -0.62587775  1.0
