# generated using pymatgen
data_Ta2Mn4O9
_symmetry_space_group_name_H-M   'P 1'
_cell_length_a   5.35183214
_cell_length_b   5.35183214
_cell_length_c   14.42095801
_cell_angle_alpha   90.00000000
_cell_angle_beta   90.00000000
_cell_angle_gamma   120.00000000
_symmetry_Int_Tables_number   1
_chemical_formula_structural   Ta2Mn4O9
_chemical_formula_sum   'Ta4 Mn8 O18'
_cell_volume   357.70887164
_cell_formula_units_Z   2
loop_
 _symmetry_equiv_pos_site_id
 _symmetry_equiv_pos_as_xyz
  1  'x, y, z'
loop_
 _atom_site_type_symbol
 _atom_site_label
 _atom_site_symmetry_multiplicity
 _atom_site_fract_x
 _atom_site_fract_y
 _atom_site_fract_z
 _atom_site_occupancy
  Ta  Ta0  1  0.00000000  0.00000000  0.14284524  1.0
  Ta  Ta1  1  -0.00000000  -0.00000000  0.64284524  1.0
  Ta  Ta2  1  -0.00000000  0.00000000  0.35715476  1.0
  Ta  Ta3  1  -0.00000000  -0.00000000  0.85715476  1.0
  Mn  Mn4  1  0.33333333  0.66666667  0.01954806  1.0
  Mn  Mn5  1  0.33333333  0.66666667  0.51954806  1.0
  Mn  Mn6  1  0.66666667  0.33333333  0.48045194  1.0
  Mn  Mn7  1  0.66666667  0.33333333  0.98045194  1.0
  Mn  Mn8  1  0.33333333  0.66666667  0.30344164  1.0
  Mn  Mn9  1  0.33333333  0.66666667  0.80344164  1.0
  Mn  Mn10  1  0.66666667  0.33333333  0.19655836  1.0
  Mn  Mn11  1  0.66666667  0.33333333  0.69655836  1.0
  O  O12  1  0.97407465  0.66440785  0.08526853  1.0
  O  O13  1  0.97407465  0.30966680  0.58526853  1.0
  O  O14  1  0.66440785  0.97407465  0.41473147  1.0
  O  O15  1  0.66440785  0.69033320  0.91473147  1.0
  O  O16  1  0.69033320  0.66440785  0.58526853  1.0
  O  O17  1  0.69033320  0.02592535  0.08526853  1.0
  O  O18  1  0.33559215  0.02592535  0.58526853  1.0
  O  O19  1  0.33559215  0.30966680  0.08526853  1.0
  O  O20  1  0.02592535  0.69033320  0.41473147  1.0
  O  O21  1  0.02592535  0.33559215  0.91473147  1.0
  O  O22  1  0.30966680  0.97407465  0.91473147  1.0
  O  O23  1  0.30966680  0.33559215  0.41473147  1.0
  O  O24  1  0.72153239  0.72153239  0.25000000  1.0
  O  O25  1  0.72153239  -0.00000000  0.75000000  1.0
  O  O26  1  -0.00000000  0.72153239  0.75000000  1.0
  O  O27  1  0.00000000  0.27846761  0.25000000  1.0
  O  O28  1  0.27846761  0.27846761  0.75000000  1.0
  O  O29  1  0.27846761  0.00000000  0.25000000  1.0
