# generated using pymatgen
data_LiH6C3BrN2
_symmetry_space_group_name_H-M   'P 1'
_cell_length_a   4.42977712
_cell_length_b   17.30070625
_cell_length_c   9.28254799
_cell_angle_alpha   90.00000000
_cell_angle_beta   98.95026181
_cell_angle_gamma   90.00000000
_symmetry_Int_Tables_number   1
_chemical_formula_structural   LiH6C3BrN2
_chemical_formula_sum   'Li4 H24 C12 Br4 N8'
_cell_volume   702.73629197
_cell_formula_units_Z   4
loop_
 _symmetry_equiv_pos_site_id
 _symmetry_equiv_pos_as_xyz
  1  'x, y, z'
loop_
 _atom_site_type_symbol
 _atom_site_label
 _atom_site_symmetry_multiplicity
 _atom_site_fract_x
 _atom_site_fract_y
 _atom_site_fract_z
 _atom_site_occupancy
  Li  Li0  1  0.26481724  0.56329143  0.05903703  1.0
  Li  Li1  1  0.73518276  0.06329143  0.44096297  1.0
  Li  Li2  1  0.73518276  0.43670857  0.94096297  1.0
  Li  Li3  1  0.26481724  0.93670857  0.55903703  1.0
  H  H4  1  0.21212085  0.85136469  0.89167288  1.0
  H  H5  1  0.78787915  0.35136469  0.60832712  1.0
  H  H6  1  0.78787915  0.14863531  0.10832712  1.0
  H  H7  1  0.21212085  0.64863531  0.39167288  1.0
  H  H8  1  0.25878232  0.91633358  0.04382313  1.0
  H  H9  1  0.74121768  0.41633358  0.45617687  1.0
  H  H10  1  0.74121768  0.08366642  0.95617687  1.0
  H  H11  1  0.25878232  0.58366642  0.54382313  1.0
  H  H12  1  0.55789401  0.90450619  0.93631212  1.0
  H  H13  1  0.44210599  0.40450619  0.56368788  1.0
  H  H14  1  0.44210599  0.09549381  0.06368788  1.0
  H  H15  1  0.55789401  0.59549381  0.43631212  1.0
  H  H16  1  0.82998180  0.78023294  0.25905402  1.0
  H  H17  1  0.17001820  0.28023294  0.24094598  1.0
  H  H18  1  0.17001820  0.21976706  0.74094598  1.0
  H  H19  1  0.82998180  0.71976706  0.75905402  1.0
  H  H20  1  0.87439396  0.87513923  0.18934876  1.0
  H  H21  1  0.12560604  0.37513923  0.31065124  1.0
  H  H22  1  0.12560604  0.12486077  0.81065124  1.0
  H  H23  1  0.87439396  0.62486077  0.68934876  1.0
  H  H24  1  0.57710165  0.85678616  0.29348946  1.0
  H  H25  1  0.42289835  0.35678616  0.20651054  1.0
  H  H26  1  0.42289835  0.14321384  0.70651054  1.0
  H  H27  1  0.57710165  0.64321384  0.79348946  1.0
  C  C28  1  0.37533261  0.87461039  0.98192794  1.0
  C  C29  1  0.62466739  0.37461039  0.51807206  1.0
  C  C30  1  0.62466739  0.12538961  0.01807206  1.0
  C  C31  1  0.37533261  0.62538961  0.48192794  1.0
  C  C32  1  0.70814987  0.83190894  0.21342880  1.0
  C  C33  1  0.29185013  0.33190894  0.28657120  1.0
  C  C34  1  0.29185013  0.16809106  0.78657120  1.0
  C  C35  1  0.70814987  0.66809106  0.71342880  1.0
  C  C36  1  0.39292742  0.74162078  0.06282368  1.0
  C  C37  1  0.60707258  0.24162078  0.43717632  1.0
  C  C38  1  0.60707258  0.25837922  0.93717632  1.0
  C  C39  1  0.39292742  0.75837922  0.56282368  1.0
  Br  Br40  1  0.80685754  0.51572593  0.17789137  1.0
  Br  Br41  1  0.19314246  0.01572593  0.32210863  1.0
  Br  Br42  1  0.19314246  0.48427407  0.82210863  1.0
  Br  Br43  1  0.80685754  0.98427407  0.67789137  1.0
  N  N44  1  0.29983543  0.67800314  0.05077707  1.0
  N  N45  1  0.70016457  0.17800314  0.44922293  1.0
  N  N46  1  0.70016457  0.32199686  0.94922293  1.0
  N  N47  1  0.29983543  0.82199686  0.55077707  1.0
  N  N48  1  0.50659810  0.81154415  0.07766021  1.0
  N  N49  1  0.49340190  0.31154415  0.42233979  1.0
  N  N50  1  0.49340190  0.18845585  0.92233979  1.0
  N  N51  1  0.50659810  0.68845585  0.57766021  1.0
