# generated using pymatgen
data_CdSO3
_symmetry_space_group_name_H-M   'P 1'
_cell_length_a   8.32930000
_cell_length_b   8.32930000
_cell_length_c   8.32930000
_cell_angle_alpha   109.11407337
_cell_angle_beta   109.11407337
_cell_angle_gamma   109.11407337
_symmetry_Int_Tables_number   1
_chemical_formula_structural   CdSO3
_chemical_formula_sum   'Cd6 S6 O18'
_cell_volume   450.62592224
_cell_formula_units_Z   6
loop_
 _symmetry_equiv_pos_site_id
 _symmetry_equiv_pos_as_xyz
  1  'x, y, z'
loop_
 _atom_site_type_symbol
 _atom_site_label
 _atom_site_symmetry_multiplicity
 _atom_site_fract_x
 _atom_site_fract_y
 _atom_site_fract_z
 _atom_site_occupancy
  Cd  Cd0  1  0.68423071  0.85888859  0.17275056  1.0
  Cd  Cd1  1  1.14111141  -0.17275056  0.31576929  1.0
  Cd  Cd2  1  0.82724944  0.31576929  0.14111141  1.0
  Cd  Cd3  1  1.31576929  0.14111141  -0.17275056  1.0
  Cd  Cd4  1  0.85888859  1.17275056  -0.31576929  1.0
  Cd  Cd5  1  1.17275056  0.68423071  -0.14111141  1.0
  S  S6  1  1.52110914  0.85659396  -0.28928561  1.0
  S  S7  1  1.14340604  0.28928561  -0.52110914  1.0
  S  S8  1  1.28928561  -0.52110914  0.14340604  1.0
  S  S9  1  0.47889086  0.14340604  0.28928561  1.0
  S  S10  1  0.85659396  0.71071439  0.52110914  1.0
  S  S11  1  0.71071439  1.52110914  -0.14340604  1.0
  O  O12  1  0.84085271  0.72394831  0.04661060  1.0
  O  O13  1  1.27605169  -0.04661060  0.15914729  1.0
  O  O14  1  0.95338940  0.15914729  0.27605169  1.0
  O  O15  1  1.15914729  0.27605169  -0.04661060  1.0
  O  O16  1  0.72394831  1.04661060  -0.15914729  1.0
  O  O17  1  1.04661060  0.84085271  -0.27605169  1.0
  O  O18  1  0.92522849  0.63015023  0.37487367  1.0
  O  O19  1  0.36984977  0.62512633  0.07477151  1.0
  O  O20  1  0.62512633  1.07477151  -0.63015023  1.0
  O  O21  1  1.07477151  0.36984977  -0.37487367  1.0
  O  O22  1  1.63015023  0.37487367  -0.07477151  1.0
  O  O23  1  1.37487367  -0.07477151  0.63015023  1.0
  O  O24  1  1.47638286  0.81074860  -0.13746658  1.0
  O  O25  1  1.18925140  0.13746658  -0.47638286  1.0
  O  O26  1  1.13746658  -0.47638286  0.18925140  1.0
  O  O27  1  0.52361714  0.18925140  0.13746658  1.0
  O  O28  1  0.81074860  0.86253342  0.47638286  1.0
  O  O29  1  0.86253342  1.47638286  -0.18925140  1.0
