# generated using pymatgen
data_Y2NiGe6
_symmetry_space_group_name_H-M   'P 1'
_cell_length_a   10.91948333
_cell_length_b   10.91948333
_cell_length_c   4.07157521
_cell_angle_alpha   90.00000000
_cell_angle_beta   90.00000000
_cell_angle_gamma   158.87781177
_symmetry_Int_Tables_number   1
_chemical_formula_structural   Y2NiGe6
_chemical_formula_sum   'Y2 Ni1 Ge6'
_cell_volume   174.94474410
_cell_formula_units_Z   1
loop_
 _symmetry_equiv_pos_site_id
 _symmetry_equiv_pos_as_xyz
  1  'x, y, z'
loop_
 _atom_site_type_symbol
 _atom_site_label
 _atom_site_symmetry_multiplicity
 _atom_site_fract_x
 _atom_site_fract_y
 _atom_site_fract_z
 _atom_site_occupancy
  Y  Y0  1  -0.88649559  0.88649559  0.50000000  1.0
  Y  Y1  1  -0.22282289  1.22282289  0.50000000  1.0
  Ni  Ni2  1  -0.44459150  1.44459150  0.00000000  1.0
  Ge  Ge3  1  -0.50106442  1.50106442  0.50000000  1.0
  Ge  Ge4  1  -0.76266369  0.76266369  0.00000000  1.0
  Ge  Ge5  1  -0.33712905  1.33712905  0.00000000  1.0
  Ge  Ge6  1  -0.11883908  1.11883908  0.00000000  1.0
  Ge  Ge7  1  -0.00182773  0.00182773  0.00000000  1.0
  Ge  Ge8  1  -0.61756604  0.61756604  0.50000000  1.0
