# generated using pymatgen
data_RbSb3S5O
_symmetry_space_group_name_H-M   'P 1'
_cell_length_a   8.69958939
_cell_length_b   6.34775953
_cell_length_c   12.01852924
_cell_angle_alpha   74.89347810
_cell_angle_beta   68.72549395
_cell_angle_gamma   98.84117606
_symmetry_Int_Tables_number   1
_chemical_formula_structural   RbSb3S5O
_chemical_formula_sum   'Rb2 Sb6 S10 O2'
_cell_volume   573.91276915
_cell_formula_units_Z   2
loop_
 _symmetry_equiv_pos_site_id
 _symmetry_equiv_pos_as_xyz
  1  'x, y, z'
loop_
 _atom_site_type_symbol
 _atom_site_label
 _atom_site_symmetry_multiplicity
 _atom_site_fract_x
 _atom_site_fract_y
 _atom_site_fract_z
 _atom_site_occupancy
  S  S0  1  -0.87217017  -0.29144032  -0.65171602  1.0
  S  S1  1  -0.12782983  -0.70855968  -0.34828398  1.0
  S  S2  1  -0.61294709  -0.68222337  -0.55166780  1.0
  S  S3  1  -0.38705291  -0.31777663  -0.44833220  1.0
  S  S4  1  -0.47971553  -0.30573629  -0.91295857  1.0
  S  S5  1  -0.52028447  -0.69426371  -0.08704143  1.0
  S  S6  1  -0.87880341  -0.66222055  -0.84783312  1.0
  S  S7  1  -0.12119659  -0.33777945  -0.15216688  1.0
  S  S8  1  -0.20030388  -0.60890021  -0.97471350  1.0
  S  S9  1  -0.79969612  -0.39109979  -0.02528650  1.0
  O  O10  1  -0.84938489  -0.17937358  -1.00199998  1.0
  O  O11  1  -0.15061511  -0.82062642  0.00199998  1.0
  Rb  Rb12  1  -0.14437159  -0.18717068  -0.80916988  1.0
  Rb  Rb13  1  -0.85562841  -0.81282932  -0.19083012  1.0
  Sb  Sb14  1  -0.61124632  -0.29365515  -0.55680986  1.0
  Sb  Sb15  1  -0.38875368  -0.70634485  -0.44319014  1.0
  Sb  Sb16  1  -0.55818322  -0.72293479  -0.86892266  1.0
  Sb  Sb17  1  -0.44181678  -0.27706521  -0.13107734  1.0
  Sb  Sb18  1  -1.01851744  -0.69779942  -0.58666592  1.0
  Sb  Sb19  1  0.01851744  -0.30220058  -0.41333408  1.0
