# generated using pymatgen
data_Cs2MoO4
_symmetry_space_group_name_H-M   'P 1'
_cell_length_a   8.67419970
_cell_length_b   6.73832416
_cell_length_c   11.78607313
_cell_angle_alpha   90.00000000
_cell_angle_beta   90.00000000
_cell_angle_gamma   90.00000000
_symmetry_Int_Tables_number   1
_chemical_formula_structural   Cs2MoO4
_chemical_formula_sum   'Cs8 Mo4 O16'
_cell_volume   688.89090005
_cell_formula_units_Z   4
loop_
 _symmetry_equiv_pos_site_id
 _symmetry_equiv_pos_as_xyz
  1  'x, y, z'
loop_
 _atom_site_type_symbol
 _atom_site_label
 _atom_site_symmetry_multiplicity
 _atom_site_fract_x
 _atom_site_fract_y
 _atom_site_fract_z
 _atom_site_occupancy
  Cs  Cs0  1  0.82423933  0.75000000  0.42483351  1.0
  Cs  Cs1  1  0.32423933  0.75000000  0.07516649  1.0
  Cs  Cs2  1  0.17576067  0.25000000  0.57516649  1.0
  Cs  Cs3  1  0.67576067  0.25000000  0.92483351  1.0
  Cs  Cs4  1  0.49540728  0.75000000  0.70753993  1.0
  Cs  Cs5  1  -0.00459272  0.75000000  0.79246007  1.0
  Cs  Cs6  1  0.50459272  0.25000000  0.29246007  1.0
  Cs  Cs7  1  1.00459272  0.25000000  0.20753993  1.0
  Mo  Mo8  1  0.78097115  0.75000000  0.08361798  1.0
  Mo  Mo9  1  0.28097115  0.75000000  0.41638202  1.0
  Mo  Mo10  1  0.21902885  0.25000000  0.91638202  1.0
  Mo  Mo11  1  0.71902885  0.25000000  0.58361798  1.0
  O  O12  1  0.72262781  0.96709319  0.15911068  1.0
  O  O13  1  0.72262781  0.53290681  0.15911068  1.0
  O  O14  1  0.22262781  0.96709319  0.34088932  1.0
  O  O15  1  0.22262781  0.53290681  0.34088932  1.0
  O  O16  1  0.27737219  0.46709319  0.84088932  1.0
  O  O17  1  0.27737219  0.03290681  0.84088932  1.0
  O  O18  1  0.77737219  0.46709319  0.65911068  1.0
  O  O19  1  0.77737219  0.03290681  0.65911068  1.0
  O  O20  1  0.98457874  0.75000000  0.06758069  1.0
  O  O21  1  0.48457874  0.75000000  0.43241931  1.0
  O  O22  1  0.01542126  0.25000000  0.93241931  1.0
  O  O23  1  0.51542126  0.25000000  0.56758069  1.0
  O  O24  1  0.19170783  0.75000000  0.55335065  1.0
  O  O25  1  0.69170783  0.75000000  0.94664935  1.0
  O  O26  1  0.80829217  0.25000000  0.44664935  1.0
  O  O27  1  0.30829217  0.25000000  0.05335065  1.0
