# generated using pymatgen
data_KGaTe2
_symmetry_space_group_name_H-M   'P 1'
_cell_length_a   8.44757169
_cell_length_b   8.44757169
_cell_length_c   16.95086601
_cell_angle_alpha   82.98983891
_cell_angle_beta   97.01016109
_cell_angle_gamma   89.93806577
_symmetry_Int_Tables_number   1
_chemical_formula_structural   KGaTe2
_chemical_formula_sum   'K8 Ga8 Te16'
_cell_volume   1191.46430348
_cell_formula_units_Z   8
loop_
 _symmetry_equiv_pos_site_id
 _symmetry_equiv_pos_as_xyz
  1  'x, y, z'
loop_
 _atom_site_type_symbol
 _atom_site_label
 _atom_site_symmetry_multiplicity
 _atom_site_fract_x
 _atom_site_fract_y
 _atom_site_fract_z
 _atom_site_occupancy
  K  K0  1  1.65381691  0.22321238  0.11801769  1.0
  K  K1  1  0.77678762  -0.65381691  0.61801769  1.0
  K  K2  1  1.22321238  0.65381691  0.38198231  1.0
  K  K3  1  0.34618309  -0.22321238  0.88198231  1.0
  K  K4  1  1.20415558  0.15095695  0.39428027  1.0
  K  K5  1  0.84904305  -0.20415558  0.89428027  1.0
  K  K6  1  1.15095695  0.20415558  0.10571973  1.0
  K  K7  1  0.79584442  -0.15095695  0.60571973  1.0
  Ga  Ga8  1  0.70944017  -0.08723216  0.33834842  1.0
  Ga  Ga9  1  1.08723216  0.29055983  0.83834842  1.0
  Ga  Ga10  1  0.91276784  -0.29055983  0.16165158  1.0
  Ga  Ga11  1  1.29055983  0.08723216  0.66165158  1.0
  Ga  Ga12  1  0.41780758  -0.29098675  0.16506629  1.0
  Ga  Ga13  1  1.29098675  0.58219242  0.66506629  1.0
  Ga  Ga14  1  0.70901325  -0.58219242  0.33493371  1.0
  Ga  Ga15  1  1.58219242  0.29098675  0.83493371  1.0
  Te  Te16  1  0.63869592  -0.26970166  0.06541890  1.0
  Te  Te17  1  1.26970166  0.36130408  0.56541890  1.0
  Te  Te18  1  0.73029834  -0.36130408  0.43458110  1.0
  Te  Te19  1  1.36130408  0.26970166  0.93458110  1.0
  Te  Te20  1  1.74505007  0.14404391  0.43305686  1.0
  Te  Te21  1  0.85595609  -0.74505007  0.93305686  1.0
  Te  Te22  1  1.14404391  0.74505007  0.06694314  1.0
  Te  Te23  1  0.25494993  -0.14404391  0.56694314  1.0
  Te  Te24  1  0.42550081  -0.05033885  0.25235464  1.0
  Te  Te25  1  1.05033885  0.57449919  0.75235464  1.0
  Te  Te26  1  0.94966115  -0.57449919  0.24764536  1.0
  Te  Te27  1  1.57449919  0.05033885  0.74764536  1.0
  Te  Te28  1  0.94739724  -0.05260276  0.25000000  1.0
  Te  Te29  1  1.05260276  0.05260276  0.75000000  1.0
  Te  Te30  1  1.42298887  0.42298887  0.25000000  1.0
  Te  Te31  1  0.57701113  -0.42298887  0.75000000  1.0
