# generated using pymatgen
data_Al3Pt2
_symmetry_space_group_name_H-M   'P 1'
_cell_length_a   4.13430185
_cell_length_b   4.13430185
_cell_length_c   11.08911336
_cell_angle_alpha   90.00000000
_cell_angle_beta   90.00000000
_cell_angle_gamma   120.00000000
_symmetry_Int_Tables_number   1
_chemical_formula_structural   Al3Pt2
_chemical_formula_sum   'Al6 Pt4'
_cell_volume   164.14657233
_cell_formula_units_Z   2
loop_
 _symmetry_equiv_pos_site_id
 _symmetry_equiv_pos_as_xyz
  1  'x, y, z'
loop_
 _atom_site_type_symbol
 _atom_site_label
 _atom_site_symmetry_multiplicity
 _atom_site_fract_x
 _atom_site_fract_y
 _atom_site_fract_z
 _atom_site_occupancy
  Al  Al0  1  -0.00000000  0.00000000  0.00000000  1.0
  Al  Al1  1  0.00000000  -0.00000000  0.50000000  1.0
  Al  Al2  1  0.00000000  0.00000000  0.77277843  1.0
  Al  Al3  1  0.00000000  -0.00000000  0.22722157  1.0
  Al  Al4  1  0.66666667  0.33333333  0.66529068  1.0
  Al  Al5  1  0.33333333  0.66666667  0.33470932  1.0
  Pt  Pt6  1  0.66666667  0.33333333  0.89682917  1.0
  Pt  Pt7  1  0.33333333  0.66666667  0.10317083  1.0
  Pt  Pt8  1  0.66666667  0.33333333  0.41175855  1.0
  Pt  Pt9  1  0.33333333  0.66666667  0.58824145  1.0
