# generated using pymatgen
data_CsC2N7O6
_symmetry_space_group_name_H-M   'P 1'
_cell_length_a   7.99115278
_cell_length_b   6.33167530
_cell_length_c   10.44826999
_cell_angle_alpha   77.46685343
_cell_angle_beta   85.42098546
_cell_angle_gamma   87.86136453
_symmetry_Int_Tables_number   1
_chemical_formula_structural   CsC2N7O6
_chemical_formula_sum   'Cs2 C4 N14 O12'
_cell_volume   514.30186008
_cell_formula_units_Z   2
loop_
 _symmetry_equiv_pos_site_id
 _symmetry_equiv_pos_as_xyz
  1  'x, y, z'
loop_
 _atom_site_type_symbol
 _atom_site_label
 _atom_site_symmetry_multiplicity
 _atom_site_fract_x
 _atom_site_fract_y
 _atom_site_fract_z
 _atom_site_occupancy
  Cs  Cs0  1  -0.78554425  -0.76958258  -0.15949017  1.0
  Cs  Cs1  1  -0.21445575  -0.23041742  -0.84050983  1.0
  C  C2  1  -0.72054935  -0.66050578  -0.71831784  1.0
  C  C3  1  -0.27945065  -0.33949422  -0.28168216  1.0
  C  C4  1  -0.71163059  -0.48880161  -0.83811810  1.0
  C  C5  1  -0.28836941  -0.51119839  -0.16188190  1.0
  N  N6  1  -0.85845463  -0.82461600  -0.72706881  1.0
  N  N7  1  -0.14154537  -0.17538400  -0.27293119  1.0
  N  N8  1  -0.55141954  -0.78395130  -0.68901389  1.0
  N  N9  1  -0.44858046  -0.21604870  -0.31098611  1.0
  N  N10  1  -0.36536741  -0.76739235  -1.00543403  1.0
  N  N11  1  -0.63463259  -0.23260764  0.00543403  1.0
  N  N12  1  -0.20484751  -0.72886746  -0.99504216  1.0
  N  N13  1  -0.79515249  -0.27113254  -0.00495784  1.0
  N  N14  1  -0.77516025  -0.57522174  -0.58820619  1.0
  N  N15  1  -0.22483975  -0.42477826  -0.41179381  1.0
  N  N16  1  -0.84769520  -0.43273061  -0.90711249  1.0
  N  N17  1  -0.15230480  -0.56726939  -0.09288751  1.0
  N  N18  1  -0.57827093  -0.36702371  -0.88960397  1.0
  N  N19  1  -0.42172907  -0.63297629  -0.11039603  1.0
  O  O20  1  -0.45480543  -1.02196151  -0.31587479  1.0
  O  O21  1  -0.54519457  0.02196151  -0.68412521  1.0
  O  O22  1  -0.83533250  -0.91553384  -0.81870336  1.0
  O  O23  1  -0.16466750  -0.08446616  -0.18129664  1.0
  O  O24  1  -0.97607214  -0.84545179  -0.64359565  1.0
  O  O25  1  -0.02392786  -0.15454821  -0.35640435  1.0
  O  O26  1  -0.73314922  -0.69015950  -0.48552653  1.0
  O  O27  1  -0.26685078  -0.30984050  -0.51447347  1.0
  O  O28  1  -0.43889349  -0.66945613  -0.67240686  1.0
  O  O29  1  -0.56110651  -0.33054387  -0.32759314  1.0
  O  O30  1  -0.85504268  -0.40567154  -0.60334134  1.0
  O  O31  1  -0.14495732  -0.59432846  -0.39665866  1.0
