# generated using pymatgen
data_Ba4P3
_symmetry_space_group_name_H-M   'P 1'
_cell_length_a   12.65418268
_cell_length_b   13.44401332
_cell_length_c   11.34828915
_cell_angle_alpha   90.00000000
_cell_angle_beta   90.00000000
_cell_angle_gamma   90.00000000
_symmetry_Int_Tables_number   1
_chemical_formula_structural   Ba4P3
_chemical_formula_sum   'Ba32 P24'
_cell_volume   1930.60500021
_cell_formula_units_Z   8
loop_
 _symmetry_equiv_pos_site_id
 _symmetry_equiv_pos_as_xyz
  1  'x, y, z'
loop_
 _atom_site_type_symbol
 _atom_site_label
 _atom_site_symmetry_multiplicity
 _atom_site_fract_x
 _atom_site_fract_y
 _atom_site_fract_z
 _atom_site_occupancy
  Ba  Ba0  1  0.12087122  0.62527942  0.50000000  1.0
  Ba  Ba1  1  0.62087122  0.87472058  0.50000000  1.0
  Ba  Ba2  1  0.87912878  0.37472058  0.50000000  1.0
  Ba  Ba3  1  0.37912878  0.12527942  0.50000000  1.0
  Ba  Ba4  1  0.27457210  0.58103377  0.00000000  1.0
  Ba  Ba5  1  0.77457210  0.91896623  0.00000000  1.0
  Ba  Ba6  1  0.72542790  0.41896623  0.00000000  1.0
  Ba  Ba7  1  0.22542790  0.08103377  0.00000000  1.0
  Ba  Ba8  1  0.10640742  0.79477508  0.00000000  1.0
  Ba  Ba9  1  0.60640742  0.70522492  0.00000000  1.0
  Ba  Ba10  1  0.89359258  0.20522492  0.00000000  1.0
  Ba  Ba11  1  0.39359258  0.29477508  0.00000000  1.0
  Ba  Ba12  1  0.50000000  0.00000000  0.81970124  1.0
  Ba  Ba13  1  0.50000000  0.00000000  0.18029876  1.0
  Ba  Ba14  1  0.00000000  0.50000000  0.81970124  1.0
  Ba  Ba15  1  0.00000000  0.50000000  0.18029876  1.0
  Ba  Ba16  1  0.16888842  0.93152572  0.68063920  1.0
  Ba  Ba17  1  0.16888842  0.93152572  0.31936080  1.0
  Ba  Ba18  1  0.66888842  0.56847428  0.68063920  1.0
  Ba  Ba19  1  0.66888842  0.56847428  0.31936080  1.0
  Ba  Ba20  1  0.83111158  0.06847428  0.68063920  1.0
  Ba  Ba21  1  0.83111158  0.06847428  0.31936080  1.0
  Ba  Ba22  1  0.33111158  0.43152572  0.68063920  1.0
  Ba  Ba23  1  0.33111158  0.43152572  0.31936080  1.0
  Ba  Ba24  1  0.40056543  0.73664555  0.71577106  1.0
  Ba  Ba25  1  0.40056543  0.73664555  0.28422894  1.0
  Ba  Ba26  1  0.90056543  0.76335445  0.71577106  1.0
  Ba  Ba27  1  0.90056543  0.76335445  0.28422894  1.0
  Ba  Ba28  1  0.59943457  0.26335445  0.71577106  1.0
  Ba  Ba29  1  0.59943457  0.26335445  0.28422894  1.0
  Ba  Ba30  1  0.09943457  0.23664555  0.71577106  1.0
  Ba  Ba31  1  0.09943457  0.23664555  0.28422894  1.0
  P  P32  1  0.50000000  0.50000000  0.89870978  1.0
  P  P33  1  0.50000000  0.50000000  0.10129022  1.0
  P  P34  1  0.00000000  0.00000000  0.89870978  1.0
  P  P35  1  0.00000000  0.00000000  0.10129022  1.0
  P  P36  1  0.35979131  0.86412495  0.00000000  1.0
  P  P37  1  0.85979131  0.63587505  0.00000000  1.0
  P  P38  1  0.64020869  0.13587505  0.00000000  1.0
  P  P39  1  0.14020869  0.36412495  0.00000000  1.0
  P  P40  1  0.36161003  0.88698485  0.50000000  1.0
  P  P41  1  0.86161003  0.61301515  0.50000000  1.0
  P  P42  1  0.63838997  0.11301515  0.50000000  1.0
  P  P43  1  0.13838997  0.38698485  0.50000000  1.0
  P  P44  1  0.46546745  0.57808946  0.50000000  1.0
  P  P45  1  0.96546745  0.92191054  0.50000000  1.0
  P  P46  1  0.53453255  0.42191054  0.50000000  1.0
  P  P47  1  0.03453255  0.07808946  0.50000000  1.0
  P  P48  1  0.16158779  0.67979791  0.76378312  1.0
  P  P49  1  0.16158779  0.67979791  0.23621688  1.0
  P  P50  1  0.66158779  0.82020209  0.76378312  1.0
  P  P51  1  0.66158779  0.82020209  0.23621688  1.0
  P  P52  1  0.83841221  0.32020209  0.76378312  1.0
  P  P53  1  0.83841221  0.32020209  0.23621688  1.0
  P  P54  1  0.33841221  0.17979791  0.76378312  1.0
  P  P55  1  0.33841221  0.17979791  0.23621688  1.0
