# generated using pymatgen
data_NaLiCO3
_symmetry_space_group_name_H-M   'P 1'
_cell_length_a   8.38904018
_cell_length_b   8.38904018
_cell_length_c   3.41384199
_cell_angle_alpha   90.00000000
_cell_angle_beta   90.00000000
_cell_angle_gamma   120.00000000
_symmetry_Int_Tables_number   1
_chemical_formula_structural   NaLiCO3
_chemical_formula_sum   'Na3 Li3 C3 O9'
_cell_volume   208.06479249
_cell_formula_units_Z   3
loop_
 _symmetry_equiv_pos_site_id
 _symmetry_equiv_pos_as_xyz
  1  'x, y, z'
loop_
 _atom_site_type_symbol
 _atom_site_label
 _atom_site_symmetry_multiplicity
 _atom_site_fract_x
 _atom_site_fract_y
 _atom_site_fract_z
 _atom_site_occupancy
  Na  Na0  1  -0.01720110  0.66509487  0.50000000  1.0
  Na  Na1  1  0.68229597  1.01720110  0.50000000  1.0
  Na  Na2  1  0.33490513  0.31770403  0.50000000  1.0
  Li  Li3  1  0.33168876  0.95191263  -0.00000000  1.0
  Li  Li4  1  0.62022387  0.66831124  0.00000000  1.0
  Li  Li5  1  0.04808737  0.37977613  0.00000000  1.0
  C  C6  1  0.66666667  0.33333333  0.00000000  1.0
  C  C7  1  0.33333333  0.66666667  0.50000000  1.0
  C  C8  1  0.00000000  0.00000000  0.00000000  1.0
  O  O9  1  0.33247195  0.82093510  0.50000000  1.0
  O  O10  1  0.48846316  0.66752805  0.50000000  1.0
  O  O11  1  0.17906490  0.51153684  0.50000000  1.0
  O  O12  1  0.08132857  0.90283191  -0.00000000  1.0
  O  O13  1  0.82150333  0.91867143  -0.00000000  1.0
  O  O14  1  0.09716809  0.17849667  -0.00000000  1.0
  O  O15  1  0.57375910  0.41909872  0.00000000  1.0
  O  O16  1  0.84533962  0.42624090  -0.00000000  1.0
  O  O17  1  0.58090128  0.15466038  -0.00000000  1.0
