# generated using pymatgen
data_Lu5Ni2Bi
_symmetry_space_group_name_H-M   'P 1'
_cell_length_a   8.57535326
_cell_length_b   8.57535326
_cell_length_c   8.57535326
_cell_angle_alpha   128.37744620
_cell_angle_beta   128.37744620
_cell_angle_gamma   76.01437312
_symmetry_Int_Tables_number   1
_chemical_formula_structural   Lu5Ni2Bi
_chemical_formula_sum   'Lu10 Ni4 Bi2'
_cell_volume   376.78969754
_cell_formula_units_Z   2
loop_
 _symmetry_equiv_pos_site_id
 _symmetry_equiv_pos_as_xyz
  1  'x, y, z'
loop_
 _atom_site_type_symbol
 _atom_site_label
 _atom_site_symmetry_multiplicity
 _atom_site_fract_x
 _atom_site_fract_y
 _atom_site_fract_z
 _atom_site_occupancy
  Lu  Lu0  1  1.21005001  0.71005001  1.18725716  1.0
  Lu  Lu1  1  0.47720715  0.97720715  1.18725716  1.0
  Lu  Lu2  1  1.02279285  1.21005001  1.50000000  1.0
  Lu  Lu3  1  0.28994999  0.47720715  0.50000000  1.0
  Lu  Lu4  1  0.71005001  0.52279285  0.50000000  1.0
  Lu  Lu5  1  0.97720715  0.78994999  1.50000000  1.0
  Lu  Lu6  1  0.52279285  1.02279285  0.81274284  1.0
  Lu  Lu7  1  0.78994999  0.28994999  0.81274284  1.0
  Lu  Lu8  1  0.00000000  0.00000000  0.00000000  1.0
  Lu  Lu9  1  0.50000000  0.50000000  1.00000000  1.0
  Ni  Ni10  1  0.86713099  0.36713099  1.23426198  1.0
  Ni  Ni11  1  0.63286901  0.86713099  1.50000000  1.0
  Ni  Ni12  1  0.36713099  0.13286901  0.50000000  1.0
  Ni  Ni13  1  0.13286901  0.63286901  0.76573802  1.0
  Bi  Bi14  1  0.75000000  0.75000000  1.00000000  1.0
  Bi  Bi15  1  0.25000000  0.25000000  -0.00000000  1.0
