# generated using pymatgen
data_Ag2Pd3S
_symmetry_space_group_name_H-M   'P 1'
_cell_length_a   7.33253034
_cell_length_b   7.33253034
_cell_length_c   7.33253034
_cell_angle_alpha   90.00000000
_cell_angle_beta   90.00000000
_cell_angle_gamma   90.00000000
_symmetry_Int_Tables_number   1
_chemical_formula_structural   Ag2Pd3S
_chemical_formula_sum   'Ag8 Pd12 S4'
_cell_volume   394.24083513
_cell_formula_units_Z   4
loop_
 _symmetry_equiv_pos_site_id
 _symmetry_equiv_pos_as_xyz
  1  'x, y, z'
loop_
 _atom_site_type_symbol
 _atom_site_label
 _atom_site_symmetry_multiplicity
 _atom_site_fract_x
 _atom_site_fract_y
 _atom_site_fract_z
 _atom_site_occupancy
  Ag  Ag0  1  0.44162607  0.94162607  0.55837393  1.0
  Ag  Ag1  1  0.19162607  0.80837393  0.30837393  1.0
  Ag  Ag2  1  0.69162607  0.69162607  0.69162607  1.0
  Ag  Ag3  1  0.94162607  0.55837393  0.44162607  1.0
  Ag  Ag4  1  0.55837393  0.44162607  0.94162607  1.0
  Ag  Ag5  1  0.30837393  0.19162607  0.80837393  1.0
  Ag  Ag6  1  0.80837393  0.30837393  0.19162607  1.0
  Ag  Ag7  1  0.05837393  0.05837393  0.05837393  1.0
  Pd  Pd8  1  0.37500000  0.80529919  0.94470081  1.0
  Pd  Pd9  1  0.12500000  0.19470081  0.44470081  1.0
  Pd  Pd10  1  0.62500000  0.30529919  0.55529919  1.0
  Pd  Pd11  1  0.87500000  0.69470081  0.05529919  1.0
  Pd  Pd12  1  0.30529919  0.55529919  0.62500000  1.0
  Pd  Pd13  1  0.05529919  0.87500000  0.69470081  1.0
  Pd  Pd14  1  0.55529919  0.62500000  0.30529919  1.0
  Pd  Pd15  1  0.80529919  0.94470081  0.37500000  1.0
  Pd  Pd16  1  0.69470081  0.05529919  0.87500000  1.0
  Pd  Pd17  1  0.44470081  0.12500000  0.19470081  1.0
  Pd  Pd18  1  0.94470081  0.37500000  0.80529919  1.0
  Pd  Pd19  1  0.19470081  0.44470081  0.12500000  1.0
  S  S20  1  0.12500000  0.62500000  0.87500000  1.0
  S  S21  1  0.87500000  0.12500000  0.62500000  1.0
  S  S22  1  0.37500000  0.37500000  0.37500000  1.0
  S  S23  1  0.62500000  0.87500000  0.12500000  1.0
