# generated using pymatgen
data_Ca7(H6Cl)2
_symmetry_space_group_name_H-M   'P 1'
_cell_length_a   9.32176294
_cell_length_b   9.32176294
_cell_length_c   3.68217806
_cell_angle_alpha   90.00000000
_cell_angle_beta   90.00000000
_cell_angle_gamma   120.00000000
_symmetry_Int_Tables_number   1
_chemical_formula_structural   Ca7(H6Cl)2
_chemical_formula_sum   'Ca7 H12 Cl2'
_cell_volume   277.09680996
_cell_formula_units_Z   1
loop_
 _symmetry_equiv_pos_site_id
 _symmetry_equiv_pos_as_xyz
  1  'x, y, z'
loop_
 _atom_site_type_symbol
 _atom_site_label
 _atom_site_symmetry_multiplicity
 _atom_site_fract_x
 _atom_site_fract_y
 _atom_site_fract_z
 _atom_site_occupancy
  Ca  Ca0  1  0.44749202  0.38505906  0.50000000  1.0
  Ca  Ca1  1  0.93756704  0.55250798  0.50000000  1.0
  Ca  Ca2  1  0.61494094  0.06243296  0.50000000  1.0
  Ca  Ca3  1  0.02697719  0.25567896  0.00000000  1.0
  Ca  Ca4  1  0.22870177  0.97302281  0.00000000  1.0
  Ca  Ca5  1  0.74432104  0.77129823  0.00000000  1.0
  Ca  Ca6  1  0.33333333  0.66666667  0.00000000  1.0
  H  H7  1  0.72418533  0.61898735  0.50000000  1.0
  H  H8  1  0.89480202  0.27581467  0.50000000  1.0
  H  H9  1  0.38101265  0.10519798  0.50000000  1.0
  H  H10  1  0.23207779  0.45215254  0.50000000  1.0
  H  H11  1  0.22007475  0.76792221  0.50000000  1.0
  H  H12  1  0.54784746  0.77992525  0.50000000  1.0
  H  H13  1  0.49078781  0.54906861  0.00000000  1.0
  H  H14  1  0.05828080  0.50921219  0.00000000  1.0
  H  H15  1  0.45093139  0.94171920  0.00000000  1.0
  H  H16  1  0.27450925  0.24387439  0.00000000  1.0
  H  H17  1  0.96936514  0.72549075  0.00000000  1.0
  H  H18  1  0.75612561  0.03063486  0.00000000  1.0
  Cl  Cl19  1  0.00000000  0.00000000  0.50000000  1.0
  Cl  Cl20  1  0.66666667  0.33333333  0.00000000  1.0
