# generated using pymatgen
data_Gd2Al3Ge4
_symmetry_space_group_name_H-M   'P 1'
_cell_length_a   8.03208727
_cell_length_b   8.03208727
_cell_length_c   7.94947890
_cell_angle_alpha   90.00000000
_cell_angle_beta   90.00000000
_cell_angle_gamma   136.02626900
_symmetry_Int_Tables_number   1
_chemical_formula_structural   Gd2Al3Ge4
_chemical_formula_sum   'Gd4 Al6 Ge8'
_cell_volume   356.09058096
_cell_formula_units_Z   2
loop_
 _symmetry_equiv_pos_site_id
 _symmetry_equiv_pos_as_xyz
  1  'x, y, z'
loop_
 _atom_site_type_symbol
 _atom_site_label
 _atom_site_symmetry_multiplicity
 _atom_site_fract_x
 _atom_site_fract_y
 _atom_site_fract_z
 _atom_site_occupancy
  Gd  Gd0  1  -0.38519744  0.38519744  0.08037686  1.0
  Gd  Gd1  1  0.11480256  0.88519744  0.41962314  1.0
  Gd  Gd2  1  0.38519744  0.61480256  0.91962314  1.0
  Gd  Gd3  1  -0.11480256  0.11480256  0.58037686  1.0
  Al  Al4  1  0.53380521  0.96619479  0.25000000  1.0
  Al  Al5  1  0.03380521  0.46619479  0.25000000  1.0
  Al  Al6  1  -0.03380521  0.53380521  0.75000000  1.0
  Al  Al7  1  0.46619479  1.03380521  0.75000000  1.0
  Al  Al8  1  -0.50000000  0.50000000  0.50000000  1.0
  Al  Al9  1  -0.00000000  1.00000000  0.00000000  1.0
  Ge  Ge10  1  -0.31491247  0.31491247  0.44741039  1.0
  Ge  Ge11  1  0.18508753  0.81491247  0.05258961  1.0
  Ge  Ge12  1  0.31491247  0.68508753  0.55258961  1.0
  Ge  Ge13  1  -0.18508753  0.18508753  0.94741039  1.0
  Ge  Ge14  1  0.70407360  0.79592640  0.25000000  1.0
  Ge  Ge15  1  0.20407360  0.29592640  0.25000000  1.0
  Ge  Ge16  1  -0.20407360  0.70407360  0.75000000  1.0
  Ge  Ge17  1  0.29592640  1.20407360  0.75000000  1.0
