# generated using pymatgen
data_Tl3PbI5
_symmetry_space_group_name_H-M   'P 1'
_cell_length_a   9.07420997
_cell_length_b   9.85739066
_cell_length_c   16.65484523
_cell_angle_alpha   90.00000000
_cell_angle_beta   90.00000000
_cell_angle_gamma   90.00000000
_symmetry_Int_Tables_number   1
_chemical_formula_structural   Tl3PbI5
_chemical_formula_sum   'Tl12 Pb4 I20'
_cell_volume   1489.74313869
_cell_formula_units_Z   4
loop_
 _symmetry_equiv_pos_site_id
 _symmetry_equiv_pos_as_xyz
  1  'x, y, z'
loop_
 _atom_site_type_symbol
 _atom_site_label
 _atom_site_symmetry_multiplicity
 _atom_site_fract_x
 _atom_site_fract_y
 _atom_site_fract_z
 _atom_site_occupancy
  Tl  Tl0  1  0.42202359  0.33230745  0.52517721  1.0
  Tl  Tl1  1  0.92202359  0.16769255  0.47482279  1.0
  Tl  Tl2  1  0.57797641  0.83230745  0.97482279  1.0
  Tl  Tl3  1  0.07797641  0.66769255  0.02517721  1.0
  Tl  Tl4  1  0.05949457  0.59010217  0.72237021  1.0
  Tl  Tl5  1  0.55949457  0.90989783  0.27762979  1.0
  Tl  Tl6  1  0.94050543  0.09010217  0.77762979  1.0
  Tl  Tl7  1  0.44050543  0.40989783  0.22237021  1.0
  Tl  Tl8  1  0.77549183  0.70364741  0.55272810  1.0
  Tl  Tl9  1  0.27549183  0.79635259  0.44727190  1.0
  Tl  Tl10  1  0.22450817  0.20364741  0.94727190  1.0
  Tl  Tl11  1  0.72450817  0.29635259  0.05272810  1.0
  Pb  Pb12  1  0.42285048  0.94512726  0.70659831  1.0
  Pb  Pb13  1  0.92285048  0.55487274  0.29340169  1.0
  Pb  Pb14  1  0.57714952  0.44512726  0.79340169  1.0
  Pb  Pb15  1  0.07714952  0.05487274  0.20659831  1.0
  I  I16  1  0.41955105  0.50463718  0.96778952  1.0
  I  I17  1  0.91955105  0.99536282  0.03221048  1.0
  I  I18  1  0.58044895  0.00463718  0.53221048  1.0
  I  I19  1  0.08044895  0.49536282  0.46778952  1.0
  I  I20  1  0.41167978  0.64248247  0.63538531  1.0
  I  I21  1  0.91167978  0.85751753  0.36461469  1.0
  I  I22  1  0.58832022  0.14248247  0.86461469  1.0
  I  I23  1  0.08832022  0.35751753  0.13538531  1.0
  I  I24  1  0.27481098  0.28290290  0.72317628  1.0
  I  I25  1  0.77481098  0.21709710  0.27682372  1.0
  I  I26  1  0.72518902  0.78290290  0.77682372  1.0
  I  I27  1  0.22518902  0.71709710  0.22317628  1.0
  I  I28  1  0.22076150  0.85340418  0.85428488  1.0
  I  I29  1  0.72076150  0.64659582  0.14571512  1.0
  I  I30  1  0.77923850  0.35340418  0.64571512  1.0
  I  I31  1  0.27923850  0.14659582  0.35428488  1.0
  I  I32  1  0.09519253  0.93877262  0.60903715  1.0
  I  I33  1  0.59519253  0.56122738  0.39096285  1.0
  I  I34  1  0.90480747  0.43877262  0.89096285  1.0
  I  I35  1  0.40480747  0.06122738  0.10903715  1.0
