# generated using pymatgen
data_BaMoSeO6
_symmetry_space_group_name_H-M   'P 1'
_cell_length_a   6.34963621
_cell_length_b   10.33018539
_cell_length_c   8.55680141
_cell_angle_alpha   90.00000000
_cell_angle_beta   94.83880993
_cell_angle_gamma   90.00000000
_symmetry_Int_Tables_number   1
_chemical_formula_structural   BaMoSeO6
_chemical_formula_sum   'Ba4 Mo4 Se4 O24'
_cell_volume   559.26520534
_cell_formula_units_Z   4
loop_
 _symmetry_equiv_pos_site_id
 _symmetry_equiv_pos_as_xyz
  1  'x, y, z'
loop_
 _atom_site_type_symbol
 _atom_site_label
 _atom_site_symmetry_multiplicity
 _atom_site_fract_x
 _atom_site_fract_y
 _atom_site_fract_z
 _atom_site_occupancy
  Ba  Ba0  1  0.76616519  0.80996907  0.48857501  1.0
  Ba  Ba1  1  0.76616519  0.69003093  0.98857501  1.0
  Ba  Ba2  1  0.23383481  0.30996907  0.01142499  1.0
  Ba  Ba3  1  0.23383481  0.19003093  0.51142499  1.0
  Mo  Mo4  1  0.72586387  0.42085575  0.27171908  1.0
  Mo  Mo5  1  0.72586387  0.07914425  0.77171908  1.0
  Mo  Mo6  1  0.27413613  0.92085575  0.22828092  1.0
  Mo  Mo7  1  0.27413613  0.57914425  0.72828092  1.0
  Se  Se8  1  0.79427416  0.10356057  0.17624143  1.0
  Se  Se9  1  0.79427416  0.39643943  0.67624143  1.0
  Se  Se10  1  0.20572584  0.60356057  0.32375857  1.0
  Se  Se11  1  0.20572584  0.89643943  0.82375857  1.0
  O  O12  1  0.94105440  0.98333541  0.27431359  1.0
  O  O13  1  0.94105440  0.51666459  0.77431359  1.0
  O  O14  1  0.05894560  0.48333541  0.22568641  1.0
  O  O15  1  0.05894560  0.01666459  0.72568641  1.0
  O  O16  1  0.91928958  0.24010697  0.25910757  1.0
  O  O17  1  0.91928958  0.25989303  0.75910757  1.0
  O  O18  1  0.08071042  0.74010697  0.24089243  1.0
  O  O19  1  0.08071042  0.75989303  0.74089243  1.0
  O  O20  1  0.89502892  0.38419018  0.49604233  1.0
  O  O21  1  0.89502892  0.11580982  0.99604233  1.0
  O  O22  1  0.10497108  0.88419018  0.00395767  1.0
  O  O23  1  0.10497108  0.61580982  0.50395767  1.0
  O  O24  1  0.68162579  0.41408162  0.06477214  1.0
  O  O25  1  0.68162579  0.08591838  0.56477214  1.0
  O  O26  1  0.31837421  0.91408162  0.43522786  1.0
  O  O27  1  0.31837421  0.58591838  0.93522786  1.0
  O  O28  1  0.49466218  0.34433712  0.32841250  1.0
  O  O29  1  0.49466218  0.15566288  0.82841250  1.0
  O  O30  1  0.50533782  0.84433712  0.17158750  1.0
  O  O31  1  0.50533782  0.65566288  0.67158750  1.0
  O  O32  1  0.31466116  0.08664621  0.19070297  1.0
  O  O33  1  0.31466116  0.41335379  0.69070297  1.0
  O  O34  1  0.68533884  0.58664621  0.30929703  1.0
  O  O35  1  0.68533884  0.91335379  0.80929703  1.0
