# generated using pymatgen
data_Sn(PbO2)2
_symmetry_space_group_name_H-M   'P 1'
_cell_length_a   8.91466642
_cell_length_b   8.91466642
_cell_length_c   6.48402015
_cell_angle_alpha   90.00000000
_cell_angle_beta   90.00000000
_cell_angle_gamma   90.00000000
_symmetry_Int_Tables_number   1
_chemical_formula_structural   Sn(PbO2)2
_chemical_formula_sum   'Sn4 Pb8 O16'
_cell_volume   515.29336463
_cell_formula_units_Z   4
loop_
 _symmetry_equiv_pos_site_id
 _symmetry_equiv_pos_as_xyz
  1  'x, y, z'
loop_
 _atom_site_type_symbol
 _atom_site_label
 _atom_site_symmetry_multiplicity
 _atom_site_fract_x
 _atom_site_fract_y
 _atom_site_fract_z
 _atom_site_occupancy
  Sn  Sn0  1  0.50000000  0.00000000  0.75000000  1.0
  Sn  Sn1  1  0.50000000  0.00000000  0.25000000  1.0
  Sn  Sn2  1  0.00000000  0.50000000  0.75000000  1.0
  Sn  Sn3  1  0.00000000  0.50000000  0.25000000  1.0
  Pb  Pb4  1  0.33676485  0.64266842  0.00000000  1.0
  Pb  Pb5  1  0.83676485  0.85733158  0.00000000  1.0
  Pb  Pb6  1  0.35733158  0.33676485  0.50000000  1.0
  Pb  Pb7  1  0.85733158  0.16323515  0.50000000  1.0
  Pb  Pb8  1  0.66323515  0.35733158  0.00000000  1.0
  Pb  Pb9  1  0.16323515  0.14266842  0.00000000  1.0
  Pb  Pb10  1  0.64266842  0.66323515  0.50000000  1.0
  Pb  Pb11  1  0.14266842  0.83676485  0.50000000  1.0
  O  O12  1  0.37630189  0.90453453  0.00000000  1.0
  O  O13  1  0.87630189  0.59546547  0.00000000  1.0
  O  O14  1  0.09546547  0.37630189  0.50000000  1.0
  O  O15  1  0.59546547  0.12369811  0.50000000  1.0
  O  O16  1  0.62369811  0.09546547  0.00000000  1.0
  O  O17  1  0.12369811  0.40453453  0.00000000  1.0
  O  O18  1  0.90453453  0.62369811  0.50000000  1.0
  O  O19  1  0.40453453  0.87630189  0.50000000  1.0
  O  O20  1  0.33505289  0.16494711  0.75000000  1.0
  O  O21  1  0.33505289  0.16494711  0.25000000  1.0
  O  O22  1  0.83505289  0.33505289  0.75000000  1.0
  O  O23  1  0.83505289  0.33505289  0.25000000  1.0
  O  O24  1  0.66494711  0.83505289  0.75000000  1.0
  O  O25  1  0.66494711  0.83505289  0.25000000  1.0
  O  O26  1  0.16494711  0.66494711  0.75000000  1.0
  O  O27  1  0.16494711  0.66494711  0.25000000  1.0
