# generated using pymatgen
data_B2Pb2O5
_symmetry_space_group_name_H-M   'P 1'
_cell_length_a   7.15459661
_cell_length_b   7.95729933
_cell_length_c   7.35074177
_cell_angle_alpha   76.52966421
_cell_angle_beta   72.93470824
_cell_angle_gamma   76.68190808
_symmetry_Int_Tables_number   1
_chemical_formula_structural   B2Pb2O5
_chemical_formula_sum   'B6 Pb6 O15'
_cell_volume   383.10387860
_cell_formula_units_Z   3
loop_
 _symmetry_equiv_pos_site_id
 _symmetry_equiv_pos_as_xyz
  1  'x, y, z'
loop_
 _atom_site_type_symbol
 _atom_site_label
 _atom_site_symmetry_multiplicity
 _atom_site_fract_x
 _atom_site_fract_y
 _atom_site_fract_z
 _atom_site_occupancy
  B  B0  1  -0.21536983  -0.49275354  -0.09580648  1.0
  B  B1  1  -0.20846149  -0.16951264  -0.10425737  1.0
  B  B2  1  -0.88666734  -0.02000717  -0.28005456  1.0
  B  B3  1  -0.72878941  -0.81123812  -0.57470793  1.0
  B  B4  1  -0.87548641  -0.71236387  -0.24653733  1.0
  B  B5  1  -0.17928195  -0.40103650  -0.80236104  1.0
  Pb  Pb6  1  -0.68852892  -0.00860585  -0.93794708  1.0
  Pb  Pb7  1  -0.25815389  -0.86539380  -0.89754261  1.0
  Pb  Pb8  1  -0.43954326  -0.18076380  -0.42232483  1.0
  Pb  Pb9  1  -0.87829739  -0.34159593  -0.48981333  1.0
  Pb  Pb10  1  -0.70431747  -0.49910845  -0.02273035  1.0
  Pb  Pb11  1  -0.34887722  -0.66559720  -0.41368433  1.0
  O  O12  1  -0.34830929  -0.60362947  -0.11049773  1.0
  O  O13  1  -0.73344066  -0.74148158  -0.12843353  1.0
  O  O14  1  -0.72489434  -0.11459772  -0.19037842  1.0
  O  O15  1  -0.62303460  -0.78056436  -0.76345560  1.0
  O  O16  1  -0.79531036  -0.97032140  -0.49536032  1.0
  O  O17  1  -0.98760642  -0.85649547  -0.20136090  1.0
  O  O18  1  -0.20542050  -0.52917890  -0.88988863  1.0
  O  O19  1  -0.35721811  -0.00781755  -0.08748676  1.0
  O  O20  1  -0.01128954  -0.53875591  -0.22364685  1.0
  O  O21  1  -0.29227215  -0.30494761  -0.15309495  1.0
  O  O22  1  -0.15830094  -0.23604097  -0.91242880  1.0
  O  O23  1  -0.17436911  -0.43805718  -0.61219327  1.0
  O  O24  1  -0.02975190  -0.13459422  -0.26291563  1.0
  O  O25  1  -0.58877917  -0.41705917  -0.37198692  1.0
  O  O26  1  -0.76562832  -0.68658163  -0.45780446  1.0
