# generated using pymatgen
data_K2I2ClO6
_symmetry_space_group_name_H-M   'P 1'
_cell_length_a   14.63824102
_cell_length_b   6.66182573
_cell_length_c   8.98986503
_cell_angle_alpha   90.00000000
_cell_angle_beta   90.00000000
_cell_angle_gamma   90.00000000
_symmetry_Int_Tables_number   1
_chemical_formula_structural   K2I2ClO6
_chemical_formula_sum   'K8 I8 Cl4 O24'
_cell_volume   876.66835978
_cell_formula_units_Z   4
loop_
 _symmetry_equiv_pos_site_id
 _symmetry_equiv_pos_as_xyz
  1  'x, y, z'
loop_
 _atom_site_type_symbol
 _atom_site_label
 _atom_site_symmetry_multiplicity
 _atom_site_fract_x
 _atom_site_fract_y
 _atom_site_fract_z
 _atom_site_occupancy
  K  K0  1  0.48868149  0.01963460  0.50154598  1.0
  K  K1  1  0.98868149  0.98036540  0.50154598  1.0
  K  K2  1  0.51131851  0.98036540  0.00154598  1.0
  K  K3  1  0.01131851  0.01963460  0.00154598  1.0
  K  K4  1  0.26293770  0.54791007  0.50608587  1.0
  K  K5  1  0.76293770  0.45208993  0.50608587  1.0
  K  K6  1  0.73706230  0.45208993  0.00608587  1.0
  K  K7  1  0.23706230  0.54791007  0.00608587  1.0
  O  O8  1  0.44957746  0.47123291  0.55750863  1.0
  O  O9  1  0.94957746  0.52876709  0.55750863  1.0
  O  O10  1  0.55042254  0.52876709  0.05750863  1.0
  O  O11  1  0.05042254  0.47123291  0.05750863  1.0
  O  O12  1  0.38387839  0.19884548  0.82455434  1.0
  O  O13  1  0.88387839  0.80115452  0.82455434  1.0
  O  O14  1  0.61612161  0.80115452  0.32455434  1.0
  O  O15  1  0.11612161  0.19884548  0.32455434  1.0
  O  O16  1  0.37163231  0.68870921  0.80865507  1.0
  O  O17  1  0.87163231  0.31129079  0.80865507  1.0
  O  O18  1  0.62836769  0.31129079  0.30865507  1.0
  O  O19  1  0.12836769  0.68870921  0.30865507  1.0
  O  O20  1  0.30054789  0.01201054  0.56049545  1.0
  O  O21  1  0.80054789  0.98798946  0.56049545  1.0
  O  O22  1  0.69945211  0.98798946  0.06049545  1.0
  O  O23  1  0.19945211  0.01201054  0.06049545  1.0
  O  O24  1  0.04845877  0.23777212  0.74062883  1.0
  O  O25  1  0.54845877  0.76222788  0.74062883  1.0
  O  O26  1  0.95154123  0.76222788  0.24062883  1.0
  O  O27  1  0.45154123  0.23777212  0.24062883  1.0
  O  O28  1  0.20398197  0.29664498  0.75189067  1.0
  O  O29  1  0.70398197  0.70335502  0.75189067  1.0
  O  O30  1  0.79601803  0.70335502  0.25189067  1.0
  O  O31  1  0.29601803  0.29664498  0.25189067  1.0
  I  I32  1  0.47264130  0.52341078  0.75838367  1.0
  I  I33  1  0.97264130  0.47658922  0.75838367  1.0
  I  I34  1  0.52735870  0.47658922  0.25838367  1.0
  I  I35  1  0.02735870  0.52341078  0.25838367  1.0
  I  I36  1  0.27738800  0.05801272  0.76222390  1.0
  I  I37  1  0.77738800  0.94198728  0.76222390  1.0
  I  I38  1  0.72261200  0.94198728  0.26222390  1.0
  I  I39  1  0.22261200  0.05801272  0.26222390  1.0
  Cl  Cl40  1  0.12488061  0.76892582  0.73332760  1.0
  Cl  Cl41  1  0.62488061  0.23107418  0.73332760  1.0
  Cl  Cl42  1  0.87511939  0.23107418  0.23332760  1.0
  Cl  Cl43  1  0.37511939  0.76892582  0.23332760  1.0
