# generated using pymatgen
data_Mg2SiO4
_symmetry_space_group_name_H-M   'P 1'
_cell_length_a   5.03716481
_cell_length_b   8.88698753
_cell_length_c   2.83862111
_cell_angle_alpha   90.00000000
_cell_angle_beta   90.00000000
_cell_angle_gamma   90.00000000
_symmetry_Int_Tables_number   1
_chemical_formula_structural   Mg2SiO4
_chemical_formula_sum   'Mg4 Si2 O8'
_cell_volume   127.07150088
_cell_formula_units_Z   2
loop_
 _symmetry_equiv_pos_site_id
 _symmetry_equiv_pos_as_xyz
  1  'x, y, z'
loop_
 _atom_site_type_symbol
 _atom_site_label
 _atom_site_symmetry_multiplicity
 _atom_site_fract_x
 _atom_site_fract_y
 _atom_site_fract_z
 _atom_site_occupancy
  Mg  Mg0  1  0.56312511  0.18447666  0.50000000  1.0
  Mg  Mg1  1  0.43687489  0.81552334  0.50000000  1.0
  Mg  Mg2  1  0.06312511  0.31552334  0.50000000  1.0
  Mg  Mg3  1  0.93687489  0.68447666  0.50000000  1.0
  Si  Si4  1  0.50000000  0.50000000  -0.00000000  1.0
  Si  Si5  1  0.00000000  0.00000000  0.00000000  1.0
  O  O6  1  0.72480922  0.44920904  0.50000000  1.0
  O  O7  1  0.27519078  0.55079096  0.50000000  1.0
  O  O8  1  0.22480922  0.05079096  0.50000000  1.0
  O  O9  1  0.77519078  0.94920904  0.50000000  1.0
  O  O10  1  0.85981305  0.18259265  0.00000000  1.0
  O  O11  1  0.14018695  0.81740735  0.00000000  1.0
  O  O12  1  0.35981305  0.31740735  -0.00000000  1.0
  O  O13  1  0.64018695  0.68259265  -0.00000000  1.0
