# generated using pymatgen
data_Na3Sr3GaAs4
_symmetry_space_group_name_H-M   'P 1'
_cell_length_a   9.68672411
_cell_length_b   9.68672411
_cell_length_c   7.58421956
_cell_angle_alpha   90.00000000
_cell_angle_beta   90.00000000
_cell_angle_gamma   120.00000000
_symmetry_Int_Tables_number   1
_chemical_formula_structural   Na3Sr3GaAs4
_chemical_formula_sum   'Na6 Sr6 Ga2 As8'
_cell_volume   616.30457350
_cell_formula_units_Z   2
loop_
 _symmetry_equiv_pos_site_id
 _symmetry_equiv_pos_as_xyz
  1  'x, y, z'
loop_
 _atom_site_type_symbol
 _atom_site_label
 _atom_site_symmetry_multiplicity
 _atom_site_fract_x
 _atom_site_fract_y
 _atom_site_fract_z
 _atom_site_occupancy
  Na  Na0  1  0.72648267  0.86324134  0.04465639  1.0
  Na  Na1  1  0.86324134  0.72648267  0.54465639  1.0
  Na  Na2  1  0.86324134  0.13675866  0.54465639  1.0
  Na  Na3  1  0.13675866  0.86324134  0.04465639  1.0
  Na  Na4  1  0.13675866  0.27351733  0.04465639  1.0
  Na  Na5  1  0.27351733  0.13675866  0.54465639  1.0
  Sr  Sr6  1  0.95619804  0.47809902  0.21615984  1.0
  Sr  Sr7  1  0.47809902  0.95619804  0.71615984  1.0
  Sr  Sr8  1  0.47809902  0.52190098  0.71615984  1.0
  Sr  Sr9  1  0.52190098  0.47809902  0.21615984  1.0
  Sr  Sr10  1  0.52190098  0.04380196  0.21615984  1.0
  Sr  Sr11  1  0.04380196  0.52190098  0.71615984  1.0
  Ga  Ga12  1  0.33333333  0.66666667  0.34329982  1.0
  Ga  Ga13  1  0.66666667  0.33333333  0.84329982  1.0
  As  As14  1  0.62233012  0.81116506  0.43763726  1.0
  As  As15  1  0.81116506  0.62233012  0.93763726  1.0
  As  As16  1  0.81116506  0.18883494  0.93763726  1.0
  As  As17  1  0.18883494  0.81116506  0.43763726  1.0
  As  As18  1  0.18883494  0.37766988  0.43763726  1.0
  As  As19  1  0.37766988  0.18883494  0.93763726  1.0
  As  As20  1  0.33333333  0.66666667  -0.00256030  1.0
  As  As21  1  0.66666667  0.33333333  0.49743970  1.0
