# generated using pymatgen
data_Li2TlF2
_symmetry_space_group_name_H-M   'P 1'
_cell_length_a   9.12851476
_cell_length_b   9.12851476
_cell_length_c   9.12851476
_cell_angle_alpha   119.92521994
_cell_angle_beta   119.92521994
_cell_angle_gamma   90.12957174
_symmetry_Int_Tables_number   1
_chemical_formula_structural   Li2TlF2
_chemical_formula_sum   'Li8 Tl4 F8'
_cell_volume   538.48644002
_cell_formula_units_Z   4
loop_
 _symmetry_equiv_pos_site_id
 _symmetry_equiv_pos_as_xyz
  1  'x, y, z'
loop_
 _atom_site_type_symbol
 _atom_site_label
 _atom_site_symmetry_multiplicity
 _atom_site_fract_x
 _atom_site_fract_y
 _atom_site_fract_z
 _atom_site_occupancy
  Li  Li0  1  1.25564013  0.41832967  0.83731046  1.0
  Li  Li1  1  1.16898078  0.83167033  1.33731046  1.0
  Li  Li2  1  0.58101922  0.41832967  0.16268954  1.0
  Li  Li3  1  0.49435987  0.83167033  0.66268954  1.0
  Li  Li4  1  0.58167033  0.41898078  0.83731046  1.0
  Li  Li5  1  0.16832967  0.50564013  0.33731046  1.0
  Li  Li6  1  0.58167033  0.74435987  1.16268954  1.0
  Li  Li7  1  0.16832967  0.83101922  0.66268954  1.0
  Tl  Tl8  1  0.37500000  0.12500000  0.25000000  1.0
  Tl  Tl9  1  0.87500000  0.12500000  0.75000000  1.0
  Tl  Tl10  1  0.87500000  1.12500000  1.25000000  1.0
  Tl  Tl11  1  0.87500000  0.62500000  0.75000000  1.0
  F  F12  1  0.09467040  0.90593065  0.81126026  1.0
  F  F13  1  0.65532960  0.96658986  1.31126026  1.0
  F  F14  1  0.71658986  -0.09467040  0.81126026  1.0
  F  F15  1  0.65593065  0.34467040  0.31126026  1.0
  F  F16  1  0.09406935  -0.09467040  0.18873974  1.0
  F  F17  1  1.03341014  0.34467040  0.68873974  1.0
  F  F18  1  0.09467040  0.28341014  0.18873974  1.0
  F  F19  1  0.65532960  0.34406935  0.68873974  1.0
