# generated using pymatgen
data_SbPdS
_symmetry_space_group_name_H-M   'P 1'
_cell_length_a   6.26512858
_cell_length_b   6.26512858
_cell_length_c   6.26512858
_cell_angle_alpha   90.00000000
_cell_angle_beta   90.00000000
_cell_angle_gamma   90.00000000
_symmetry_Int_Tables_number   1
_chemical_formula_structural   SbPdS
_chemical_formula_sum   'Sb4 Pd4 S4'
_cell_volume   245.91780070
_cell_formula_units_Z   4
loop_
 _symmetry_equiv_pos_site_id
 _symmetry_equiv_pos_as_xyz
  1  'x, y, z'
loop_
 _atom_site_type_symbol
 _atom_site_label
 _atom_site_symmetry_multiplicity
 _atom_site_fract_x
 _atom_site_fract_y
 _atom_site_fract_z
 _atom_site_occupancy
  Sb  Sb0  1  0.12108960  0.62108960  0.87891040  1.0
  Sb  Sb1  1  0.62108960  0.87891040  0.12108960  1.0
  Sb  Sb2  1  0.87891040  0.12108960  0.62108960  1.0
  Sb  Sb3  1  0.37891040  0.37891040  0.37891040  1.0
  Pd  Pd4  1  0.48839843  0.98839843  0.51160157  1.0
  Pd  Pd5  1  0.98839843  0.51160157  0.48839843  1.0
  Pd  Pd6  1  0.51160157  0.48839843  0.98839843  1.0
  Pd  Pd7  1  0.01160157  0.01160157  0.01160157  1.0
  S  S8  1  0.88834308  0.38834308  0.11165692  1.0
  S  S9  1  0.38834308  0.11165692  0.88834308  1.0
  S  S10  1  0.11165692  0.88834308  0.38834308  1.0
  S  S11  1  0.61165692  0.61165692  0.61165692  1.0
