# generated using pymatgen
data_Sc3(ReSi2)2
_symmetry_space_group_name_H-M   'P 1'
_cell_length_a   10.17049093
_cell_length_b   10.17049093
_cell_length_c   13.70643589
_cell_angle_alpha   56.12002497
_cell_angle_beta   123.87997503
_cell_angle_gamma   149.44366625
_symmetry_Int_Tables_number   1
_chemical_formula_structural   Sc3(ReSi2)2
_chemical_formula_sum   'Sc12 Re8 Si16'
_cell_volume   588.24315881
_cell_formula_units_Z   4
loop_
 _symmetry_equiv_pos_site_id
 _symmetry_equiv_pos_as_xyz
  1  'x, y, z'
loop_
 _atom_site_type_symbol
 _atom_site_label
 _atom_site_symmetry_multiplicity
 _atom_site_fract_x
 _atom_site_fract_y
 _atom_site_fract_z
 _atom_site_occupancy
  Sc  Sc0  1  1.70723341  0.03587938  0.13829890  1.0
  Sc  Sc1  1  0.96412062  -0.70723341  0.63829890  1.0
  Sc  Sc2  1  1.03587938  0.70723341  0.36170110  1.0
  Sc  Sc3  1  0.29276659  -0.03587938  0.86170110  1.0
  Sc  Sc4  1  0.47867084  0.24723016  0.45359866  1.0
  Sc  Sc5  1  0.75276984  0.52132916  0.95359866  1.0
  Sc  Sc6  1  1.24723016  -0.52132916  0.04640134  1.0
  Sc  Sc7  1  1.52132916  -0.24723016  0.54640134  1.0
  Sc  Sc8  1  0.46893133  0.30330407  0.15987386  1.0
  Sc  Sc9  1  0.69669593  -0.46893133  0.65987386  1.0
  Sc  Sc10  1  1.30330407  0.46893133  0.34012614  1.0
  Sc  Sc11  1  1.53106867  -0.30330407  0.84012614  1.0
  Re  Re12  1  1.86214999  -0.08729631  0.07609484  1.0
  Re  Re13  1  1.08729631  -0.86214999  0.57609484  1.0
  Re  Re14  1  0.91270369  0.86214999  0.42390516  1.0
  Re  Re15  1  0.13785001  0.08729631  0.92390516  1.0
  Re  Re16  1  0.35671211  -0.17149915  0.28262083  1.0
  Re  Re17  1  1.17149915  -0.35671211  0.78262083  1.0
  Re  Re18  1  0.82850085  0.35671211  0.21737917  1.0
  Re  Re19  1  1.64328789  0.17149915  0.71737917  1.0
  Si  Si20  1  0.77207475  0.00441131  0.37384882  1.0
  Si  Si21  1  0.99558869  -0.77207475  0.87384882  1.0
  Si  Si22  1  1.00441131  0.77207475  0.12615118  1.0
  Si  Si23  1  1.22792525  -0.00441131  0.62615118  1.0
  Si  Si24  1  0.60724983  0.15072513  0.39175794  1.0
  Si  Si25  1  0.84927487  -0.60724983  0.89175794  1.0
  Si  Si26  1  1.15072513  0.60724983  0.10824206  1.0
  Si  Si27  1  1.39275017  -0.15072513  0.60824206  1.0
  Si  Si28  1  0.39971632  0.05083149  0.07201306  1.0
  Si  Si29  1  0.94916851  -0.39971632  0.57201306  1.0
  Si  Si30  1  1.05083149  0.39971632  0.42798694  1.0
  Si  Si31  1  1.60028368  -0.05083149  0.92798694  1.0
  Si  Si32  1  0.64015829  0.64015829  0.25000000  1.0
  Si  Si33  1  0.35984171  0.35984171  0.75000000  1.0
  Si  Si34  1  0.11089391  0.11089391  0.25000000  1.0
  Si  Si35  1  0.88910609  0.88910609  0.75000000  1.0
