# generated using pymatgen
data_BaNiGe
_symmetry_space_group_name_H-M   'P 1'
_cell_length_a   6.04067240
_cell_length_b   4.22687910
_cell_length_c   12.04998763
_cell_angle_alpha   90.00000000
_cell_angle_beta   90.00000000
_cell_angle_gamma   90.00000000
_symmetry_Int_Tables_number   1
_chemical_formula_structural   BaNiGe
_chemical_formula_sum   'Ba4 Ni4 Ge4'
_cell_volume   307.67464643
_cell_formula_units_Z   4
loop_
 _symmetry_equiv_pos_site_id
 _symmetry_equiv_pos_as_xyz
  1  'x, y, z'
loop_
 _atom_site_type_symbol
 _atom_site_label
 _atom_site_symmetry_multiplicity
 _atom_site_fract_x
 _atom_site_fract_y
 _atom_site_fract_z
 _atom_site_occupancy
  Ba  Ba0  1  0.88349546  0.75000000  0.35225859  1.0
  Ba  Ba1  1  0.38349546  0.75000000  0.14774141  1.0
  Ba  Ba2  1  0.11650454  0.25000000  0.64774141  1.0
  Ba  Ba3  1  0.61650454  0.25000000  0.85225859  1.0
  Ni  Ni4  1  0.90514802  0.75000000  0.04125575  1.0
  Ni  Ni5  1  0.40514802  0.75000000  0.45874425  1.0
  Ni  Ni6  1  0.09485198  0.25000000  0.95874425  1.0
  Ni  Ni7  1  0.59485198  0.25000000  0.54125575  1.0
  Ge  Ge8  1  0.63065738  0.75000000  0.62040233  1.0
  Ge  Ge9  1  0.13065738  0.75000000  0.87959767  1.0
  Ge  Ge10  1  0.36934262  0.25000000  0.37959767  1.0
  Ge  Ge11  1  0.86934262  0.25000000  0.12040233  1.0
