# generated using pymatgen
data_C6BrNF4
_symmetry_space_group_name_H-M   'P 1'
_cell_length_a   12.96744975
_cell_length_b   12.96744975
_cell_length_c   12.01472702
_cell_angle_alpha   70.58187216
_cell_angle_beta   109.41812784
_cell_angle_gamma   153.82581183
_symmetry_Int_Tables_number   1
_chemical_formula_structural   C6BrNF4
_chemical_formula_sum   'C24 Br4 N4 F16'
_cell_volume   837.65332786
_cell_formula_units_Z   4
loop_
 _symmetry_equiv_pos_site_id
 _symmetry_equiv_pos_as_xyz
  1  'x, y, z'
loop_
 _atom_site_type_symbol
 _atom_site_label
 _atom_site_symmetry_multiplicity
 _atom_site_fract_x
 _atom_site_fract_y
 _atom_site_fract_z
 _atom_site_occupancy
  C  C0  1  1.69274649  -0.19562802  0.80541699  1.0
  C  C1  1  1.19562802  -0.69274649  0.30541699  1.0
  C  C2  1  0.80437198  -0.30725351  0.69458301  1.0
  C  C3  1  1.30725351  0.19562802  0.19458301  1.0
  C  C4  1  1.53445643  -0.34574567  0.71342499  1.0
  C  C5  1  1.34574567  -0.53445643  0.21342499  1.0
  C  C6  1  0.65425433  -0.46554357  0.78657501  1.0
  C  C7  1  1.46554357  0.34574567  0.28657501  1.0
  C  C8  1  1.81666971  0.01052994  0.79381805  1.0
  C  C9  1  0.98947006  -0.81666971  0.29381805  1.0
  C  C10  1  1.01052994  -0.18333029  0.70618195  1.0
  C  C11  1  1.18333029  -0.01052994  0.20618195  1.0
  C  C12  1  1.50784390  -0.27856740  0.60913474  1.0
  C  C13  1  1.27856740  -0.50784390  0.10913474  1.0
  C  C14  1  0.72143260  -0.49215610  0.89086526  1.0
  C  C15  1  1.49215610  0.27856740  0.39086526  1.0
  C  C16  1  1.79055935  0.07631491  0.68894447  1.0
  C  C17  1  0.92368509  -0.79055935  0.18894447  1.0
  C  C18  1  1.07631491  -0.20944065  0.81105553  1.0
  C  C19  1  1.20944065  -0.07631491  0.31105553  1.0
  C  C20  1  1.63628206  -0.06962581  0.59594663  1.0
  C  C21  1  1.06962581  -0.63628206  0.09594663  1.0
  C  C22  1  0.93037419  -0.36371794  0.90405337  1.0
  C  C23  1  1.36371794  0.06962581  0.40405337  1.0
  Br  Br24  1  1.35393878  -0.04337313  0.82645642  1.0
  Br  Br25  1  1.04337313  -0.35393878  0.32645642  1.0
  Br  Br26  1  0.95662687  -0.64606122  0.67354358  1.0
  Br  Br27  1  1.64606122  0.04337313  0.17354358  1.0
  N  N28  1  1.42142024  0.36882281  0.77147034  1.0
  N  N29  1  0.63117719  -0.42142024  0.27147034  1.0
  N  N30  1  1.36882281  -0.57857976  0.72852966  1.0
  N  N31  1  1.57857976  -0.36882281  0.22852966  1.0
  F  F32  1  1.71785964  -0.25571443  0.90982908  1.0
  F  F33  1  1.25571443  -0.71785964  0.40982908  1.0
  F  F34  1  0.74428557  -0.28214036  0.59017092  1.0
  F  F35  1  1.28214036  0.25571443  0.09017092  1.0
  F  F36  1  1.85455797  0.03806971  0.38561086  1.0
  F  F37  1  0.96193029  -0.85455797  0.88561086  1.0
  F  F38  1  1.03806971  -0.14544203  0.11438914  1.0
  F  F39  1  1.14544203  -0.03806971  0.61438914  1.0
  F  F40  1  1.60901694  -0.01034167  0.49293846  1.0
  F  F41  1  1.01034167  -0.60901694  0.99293846  1.0
  F  F42  1  0.98965833  -0.39098306  0.00706154  1.0
  F  F43  1  1.39098306  0.01034167  0.50706154  1.0
  F  F44  1  1.58213483  0.35751430  0.98118282  1.0
  F  F45  1  0.64248570  -0.58213483  0.48118282  1.0
  F  F46  1  1.35751430  -0.41786517  0.51881718  1.0
  F  F47  1  1.41786517  -0.35751430  0.01881718  1.0
