# generated using pymatgen
data_CsRbSO4
_symmetry_space_group_name_H-M   'P 1'
_cell_length_a   6.32858136
_cell_length_b   6.32858136
_cell_length_c   8.30178743
_cell_angle_alpha   90.00000000
_cell_angle_beta   90.00000000
_cell_angle_gamma   120.00000000
_symmetry_Int_Tables_number   1
_chemical_formula_structural   CsRbSO4
_chemical_formula_sum   'Cs2 Rb2 S2 O8'
_cell_volume   287.94860341
_cell_formula_units_Z   2
loop_
 _symmetry_equiv_pos_site_id
 _symmetry_equiv_pos_as_xyz
  1  'x, y, z'
loop_
 _atom_site_type_symbol
 _atom_site_label
 _atom_site_symmetry_multiplicity
 _atom_site_fract_x
 _atom_site_fract_y
 _atom_site_fract_z
 _atom_site_occupancy
  Cs  Cs0  1  -0.00000000  -0.00000000  0.62203323  1.0
  Cs  Cs1  1  0.66666667  0.33333333  0.31466880  1.0
  Rb  Rb2  1  0.66666667  0.33333333  0.81413073  1.0
  Rb  Rb3  1  0.33333333  0.66666667  0.02501793  1.0
  S  S4  1  -0.00000000  -0.00000000  0.08385179  1.0
  S  S5  1  0.33333333  0.66666667  0.54264196  1.0
  O  O6  1  0.07516461  0.53758230  0.60540492  1.0
  O  O7  1  0.46241770  0.53758230  0.60540492  1.0
  O  O8  1  0.46241770  0.92483539  0.60540492  1.0
  O  O9  1  0.25841804  0.12920902  0.02076936  1.0
  O  O10  1  0.87079098  0.12920902  0.02076936  1.0
  O  O11  1  0.87079098  0.74158196  0.02076936  1.0
  O  O12  1  -0.00000000  -0.00000000  0.26271214  1.0
  O  O13  1  0.33333333  0.66666667  0.36342060  1.0
