# generated using pymatgen
data_Lu2(CN2)3
_symmetry_space_group_name_H-M   'P 1'
_cell_length_a   10.52001401
_cell_length_b   10.52001401
_cell_length_c   10.52001401
_cell_angle_alpha   35.02326655
_cell_angle_beta   35.02326655
_cell_angle_gamma   35.02326655
_symmetry_Int_Tables_number   1
_chemical_formula_structural   Lu2(CN2)3
_chemical_formula_sum   'Lu4 C6 N12'
_cell_volume   342.40946798
_cell_formula_units_Z   2
loop_
 _symmetry_equiv_pos_site_id
 _symmetry_equiv_pos_as_xyz
  1  'x, y, z'
loop_
 _atom_site_type_symbol
 _atom_site_label
 _atom_site_symmetry_multiplicity
 _atom_site_fract_x
 _atom_site_fract_y
 _atom_site_fract_z
 _atom_site_occupancy
  Lu  Lu0  1  0.83599096  -0.16400904  -0.16400904  1.0
  Lu  Lu1  1  0.33599096  0.33599096  0.33599096  1.0
  Lu  Lu2  1  0.66400904  0.66400904  -0.33599096  1.0
  Lu  Lu3  1  1.16400904  0.16400904  0.16400904  1.0
  C  C4  1  0.45372241  0.75000000  0.04627759  1.0
  C  C5  1  0.95372241  -0.45372241  0.25000000  1.0
  C  C6  1  0.25000000  0.95372241  -0.45372241  1.0
  C  C7  1  0.75000000  1.04627759  -0.54627759  1.0
  C  C8  1  0.54627759  0.25000000  -0.04627759  1.0
  C  C9  1  1.04627759  0.45372241  -0.25000000  1.0
  N  N10  1  0.45992058  0.86228994  0.04558947  1.0
  N  N11  1  0.95992058  0.54558947  -0.63771006  1.0
  N  N12  1  0.45441053  0.63771006  0.04007942  1.0
  N  N13  1  0.95441053  -0.45992058  0.13771006  1.0
  N  N14  1  1.13771006  -0.04558947  -0.45992058  1.0
  N  N15  1  0.63771006  1.04007942  -0.54558947  1.0
  N  N16  1  0.54007942  0.13771006  -0.04558947  1.0
  N  N17  1  1.04007942  0.45441053  -0.36228994  1.0
  N  N18  1  1.04558947  0.45992058  -0.13771006  1.0
  N  N19  1  0.54558947  0.36228994  -0.04007942  1.0
  N  N20  1  0.36228994  0.95992058  -0.45441053  1.0
  N  N21  1  0.86228994  1.04558947  -0.54007942  1.0
