# generated using pymatgen
data_Y3Mg2Si3O13
_symmetry_space_group_name_H-M   'P 1'
_cell_length_a   9.63946549
_cell_length_b   9.63946549
_cell_length_c   6.38311233
_cell_angle_alpha   90.00000000
_cell_angle_beta   90.00000000
_cell_angle_gamma   120.00000000
_symmetry_Int_Tables_number   1
_chemical_formula_structural   Y3Mg2Si3O13
_chemical_formula_sum   'Y6 Mg4 Si6 O26'
_cell_volume   513.65204906
_cell_formula_units_Z   2
loop_
 _symmetry_equiv_pos_site_id
 _symmetry_equiv_pos_as_xyz
  1  'x, y, z'
loop_
 _atom_site_type_symbol
 _atom_site_label
 _atom_site_symmetry_multiplicity
 _atom_site_fract_x
 _atom_site_fract_y
 _atom_site_fract_z
 _atom_site_occupancy
  O  O0  1  0.26262282  0.92887282  0.44713981  1.0
  O  O1  1  0.26262282  0.92887282  0.05286019  1.0
  O  O2  1  0.92887282  0.66625000  0.94713981  1.0
  O  O3  1  0.92887282  0.66625000  0.55286019  1.0
  O  O4  1  0.66625000  0.73737718  0.44713981  1.0
  O  O5  1  0.66625000  0.73737718  0.05286019  1.0
  O  O6  1  0.07112718  0.33375000  0.44713981  1.0
  O  O7  1  0.07112718  0.33375000  0.05286019  1.0
  O  O8  1  0.73737718  0.07112718  0.94713981  1.0
  O  O9  1  0.73737718  0.07112718  0.55286019  1.0
  O  O10  1  0.33375000  0.26262282  0.94713981  1.0
  O  O11  1  0.33375000  0.26262282  0.55286019  1.0
  O  O12  1  0.63070371  0.46859871  0.25000000  1.0
  O  O13  1  0.46859871  0.83789500  0.75000000  1.0
  O  O14  1  0.83789500  0.36929629  0.25000000  1.0
  O  O15  1  0.53140129  0.16210500  0.25000000  1.0
  O  O16  1  0.36929629  0.53140129  0.75000000  1.0
  O  O17  1  0.16210500  0.63070371  0.75000000  1.0
  O  O18  1  0.00000000  0.00000000  0.25000000  1.0
  O  O19  1  -0.00000000  -0.00000000  0.75000000  1.0
  O  O20  1  0.46222365  0.85287543  0.25000000  1.0
  O  O21  1  0.85287543  0.39065178  0.75000000  1.0
  O  O22  1  0.39065178  0.53777635  0.25000000  1.0
  O  O23  1  0.14712457  0.60934822  0.25000000  1.0
  O  O24  1  0.53777635  0.14712457  0.75000000  1.0
  O  O25  1  0.60934822  0.46222365  0.75000000  1.0
  Si  Si26  1  0.38968739  0.97533705  0.25000000  1.0
  Si  Si27  1  0.97533705  0.58564966  0.75000000  1.0
  Si  Si28  1  0.58564966  0.61031261  0.25000000  1.0
  Si  Si29  1  0.02466295  0.41435034  0.25000000  1.0
  Si  Si30  1  0.61031261  0.02466295  0.75000000  1.0
  Si  Si31  1  0.41435034  0.38968739  0.75000000  1.0
  Y  Y32  1  1.03126494  0.77948815  0.25000000  1.0
  Y  Y33  1  0.77948815  0.74822321  0.75000000  1.0
  Y  Y34  1  0.74822321  -0.03126494  0.25000000  1.0
  Y  Y35  1  0.22051185  0.25177679  0.25000000  1.0
  Y  Y36  1  -0.03126494  0.22051185  0.75000000  1.0
  Y  Y37  1  0.25177679  1.03126494  0.75000000  1.0
  Mg  Mg38  1  0.33333333  0.66666667  0.51095150  1.0
  Mg  Mg39  1  0.33333333  0.66666667  -0.01095150  1.0
  Mg  Mg40  1  0.66666667  0.33333333  0.01095150  1.0
  Mg  Mg41  1  0.66666667  0.33333333  0.48904850  1.0
