# generated using pymatgen
data_SnCI3N
_symmetry_space_group_name_H-M   'P 1'
_cell_length_a   5.71217693
_cell_length_b   5.71217693
_cell_length_c   8.12530416
_cell_angle_alpha   90.00000000
_cell_angle_beta   90.00000000
_cell_angle_gamma   90.00000000
_symmetry_Int_Tables_number   1
_chemical_formula_structural   SnCI3N
_chemical_formula_sum   'Sn1 C1 I3 N1'
_cell_volume   265.12026754
_cell_formula_units_Z   1
loop_
 _symmetry_equiv_pos_site_id
 _symmetry_equiv_pos_as_xyz
  1  'x, y, z'
loop_
 _atom_site_type_symbol
 _atom_site_label
 _atom_site_symmetry_multiplicity
 _atom_site_fract_x
 _atom_site_fract_y
 _atom_site_fract_z
 _atom_site_occupancy
  C  C0  1  0.50000000  0.50000000  0.23354806  1.0
  Sn  Sn1  1  0.00000000  0.00000000  0.90932904  1.0
  N  N2  1  0.50000000  0.50000000  0.37828678  1.0
  I  I3  1  0.00000000  0.00000000  0.57936924  1.0
  I  I4  1  0.00000000  0.50000000  1.02683344  1.0
  I  I5  1  0.50000000  0.00000000  1.02683344  1.0
