# generated using pymatgen
data_LiBi(PdO2)2
_symmetry_space_group_name_H-M   'P 1'
_cell_length_a   6.97788581
_cell_length_b   6.97788581
_cell_length_c   4.41938530
_cell_angle_alpha   90.00000000
_cell_angle_beta   90.00000000
_cell_angle_gamma   90.00000000
_symmetry_Int_Tables_number   1
_chemical_formula_structural   LiBi(PdO2)2
_chemical_formula_sum   'Li2 Bi2 Pd4 O8'
_cell_volume   215.18380550
_cell_formula_units_Z   2
loop_
 _symmetry_equiv_pos_site_id
 _symmetry_equiv_pos_as_xyz
  1  'x, y, z'
loop_
 _atom_site_type_symbol
 _atom_site_label
 _atom_site_symmetry_multiplicity
 _atom_site_fract_x
 _atom_site_fract_y
 _atom_site_fract_z
 _atom_site_occupancy
  Li  Li0  1  0.00000000  0.00000000  0.50000000  1.0
  Li  Li1  1  0.50000000  0.50000000  0.50000000  1.0
  Bi  Bi2  1  0.00000000  0.50000000  0.48987267  1.0
  Bi  Bi3  1  0.50000000  0.00000000  0.51012733  1.0
  Pd  Pd4  1  0.75000000  0.25000000  0.00000000  1.0
  Pd  Pd5  1  0.25000000  0.25000000  0.00000000  1.0
  Pd  Pd6  1  0.75000000  0.75000000  0.00000000  1.0
  Pd  Pd7  1  0.25000000  0.75000000  0.00000000  1.0
  O  O8  1  0.72564734  0.50000000  0.76402105  1.0
  O  O9  1  0.27435266  0.50000000  0.76402105  1.0
  O  O10  1  0.00000000  0.22564734  0.76402105  1.0
  O  O11  1  0.00000000  0.77435266  0.76402105  1.0
  O  O12  1  0.77435266  0.00000000  0.23597895  1.0
  O  O13  1  0.22564734  0.00000000  0.23597895  1.0
  O  O14  1  0.50000000  0.27435266  0.23597895  1.0
  O  O15  1  0.50000000  0.72564734  0.23597895  1.0
