# generated using pymatgen
data_MoH14C6N2(O2F)2
_symmetry_space_group_name_H-M   'P 1'
_cell_length_a   7.82693350
_cell_length_b   7.82693350
_cell_length_c   11.96527336
_cell_angle_alpha   80.48758775
_cell_angle_beta   99.51241225
_cell_angle_gamma   117.62057593
_symmetry_Int_Tables_number   1
_chemical_formula_structural   MoH14C6N2(O2F)2
_chemical_formula_sum   'Mo2 H28 C12 N4 O8 F4'
_cell_volume   637.23370938
_cell_formula_units_Z   2
loop_
 _symmetry_equiv_pos_site_id
 _symmetry_equiv_pos_as_xyz
  1  'x, y, z'
loop_
 _atom_site_type_symbol
 _atom_site_label
 _atom_site_symmetry_multiplicity
 _atom_site_fract_x
 _atom_site_fract_y
 _atom_site_fract_z
 _atom_site_occupancy
  Mo  Mo0  1  0.93525053  -0.06474947  0.25000000  1.0
  Mo  Mo1  1  1.06474947  0.06474947  0.75000000  1.0
  H  H2  1  0.84469775  -0.23805015  0.51090497  1.0
  H  H3  1  0.76194985  -0.15530225  0.98909503  1.0
  H  H4  1  1.15530225  0.23805015  0.48909503  1.0
  H  H5  1  1.23805015  0.15530225  0.01090497  1.0
  H  H6  1  1.67723966  0.30383876  0.39711233  1.0
  H  H7  1  1.30383876  0.67723966  0.10288767  1.0
  H  H8  1  0.32276034  -0.30383876  0.60288767  1.0
  H  H9  1  0.69616124  -0.67723966  0.89711233  1.0
  H  H10  1  1.72941076  0.19675259  0.53455275  1.0
  H  H11  1  1.19675259  0.72941076  0.96544725  1.0
  H  H12  1  0.27058924  -0.19675259  0.46544725  1.0
  H  H13  1  0.80324741  -0.72941076  0.03455275  1.0
  H  H14  1  1.49836137  0.19495249  0.49644901  1.0
  H  H15  1  1.19495249  0.49836137  0.00355099  1.0
  H  H16  1  0.50163863  -0.19495249  0.50355099  1.0
  H  H17  1  0.80504751  -0.49836137  0.99644901  1.0
  H  H18  1  1.59297034  0.37147864  0.68377524  1.0
  H  H19  1  1.37147864  0.59297034  0.81622476  1.0
  H  H20  1  0.40702966  -0.37147864  0.31622476  1.0
  H  H21  1  0.62852136  -0.59297034  0.18377524  1.0
  H  H22  1  0.83639495  -0.59818373  0.69921779  1.0
  H  H23  1  0.40181627  -0.16360505  0.80078221  1.0
  H  H24  1  1.16360505  0.59818373  0.30078221  1.0
  H  H25  1  1.59818373  0.16360505  0.19921779  1.0
  H  H26  1  0.79092063  -0.39043221  0.67807685  1.0
  H  H27  1  0.60956779  -0.20907937  0.82192315  1.0
  H  H28  1  1.20907937  0.39043221  0.32192315  1.0
  H  H29  1  1.39043221  0.20907937  0.17807685  1.0
  C  C30  1  0.79003957  -0.36821149  0.46563976  1.0
  C  C31  1  0.63178851  -0.20996043  0.03436024  1.0
  C  C32  1  1.20996043  0.36821149  0.53436024  1.0
  C  C33  1  1.36821149  0.20996043  0.96563976  1.0
  C  C34  1  1.65410223  0.27914438  0.48711996  1.0
  C  C35  1  1.27914438  0.65410223  0.01288004  1.0
  C  C36  1  0.34589777  -0.27914438  0.51288004  1.0
  C  C37  1  0.72085562  -0.65410223  0.98711996  1.0
  C  C38  1  0.73807310  -0.53799529  0.65564007  1.0
  C  C39  1  0.46200471  -0.26192690  0.84435993  1.0
  C  C40  1  1.26192690  0.53799529  0.34435993  1.0
  C  C41  1  1.53799529  0.26192690  0.15564007  1.0
  N  N42  1  0.72968766  -0.53459467  0.53255473  1.0
  N  N43  1  0.46540533  -0.27031234  0.96744527  1.0
  N  N44  1  1.27031234  0.53459467  0.46744527  1.0
  N  N45  1  1.53459467  0.27031234  0.03255473  1.0
  O  O46  1  1.00353581  0.12868746  0.14716278  1.0
  O  O47  1  1.12868746  0.00353581  0.35283722  1.0
  O  O48  1  0.99646419  -0.12868746  0.85283722  1.0
  O  O49  1  0.87131254  -0.00353581  0.64716278  1.0
  O  O50  1  0.78626323  -0.35627044  0.35887291  1.0
  O  O51  1  0.64372956  -0.21373677  0.14112709  1.0
  O  O52  1  1.21373677  0.35627044  0.64112709  1.0
  O  O53  1  1.35627044  0.21373677  0.85887291  1.0
  F  F54  1  0.98808530  0.76677365  0.17785650  1.0
  F  F55  1  1.76677365  -0.01191470  0.32214350  1.0
  F  F56  1  1.01191470  -0.76677365  0.82214350  1.0
  F  F57  1  0.23322635  0.01191470  0.67785650  1.0
