# generated using pymatgen
data_As2HeO3
_symmetry_space_group_name_H-M   'P 1'
_cell_length_a   8.65473840
_cell_length_b   8.65473840
_cell_length_c   8.65473840
_cell_angle_alpha   60.00000000
_cell_angle_beta   60.00000000
_cell_angle_gamma   60.00000000
_symmetry_Int_Tables_number   1
_chemical_formula_structural   As2HeO3
_chemical_formula_sum   'As8 He4 O12'
_cell_volume   458.40235248
_cell_formula_units_Z   4
loop_
 _symmetry_equiv_pos_site_id
 _symmetry_equiv_pos_as_xyz
  1  'x, y, z'
loop_
 _atom_site_type_symbol
 _atom_site_label
 _atom_site_symmetry_multiplicity
 _atom_site_fract_x
 _atom_site_fract_y
 _atom_site_fract_z
 _atom_site_occupancy
  As  As0  1  -0.03368339  1.34456113  0.34456113  1.0
  As  As1  1  0.34456113  0.96631661  0.34456113  1.0
  As  As2  1  0.34456113  1.34456113  -0.03368339  1.0
  As  As3  1  0.34456113  1.34456113  0.34456113  1.0
  As  As4  1  -0.71631661  0.90543887  0.90543887  1.0
  As  As5  1  0.90543887  -0.71631661  0.90543887  1.0
  As  As6  1  0.90543887  0.90543887  -0.71631661  1.0
  As  As7  1  0.90543887  0.90543887  0.90543887  1.0
  He  He8  1  1.12500000  0.62500000  0.62500000  1.0
  He  He9  1  0.62500000  1.12500000  -0.37500000  1.0
  He  He10  1  -0.37500000  0.62500000  1.12500000  1.0
  He  He11  1  -0.37500000  0.62500000  0.62500000  1.0
  O  O12  1  0.08611343  1.41388657  0.41388657  1.0
  O  O13  1  0.41388657  1.08611343  0.08611343  1.0
  O  O14  1  0.41388657  1.41388657  0.08611343  1.0
  O  O15  1  0.08611343  0.08611343  0.41388657  1.0
  O  O16  1  0.41388657  1.08611343  0.41388657  1.0
  O  O17  1  0.08611343  1.41388657  0.08611343  1.0
  O  O18  1  -0.83611343  0.83611343  0.83611343  1.0
  O  O19  1  -0.16388657  0.16388657  0.16388657  1.0
  O  O20  1  0.83611343  0.83611343  -0.83611343  1.0
  O  O21  1  0.16388657  1.16388657  -0.16388657  1.0
  O  O22  1  0.83611343  -0.83611343  0.83611343  1.0
  O  O23  1  0.16388657  -0.16388657  0.16388657  1.0
