# generated using pymatgen
data_RbBrF4
_symmetry_space_group_name_H-M   'P 1'
_cell_length_a   7.66960519
_cell_length_b   7.66960519
_cell_length_c   7.66960519
_cell_angle_alpha   123.81507619
_cell_angle_beta   123.81507619
_cell_angle_gamma   83.51007474
_symmetry_Int_Tables_number   1
_chemical_formula_structural   RbBrF4
_chemical_formula_sum   'Rb2 Br2 F8'
_cell_volume   298.51546355
_cell_formula_units_Z   2
loop_
 _symmetry_equiv_pos_site_id
 _symmetry_equiv_pos_as_xyz
  1  'x, y, z'
loop_
 _atom_site_type_symbol
 _atom_site_label
 _atom_site_symmetry_multiplicity
 _atom_site_fract_x
 _atom_site_fract_y
 _atom_site_fract_z
 _atom_site_occupancy
  Rb  Rb0  1  0.50000000  0.50000000  1.00000000  1.0
  Rb  Rb1  1  0.00000000  0.00000000  0.00000000  1.0
  Br  Br2  1  0.50000000  0.00000000  0.50000000  1.0
  Br  Br3  1  0.00000000  0.50000000  0.50000000  1.0
  F  F4  1  0.52426875  1.02426875  0.77849834  1.0
  F  F5  1  1.24577041  0.74577041  1.22150166  1.0
  F  F6  1  1.02426875  1.24577041  1.50000000  1.0
  F  F7  1  0.74577041  0.52426875  0.50000000  1.0
  F  F8  1  0.47573125  0.97573125  1.22150166  1.0
  F  F9  1  0.75422959  0.25422959  0.77849834  1.0
  F  F10  1  0.97573125  0.75422959  1.50000000  1.0
  F  F11  1  0.25422959  0.47573125  0.50000000  1.0
