# generated using pymatgen
data_Cs2ZrCu3F12
_symmetry_space_group_name_H-M   'P 1'
_cell_length_a   8.04164512
_cell_length_b   7.18529627
_cell_length_c   10.50003336
_cell_angle_alpha   90.00000000
_cell_angle_beta   95.44701975
_cell_angle_gamma   90.00000000
_symmetry_Int_Tables_number   1
_chemical_formula_structural   Cs2ZrCu3F12
_chemical_formula_sum   'Cs4 Zr2 Cu6 F24'
_cell_volume   603.96910162
_cell_formula_units_Z   2
loop_
 _symmetry_equiv_pos_site_id
 _symmetry_equiv_pos_as_xyz
  1  'x, y, z'
loop_
 _atom_site_type_symbol
 _atom_site_label
 _atom_site_symmetry_multiplicity
 _atom_site_fract_x
 _atom_site_fract_y
 _atom_site_fract_z
 _atom_site_occupancy
  Cs  Cs0  1  0.98295583  0.25000000  0.35146138  1.0
  Cs  Cs1  1  0.01704417  0.75000000  0.64853862  1.0
  Cs  Cs2  1  0.44819042  0.25000000  0.12574145  1.0
  Cs  Cs3  1  0.55180958  0.75000000  0.87425855  1.0
  Zr  Zr4  1  0.29708980  0.25000000  0.74311162  1.0
  Zr  Zr5  1  0.70291020  0.75000000  0.25688838  1.0
  Cu  Cu6  1  0.77814796  0.25000000  0.72943236  1.0
  Cu  Cu7  1  0.22185204  0.75000000  0.27056764  1.0
  Cu  Cu8  1  0.50000000  0.50000000  0.50000000  1.0
  Cu  Cu9  1  0.50000000  0.00000000  0.50000000  1.0
  Cu  Cu10  1  0.00000000  0.50000000  0.00000000  1.0
  Cu  Cu11  1  -0.00000000  -0.00000000  -0.00000000  1.0
  F  F12  1  0.86000519  0.44514679  0.84494302  1.0
  F  F13  1  0.86000519  0.05485321  0.84494302  1.0
  F  F14  1  0.13999481  0.94514679  0.15505698  1.0
  F  F15  1  0.13999481  0.55485321  0.15505698  1.0
  F  F16  1  0.70221918  0.44439166  0.60937767  1.0
  F  F17  1  0.70221918  0.05560834  0.60937767  1.0
  F  F18  1  0.29778082  0.94439166  0.39062233  1.0
  F  F19  1  0.29778082  0.55560834  0.39062233  1.0
  F  F20  1  0.65509231  0.48451756  0.32600820  1.0
  F  F21  1  0.65509231  0.01548244  0.32600820  1.0
  F  F22  1  0.34490769  0.98451756  0.67399180  1.0
  F  F23  1  0.34490769  0.51548244  0.67399180  1.0
  F  F24  1  0.23311488  0.42654491  0.88390901  1.0
  F  F25  1  0.23311488  0.07345509  0.88390901  1.0
  F  F26  1  0.76688512  0.92654491  0.11609099  1.0
  F  F27  1  0.76688512  0.57345509  0.11609099  1.0
  F  F28  1  0.06897318  0.25000000  0.64374932  1.0
  F  F29  1  0.93102682  0.75000000  0.35625068  1.0
  F  F30  1  0.98754302  0.25000000  0.06223957  1.0
  F  F31  1  0.01245698  0.75000000  0.93776043  1.0
  F  F32  1  0.53404949  0.25000000  0.82839786  1.0
  F  F33  1  0.46595051  0.75000000  0.17160214  1.0
  F  F34  1  0.40708934  0.25000000  0.53573003  1.0
  F  F35  1  0.59291066  0.75000000  0.46426997  1.0
