# generated using pymatgen
data_Tb4F15
_symmetry_space_group_name_H-M   'P 1'
_cell_length_a   8.43203881
_cell_length_b   8.43203881
_cell_length_c   8.43203881
_cell_angle_alpha   100.30910707
_cell_angle_beta   100.30910707
_cell_angle_gamma   100.30910707
_symmetry_Int_Tables_number   1
_chemical_formula_structural   Tb4F15
_chemical_formula_sum   'Tb8 F30'
_cell_volume   566.35907485
_cell_formula_units_Z   2
loop_
 _symmetry_equiv_pos_site_id
 _symmetry_equiv_pos_as_xyz
  1  'x, y, z'
loop_
 _atom_site_type_symbol
 _atom_site_label
 _atom_site_symmetry_multiplicity
 _atom_site_fract_x
 _atom_site_fract_y
 _atom_site_fract_z
 _atom_site_occupancy
  Tb  Tb0  1  0.67733819  1.25000000  -0.17733819  1.0
  Tb  Tb1  1  1.17733819  0.32266181  -0.25000000  1.0
  Tb  Tb2  1  0.75000000  0.17733819  0.32266181  1.0
  Tb  Tb3  1  1.25000000  0.82266181  -0.32266181  1.0
  Tb  Tb4  1  1.32266181  -0.25000000  0.17733819  1.0
  Tb  Tb5  1  0.82266181  0.67733819  0.25000000  1.0
  Tb  Tb6  1  0.25000000  0.25000000  0.25000000  1.0
  Tb  Tb7  1  0.75000000  0.75000000  0.75000000  1.0
  F  F8  1  1.27958312  -0.48945291  0.27832560  1.0
  F  F9  1  0.77958312  0.77832560  0.01054709  1.0
  F  F10  1  1.22167440  -0.01054709  0.22041688  1.0
  F  F11  1  0.72167440  0.72041688  0.48945291  1.0
  F  F12  1  1.48945291  0.72167440  -0.27958312  1.0
  F  F13  1  0.98945291  0.22041688  0.22167440  1.0
  F  F14  1  0.72041688  1.48945291  -0.27832560  1.0
  F  F15  1  1.22041688  0.22167440  -0.01054709  1.0
  F  F16  1  1.27832560  0.27958312  -0.48945291  1.0
  F  F17  1  0.77832560  1.01054709  -0.22041688  1.0
  F  F18  1  1.01054709  0.77958312  -0.22167440  1.0
  F  F19  1  0.51054709  0.27832560  0.27958312  1.0
  F  F20  1  1.18178433  0.55295735  -0.34509222  1.0
  F  F21  1  0.68178433  0.15490778  0.05295735  1.0
  F  F22  1  0.84509222  0.94704265  0.31821567  1.0
  F  F23  1  1.34509222  -0.18178433  0.44704265  1.0
  F  F24  1  1.44704265  0.34509222  -0.18178433  1.0
  F  F25  1  0.94704265  1.31821567  -0.15490778  1.0
  F  F26  1  0.81821567  0.44704265  0.34509222  1.0
  F  F27  1  1.31821567  0.84509222  -0.05295735  1.0
  F  F28  1  0.65490778  1.18178433  -0.44704265  1.0
  F  F29  1  1.15490778  0.05295735  -0.31821567  1.0
  F  F30  1  1.05295735  -0.31821567  0.15490778  1.0
  F  F31  1  0.55295735  0.65490778  0.18178433  1.0
  F  F32  1  0.96451482  0.25000000  0.53548518  1.0
  F  F33  1  0.46451482  1.03548518  -0.25000000  1.0
  F  F34  1  0.75000000  0.46451482  0.03548518  1.0
  F  F35  1  1.25000000  0.53548518  -0.03548518  1.0
  F  F36  1  1.03548518  0.75000000  -0.53548518  1.0
  F  F37  1  1.53548518  -0.03548518  0.25000000  1.0
