# generated using pymatgen
data_Ag8SnSe6
_symmetry_space_group_name_H-M   'P 1'
_cell_length_a   8.10517711
_cell_length_b   7.92349958
_cell_length_c   11.22023954
_cell_angle_alpha   90.00000000
_cell_angle_beta   90.00000000
_cell_angle_gamma   90.00000000
_symmetry_Int_Tables_number   1
_chemical_formula_structural   Ag8SnSe6
_chemical_formula_sum   'Ag16 Sn2 Se12'
_cell_volume   720.57912654
_cell_formula_units_Z   2
loop_
 _symmetry_equiv_pos_site_id
 _symmetry_equiv_pos_as_xyz
  1  'x, y, z'
loop_
 _atom_site_type_symbol
 _atom_site_label
 _atom_site_symmetry_multiplicity
 _atom_site_fract_x
 _atom_site_fract_y
 _atom_site_fract_z
 _atom_site_occupancy
  Ag  Ag0  1  0.77005083  0.83047127  0.51235626  1.0
  Ag  Ag1  1  0.27005083  0.16952873  0.01235626  1.0
  Ag  Ag2  1  0.22994917  0.83047127  0.51235626  1.0
  Ag  Ag3  1  0.72994917  0.16952873  0.01235626  1.0
  Ag  Ag4  1  0.78682176  0.88410155  0.78131492  1.0
  Ag  Ag5  1  0.28682176  0.11589845  0.28131492  1.0
  Ag  Ag6  1  0.21317824  0.88410155  0.78131492  1.0
  Ag  Ag7  1  0.71317824  0.11589845  0.28131492  1.0
  Ag  Ag8  1  0.80792028  0.47712484  0.38777364  1.0
  Ag  Ag9  1  0.30792028  0.52287516  0.88777364  1.0
  Ag  Ag10  1  0.19207972  0.47712484  0.38777364  1.0
  Ag  Ag11  1  0.69207972  0.52287516  0.88777364  1.0
  Ag  Ag12  1  0.00000000  0.37721583  0.61198251  1.0
  Ag  Ag13  1  0.50000000  0.62278417  0.11198251  1.0
  Ag  Ag14  1  0.00000000  0.30485121  0.18291240  1.0
  Ag  Ag15  1  0.50000000  0.69514879  0.68291240  1.0
  Sn  Sn16  1  0.00000000  0.75303301  0.13153999  1.0
  Sn  Sn17  1  0.50000000  0.24696699  0.63153999  1.0
  Se  Se18  1  0.73909497  0.75816629  0.25846912  1.0
  Se  Se19  1  0.23909497  0.24183371  0.75846912  1.0
  Se  Se20  1  0.26090503  0.75816629  0.25846912  1.0
  Se  Se21  1  0.76090503  0.24183371  0.75846912  1.0
  Se  Se22  1  0.00000000  -0.00663991  0.97684000  1.0
  Se  Se23  1  0.50000000  1.00663991  0.47684000  1.0
  Se  Se24  1  0.00000000  0.71137616  0.64425004  1.0
  Se  Se25  1  0.50000000  0.28862384  0.14425004  1.0
  Se  Se26  1  0.00000000  0.49336540  -0.00481393  1.0
  Se  Se27  1  0.50000000  0.50663460  0.49518607  1.0
  Se  Se28  1  0.00000000  0.19946267  0.40206111  1.0
  Se  Se29  1  0.50000000  0.80053733  0.90206111  1.0
