# generated using pymatgen
data_Dy4CoB13
_symmetry_space_group_name_H-M   'P 1'
_cell_length_a   7.28618836
_cell_length_b   7.28618836
_cell_length_c   6.86619764
_cell_angle_alpha   90.00000000
_cell_angle_beta   90.00000000
_cell_angle_gamma   90.00000000
_symmetry_Int_Tables_number   1
_chemical_formula_structural   Dy4CoB13
_chemical_formula_sum   'Dy8 Co2 B26'
_cell_volume   364.51641416
_cell_formula_units_Z   2
loop_
 _symmetry_equiv_pos_site_id
 _symmetry_equiv_pos_as_xyz
  1  'x, y, z'
loop_
 _atom_site_type_symbol
 _atom_site_label
 _atom_site_symmetry_multiplicity
 _atom_site_fract_x
 _atom_site_fract_y
 _atom_site_fract_z
 _atom_site_occupancy
  Dy  Dy0  1  0.31924072  0.81524438  0.50000000  1.0
  Dy  Dy1  1  0.81924072  0.68475562  -0.00000000  1.0
  Dy  Dy2  1  0.18475562  0.31924072  0.50000000  1.0
  Dy  Dy3  1  0.68475562  0.18075928  -0.00000000  1.0
  Dy  Dy4  1  0.68075928  0.18475562  0.50000000  1.0
  Dy  Dy5  1  0.18075928  0.31524438  -0.00000000  1.0
  Dy  Dy6  1  0.81524438  0.68075928  0.50000000  1.0
  Dy  Dy7  1  0.31524438  0.81924072  0.00000000  1.0
  Co  Co8  1  0.50000000  0.50000000  -0.00000000  1.0
  Co  Co9  1  0.00000000  0.00000000  0.50000000  1.0
  B  B10  1  0.32987014  0.53964623  0.25401884  1.0
  B  B11  1  0.32987014  0.53964623  0.74598116  1.0
  B  B12  1  0.82987014  0.96035377  0.75401884  1.0
  B  B13  1  0.82987014  0.96035377  0.24598116  1.0
  B  B14  1  0.46035377  0.32987014  0.25401884  1.0
  B  B15  1  0.46035377  0.32987014  0.74598116  1.0
  B  B16  1  0.96035377  0.17012986  0.75401884  1.0
  B  B17  1  0.96035377  0.17012986  0.24598116  1.0
  B  B18  1  0.67012986  0.46035377  0.25401884  1.0
  B  B19  1  0.67012986  0.46035377  0.74598116  1.0
  B  B20  1  0.17012986  0.03964623  0.75401884  1.0
  B  B21  1  0.17012986  0.03964623  0.24598116  1.0
  B  B22  1  0.53964623  0.67012986  0.25401884  1.0
  B  B23  1  0.53964623  0.67012986  0.74598116  1.0
  B  B24  1  0.03964623  0.82987014  0.75401884  1.0
  B  B25  1  0.03964623  0.82987014  0.24598116  1.0
  B  B26  1  0.40933042  0.09066958  0.25000000  1.0
  B  B27  1  0.40933042  0.09066958  0.75000000  1.0
  B  B28  1  0.90933042  0.40933042  0.75000000  1.0
  B  B29  1  0.90933042  0.40933042  0.25000000  1.0
  B  B30  1  0.59066958  0.90933042  0.25000000  1.0
  B  B31  1  0.59066958  0.90933042  0.75000000  1.0
  B  B32  1  0.09066958  0.59066958  0.75000000  1.0
  B  B33  1  0.09066958  0.59066958  0.25000000  1.0
  B  B34  1  0.50000000  0.50000000  0.50000000  1.0
  B  B35  1  0.00000000  0.00000000  0.00000000  1.0
