# generated using pymatgen
data_RbLaTa2O7
_symmetry_space_group_name_H-M   'P 1'
_cell_length_a   3.91112406
_cell_length_b   3.91112406
_cell_length_c   11.38195463
_cell_angle_alpha   90.00000000
_cell_angle_beta   90.00000000
_cell_angle_gamma   90.00000000
_symmetry_Int_Tables_number   1
_chemical_formula_structural   RbLaTa2O7
_chemical_formula_sum   'Rb1 La1 Ta2 O7'
_cell_volume   174.10852414
_cell_formula_units_Z   1
loop_
 _symmetry_equiv_pos_site_id
 _symmetry_equiv_pos_as_xyz
  1  'x, y, z'
loop_
 _atom_site_type_symbol
 _atom_site_label
 _atom_site_symmetry_multiplicity
 _atom_site_fract_x
 _atom_site_fract_y
 _atom_site_fract_z
 _atom_site_occupancy
  Rb  Rb0  1  0.50000000  0.50000000  0.50000000  1.0
  La  La1  1  0.50000000  0.50000000  0.00000000  1.0
  Ta  Ta2  1  0.00000000  0.00000000  0.79851176  1.0
  Ta  Ta3  1  0.00000000  0.00000000  0.20148824  1.0
  O  O4  1  0.00000000  0.50000000  0.83615601  1.0
  O  O5  1  0.00000000  0.50000000  0.16384399  1.0
  O  O6  1  0.50000000  0.00000000  0.83615601  1.0
  O  O7  1  0.50000000  0.00000000  0.16384399  1.0
  O  O8  1  0.00000000  0.00000000  0.64033220  1.0
  O  O9  1  0.00000000  0.00000000  0.35966780  1.0
  O  O10  1  0.00000000  0.00000000  0.00000000  1.0
