# generated using pymatgen
data_S4N4O3
_symmetry_space_group_name_H-M   'P 1'
_cell_length_a   6.26752029
_cell_length_b   10.45349296
_cell_length_c   14.08185475
_cell_angle_alpha   90.00000000
_cell_angle_beta   109.79052891
_cell_angle_gamma   90.00000000
_symmetry_Int_Tables_number   1
_chemical_formula_structural   S4N4O3
_chemical_formula_sum   'S16 N16 O12'
_cell_volume   868.11542071
_cell_formula_units_Z   4
loop_
 _symmetry_equiv_pos_site_id
 _symmetry_equiv_pos_as_xyz
  1  'x, y, z'
loop_
 _atom_site_type_symbol
 _atom_site_label
 _atom_site_symmetry_multiplicity
 _atom_site_fract_x
 _atom_site_fract_y
 _atom_site_fract_z
 _atom_site_occupancy
  S  S0  1  0.84444758  0.38742347  0.37433985  1.0
  S  S1  1  0.84444758  0.11257653  0.87433985  1.0
  S  S2  1  0.15555242  0.88742347  0.12566015  1.0
  S  S3  1  0.15555242  0.61257653  0.62566015  1.0
  S  S4  1  0.82517993  0.10713640  0.31245668  1.0
  S  S5  1  0.82517993  0.39286360  0.81245668  1.0
  S  S6  1  0.17482007  0.60713640  0.18754332  1.0
  S  S7  1  0.17482007  0.89286360  0.68754332  1.0
  S  S8  1  0.59984223  0.04340998  0.38440910  1.0
  S  S9  1  0.59984223  0.45659002  0.88440910  1.0
  S  S10  1  0.40015777  0.54340998  0.11559090  1.0
  S  S11  1  0.40015777  0.95659002  0.61559090  1.0
  S  S12  1  0.52887788  0.29824158  0.47402338  1.0
  S  S13  1  0.52887788  0.20175842  0.97402338  1.0
  S  S14  1  0.47112212  0.79824158  0.02597662  1.0
  S  S15  1  0.47112212  0.70175842  0.52597662  1.0
  N  N16  1  0.87403387  0.25529310  0.32981440  1.0
  N  N17  1  0.87403387  0.24470690  0.82981440  1.0
  N  N18  1  0.12596613  0.75529310  0.17018560  1.0
  N  N19  1  0.12596613  0.74470690  0.67018560  1.0
  N  N20  1  0.82607631  0.78972766  0.34240635  1.0
  N  N21  1  0.82607631  0.71027234  0.84240635  1.0
  N  N22  1  0.17392369  0.28972766  0.15759365  1.0
  N  N23  1  0.17392369  0.21027234  0.65759365  1.0
  N  N24  1  0.68217699  0.39685530  0.43987532  1.0
  N  N25  1  0.68217699  0.10314470  0.93987532  1.0
  N  N26  1  0.31782301  0.89685530  0.06012468  1.0
  N  N27  1  0.31782301  0.60314470  0.56012468  1.0
  N  N28  1  0.52472763  0.15599313  0.44103027  1.0
  N  N29  1  0.52472763  0.34400687  0.94103027  1.0
  N  N30  1  0.47527237  0.65599313  0.05896973  1.0
  N  N31  1  0.47527237  0.84400687  0.55896973  1.0
  O  O32  1  0.94586625  0.82127931  0.42996282  1.0
  O  O33  1  0.94586625  0.67872069  0.92996282  1.0
  O  O34  1  0.05413375  0.32127931  0.07003718  1.0
  O  O35  1  0.05413375  0.17872069  0.57003718  1.0
  O  O36  1  0.81728157  0.67816888  0.31025652  1.0
  O  O37  1  0.81728157  0.82183112  0.81025652  1.0
  O  O38  1  0.18271843  0.17816888  0.18974348  1.0
  O  O39  1  0.18271843  0.32183112  0.68974348  1.0
  O  O40  1  0.70369423  0.87676077  0.28190846  1.0
  O  O41  1  0.70369423  0.62323923  0.78190846  1.0
  O  O42  1  0.29630577  0.37676077  0.21809154  1.0
  O  O43  1  0.29630577  0.12323923  0.71809154  1.0
