# generated using pymatgen
data_Sn(SbTe2)2
_symmetry_space_group_name_H-M   'P 1'
_cell_length_a   14.27108176
_cell_length_b   14.27108176
_cell_length_c   14.27108176
_cell_angle_alpha   17.69860715
_cell_angle_beta   17.69860715
_cell_angle_gamma   17.69860715
_symmetry_Int_Tables_number   1
_chemical_formula_structural   Sn(SbTe2)2
_chemical_formula_sum   'Sn1 Sb2 Te4'
_cell_volume   234.48542361
_cell_formula_units_Z   1
loop_
 _symmetry_equiv_pos_site_id
 _symmetry_equiv_pos_as_xyz
  1  'x, y, z'
loop_
 _atom_site_type_symbol
 _atom_site_label
 _atom_site_symmetry_multiplicity
 _atom_site_fract_x
 _atom_site_fract_y
 _atom_site_fract_z
 _atom_site_occupancy
  Sn  Sn0  1  0.00000000  0.00000000  0.00000000  1.0
  Sb  Sb1  1  1.57432039  0.57432039  0.57432039  1.0
  Sb  Sb2  1  1.42567961  0.42567961  0.42567961  1.0
  Te  Te3  1  0.86803806  0.86803806  0.86803806  1.0
  Te  Te4  1  1.13196194  1.13196194  0.13196194  1.0
  Te  Te5  1  0.71196516  0.71196516  0.71196516  1.0
  Te  Te6  1  1.28803484  1.28803484  0.28803484  1.0
