# generated using pymatgen
data_Ti6Si7Ni16
_symmetry_space_group_name_H-M   'P 1'
_cell_length_a   7.91403304
_cell_length_b   7.91403304
_cell_length_c   7.91403304
_cell_angle_alpha   60.00000000
_cell_angle_beta   60.00000000
_cell_angle_gamma   60.00000000
_symmetry_Int_Tables_number   1
_chemical_formula_structural   Ti6Si7Ni16
_chemical_formula_sum   'Ti6 Si7 Ni16'
_cell_volume   350.49237860
_cell_formula_units_Z   1
loop_
 _symmetry_equiv_pos_site_id
 _symmetry_equiv_pos_as_xyz
  1  'x, y, z'
loop_
 _atom_site_type_symbol
 _atom_site_label
 _atom_site_symmetry_multiplicity
 _atom_site_fract_x
 _atom_site_fract_y
 _atom_site_fract_z
 _atom_site_occupancy
  Ti  Ti0  1  -0.70172159  0.70172159  0.70172159  1.0
  Ti  Ti1  1  -0.29827841  0.29827841  0.70172159  1.0
  Ti  Ti2  1  0.70172159  0.70172159  -0.70172159  1.0
  Ti  Ti3  1  0.29827841  1.29827841  -0.29827841  1.0
  Ti  Ti4  1  0.29827841  -0.29827841  1.29827841  1.0
  Ti  Ti5  1  -0.29827841  0.29827841  0.29827841  1.0
  Si  Si6  1  1.50000000  -0.00000000  0.00000000  1.0
  Si  Si7  1  1.00000000  0.50000000  -0.50000000  1.0
  Si  Si8  1  -0.00000000  1.50000000  0.00000000  1.0
  Si  Si9  1  0.50000000  1.00000000  -0.50000000  1.0
  Si  Si10  1  -0.00000000  -0.00000000  0.50000000  1.0
  Si  Si11  1  0.50000000  -0.50000000  1.00000000  1.0
  Si  Si12  1  -0.00000000  -0.00000000  -0.00000000  1.0
  Ni  Ni13  1  0.88226482  0.88226482  -0.11773518  1.0
  Ni  Ni14  1  1.11773518  0.11773518  0.64679445  1.0
  Ni  Ni15  1  1.11773518  0.64679445  0.11773518  1.0
  Ni  Ni16  1  0.35320555  0.88226482  -0.11773518  1.0
  Ni  Ni17  1  1.64679445  0.11773518  0.11773518  1.0
  Ni  Ni18  1  0.88226482  0.35320555  -0.11773518  1.0
  Ni  Ni19  1  0.88226482  0.88226482  -0.64679445  1.0
  Ni  Ni20  1  1.11773518  0.11773518  0.11773518  1.0
  Ni  Ni21  1  0.66552403  0.66552403  -0.33447597  1.0
  Ni  Ni22  1  0.33447597  1.33447597  -0.00342791  1.0
  Ni  Ni23  1  1.33447597  -0.00342791  0.33447597  1.0
  Ni  Ni24  1  1.00342791  0.66552403  0.66552403  1.0
  Ni  Ni25  1  -0.00342791  1.33447597  0.33447597  1.0
  Ni  Ni26  1  0.66552403  1.00342791  -0.33447597  1.0
  Ni  Ni27  1  0.66552403  0.66552403  1.00342791  1.0
  Ni  Ni28  1  1.33447597  0.33447597  0.33447597  1.0
