# generated using pymatgen
data_InSb2S4Cl
_symmetry_space_group_name_H-M   'P 1'
_cell_length_a   10.44220862
_cell_length_b   10.44220862
_cell_length_c   11.95979512
_cell_angle_alpha   60.77487580
_cell_angle_beta   119.22512420
_cell_angle_gamma   158.52718129
_symmetry_Int_Tables_number   1
_chemical_formula_structural   InSb2S4Cl
_chemical_formula_sum   'In2 Sb4 S8 Cl2'
_cell_volume   414.25918672
_cell_formula_units_Z   2
loop_
 _symmetry_equiv_pos_site_id
 _symmetry_equiv_pos_as_xyz
  1  'x, y, z'
loop_
 _atom_site_type_symbol
 _atom_site_label
 _atom_site_symmetry_multiplicity
 _atom_site_fract_x
 _atom_site_fract_y
 _atom_site_fract_z
 _atom_site_occupancy
  In  In0  1  0.66376351  0.33623649  0.93427821  1.0
  In  In1  1  1.33623649  -0.33623649  0.06572179  1.0
  Sb  Sb2  1  0.95233835  -0.95233835  0.72107205  1.0
  Sb  Sb3  1  0.04766165  -0.04766165  0.27892795  1.0
  Sb  Sb4  1  0.70542222  0.29457778  0.59383274  1.0
  Sb  Sb5  1  1.29457778  -0.29457778  0.40616726  1.0
  S  S6  1  0.89825945  -0.89825945  0.48101398  1.0
  S  S7  1  0.10174055  -0.10174055  0.51898602  1.0
  S  S8  1  0.68091198  0.31908802  0.36707196  1.0
  S  S9  1  1.31908802  -0.31908802  0.63292804  1.0
  S  S10  1  0.53490530  0.46509470  0.71642883  1.0
  S  S11  1  1.46509470  -0.46509470  0.28357117  1.0
  S  S12  1  0.21303587  -0.21303587  0.84872863  1.0
  S  S13  1  0.78696413  -0.78696413  0.15127137  1.0
  Cl  Cl14  1  0.89516432  0.10483568  0.98196065  1.0
  Cl  Cl15  1  1.10483568  -0.10483568  0.01803935  1.0
