# generated using pymatgen
data_Li(FeGe)6
_symmetry_space_group_name_H-M   'P 1'
_cell_length_a   8.67679109
_cell_length_b   8.67679109
_cell_length_c   8.00050285
_cell_angle_alpha   90.00000000
_cell_angle_beta   90.00000000
_cell_angle_gamma   120.00000000
_symmetry_Int_Tables_number   1
_chemical_formula_structural   Li(FeGe)6
_chemical_formula_sum   'Li3 Fe18 Ge18'
_cell_volume   521.63436909
_cell_formula_units_Z   3
loop_
 _symmetry_equiv_pos_site_id
 _symmetry_equiv_pos_as_xyz
  1  'x, y, z'
loop_
 _atom_site_type_symbol
 _atom_site_label
 _atom_site_symmetry_multiplicity
 _atom_site_fract_x
 _atom_site_fract_y
 _atom_site_fract_z
 _atom_site_occupancy
  Li  Li0  1  0.33333333  0.66666667  0.50000000  1.0
  Li  Li1  1  0.66666667  0.33333333  0.50000000  1.0
  Li  Li2  1  0.00000000  0.00000000  0.00000000  1.0
  Fe  Fe3  1  0.16686694  0.83313306  0.74792697  1.0
  Fe  Fe4  1  0.16686694  0.83313306  0.25207303  1.0
  Fe  Fe5  1  0.16686694  0.33373388  0.74792697  1.0
  Fe  Fe6  1  0.16686694  0.33373388  0.25207303  1.0
  Fe  Fe7  1  0.83313306  0.16686694  0.74792697  1.0
  Fe  Fe8  1  0.83313306  0.16686694  0.25207303  1.0
  Fe  Fe9  1  0.83313306  0.66626612  0.74792697  1.0
  Fe  Fe10  1  0.83313306  0.66626612  0.25207303  1.0
  Fe  Fe11  1  0.66626612  0.83313306  0.74792697  1.0
  Fe  Fe12  1  0.66626612  0.83313306  0.25207303  1.0
  Fe  Fe13  1  0.33373388  0.16686694  0.74792697  1.0
  Fe  Fe14  1  0.33373388  0.16686694  0.25207303  1.0
  Fe  Fe15  1  0.50000000  0.50000000  0.75370898  1.0
  Fe  Fe16  1  0.50000000  0.50000000  0.24629102  1.0
  Fe  Fe17  1  0.50000000  0.00000000  0.75370898  1.0
  Fe  Fe18  1  0.50000000  0.00000000  0.24629102  1.0
  Fe  Fe19  1  -0.00000000  0.50000000  0.75370898  1.0
  Fe  Fe20  1  -0.00000000  0.50000000  0.24629102  1.0
  Ge  Ge21  1  0.66061267  0.66061267  0.50000000  1.0
  Ge  Ge22  1  0.66061267  0.00000000  0.50000000  1.0
  Ge  Ge23  1  -0.00000000  0.66061267  0.50000000  1.0
  Ge  Ge24  1  -0.00000000  0.33938733  0.50000000  1.0
  Ge  Ge25  1  0.33938733  0.33938733  0.50000000  1.0
  Ge  Ge26  1  0.33938733  0.00000000  0.50000000  1.0
  Ge  Ge27  1  0.67259999  0.67259999  0.00000000  1.0
  Ge  Ge28  1  0.67259999  0.00000000  0.00000000  1.0
  Ge  Ge29  1  0.00000000  0.67259999  0.00000000  1.0
  Ge  Ge30  1  -0.00000000  0.32740001  0.00000000  1.0
  Ge  Ge31  1  0.32740001  0.32740001  0.00000000  1.0
  Ge  Ge32  1  0.32740001  0.00000000  0.00000000  1.0
  Ge  Ge33  1  0.33333333  0.66666667  0.83757956  1.0
  Ge  Ge34  1  0.33333333  0.66666667  0.16242044  1.0
  Ge  Ge35  1  0.66666667  0.33333333  0.83757956  1.0
  Ge  Ge36  1  0.66666667  0.33333333  0.16242044  1.0
  Ge  Ge37  1  0.00000000  0.00000000  0.66124219  1.0
  Ge  Ge38  1  0.00000000  0.00000000  0.33875781  1.0
