# generated using pymatgen
data_NaTiP2O7
_symmetry_space_group_name_H-M   'P 1'
_cell_length_a   8.83022851
_cell_length_b   5.32300098
_cell_length_c   13.56882352
_cell_angle_alpha   90.00000000
_cell_angle_beta   117.14361283
_cell_angle_gamma   90.00000000
_symmetry_Int_Tables_number   1
_chemical_formula_structural   NaTiP2O7
_chemical_formula_sum   'Na4 Ti4 P8 O28'
_cell_volume   567.53832589
_cell_formula_units_Z   4
loop_
 _symmetry_equiv_pos_site_id
 _symmetry_equiv_pos_as_xyz
  1  'x, y, z'
loop_
 _atom_site_type_symbol
 _atom_site_label
 _atom_site_symmetry_multiplicity
 _atom_site_fract_x
 _atom_site_fract_y
 _atom_site_fract_z
 _atom_site_occupancy
  Na  Na0  1  0.94303101  0.72856649  0.30951696  1.0
  Na  Na1  1  0.94303101  0.77143351  0.80951696  1.0
  Na  Na2  1  0.05696899  0.22856649  0.19048304  1.0
  Na  Na3  1  0.05696899  0.27143351  0.69048304  1.0
  Ti  Ti4  1  0.23776624  0.26395340  0.47207096  1.0
  Ti  Ti5  1  0.23776624  0.23604660  0.97207096  1.0
  Ti  Ti6  1  0.76223376  0.76395340  0.02792904  1.0
  Ti  Ti7  1  0.76223376  0.73604660  0.52792904  1.0
  P  P8  1  0.81542234  0.22223408  0.38432247  1.0
  P  P9  1  0.81542234  0.27776592  0.88432247  1.0
  P  P10  1  0.18457766  0.72223408  0.11567753  1.0
  P  P11  1  0.18457766  0.77776592  0.61567753  1.0
  P  P12  1  0.66822239  0.24445560  0.14428990  1.0
  P  P13  1  0.66822239  0.25554440  0.64428990  1.0
  P  P14  1  0.33177761  0.74445560  0.35571010  1.0
  P  P15  1  0.33177761  0.75554440  0.85571010  1.0
  O  O16  1  0.97967555  0.27534857  0.37271827  1.0
  O  O17  1  0.97967555  0.22465143  0.87271827  1.0
  O  O18  1  0.02032445  0.77534857  0.12728173  1.0
  O  O19  1  0.02032445  0.72465143  0.62728173  1.0
  O  O20  1  0.80559041  0.94401640  0.41107751  1.0
  O  O21  1  0.80559041  0.55598360  0.91107751  1.0
  O  O22  1  0.19440959  0.44401640  0.08892249  1.0
  O  O23  1  0.19440959  0.05598360  0.58892249  1.0
  O  O24  1  0.79047709  0.40482268  0.46165029  1.0
  O  O25  1  0.79047709  0.09517732  0.96165029  1.0
  O  O26  1  0.20952291  0.90482268  0.03834971  1.0
  O  O27  1  0.20952291  0.59517732  0.53834971  1.0
  O  O28  1  0.77633201  0.45958278  0.13401987  1.0
  O  O29  1  0.77633201  0.04041722  0.63401987  1.0
  O  O30  1  0.22366799  0.95958278  0.36598013  1.0
  O  O31  1  0.22366799  0.54041722  0.86598013  1.0
  O  O32  1  0.75229037  0.98639124  0.15206990  1.0
  O  O33  1  0.75229037  0.51360876  0.65206990  1.0
  O  O34  1  0.24770963  0.48639124  0.34793010  1.0
  O  O35  1  0.24770963  0.01360876  0.84793010  1.0
  O  O36  1  0.66130557  0.28105326  0.26147350  1.0
  O  O37  1  0.66130557  0.21894674  0.76147350  1.0
  O  O38  1  0.33869443  0.78105326  0.23852650  1.0
  O  O39  1  0.33869443  0.71894674  0.73852650  1.0
  O  O40  1  0.48186079  0.25744344  0.05689402  1.0
  O  O41  1  0.48186079  0.24255656  0.55689402  1.0
  O  O42  1  0.51813921  0.75744344  0.44310598  1.0
  O  O43  1  0.51813921  0.74255656  0.94310598  1.0
