# generated using pymatgen
data_ReO3
_symmetry_space_group_name_H-M   'P 1'
_cell_length_a   5.34074772
_cell_length_b   5.34074772
_cell_length_c   13.07853839
_cell_angle_alpha   89.99280141
_cell_angle_beta   90.00719859
_cell_angle_gamma   120.00756518
_symmetry_Int_Tables_number   1
_chemical_formula_structural   ReO3
_chemical_formula_sum   'Re6 O18'
_cell_volume   323.04338578
_cell_formula_units_Z   6
loop_
 _symmetry_equiv_pos_site_id
 _symmetry_equiv_pos_as_xyz
  1  'x, y, z'
loop_
 _atom_site_type_symbol
 _atom_site_label
 _atom_site_symmetry_multiplicity
 _atom_site_fract_x
 _atom_site_fract_y
 _atom_site_fract_z
 _atom_site_occupancy
  Re  Re0  1  0.33331921  -0.33333933  0.66666667  1.0
  Re  Re1  1  1.33333933  0.66668079  0.16666667  1.0
  Re  Re2  1  0.66666067  0.33331921  0.83333333  1.0
  Re  Re3  1  0.66668079  0.33333933  0.33333333  1.0
  Re  Re4  1  -0.00000000  -0.00000000  0.00000000  1.0
  Re  Re5  1  -0.00000000  0.00000000  0.50000000  1.0
  O  O6  1  0.66693286  -0.16636808  0.58347187  1.0
  O  O7  1  1.16636808  0.33306714  0.08347187  1.0
  O  O8  1  0.83363192  0.66693286  0.91652813  1.0
  O  O9  1  0.33306714  0.16636808  0.41652813  1.0
  O  O10  1  0.83363389  0.16693212  0.91665274  1.0
  O  O11  1  0.83306788  0.16636611  0.41665274  1.0
  O  O12  1  1.16693212  0.83363389  0.58334726  1.0
  O  O13  1  0.16636611  -0.16693212  0.08334726  1.0
  O  O14  1  0.49969038  -0.00031312  0.75015083  1.0
  O  O15  1  1.00031312  0.50030962  0.25015083  1.0
  O  O16  1  0.99968688  0.49969038  0.74984917  1.0
  O  O17  1  0.50030962  0.00031312  0.24984917  1.0
  O  O18  1  0.33363446  0.16693809  0.91681879  1.0
  O  O19  1  0.83306191  0.66636554  0.41681879  1.0
  O  O20  1  1.16693809  0.33363446  0.58318121  1.0
  O  O21  1  0.66636554  -0.16693809  0.08318121  1.0
  O  O22  1  0.49968518  0.49968518  0.75000000  1.0
  O  O23  1  0.50031482  0.50031482  0.25000000  1.0
