# generated using pymatgen
data_Ca11AlSb9
_symmetry_space_group_name_H-M   'P 1'
_cell_length_a   12.05422032
_cell_length_b   12.05422032
_cell_length_c   12.05422032
_cell_angle_alpha   121.10923328
_cell_angle_beta   117.37560799
_cell_angle_gamma   91.34697068
_symmetry_Int_Tables_number   1
_chemical_formula_structural   Ca11AlSb9
_chemical_formula_sum   'Ca22 Al2 Sb18'
_cell_volume   1250.71046010
_cell_formula_units_Z   2
loop_
 _symmetry_equiv_pos_site_id
 _symmetry_equiv_pos_as_xyz
  1  'x, y, z'
loop_
 _atom_site_type_symbol
 _atom_site_label
 _atom_site_symmetry_multiplicity
 _atom_site_fract_x
 _atom_site_fract_y
 _atom_site_fract_z
 _atom_site_occupancy
  Ca  Ca0  1  0.73734563  0.94116184  1.65094644  1.0
  Ca  Ca1  1  0.79021540  0.44116184  1.20381621  1.0
  Ca  Ca2  1  0.23734563  0.58639919  0.79618379  1.0
  Ca  Ca3  1  0.29021540  0.08639919  0.34905356  1.0
  Ca  Ca4  1  1.05968438  1.24126596  0.63483229  1.0
  Ca  Ca5  1  1.10643367  1.74126596  1.18158159  1.0
  Ca  Ca6  1  1.55968438  0.92485209  0.81841841  1.0
  Ca  Ca7  1  1.60643367  1.42485209  1.36516771  1.0
  Ca  Ca8  1  1.24366991  0.98370703  0.62535699  1.0
  Ca  Ca9  1  0.85835004  0.48370703  0.74003712  1.0
  Ca  Ca10  1  0.74366991  1.11831292  1.25996288  1.0
  Ca  Ca11  1  1.35835004  1.61831292  1.37464301  1.0
  Ca  Ca12  1  0.99312444  0.72864201  1.63005108  1.0
  Ca  Ca13  1  0.59859093  0.22864201  0.73551757  1.0
  Ca  Ca14  1  0.49312444  0.86307335  1.26448243  1.0
  Ca  Ca15  1  0.09859093  0.36307335  0.36994892  1.0
  Ca  Ca16  1  0.84803622  0.83414211  1.33476456  1.0
  Ca  Ca17  1  0.99937755  0.33414211  0.98610589  1.0
  Ca  Ca18  1  0.34803622  1.01327166  1.01389411  1.0
  Ca  Ca19  1  0.49937755  0.51327166  0.66523544  1.0
  Ca  Ca20  1  -0.00538027  -0.00538027  0.00000000  1.0
  Ca  Ca21  1  0.49461973  0.49461973  1.00000000  1.0
  Al  Al22  1  1.27735911  1.27735911  1.00000000  1.0
  Al  Al23  1  0.77735911  0.77735911  1.00000000  1.0
  Sb  Sb24  1  0.78620483  1.13998842  1.57425751  1.0
  Sb  Sb25  1  1.06573092  1.63998842  1.35378360  1.0
  Sb  Sb26  1  1.28620483  0.71194732  0.64621640  1.0
  Sb  Sb27  1  0.56573092  0.21194732  0.42574249  1.0
  Sb  Sb28  1  1.05672513  1.04091854  0.75542913  1.0
  Sb  Sb29  1  0.78548940  0.54091854  0.98419341  1.0
  Sb  Sb30  1  0.55672513  0.80129599  1.01580659  1.0
  Sb  Sb31  1  1.28548940  1.30129599  1.24457087  1.0
  Sb  Sb32  1  1.31392222  1.31560231  0.64545969  1.0
  Sb  Sb33  1  1.17014262  1.81560231  1.00168008  1.0
  Sb  Sb34  1  1.81392222  1.16846253  0.99831992  1.0
  Sb  Sb35  1  1.67014262  1.66846253  1.35454031  1.0
  Sb  Sb36  1  0.99656738  1.00448238  0.27961430  1.0
  Sb  Sb37  1  1.22486808  1.50448238  1.00791500  1.0
  Sb  Sb38  1  1.49656738  1.21695308  0.99208500  1.0
  Sb  Sb39  1  1.72486808  1.71695308  1.72038570  1.0
  Sb  Sb40  1  0.92224242  0.42224242  0.50000000  1.0
  Sb  Sb41  1  1.42224242  0.92224242  0.50000000  1.0
