# generated using pymatgen
data_ZrN2
_symmetry_space_group_name_H-M   'P 1'
_cell_length_a   3.48352213
_cell_length_b   3.48471288
_cell_length_c   5.79129557
_cell_angle_alpha   90.00000000
_cell_angle_beta   90.00000000
_cell_angle_gamma   90.00000000
_symmetry_Int_Tables_number   1
_chemical_formula_structural   ZrN2
_chemical_formula_sum   'Zr2 N4'
_cell_volume   70.30096802
_cell_formula_units_Z   2
loop_
 _symmetry_equiv_pos_site_id
 _symmetry_equiv_pos_as_xyz
  1  'x, y, z'
loop_
 _atom_site_type_symbol
 _atom_site_label
 _atom_site_symmetry_multiplicity
 _atom_site_fract_x
 _atom_site_fract_y
 _atom_site_fract_z
 _atom_site_occupancy
  N  N0  1  0.00000000  0.00000000  0.50001108  1.0
  N  N1  1  0.50000000  0.50000000  0.49998892  1.0
  N  N2  1  0.00000000  0.00000000  -0.00001059  1.0
  N  N3  1  0.50000000  0.50000000  1.00001059  1.0
  Zr  Zr4  1  0.00000000  0.50000000  0.25000455  1.0
  Zr  Zr5  1  0.50000000  0.00000000  0.74999545  1.0
