# generated using pymatgen
data_Ti12Zn5C
_symmetry_space_group_name_H-M   'P 1'
_cell_length_a   10.64539352
_cell_length_b   10.64539352
_cell_length_c   10.64539352
_cell_angle_alpha   60.00000000
_cell_angle_beta   60.00000000
_cell_angle_gamma   60.00000000
_symmetry_Int_Tables_number   1
_chemical_formula_structural   Ti12Zn5C
_chemical_formula_sum   'Ti24 Zn10 C2'
_cell_volume   853.04150732
_cell_formula_units_Z   2
loop_
 _symmetry_equiv_pos_site_id
 _symmetry_equiv_pos_as_xyz
  1  'x, y, z'
loop_
 _atom_site_type_symbol
 _atom_site_label
 _atom_site_symmetry_multiplicity
 _atom_site_fract_x
 _atom_site_fract_y
 _atom_site_fract_z
 _atom_site_occupancy
  Ti  Ti0  1  0.99798106  -0.75234543  0.75638332  1.0
  Ti  Ti1  1  -0.00201894  0.75638332  0.24765457  1.0
  Ti  Ti2  1  0.00234543  0.25201894  0.25201894  1.0
  Ti  Ti3  1  0.49361668  0.25201894  0.25201894  1.0
  Ti  Ti4  1  -0.75234543  0.99798106  0.75638332  1.0
  Ti  Ti5  1  0.99798106  -0.00201894  0.75638332  1.0
  Ti  Ti6  1  0.99798106  -0.24361668  0.99798106  1.0
  Ti  Ti7  1  -0.75234543  0.75638332  0.99798106  1.0
  Ti  Ti8  1  0.25201894  0.00234543  0.25201894  1.0
  Ti  Ti9  1  0.25201894  0.25201894  0.00234543  1.0
  Ti  Ti10  1  0.49361668  0.25201894  0.00234543  1.0
  Ti  Ti11  1  0.49361668  0.00234543  0.25201894  1.0
  Ti  Ti12  1  0.75638332  -0.00201894  0.99798106  1.0
  Ti  Ti13  1  -0.75234543  0.99798106  0.99798106  1.0
  Ti  Ti14  1  0.25201894  0.49361668  0.00234543  1.0
  Ti  Ti15  1  0.25201894  0.00234543  0.49361668  1.0
  Ti  Ti16  1  -0.24361668  0.99798106  0.24765457  1.0
  Ti  Ti17  1  0.75638332  -0.75234543  0.99798106  1.0
  Ti  Ti18  1  0.99798106  -0.75234543  0.99798106  1.0
  Ti  Ti19  1  -0.00201894  0.99798106  0.24765457  1.0
  Ti  Ti20  1  0.25201894  0.49361668  0.25201894  1.0
  Ti  Ti21  1  0.00234543  0.49361668  0.25201894  1.0
  Ti  Ti22  1  0.00234543  0.25201894  0.49361668  1.0
  Ti  Ti23  1  0.25201894  0.25201894  0.49361668  1.0
  Zn  Zn24  1  0.66668337  -0.33331663  0.99994990  1.0
  Zn  Zn25  1  0.66668337  -0.00005010  0.66668337  1.0
  Zn  Zn26  1  0.58331663  -0.41668337  0.58331663  1.0
  Zn  Zn27  1  1.25005010  -0.41668337  0.58331663  1.0
  Zn  Zn28  1  0.99994990  -0.33331663  0.66668337  1.0
  Zn  Zn29  1  0.66668337  -0.33331663  0.66668337  1.0
  Zn  Zn30  1  0.58331663  0.25005010  0.58331663  1.0
  Zn  Zn31  1  0.58331663  -0.41668337  1.25005010  1.0
  Zn  Zn32  1  0.50000000  0.50000000  -0.50000000  1.0
  Zn  Zn33  1  0.75000000  -0.25000000  0.75000000  1.0
  C  C34  1  0.00000000  1.00000000  -0.00000000  1.0
  C  C35  1  0.25000000  0.25000000  0.25000000  1.0
