# generated using pymatgen
data_BaYFe4O7
_symmetry_space_group_name_H-M   'P 1'
_cell_length_a   6.39258758
_cell_length_b   9.05878914
_cell_length_c   6.34872223
_cell_angle_alpha   90.00000000
_cell_angle_beta   90.25393689
_cell_angle_gamma   90.00000000
_symmetry_Int_Tables_number   1
_chemical_formula_structural   BaYFe4O7
_chemical_formula_sum   'Ba2 Y2 Fe8 O14'
_cell_volume   367.64519788
_cell_formula_units_Z   2
loop_
 _symmetry_equiv_pos_site_id
 _symmetry_equiv_pos_as_xyz
  1  'x, y, z'
loop_
 _atom_site_type_symbol
 _atom_site_label
 _atom_site_symmetry_multiplicity
 _atom_site_fract_x
 _atom_site_fract_y
 _atom_site_fract_z
 _atom_site_occupancy
  Ba  Ba0  1  0.76684897  -0.00227896  0.28022477  1.0
  Ba  Ba1  1  0.23315103  0.49772104  0.71977523  1.0
  Y  Y2  1  0.73773613  0.75056971  0.74947775  1.0
  Y  Y3  1  0.26226387  0.25056971  0.25052225  1.0
  Fe  Fe4  1  0.99619197  0.13330033  0.74300210  1.0
  Fe  Fe5  1  0.00380803  0.63330033  0.25699790  1.0
  Fe  Fe6  1  0.77719979  0.35595613  0.97961210  1.0
  Fe  Fe7  1  0.22280021  0.85595613  0.02038790  1.0
  Fe  Fe8  1  0.74299869  0.37085617  0.51276711  1.0
  Fe  Fe9  1  0.25700131  0.87085617  0.48723289  1.0
  Fe  Fe10  1  0.57733061  0.16337830  0.77562882  1.0
  Fe  Fe11  1  0.42266939  0.66337830  0.22437118  1.0
  O  O12  1  0.98845430  0.24162210  0.47790438  1.0
  O  O13  1  0.01154570  0.74162210  0.52209562  1.0
  O  O14  1  0.79045699  0.50194775  0.74782582  1.0
  O  O15  1  0.20954301  0.00194775  0.25217418  1.0
  O  O16  1  0.75820577  -0.00165766  0.71659882  1.0
  O  O17  1  0.24179423  0.49834234  0.28340118  1.0
  O  O18  1  0.47000701  0.27504611  0.54017358  1.0
  O  O19  1  0.52999299  0.77504611  0.45982642  1.0
  O  O20  1  0.44106040  0.71326308  0.92875044  1.0
  O  O21  1  0.55893960  0.21326308  0.07124956  1.0
  O  O22  1  0.23613500  -0.01124624  0.75539535  1.0
  O  O23  1  0.76386500  0.48875376  0.24460465  1.0
  O  O24  1  0.06381568  0.27924319  0.95981311  1.0
  O  O25  1  0.93618432  0.77924319  0.04018689  1.0
