# generated using pymatgen
data_BaTi(SiO3)3
_symmetry_space_group_name_H-M   'P 1'
_cell_length_a   6.71611494
_cell_length_b   6.71611494
_cell_length_c   9.89322658
_cell_angle_alpha   90.00000000
_cell_angle_beta   90.00000000
_cell_angle_gamma   120.00000000
_symmetry_Int_Tables_number   1
_chemical_formula_structural   BaTi(SiO3)3
_chemical_formula_sum   'Ba2 Ti2 Si6 O18'
_cell_volume   386.46024755
_cell_formula_units_Z   2
loop_
 _symmetry_equiv_pos_site_id
 _symmetry_equiv_pos_as_xyz
  1  'x, y, z'
loop_
 _atom_site_type_symbol
 _atom_site_label
 _atom_site_symmetry_multiplicity
 _atom_site_fract_x
 _atom_site_fract_y
 _atom_site_fract_z
 _atom_site_occupancy
  Ba  Ba0  1  -0.00000000  -0.00000000  0.50000000  1.0
  Ba  Ba1  1  -0.00000000  -0.00000000  0.00000000  1.0
  Ti  Ti2  1  0.33333333  0.66666667  0.50000000  1.0
  Ti  Ti3  1  0.33333333  0.66666667  0.00000000  1.0
  Si  Si4  1  0.59585331  0.55153389  0.25000000  1.0
  Si  Si5  1  0.59585331  0.04431943  0.75000000  1.0
  Si  Si6  1  0.95568057  0.55153389  0.75000000  1.0
  Si  Si7  1  0.95568057  0.40414669  0.25000000  1.0
  Si  Si8  1  0.44846611  0.40414669  0.75000000  1.0
  Si  Si9  1  0.44846611  0.04431943  0.25000000  1.0
  O  O10  1  0.09681873  0.42139746  0.38710510  1.0
  O  O11  1  0.09681873  0.42139746  0.11289490  1.0
  O  O12  1  0.09681873  0.67542127  0.88710510  1.0
  O  O13  1  0.09681873  0.67542127  0.61289490  1.0
  O  O14  1  0.32457873  0.42139746  0.88710510  1.0
  O  O15  1  0.32457873  0.42139746  0.61289490  1.0
  O  O16  1  0.32457873  0.90318127  0.38710510  1.0
  O  O17  1  0.32457873  0.90318127  0.11289490  1.0
  O  O18  1  0.57860254  0.90318127  0.88710510  1.0
  O  O19  1  0.57860254  0.90318127  0.61289490  1.0
  O  O20  1  0.57860254  0.67542127  0.38710510  1.0
  O  O21  1  0.57860254  0.67542127  0.11289490  1.0
  O  O22  1  0.85999384  0.58835793  0.25000000  1.0
  O  O23  1  0.85999384  0.27163592  0.75000000  1.0
  O  O24  1  0.72836408  0.58835793  0.75000000  1.0
  O  O25  1  0.72836408  0.14000616  0.25000000  1.0
  O  O26  1  0.41164207  0.14000616  0.75000000  1.0
  O  O27  1  0.41164207  0.27163592  0.25000000  1.0
