# generated using pymatgen
data_Sn4Au
_symmetry_space_group_name_H-M   'P 1'
_cell_length_a   6.72908375
_cell_length_b   6.72908375
_cell_length_c   5.78492798
_cell_angle_alpha   90.00000000
_cell_angle_beta   90.00000000
_cell_angle_gamma   90.00000000
_symmetry_Int_Tables_number   1
_chemical_formula_structural   Sn4Au
_chemical_formula_sum   'Sn8 Au2'
_cell_volume   261.94482580
_cell_formula_units_Z   2
loop_
 _symmetry_equiv_pos_site_id
 _symmetry_equiv_pos_as_xyz
  1  'x, y, z'
loop_
 _atom_site_type_symbol
 _atom_site_label
 _atom_site_symmetry_multiplicity
 _atom_site_fract_x
 _atom_site_fract_y
 _atom_site_fract_z
 _atom_site_occupancy
  Sn  Sn0  1  0.83336893  0.66663107  0.26338820  1.0
  Sn  Sn1  1  0.83336893  0.33336893  0.73661180  1.0
  Sn  Sn2  1  0.33336893  0.16663107  0.73661180  1.0
  Sn  Sn3  1  0.33336893  0.83336893  0.26338820  1.0
  Sn  Sn4  1  0.66663107  0.83336893  0.73661180  1.0
  Sn  Sn5  1  0.66663107  0.16663107  0.26338820  1.0
  Sn  Sn6  1  0.16663107  0.33336893  0.26338820  1.0
  Sn  Sn7  1  0.16663107  0.66663107  0.73661180  1.0
  Au  Au8  1  0.00000000  0.00000000  0.00000000  1.0
  Au  Au9  1  0.50000000  0.50000000  0.00000000  1.0
