# generated using pymatgen
data_La6S11
_symmetry_space_group_name_H-M   'P 1'
_cell_length_a   12.16077974
_cell_length_b   12.16077974
_cell_length_c   15.67149000
_cell_angle_alpha   90.00000000
_cell_angle_beta   90.00000000
_cell_angle_gamma   90.00000000
_symmetry_Int_Tables_number   1
_chemical_formula_structural   La6S11
_chemical_formula_sum   'La24 S44'
_cell_volume   2317.57146580
_cell_formula_units_Z   4
loop_
 _symmetry_equiv_pos_site_id
 _symmetry_equiv_pos_as_xyz
  1  'x, y, z'
loop_
 _atom_site_type_symbol
 _atom_site_label
 _atom_site_symmetry_multiplicity
 _atom_site_fract_x
 _atom_site_fract_y
 _atom_site_fract_z
 _atom_site_occupancy
  La  La0  1  0.41205994  0.33757856  0.39782408  1.0
  La  La1  1  0.91205994  0.83757856  0.10217592  1.0
  La  La2  1  0.33757856  0.58794006  0.60217592  1.0
  La  La3  1  0.83757856  0.08794006  0.89782408  1.0
  La  La4  1  0.58794006  0.66242144  0.39782408  1.0
  La  La5  1  0.08794006  0.16242144  0.10217592  1.0
  La  La6  1  0.66242144  0.41205994  0.60217592  1.0
  La  La7  1  0.16242144  0.91205994  0.89782408  1.0
  La  La8  1  0.58801923  0.33759738  0.89782795  1.0
  La  La9  1  1.08801923  0.83759738  0.60217205  1.0
  La  La10  1  0.33759738  0.41198077  0.10217205  1.0
  La  La11  1  0.83759738  -0.08801923  0.39782795  1.0
  La  La12  1  0.41198077  0.66240262  0.89782795  1.0
  La  La13  1  -0.08801923  0.16240262  0.60217205  1.0
  La  La14  1  0.66240262  0.58801923  0.10217205  1.0
  La  La15  1  0.16240262  1.08801923  0.39782795  1.0
  La  La16  1  0.72462681  0.22461542  0.13898927  1.0
  La  La17  1  0.22462681  0.72461542  0.36101073  1.0
  La  La18  1  0.22461542  0.27537319  0.86101073  1.0
  La  La19  1  0.72461542  0.77537319  0.63898927  1.0
  La  La20  1  0.27537319  0.77538458  0.13898927  1.0
  La  La21  1  0.77537319  0.27538458  0.36101073  1.0
  La  La22  1  0.77538458  0.72462681  0.86101073  1.0
  La  La23  1  0.27538458  0.22462681  0.63898927  1.0
  S  S24  1  0.42857438  0.80632325  0.28616631  1.0
  S  S25  1  0.92857438  0.30632325  0.21383369  1.0
  S  S26  1  0.80632325  0.57142562  0.71383369  1.0
  S  S27  1  0.30632325  0.07142562  0.78616631  1.0
  S  S28  1  0.57142562  0.19367675  0.28616631  1.0
  S  S29  1  0.07142562  0.69367675  0.21383369  1.0
  S  S30  1  0.19367675  0.42857438  0.71383369  1.0
  S  S31  1  0.69367675  0.92857438  0.78616631  1.0
  S  S32  1  0.36721010  0.44428202  0.91531252  1.0
  S  S33  1  0.86721010  0.94428202  0.58468748  1.0
  S  S34  1  0.44428202  0.63278990  0.08468748  1.0
  S  S35  1  0.94428202  0.13278990  0.41531252  1.0
  S  S36  1  0.63278990  0.55571798  0.91531252  1.0
  S  S37  1  0.13278990  0.05571798  0.58468748  1.0
  S  S38  1  0.55571798  0.36721010  0.08468748  1.0
  S  S39  1  0.05571798  0.86721010  0.41531252  1.0
  S  S40  1  0.36721128  0.55569719  0.41533380  1.0
  S  S41  1  0.86721128  1.05569719  0.08466620  1.0
  S  S42  1  0.55569719  0.63278872  0.58466620  1.0
  S  S43  1  1.05569719  0.13278872  0.91533380  1.0
  S  S44  1  0.63278872  0.44430281  0.41533380  1.0
  S  S45  1  0.13278872  -0.05569719  0.08466620  1.0
  S  S46  1  0.44430281  0.36721128  0.58466620  1.0
  S  S47  1  -0.05569719  0.86721128  0.91533380  1.0
  S  S48  1  0.80600437  0.42853688  0.21375383  1.0
  S  S49  1  0.30600437  0.92853688  0.28624617  1.0
  S  S50  1  0.42853688  0.19399563  0.78624617  1.0
  S  S51  1  0.92853688  0.69399563  0.71375383  1.0
  S  S52  1  0.19399563  0.57146312  0.21375383  1.0
  S  S53  1  0.69399563  0.07146312  0.28624617  1.0
  S  S54  1  0.57146312  0.80600437  0.78624617  1.0
  S  S55  1  0.07146312  0.30600437  0.71375383  1.0
  S  S56  1  0.71750518  0.21755253  0.52505041  1.0
  S  S57  1  0.21750518  0.71755253  -0.02505041  1.0
  S  S58  1  0.21755253  0.28249482  0.47494959  1.0
  S  S59  1  0.71755253  0.78249482  1.02505041  1.0
  S  S60  1  0.28249482  0.78244747  0.52505041  1.0
  S  S61  1  0.78249482  0.28244747  -0.02505041  1.0
  S  S62  1  0.78244747  0.71750518  0.47494959  1.0
  S  S63  1  0.28244747  0.21750518  1.02505041  1.0
  S  S64  1  0.25000000  0.25000000  0.25000000  1.0
  S  S65  1  0.75000000  0.75000000  0.25000000  1.0
  S  S66  1  0.25000000  0.75000000  0.75000000  1.0
  S  S67  1  0.75000000  0.25000000  0.75000000  1.0
