# generated using pymatgen
data_ZrGa2Co
_symmetry_space_group_name_H-M   'P 1'
_cell_length_a   9.62073357
_cell_length_b   9.62073357
_cell_length_c   9.62073357
_cell_angle_alpha   100.32790901
_cell_angle_beta   100.32790901
_cell_angle_gamma   129.89906433
_symmetry_Int_Tables_number   1
_chemical_formula_structural   ZrGa2Co
_chemical_formula_sum   'Zr10 Ga20 Co10'
_cell_volume   618.89430400
_cell_formula_units_Z   10
loop_
 _symmetry_equiv_pos_site_id
 _symmetry_equiv_pos_as_xyz
  1  'x, y, z'
loop_
 _atom_site_type_symbol
 _atom_site_label
 _atom_site_symmetry_multiplicity
 _atom_site_fract_x
 _atom_site_fract_y
 _atom_site_fract_z
 _atom_site_occupancy
  Zr  Zr0  1  1.32980909  0.61066391  0.71914518  1.0
  Zr  Zr1  1  0.61066391  0.32980909  0.71914518  1.0
  Zr  Zr2  1  0.61066391  0.89151872  1.28085482  1.0
  Zr  Zr3  1  0.89151872  0.61066391  0.28085482  1.0
  Zr  Zr4  1  0.32292167  0.32292167  0.40162837  1.0
  Zr  Zr5  1  0.32292167  0.92129329  1.00000000  1.0
  Zr  Zr6  1  0.92129329  1.32292167  1.00000000  1.0
  Zr  Zr7  1  0.92129329  0.92129329  0.59837163  1.0
  Zr  Zr8  1  0.00269645  0.00269645  -0.00000000  1.0
  Zr  Zr9  1  0.53952574  0.53952574  0.00000000  1.0
  Ga  Ga10  1  0.73327550  0.52134664  0.50765248  1.0
  Ga  Ga11  1  0.73327550  1.22562302  1.21192886  1.0
  Ga  Ga12  1  1.52134664  1.73327550  1.50765248  1.0
  Ga  Ga13  1  1.52134664  1.01369416  0.78807114  1.0
  Ga  Ga14  1  1.01369416  0.52134664  0.78807114  1.0
  Ga  Ga15  1  1.01369416  1.22562302  1.49234752  1.0
  Ga  Ga16  1  1.22562302  1.73327550  1.21192886  1.0
  Ga  Ga17  1  1.22562302  1.01369416  0.49234752  1.0
  Ga  Ga18  1  1.12194636  0.28446017  0.83748619  1.0
  Ga  Ga19  1  1.28446017  1.12194636  0.83748619  1.0
  Ga  Ga20  1  1.28446017  1.44697397  1.16251381  1.0
  Ga  Ga21  1  0.44697397  0.28446017  0.16251381  1.0
  Ga  Ga22  1  0.74996736  0.13371647  0.61625090  1.0
  Ga  Ga23  1  1.13371647  0.74996736  0.61625090  1.0
  Ga  Ga24  1  1.13371647  1.51746557  1.38374910  1.0
  Ga  Ga25  1  0.51746557  0.13371647  0.38374910  1.0
  Ga  Ga26  1  0.64580122  0.64580122  0.73583921  1.0
  Ga  Ga27  1  0.64580122  0.90996201  1.00000000  1.0
  Ga  Ga28  1  0.90996201  1.64580122  1.00000000  1.0
  Ga  Ga29  1  0.90996201  0.90996201  0.26416079  1.0
  Co  Co30  1  1.75619492  0.97251200  0.78368291  1.0
  Co  Co31  1  0.97251200  0.75619492  0.78368291  1.0
  Co  Co32  1  0.97251200  1.18882909  1.21631709  1.0
  Co  Co33  1  1.18882909  0.97251200  0.21631709  1.0
  Co  Co34  1  0.62927139  0.62927139  0.32466523  1.0
  Co  Co35  1  0.62927139  1.30460616  1.00000000  1.0
  Co  Co36  1  1.30460616  1.62927139  1.00000000  1.0
  Co  Co37  1  1.30460616  1.30460616  0.67533477  1.0
  Co  Co38  1  0.88183876  0.38183876  0.50000000  1.0
  Co  Co39  1  1.38183876  0.88183876  0.50000000  1.0
