# generated using pymatgen
data_CsH
_symmetry_space_group_name_H-M   'P 1'
_cell_length_a   6.42897375
_cell_length_b   6.42897375
_cell_length_c   4.95856695
_cell_angle_alpha   90.00000000
_cell_angle_beta   90.00000000
_cell_angle_gamma   142.89417630
_symmetry_Int_Tables_number   1
_chemical_formula_structural   CsH
_chemical_formula_sum   'Cs2 H2'
_cell_volume   123.64168968
_cell_formula_units_Z   2
loop_
 _symmetry_equiv_pos_site_id
 _symmetry_equiv_pos_as_xyz
  1  'x, y, z'
loop_
 _atom_site_type_symbol
 _atom_site_label
 _atom_site_symmetry_multiplicity
 _atom_site_fract_x
 _atom_site_fract_y
 _atom_site_fract_z
 _atom_site_occupancy
  Cs  Cs0  1  -0.62259775  0.62259775  0.25000000  1.0
  Cs  Cs1  1  -0.37740225  1.37740225  0.75000000  1.0
  H  H2  1  -0.88031242  0.88031242  0.25000000  1.0
  H  H3  1  -0.11968758  1.11968758  0.75000000  1.0
