# generated using pymatgen
data_Nb3ClO7
_symmetry_space_group_name_H-M   'P 1'
_cell_length_a   15.75117303
_cell_length_b   11.02759473
_cell_length_c   3.87156919
_cell_angle_alpha   90.00000000
_cell_angle_beta   90.00000000
_cell_angle_gamma   90.00000000
_symmetry_Int_Tables_number   1
_chemical_formula_structural   Nb3ClO7
_chemical_formula_sum   'Nb12 Cl4 O28'
_cell_volume   672.48209277
_cell_formula_units_Z   4
loop_
 _symmetry_equiv_pos_site_id
 _symmetry_equiv_pos_as_xyz
  1  'x, y, z'
loop_
 _atom_site_type_symbol
 _atom_site_label
 _atom_site_symmetry_multiplicity
 _atom_site_fract_x
 _atom_site_fract_y
 _atom_site_fract_z
 _atom_site_occupancy
  Nb  Nb0  1  0.83595222  0.96480859  -0.00137095  1.0
  Nb  Nb1  1  0.83595222  0.53519141  -0.00137095  1.0
  Nb  Nb2  1  0.33595222  0.96480859  0.50137095  1.0
  Nb  Nb3  1  0.33595222  0.53519141  0.50137095  1.0
  Nb  Nb4  1  0.16404778  0.46480859  1.00137095  1.0
  Nb  Nb5  1  0.16404778  0.03519141  1.00137095  1.0
  Nb  Nb6  1  0.66404778  0.46480859  0.49862905  1.0
  Nb  Nb7  1  0.66404778  0.03519141  0.49862905  1.0
  Nb  Nb8  1  0.97045733  0.25000000  -0.04635991  1.0
  Nb  Nb9  1  0.47045733  0.25000000  0.54635991  1.0
  Nb  Nb10  1  0.02954267  0.75000000  1.04635991  1.0
  Nb  Nb11  1  0.52954267  0.75000000  0.45364009  1.0
  Cl  Cl12  1  0.74023654  0.25000000  0.49303032  1.0
  Cl  Cl13  1  0.24023654  0.25000000  0.00696968  1.0
  Cl  Cl14  1  0.25976346  0.75000000  0.50696968  1.0
  Cl  Cl15  1  0.75976346  0.75000000  0.99303032  1.0
  O  O16  1  0.88746202  0.38381315  0.99409601  1.0
  O  O17  1  0.88746202  0.11618685  0.99409601  1.0
  O  O18  1  0.38746202  0.38381315  0.50590399  1.0
  O  O19  1  0.38746202  0.11618685  0.50590399  1.0
  O  O20  1  0.11253798  0.88381315  0.00590399  1.0
  O  O21  1  0.11253798  0.61618685  0.00590399  1.0
  O  O22  1  0.61253798  0.88381315  0.49409601  1.0
  O  O23  1  0.61253798  0.61618685  0.49409601  1.0
  O  O24  1  0.70010575  0.47076731  0.99756585  1.0
  O  O25  1  0.70010575  0.02923269  0.99756585  1.0
  O  O26  1  0.20010575  0.47076731  0.50243415  1.0
  O  O27  1  0.20010575  0.02923269  0.50243415  1.0
  O  O28  1  0.29989425  0.97076731  0.00243415  1.0
  O  O29  1  0.29989425  0.52923269  0.00243415  1.0
  O  O30  1  0.79989425  0.97076731  0.49756585  1.0
  O  O31  1  0.79989425  0.52923269  0.49756585  1.0
  O  O32  1  0.56769086  0.37441880  0.50553264  1.0
  O  O33  1  0.56769086  0.12558120  0.50553264  1.0
  O  O34  1  0.06769086  0.37441880  -0.00553264  1.0
  O  O35  1  0.06769086  0.12558120  -0.00553264  1.0
  O  O36  1  0.43230914  0.87441880  0.49446736  1.0
  O  O37  1  0.43230914  0.62558120  0.49446736  1.0
  O  O38  1  0.93230914  0.87441880  1.00553264  1.0
  O  O39  1  0.93230914  0.62558120  1.00553264  1.0
  O  O40  1  -0.02348743  0.25000000  0.48741457  1.0
  O  O41  1  0.47651257  0.25000000  1.01258543  1.0
  O  O42  1  1.02348743  0.75000000  0.51258543  1.0
  O  O43  1  0.52348743  0.75000000  -0.01258543  1.0
