# generated using pymatgen
data_K2NiAs2
_symmetry_space_group_name_H-M   'P 1'
_cell_length_a   7.82399090
_cell_length_b   7.82399090
_cell_length_c   5.79746925
_cell_angle_alpha   90.00000000
_cell_angle_beta   90.00000000
_cell_angle_gamma   129.70758914
_symmetry_Int_Tables_number   1
_chemical_formula_structural   K2NiAs2
_chemical_formula_sum   'K4 Ni2 As4'
_cell_volume   273.02303753
_cell_formula_units_Z   2
loop_
 _symmetry_equiv_pos_site_id
 _symmetry_equiv_pos_as_xyz
  1  'x, y, z'
loop_
 _atom_site_type_symbol
 _atom_site_label
 _atom_site_symmetry_multiplicity
 _atom_site_fract_x
 _atom_site_fract_y
 _atom_site_fract_z
 _atom_site_occupancy
  K  K0  1  -0.41259240  0.41259240  0.75000000  1.0
  K  K1  1  0.41259240  0.58740760  0.25000000  1.0
  K  K2  1  0.20760012  0.79239988  0.75000000  1.0
  K  K3  1  -0.20760012  0.20760012  0.25000000  1.0
  Ni  Ni4  1  0.00000000  0.00000000  0.00000000  1.0
  Ni  Ni5  1  0.00000000  0.00000000  0.50000000  1.0
  As  As6  1  0.08340268  0.28556546  0.75000000  1.0
  As  As7  1  0.28556546  1.08340268  0.25000000  1.0
  As  As8  1  0.71443454  0.91659732  0.75000000  1.0
  As  As9  1  -0.08340268  0.71443454  0.25000000  1.0
