# generated using pymatgen
data_H12C4IN
_symmetry_space_group_name_H-M   'P 1'
_cell_length_a   8.10750383
_cell_length_b   8.10750383
_cell_length_c   5.97129826
_cell_angle_alpha   90.00000000
_cell_angle_beta   90.00000000
_cell_angle_gamma   90.00000000
_symmetry_Int_Tables_number   1
_chemical_formula_structural   H12C4IN
_chemical_formula_sum   'H24 C8 I2 N2'
_cell_volume   392.50309798
_cell_formula_units_Z   2
loop_
 _symmetry_equiv_pos_site_id
 _symmetry_equiv_pos_as_xyz
  1  'x, y, z'
loop_
 _atom_site_type_symbol
 _atom_site_label
 _atom_site_symmetry_multiplicity
 _atom_site_fract_x
 _atom_site_fract_y
 _atom_site_fract_z
 _atom_site_occupancy
  H  H0  1  0.00000000  0.73981426  0.46242905  1.0
  H  H1  1  0.00000000  0.26018574  0.46242905  1.0
  H  H2  1  0.23981426  0.50000000  0.46242905  1.0
  H  H3  1  0.76018574  0.50000000  0.46242905  1.0
  H  H4  1  0.50000000  0.76018574  0.53757095  1.0
  H  H5  1  0.50000000  0.23981426  0.53757095  1.0
  H  H6  1  0.26018574  0.00000000  0.53757095  1.0
  H  H7  1  0.73981426  0.00000000  0.53757095  1.0
  H  H8  1  0.11104006  0.85182759  0.24948079  1.0
  H  H9  1  0.88895994  0.85182759  0.24948079  1.0
  H  H10  1  0.11104006  0.14817241  0.24948079  1.0
  H  H11  1  0.88895994  0.14817241  0.24948079  1.0
  H  H12  1  0.35182759  0.61104006  0.24948079  1.0
  H  H13  1  0.64817241  0.61104006  0.24948079  1.0
  H  H14  1  0.35182759  0.38895994  0.24948079  1.0
  H  H15  1  0.64817241  0.38895994  0.24948079  1.0
  H  H16  1  0.38895994  0.64817241  0.75051921  1.0
  H  H17  1  0.61104006  0.64817241  0.75051921  1.0
  H  H18  1  0.38895994  0.35182759  0.75051921  1.0
  H  H19  1  0.61104006  0.35182759  0.75051921  1.0
  H  H20  1  0.14817241  0.88895994  0.75051921  1.0
  H  H21  1  0.85182759  0.88895994  0.75051921  1.0
  H  H22  1  0.14817241  0.11104006  0.75051921  1.0
  H  H23  1  0.85182759  0.11104006  0.75051921  1.0
  C  C24  1  0.00000000  0.84915508  0.35408118  1.0
  C  C25  1  0.00000000  0.15084492  0.35408118  1.0
  C  C26  1  0.34915508  0.50000000  0.35408118  1.0
  C  C27  1  0.65084492  0.50000000  0.35408118  1.0
  C  C28  1  0.50000000  0.65084492  0.64591882  1.0
  C  C29  1  0.50000000  0.34915508  0.64591882  1.0
  C  C30  1  0.15084492  0.00000000  0.64591882  1.0
  C  C31  1  0.84915508  0.00000000  0.64591882  1.0
  I  I32  1  0.00000000  0.50000000  0.86475108  1.0
  I  I33  1  0.50000000  0.00000000  0.13524892  1.0
  N  N34  1  0.50000000  0.50000000  0.50000000  1.0
  N  N35  1  0.00000000  0.00000000  0.50000000  1.0
