# generated using pymatgen
data_Cs2Mo
_symmetry_space_group_name_H-M   'P 1'
_cell_length_a   9.56507380
_cell_length_b   6.55779450
_cell_length_c   12.62146254
_cell_angle_alpha   90.00000000
_cell_angle_beta   90.00000000
_cell_angle_gamma   90.00000000
_symmetry_Int_Tables_number   1
_chemical_formula_structural   Cs2Mo
_chemical_formula_sum   'Cs8 Mo4'
_cell_volume   791.69118907
_cell_formula_units_Z   4
loop_
 _symmetry_equiv_pos_site_id
 _symmetry_equiv_pos_as_xyz
  1  'x, y, z'
loop_
 _atom_site_type_symbol
 _atom_site_label
 _atom_site_symmetry_multiplicity
 _atom_site_fract_x
 _atom_site_fract_y
 _atom_site_fract_z
 _atom_site_occupancy
  Cs  Cs0  1  0.46858770  0.75000000  0.81333924  1.0
  Cs  Cs1  1  -0.03141230  0.75000000  0.68666076  1.0
  Cs  Cs2  1  0.53141230  0.25000000  0.18666076  1.0
  Cs  Cs3  1  1.03141230  0.25000000  0.31333924  1.0
  Cs  Cs4  1  0.83412461  0.75000000  0.06730910  1.0
  Cs  Cs5  1  0.33412461  0.75000000  0.43269090  1.0
  Cs  Cs6  1  0.16587539  0.25000000  0.93269090  1.0
  Cs  Cs7  1  0.66587539  0.25000000  0.56730910  1.0
  Mo  Mo8  1  0.26454257  0.75000000  0.11536863  1.0
  Mo  Mo9  1  0.76454257  0.75000000  0.38463137  1.0
  Mo  Mo10  1  0.73545743  0.25000000  0.88463137  1.0
  Mo  Mo11  1  0.23545743  0.25000000  0.61536863  1.0
