# generated using pymatgen
data_ZnCu2SiSe4
_symmetry_space_group_name_H-M   'P 1'
_cell_length_a   7.83341169
_cell_length_b   6.83786254
_cell_length_c   6.51324932
_cell_angle_alpha   90.00000000
_cell_angle_beta   90.00000000
_cell_angle_gamma   90.00000000
_symmetry_Int_Tables_number   1
_chemical_formula_structural   ZnCu2SiSe4
_chemical_formula_sum   'Zn2 Cu4 Si2 Se8'
_cell_volume   348.87433432
_cell_formula_units_Z   2
loop_
 _symmetry_equiv_pos_site_id
 _symmetry_equiv_pos_as_xyz
  1  'x, y, z'
loop_
 _atom_site_type_symbol
 _atom_site_label
 _atom_site_symmetry_multiplicity
 _atom_site_fract_x
 _atom_site_fract_y
 _atom_site_fract_z
 _atom_site_occupancy
  Zn  Zn0  1  0.50000000  0.65084202  0.00052449  1.0
  Zn  Zn1  1  0.00000000  0.34915798  0.50052449  1.0
  Cu  Cu2  1  0.24781040  0.17394953  0.01059188  1.0
  Cu  Cu3  1  0.74781040  0.82605047  0.51059188  1.0
  Cu  Cu4  1  0.75218960  0.17394953  0.01059188  1.0
  Cu  Cu5  1  0.25218960  0.82605047  0.51059188  1.0
  Si  Si6  1  0.50000000  0.33109654  0.50060387  1.0
  Si  Si7  1  0.00000000  0.66890346  0.00060387  1.0
  Se  Se8  1  0.26028516  0.16236201  0.38109338  1.0
  Se  Se9  1  0.76028516  0.83763799  0.88109338  1.0
  Se  Se10  1  0.73971484  0.16236201  0.38109338  1.0
  Se  Se11  1  0.23971484  0.83763799  0.88109338  1.0
  Se  Se12  1  0.50000000  0.31705194  0.85884116  1.0
  Se  Se13  1  0.00000000  0.68294806  0.35884116  1.0
  Se  Se14  1  0.50000000  0.65155321  0.38445995  1.0
  Se  Se15  1  0.00000000  0.34844679  0.88445995  1.0
