# generated using pymatgen
data_CdI2
_symmetry_space_group_name_H-M   'P 1'
_cell_length_a   4.32738822
_cell_length_b   4.32738822
_cell_length_c   60.66774180
_cell_angle_alpha   90.00000000
_cell_angle_beta   90.00000000
_cell_angle_gamma   120.00000000
_symmetry_Int_Tables_number   1
_chemical_formula_structural   CdI2
_chemical_formula_sum   'Cd8 I16'
_cell_volume   983.87557257
_cell_formula_units_Z   8
loop_
 _symmetry_equiv_pos_site_id
 _symmetry_equiv_pos_as_xyz
  1  'x, y, z'
loop_
 _atom_site_type_symbol
 _atom_site_label
 _atom_site_symmetry_multiplicity
 _atom_site_fract_x
 _atom_site_fract_y
 _atom_site_fract_z
 _atom_site_occupancy
  Cd  Cd0  1  0.33333333  0.66666667  0.62499968  1.0
  Cd  Cd1  1  0.66666667  0.33333333  0.37500032  1.0
  Cd  Cd2  1  0.33333333  0.66666667  0.87499940  1.0
  Cd  Cd3  1  0.66666667  0.33333333  0.12500060  1.0
  Cd  Cd4  1  0.00000000  0.00000000  0.25000244  1.0
  Cd  Cd5  1  0.00000000  0.00000000  0.74999756  1.0
  Cd  Cd6  1  0.00000000  0.00000000  0.50000000  1.0
  Cd  Cd7  1  0.00000000  0.00000000  0.00000000  1.0
  I  I8  1  0.33333333  0.66666667  0.02833109  1.0
  I  I9  1  0.66666667  0.33333333  0.97166891  1.0
  I  I10  1  0.33333333  0.66666667  0.15333255  1.0
  I  I11  1  0.66666667  0.33333333  0.84666745  1.0
  I  I12  1  0.33333333  0.66666667  0.27833256  1.0
  I  I13  1  0.66666667  0.33333333  0.72166744  1.0
  I  I14  1  0.33333333  0.66666667  0.40333244  1.0
  I  I15  1  0.66666667  0.33333333  0.59666756  1.0
  I  I16  1  0.33333333  0.66666667  0.52834333  1.0
  I  I17  1  0.66666667  0.33333333  0.47165667  1.0
  I  I18  1  0.33333333  0.66666667  0.77834051  1.0
  I  I19  1  0.66666667  0.33333333  0.22165949  1.0
  I  I20  1  0.00000000  0.00000000  0.09665986  1.0
  I  I21  1  0.00000000  0.00000000  0.90334014  1.0
  I  I22  1  0.00000000  0.00000000  0.34665772  1.0
  I  I23  1  0.00000000  0.00000000  0.65334228  1.0
