# generated using pymatgen
data_YCu(WO4)2
_symmetry_space_group_name_H-M   'P 1'
_cell_length_a   5.07912123
_cell_length_b   6.13660875
_cell_length_c   6.04034550
_cell_angle_alpha   109.43118811
_cell_angle_beta   113.15141312
_cell_angle_gamma   92.07637788
_symmetry_Int_Tables_number   1
_chemical_formula_structural   YCu(WO4)2
_chemical_formula_sum   'Y1 Cu1 W2 O8'
_cell_volume   160.19030038
_cell_formula_units_Z   1
loop_
 _symmetry_equiv_pos_site_id
 _symmetry_equiv_pos_as_xyz
  1  'x, y, z'
loop_
 _atom_site_type_symbol
 _atom_site_label
 _atom_site_symmetry_multiplicity
 _atom_site_fract_x
 _atom_site_fract_y
 _atom_site_fract_z
 _atom_site_occupancy
  Y  Y0  1  -0.08127373  -0.02758721  -0.00407458  1.0
  Cu  Cu1  1  0.41903365  0.47268344  0.99612950  1.0
  W  W2  1  0.67288059  0.30354206  0.51356562  1.0
  W  W3  1  0.16464350  0.64144538  0.47836594  1.0
  O  O4  1  0.94794434  0.64150010  0.68864466  1.0
  O  O5  1  0.88960112  0.30346906  0.30332263  1.0
  O  O6  1  0.93663483  0.76062445  0.25298178  1.0
  O  O7  1  0.90068409  0.18424238  0.73887188  1.0
  O  O8  1  0.45915425  0.44584180  0.69894258  1.0
  O  O9  1  0.40522044  0.05077453  0.25738929  1.0
  O  O10  1  0.37847860  0.49928132  0.29307832  1.0
  O  O11  1  0.43219831  0.89428269  0.73448239  1.0
