# generated using pymatgen
data_Nb6Ni7
_symmetry_space_group_name_H-M   'P 1'
_cell_length_a   9.23990060
_cell_length_b   9.23990060
_cell_length_c   9.23990060
_cell_angle_alpha   30.60355454
_cell_angle_beta   30.60355454
_cell_angle_gamma   30.60355454
_symmetry_Int_Tables_number   1
_chemical_formula_structural   Nb6Ni7
_chemical_formula_sum   'Nb6 Ni7'
_cell_volume   181.26681527
_cell_formula_units_Z   1
loop_
 _symmetry_equiv_pos_site_id
 _symmetry_equiv_pos_as_xyz
  1  'x, y, z'
loop_
 _atom_site_type_symbol
 _atom_site_label
 _atom_site_symmetry_multiplicity
 _atom_site_fract_x
 _atom_site_fract_y
 _atom_site_fract_z
 _atom_site_occupancy
  Nb  Nb0  1  0.83098826  0.83098826  0.83098826  1.0
  Nb  Nb1  1  1.16901174  1.16901174  0.16901174  1.0
  Nb  Nb2  1  1.65575259  0.65575259  0.65575259  1.0
  Nb  Nb3  1  1.34424741  0.34424741  0.34424741  1.0
  Nb  Nb4  1  1.54907332  0.54907332  0.54907332  1.0
  Nb  Nb5  1  1.45092668  0.45092668  0.45092668  1.0
  Ni  Ni6  1  0.00000000  0.00000000  0.00000000  1.0
  Ni  Ni7  1  0.90950753  1.40896159  -0.09049247  1.0
  Ni  Ni8  1  0.90950753  0.90950753  0.40896159  1.0
  Ni  Ni9  1  1.40896159  0.90950753  -0.09049247  1.0
  Ni  Ni10  1  1.09049247  1.59103841  0.09049247  1.0
  Ni  Ni11  1  1.09049247  1.09049247  0.59103841  1.0
  Ni  Ni12  1  1.59103841  1.09049247  0.09049247  1.0
