# generated using pymatgen
data_AlSb2Te2BrCl4
_symmetry_space_group_name_H-M   'P 1'
_cell_length_a   11.76738751
_cell_length_b   11.76738751
_cell_length_c   13.75846570
_cell_angle_alpha   82.48556208
_cell_angle_beta   97.51443792
_cell_angle_gamma   138.03000948
_symmetry_Int_Tables_number   1
_chemical_formula_structural   AlSb2Te2BrCl4
_chemical_formula_sum   'Al4 Sb8 Te8 Br4 Cl16'
_cell_volume   1261.49579282
_cell_formula_units_Z   4
loop_
 _symmetry_equiv_pos_site_id
 _symmetry_equiv_pos_as_xyz
  1  'x, y, z'
loop_
 _atom_site_type_symbol
 _atom_site_label
 _atom_site_symmetry_multiplicity
 _atom_site_fract_x
 _atom_site_fract_y
 _atom_site_fract_z
 _atom_site_occupancy
  Al  Al0  1  0.64669951  0.10039564  0.83145102  1.0
  Al  Al1  1  0.89960436  0.35330049  0.33145102  1.0
  Al  Al2  1  1.10039564  0.64669951  0.66854898  1.0
  Al  Al3  1  0.35330049  -0.10039564  0.16854898  1.0
  Sb  Sb4  1  0.57111138  -0.31407431  0.89324925  1.0
  Sb  Sb5  1  1.31407431  0.42888862  0.39324925  1.0
  Sb  Sb6  1  0.68592569  0.57111138  0.60675075  1.0
  Sb  Sb7  1  0.42888862  0.31407431  0.10675075  1.0
  Sb  Sb8  1  0.81613101  -0.05860331  0.39367522  1.0
  Sb  Sb9  1  1.05860331  0.18386899  0.89367522  1.0
  Sb  Sb10  1  0.94139669  0.81613101  0.10632478  1.0
  Sb  Sb11  1  0.18386899  0.05860331  0.60632478  1.0
  Te  Te12  1  0.54865425  -0.30178065  0.53615930  1.0
  Te  Te13  1  1.30178065  0.45134575  0.03615930  1.0
  Te  Te14  1  0.69821935  0.54865425  0.96384070  1.0
  Te  Te15  1  0.45134575  0.30178065  0.46384070  1.0
  Te  Te16  1  0.19616013  0.05734330  0.95828534  1.0
  Te  Te17  1  0.94265670  0.80383987  0.45828534  1.0
  Te  Te18  1  1.05734330  0.19616013  0.54171466  1.0
  Te  Te19  1  0.80383987  -0.05734330  0.04171466  1.0
  Br  Br20  1  0.87489177  0.87489177  0.75000000  1.0
  Br  Br21  1  0.12510823  0.12510823  0.25000000  1.0
  Br  Br22  1  0.37546422  0.37546422  0.75000000  1.0
  Br  Br23  1  0.62453578  0.62453578  0.25000000  1.0
  Cl  Cl24  1  0.71153316  0.05166226  0.71653108  1.0
  Cl  Cl25  1  0.94833774  0.28846684  0.21653108  1.0
  Cl  Cl26  1  1.05166226  0.71153316  0.78346892  1.0
  Cl  Cl27  1  0.28846684  -0.05166226  0.28346892  1.0
  Cl  Cl28  1  0.46157907  -0.14232599  0.91578173  1.0
  Cl  Cl29  1  1.14232599  0.53842093  0.41578173  1.0
  Cl  Cl30  1  0.85767401  0.46157907  0.58421827  1.0
  Cl  Cl31  1  0.53842093  0.14232599  0.08421827  1.0
  Cl  Cl32  1  0.71549674  0.12231280  0.42380244  1.0
  Cl  Cl33  1  0.87768720  0.28450326  0.92380244  1.0
  Cl  Cl34  1  1.12231280  0.71549674  0.07619756  1.0
  Cl  Cl35  1  0.28450326  -0.12231280  0.57619756  1.0
  Cl  Cl36  1  0.54379902  0.19242380  0.78668196  1.0
  Cl  Cl37  1  0.80757620  0.45620098  0.28668196  1.0
  Cl  Cl38  1  1.19242380  0.54379902  0.71331804  1.0
  Cl  Cl39  1  0.45620098  -0.19242380  0.21331804  1.0
