# generated using pymatgen
data_CsAuF4
_symmetry_space_group_name_H-M   'P 1'
_cell_length_a   7.75909981
_cell_length_b   7.75909981
_cell_length_c   7.75909981
_cell_angle_alpha   136.47282489
_cell_angle_beta   127.42958406
_cell_angle_gamma   70.55913673
_symmetry_Int_Tables_number   1
_chemical_formula_structural   CsAuF4
_chemical_formula_sum   'Cs2 Au2 F8'
_cell_volume   250.45353990
_cell_formula_units_Z   2
loop_
 _symmetry_equiv_pos_site_id
 _symmetry_equiv_pos_as_xyz
  1  'x, y, z'
loop_
 _atom_site_type_symbol
 _atom_site_label
 _atom_site_symmetry_multiplicity
 _atom_site_fract_x
 _atom_site_fract_y
 _atom_site_fract_z
 _atom_site_occupancy
  Cs  Cs0  1  0.71835584  0.21835584  0.50000000  1.0
  Cs  Cs1  1  0.28164416  0.78164416  0.50000000  1.0
  Au  Au2  1  0.50000000  0.50000000  1.00000000  1.0
  Au  Au3  1  0.00000000  -0.00000000  0.00000000  1.0
  F  F4  1  0.41498248  0.61132146  0.80366101  1.0
  F  F5  1  1.19233955  0.38867854  0.80366101  1.0
  F  F6  1  0.80766045  0.61132146  1.19633899  1.0
  F  F7  1  0.58501752  0.38867854  0.19633899  1.0
  F  F8  1  0.84573819  0.84573819  1.00000000  1.0
  F  F9  1  0.15426181  0.15426181  -0.00000000  1.0
  F  F10  1  0.71631503  0.00000000  0.71631503  1.0
  F  F11  1  0.28368497  0.00000000  0.28368497  1.0
