# generated using pymatgen
data_Li4H3ClO3
_symmetry_space_group_name_H-M   'P 1'
_cell_length_a   5.41326376
_cell_length_b   7.43557204
_cell_length_c   6.29271652
_cell_angle_alpha   90.00000000
_cell_angle_beta   94.97823683
_cell_angle_gamma   90.00000000
_symmetry_Int_Tables_number   1
_chemical_formula_structural   Li4H3ClO3
_chemical_formula_sum   'Li8 H6 Cl2 O6'
_cell_volume   252.33086069
_cell_formula_units_Z   2
loop_
 _symmetry_equiv_pos_site_id
 _symmetry_equiv_pos_as_xyz
  1  'x, y, z'
loop_
 _atom_site_type_symbol
 _atom_site_label
 _atom_site_symmetry_multiplicity
 _atom_site_fract_x
 _atom_site_fract_y
 _atom_site_fract_z
 _atom_site_occupancy
  Li  Li0  1  0.14492882  0.48364236  0.85812039  1.0
  Li  Li1  1  0.14492882  0.01635764  0.85812039  1.0
  Li  Li2  1  0.85507118  0.98364236  0.14187961  1.0
  Li  Li3  1  0.85507118  0.51635764  0.14187961  1.0
  Li  Li4  1  0.88515242  0.25000000  0.67098836  1.0
  Li  Li5  1  0.11484758  0.75000000  0.32901164  1.0
  Li  Li6  1  0.56996966  0.25000000  0.91743337  1.0
  Li  Li7  1  0.43003034  0.75000000  0.08256663  1.0
  H  H8  1  0.68135753  0.96189216  0.76638409  1.0
  H  H9  1  0.68135753  0.53810784  0.76638409  1.0
  H  H10  1  0.31864247  0.46189216  0.23361591  1.0
  H  H11  1  0.31864247  0.03810784  0.23361591  1.0
  H  H12  1  0.32193838  0.25000000  0.61755073  1.0
  H  H13  1  0.67806162  0.75000000  0.38244927  1.0
  Cl  Cl14  1  0.67415809  0.25000000  0.31650809  1.0
  Cl  Cl15  1  0.32584191  0.75000000  0.68349191  1.0
  O  O16  1  0.78401414  0.44893207  0.84489734  1.0
  O  O17  1  0.78401414  0.05106793  0.84489734  1.0
  O  O18  1  0.21598586  0.94893207  0.15510266  1.0
  O  O19  1  0.21598586  0.55106793  0.15510266  1.0
  O  O20  1  0.24459685  0.25000000  0.75145067  1.0
  O  O21  1  0.75540315  0.75000000  0.24854933  1.0
