# generated using pymatgen
data_Sc2SiB2Ir5
_symmetry_space_group_name_H-M   'P 1'
_cell_length_a   9.23138218
_cell_length_b   9.23138218
_cell_length_c   3.12518824
_cell_angle_alpha   90.00000000
_cell_angle_beta   90.00000000
_cell_angle_gamma   90.00000000
_symmetry_Int_Tables_number   1
_chemical_formula_structural   Sc2SiB2Ir5
_chemical_formula_sum   'Sc4 Si2 B4 Ir10'
_cell_volume   266.32359446
_cell_formula_units_Z   2
loop_
 _symmetry_equiv_pos_site_id
 _symmetry_equiv_pos_as_xyz
  1  'x, y, z'
loop_
 _atom_site_type_symbol
 _atom_site_label
 _atom_site_symmetry_multiplicity
 _atom_site_fract_x
 _atom_site_fract_y
 _atom_site_fract_z
 _atom_site_occupancy
  Sc  Sc0  1  0.32460200  0.17539800  0.00000000  1.0
  Sc  Sc1  1  0.82460200  0.32460200  0.00000000  1.0
  Sc  Sc2  1  0.67539800  0.82460200  0.00000000  1.0
  Sc  Sc3  1  0.17539800  0.67539800  0.00000000  1.0
  Si  Si4  1  0.50000000  0.50000000  0.00000000  1.0
  Si  Si5  1  0.00000000  0.00000000  0.00000000  1.0
  B  B6  1  0.87612201  0.62387799  0.00000000  1.0
  B  B7  1  0.37612201  0.87612201  0.00000000  1.0
  B  B8  1  0.12387799  0.37612201  0.00000000  1.0
  B  B9  1  0.62387799  0.12387799  0.00000000  1.0
  Ir  Ir10  1  0.42980295  0.71251481  0.50000000  1.0
  Ir  Ir11  1  0.92980295  0.78748519  0.50000000  1.0
  Ir  Ir12  1  0.28748519  0.42980295  0.50000000  1.0
  Ir  Ir13  1  0.78748519  0.07019705  0.50000000  1.0
  Ir  Ir14  1  0.57019705  0.28748519  0.50000000  1.0
  Ir  Ir15  1  0.07019705  0.21251481  0.50000000  1.0
  Ir  Ir16  1  0.71251481  0.57019705  0.50000000  1.0
  Ir  Ir17  1  0.21251481  0.92980295  0.50000000  1.0
  Ir  Ir18  1  0.50000000  0.00000000  0.50000000  1.0
  Ir  Ir19  1  0.00000000  0.50000000  0.50000000  1.0
