# generated using pymatgen
data_BiN9
_symmetry_space_group_name_H-M   'P 1'
_cell_length_a   6.67556728
_cell_length_b   7.08029103
_cell_length_c   7.01547117
_cell_angle_alpha   79.00073006
_cell_angle_beta   67.40572811
_cell_angle_gamma   82.59131887
_symmetry_Int_Tables_number   1
_chemical_formula_structural   BiN9
_chemical_formula_sum   'Bi2 N18'
_cell_volume   299.94554488
_cell_formula_units_Z   2
loop_
 _symmetry_equiv_pos_site_id
 _symmetry_equiv_pos_as_xyz
  1  'x, y, z'
loop_
 _atom_site_type_symbol
 _atom_site_label
 _atom_site_symmetry_multiplicity
 _atom_site_fract_x
 _atom_site_fract_y
 _atom_site_fract_z
 _atom_site_occupancy
  Bi  Bi0  1  0.31829750  0.56628227  0.80691599  1.0
  Bi  Bi1  1  0.68170250  0.43371773  0.19308401  1.0
  N  N2  1  0.89808751  0.29636699  0.55248016  1.0
  N  N3  1  0.10191249  0.70363301  0.44751984  1.0
  N  N4  1  0.90065207  0.67090144  0.94859025  1.0
  N  N5  1  0.09934793  0.32909856  0.05140975  1.0
  N  N6  1  0.80553375  0.79718063  0.86426038  1.0
  N  N7  1  0.19446625  0.20281937  0.13573962  1.0
  N  N8  1  0.76944799  0.34165081  0.70304731  1.0
  N  N9  1  0.23055201  0.65834919  0.29695269  1.0
  N  N10  1  0.73819375  0.98155975  0.28934441  1.0
  N  N11  1  0.26180625  0.01844025  0.71065559  1.0
  N  N12  1  0.71483711  0.91400524  0.78504234  1.0
  N  N13  1  0.28516289  0.08599476  0.21495766  1.0
  N  N14  1  0.67757458  0.82866066  0.35301314  1.0
  N  N15  1  0.32242542  0.17133934  0.64698686  1.0
  N  N16  1  0.61477032  0.66716705  0.42270852  1.0
  N  N17  1  0.38522968  0.33283295  0.57729148  1.0
  N  N18  1  0.62943477  0.39089267  0.86028841  1.0
  N  N19  1  0.37056523  0.60910733  0.13971159  1.0
