# generated using pymatgen
data_Cu2WO4
_symmetry_space_group_name_H-M   'P 1'
_cell_length_a   8.38638866
_cell_length_b   5.91553249
_cell_length_c   8.21601561
_cell_angle_alpha   94.90320650
_cell_angle_beta   108.51905168
_cell_angle_gamma   89.31120926
_symmetry_Int_Tables_number   1
_chemical_formula_structural   Cu2WO4
_chemical_formula_sum   'Cu8 W4 O16'
_cell_volume   385.02633963
_cell_formula_units_Z   4
loop_
 _symmetry_equiv_pos_site_id
 _symmetry_equiv_pos_as_xyz
  1  'x, y, z'
loop_
 _atom_site_type_symbol
 _atom_site_label
 _atom_site_symmetry_multiplicity
 _atom_site_fract_x
 _atom_site_fract_y
 _atom_site_fract_z
 _atom_site_occupancy
  Cu  Cu0  1  -0.66067235  0.02289648  -0.43203148  1.0
  Cu  Cu1  1  -0.55007866  -0.00234154  -0.72405221  1.0
  Cu  Cu2  1  -0.09417606  -0.75266026  -0.06808419  1.0
  Cu  Cu3  1  -0.98357980  -0.77787055  -0.36016712  1.0
  Cu  Cu4  1  -0.32221045  -0.87752888  -0.39617515  1.0
  Cu  Cu5  1  -0.32219320  -0.87744145  -0.89613218  1.0
  Cu  Cu6  1  -0.60591457  -0.63464707  0.01472355  1.0
  Cu  Cu7  1  -1.03834221  -0.12043786  -0.80688845  1.0
  W  W8  1  -0.98201352  -0.25170083  -0.18588492  1.0
  W  W9  1  -0.38852032  -0.36015146  -0.21287540  1.0
  W  W10  1  -0.25576994  -0.39483014  -0.57928642  1.0
  W  W11  1  -0.66226918  -0.50327387  -0.60629286  1.0
  O  O12  1  -0.00070914  -0.03484690  -0.00956157  1.0
  O  O13  1  -0.89594958  -0.05366321  -0.29404493  1.0
  O  O14  1  -0.38261366  -0.11427365  -0.06722023  1.0
  O  O15  1  -0.15737490  -0.18345321  -0.65945257  1.0
  O  O16  1  -0.24865000  -0.17696434  -0.34986638  1.0
  O  O17  1  -0.59132103  -0.27305255  -0.39398012  1.0
  O  O18  1  -0.80911085  -0.41310808  -0.07871401  1.0
  O  O19  1  -0.48739745  -0.30155791  -0.67958800  1.0
  O  O20  1  -0.83522622  -0.34191405  -0.71341325  1.0
  O  O21  1  -0.05293726  -0.48190551  -0.39818976  1.0
  O  O22  1  -0.15691256  -0.45346078  -0.11262503  1.0
  O  O23  1  -0.39565492  -0.57801368  -0.44231659  1.0
  O  O24  1  -0.48692949  -0.57152407  -0.13271847  1.0
  O  O25  1  -0.26170771  -0.64069950  -0.72496049  1.0
  O  O26  1  -0.64355403  -0.72016651  -0.78258846  1.0
  O  O27  1  -0.74831094  -0.70130862  -0.49811331  1.0
