# generated using pymatgen
data_Nb5Si8
_symmetry_space_group_name_H-M   'P 1'
_cell_length_a   9.06971444
_cell_length_b   9.06971444
_cell_length_c   9.06971444
_cell_angle_alpha   33.10516956
_cell_angle_beta   33.10516956
_cell_angle_gamma   33.10516956
_symmetry_Int_Tables_number   1
_chemical_formula_structural   Nb5Si8
_chemical_formula_sum   'Nb5 Si8'
_cell_volume   198.09363739
_cell_formula_units_Z   1
loop_
 _symmetry_equiv_pos_site_id
 _symmetry_equiv_pos_as_xyz
  1  'x, y, z'
loop_
 _atom_site_type_symbol
 _atom_site_label
 _atom_site_symmetry_multiplicity
 _atom_site_fract_x
 _atom_site_fract_y
 _atom_site_fract_z
 _atom_site_occupancy
  Nb  Nb0  1  0.00000000  0.00000000  0.00000000  1.0
  Nb  Nb1  1  0.64460114  0.64460114  -0.35539886  1.0
  Nb  Nb2  1  0.35539886  0.35539886  -0.64460114  1.0
  Nb  Nb3  1  0.82798438  -0.17201562  -0.17201562  1.0
  Nb  Nb4  1  0.17201562  0.17201562  0.17201562  1.0
  Si  Si5  1  0.54461479  0.54461479  -0.45538521  1.0
  Si  Si6  1  0.45538521  0.45538521  -0.54461479  1.0
  Si  Si7  1  0.42276000  -0.09660761  -0.09660761  1.0
  Si  Si8  1  0.90339239  -0.09660761  -0.57724000  1.0
  Si  Si9  1  0.90339239  -0.57724000  -0.09660761  1.0
  Si  Si10  1  0.57724000  0.09660761  0.09660761  1.0
  Si  Si11  1  1.09660761  0.09660761  -0.42276000  1.0
  Si  Si12  1  1.09660761  -0.42276000  0.09660761  1.0
