# generated using pymatgen
data_Pb9(Br5O2)2
_symmetry_space_group_name_H-M   'P 1'
_cell_length_a   12.57876436
_cell_length_b   12.57876436
_cell_length_c   8.67019362
_cell_angle_alpha   90.00000000
_cell_angle_beta   90.00000000
_cell_angle_gamma   90.00000000
_symmetry_Int_Tables_number   1
_chemical_formula_structural   Pb9(Br5O2)2
_chemical_formula_sum   'Pb18 Br20 O8'
_cell_volume   1371.84409848
_cell_formula_units_Z   2
loop_
 _symmetry_equiv_pos_site_id
 _symmetry_equiv_pos_as_xyz
  1  'x, y, z'
loop_
 _atom_site_type_symbol
 _atom_site_label
 _atom_site_symmetry_multiplicity
 _atom_site_fract_x
 _atom_site_fract_y
 _atom_site_fract_z
 _atom_site_occupancy
  Pb  Pb0  1  0.94845459  0.86162243  0.64315218  1.0
  Pb  Pb1  1  0.05154541  0.13837757  0.64315218  1.0
  Pb  Pb2  1  0.36162243  0.55154541  0.64315218  1.0
  Pb  Pb3  1  0.63837757  0.44845459  0.64315218  1.0
  Pb  Pb4  1  0.55154541  0.63837757  0.35684782  1.0
  Pb  Pb5  1  0.44845459  0.36162243  0.35684782  1.0
  Pb  Pb6  1  0.13837757  0.94845459  0.35684782  1.0
  Pb  Pb7  1  0.86162243  0.05154541  0.35684782  1.0
  Pb  Pb8  1  0.76120479  0.07544494  0.80693115  1.0
  Pb  Pb9  1  0.23879521  0.92455506  0.80693115  1.0
  Pb  Pb10  1  0.57544494  0.73879521  0.80693115  1.0
  Pb  Pb11  1  0.42455506  0.26120479  0.80693115  1.0
  Pb  Pb12  1  0.73879521  0.42455506  0.19306885  1.0
  Pb  Pb13  1  0.26120479  0.57544494  0.19306885  1.0
  Pb  Pb14  1  0.92455506  0.76120479  0.19306885  1.0
  Pb  Pb15  1  0.07544494  0.23879521  0.19306885  1.0
  Pb  Pb16  1  0.00000000  0.50000000  0.80451339  1.0
  Pb  Pb17  1  0.50000000  0.00000000  0.19548661  1.0
  Br  Br18  1  0.00000000  0.00000000  0.00000000  1.0
  Br  Br19  1  0.50000000  0.50000000  0.00000000  1.0
  Br  Br20  1  0.12355682  0.70834509  0.87195029  1.0
  Br  Br21  1  0.87644318  0.29165491  0.87195029  1.0
  Br  Br22  1  0.20834509  0.37644318  0.87195029  1.0
  Br  Br23  1  0.79165491  0.62355682  0.87195029  1.0
  Br  Br24  1  0.37644318  0.79165491  0.12804971  1.0
  Br  Br25  1  0.62355682  0.20834509  0.12804971  1.0
  Br  Br26  1  0.29165491  0.12355682  0.12804971  1.0
  Br  Br27  1  0.70834509  0.87644318  0.12804971  1.0
  Br  Br28  1  0.12195781  0.68890437  0.40434258  1.0
  Br  Br29  1  0.87804219  0.31109563  0.40434258  1.0
  Br  Br30  1  0.18890437  0.37804219  0.40434258  1.0
  Br  Br31  1  0.81109563  0.62195781  0.40434258  1.0
  Br  Br32  1  0.37804219  0.81109563  0.59565742  1.0
  Br  Br33  1  0.62195781  0.18890437  0.59565742  1.0
  Br  Br34  1  0.31109563  0.12195781  0.59565742  1.0
  Br  Br35  1  0.68890437  0.87804219  0.59565742  1.0
  Br  Br36  1  0.00000000  0.50000000  0.12323973  1.0
  Br  Br37  1  0.50000000  0.00000000  0.87676027  1.0
  O  O38  1  0.89015757  0.04341758  0.62466815  1.0
  O  O39  1  0.10984243  0.95658242  0.62466815  1.0
  O  O40  1  0.54341758  0.60984243  0.62466815  1.0
  O  O41  1  0.45658242  0.39015757  0.62466815  1.0
  O  O42  1  0.60984243  0.45658242  0.37533185  1.0
  O  O43  1  0.39015757  0.54341758  0.37533185  1.0
  O  O44  1  0.95658242  0.89015757  0.37533185  1.0
  O  O45  1  0.04341758  0.10984243  0.37533185  1.0
