# generated using pymatgen
data_NaZr2(AsO4)3
_symmetry_space_group_name_H-M   'P 1'
_cell_length_a   9.50356144
_cell_length_b   9.50356144
_cell_length_c   9.50356144
_cell_angle_alpha   58.85020243
_cell_angle_beta   58.85020243
_cell_angle_gamma   58.85020243
_symmetry_Int_Tables_number   1
_chemical_formula_structural   NaZr2(AsO4)3
_chemical_formula_sum   'Na2 Zr4 As6 O24'
_cell_volume   591.00550799
_cell_formula_units_Z   2
loop_
 _symmetry_equiv_pos_site_id
 _symmetry_equiv_pos_as_xyz
  1  'x, y, z'
loop_
 _atom_site_type_symbol
 _atom_site_label
 _atom_site_symmetry_multiplicity
 _atom_site_fract_x
 _atom_site_fract_y
 _atom_site_fract_z
 _atom_site_occupancy
  Na  Na0  1  1.00000000  -0.00000000  -0.00000000  1.0
  Na  Na1  1  0.50000000  0.50000000  0.50000000  1.0
  Zr  Zr2  1  0.85694734  -0.14305266  -0.14305266  1.0
  Zr  Zr3  1  0.35694734  0.35694734  0.35694734  1.0
  Zr  Zr4  1  0.64305266  0.64305266  -0.35694734  1.0
  Zr  Zr5  1  1.14305266  0.14305266  0.14305266  1.0
  As  As6  1  0.45964945  0.75000000  0.04035055  1.0
  As  As7  1  0.95964945  -0.45964945  0.25000000  1.0
  As  As8  1  0.25000000  0.95964945  -0.45964945  1.0
  As  As9  1  0.75000000  1.04035055  -0.54035055  1.0
  As  As10  1  0.54035055  0.25000000  -0.04035055  1.0
  As  As11  1  1.04035055  0.45964945  -0.25000000  1.0
  O  O12  1  0.79743241  1.00135642  -0.36848975  1.0
  O  O13  1  1.29743241  0.13151025  -0.49864358  1.0
  O  O14  1  0.86848975  0.49864358  -0.29743241  1.0
  O  O15  1  0.36848975  0.20256759  -0.00135642  1.0
  O  O16  1  0.99864358  0.36848975  -0.79743241  1.0
  O  O17  1  0.49864358  0.70256759  -0.13151025  1.0
  O  O18  1  0.20256759  0.99864358  -0.63151025  1.0
  O  O19  1  0.70256759  0.86848975  -0.50135642  1.0
  O  O20  1  0.63151025  0.79743241  0.00135642  1.0
  O  O21  1  1.13151025  -0.49864358  0.29743241  1.0
  O  O22  1  0.50135642  0.29743241  0.13151025  1.0
  O  O23  1  1.00135642  0.63151025  -0.20256759  1.0
  O  O24  1  0.73347721  0.07546292  -0.06022817  1.0
  O  O25  1  1.23347721  0.43977183  -0.42453708  1.0
  O  O26  1  0.56022817  0.42453708  -0.23347721  1.0
  O  O27  1  1.06022817  0.26652279  -0.07546292  1.0
  O  O28  1  0.92453708  0.06022817  0.26652279  1.0
  O  O29  1  0.42453708  0.76652279  -0.43977183  1.0
  O  O30  1  1.26652279  -0.07546292  0.06022817  1.0
  O  O31  1  0.76652279  0.56022817  -0.57546292  1.0
  O  O32  1  0.93977183  -0.26652279  0.07546292  1.0
  O  O33  1  0.43977183  0.57546292  0.23347721  1.0
  O  O34  1  0.57546292  1.23347721  -0.56022817  1.0
  O  O35  1  1.07546292  -0.06022817  -0.26652279  1.0
