# generated using pymatgen
data_Hf4FeP
_symmetry_space_group_name_H-M   'P 1'
_cell_length_a   6.27043891
_cell_length_b   6.27043891
_cell_length_c   5.59746305
_cell_angle_alpha   90.00000000
_cell_angle_beta   90.00000000
_cell_angle_gamma   90.00000000
_symmetry_Int_Tables_number   1
_chemical_formula_structural   Hf4FeP
_chemical_formula_sum   'Hf8 Fe2 P2'
_cell_volume   220.08331447
_cell_formula_units_Z   2
loop_
 _symmetry_equiv_pos_site_id
 _symmetry_equiv_pos_as_xyz
  1  'x, y, z'
loop_
 _atom_site_type_symbol
 _atom_site_label
 _atom_site_symmetry_multiplicity
 _atom_site_fract_x
 _atom_site_fract_y
 _atom_site_fract_z
 _atom_site_occupancy
  Hf  Hf0  1  0.83789482  0.67759419  0.00000000  1.0
  Hf  Hf1  1  0.83789482  0.32240581  0.50000000  1.0
  Hf  Hf2  1  0.67759419  0.83789482  0.50000000  1.0
  Hf  Hf3  1  0.67759419  0.16210518  0.00000000  1.0
  Hf  Hf4  1  0.16210518  0.67759419  0.50000000  1.0
  Hf  Hf5  1  0.16210518  0.32240581  0.00000000  1.0
  Hf  Hf6  1  0.32240581  0.83789482  0.00000000  1.0
  Hf  Hf7  1  0.32240581  0.16210518  0.50000000  1.0
  Fe  Fe8  1  0.00000000  0.00000000  0.75000000  1.0
  Fe  Fe9  1  0.00000000  0.00000000  0.25000000  1.0
  P  P10  1  0.50000000  0.50000000  0.75000000  1.0
  P  P11  1  0.50000000  0.50000000  0.25000000  1.0
