# generated using pymatgen
data_Tl2PO4
_symmetry_space_group_name_H-M   'P 1'
_cell_length_a   5.75308313
_cell_length_b   8.15881260
_cell_length_c   11.50600705
_cell_angle_alpha   90.00000000
_cell_angle_beta   119.97243609
_cell_angle_gamma   90.00000000
_symmetry_Int_Tables_number   1
_chemical_formula_structural   Tl2PO4
_chemical_formula_sum   'Tl8 P4 O16'
_cell_volume   467.84655330
_cell_formula_units_Z   4
loop_
 _symmetry_equiv_pos_site_id
 _symmetry_equiv_pos_as_xyz
  1  'x, y, z'
loop_
 _atom_site_type_symbol
 _atom_site_label
 _atom_site_symmetry_multiplicity
 _atom_site_fract_x
 _atom_site_fract_y
 _atom_site_fract_z
 _atom_site_occupancy
  Tl  Tl0  1  0.72554239  0.64205921  0.47557105  1.0
  Tl  Tl1  1  0.72554239  0.85794079  0.97557105  1.0
  Tl  Tl2  1  0.27445761  0.35794079  0.52442895  1.0
  Tl  Tl3  1  0.27445761  0.14205921  0.02442895  1.0
  Tl  Tl4  1  0.93359516  0.40663467  0.18383444  1.0
  Tl  Tl5  1  0.93359516  1.09336533  0.68383444  1.0
  Tl  Tl6  1  0.06640484  0.59336533  0.81616556  1.0
  Tl  Tl7  1  0.06640484  -0.09336533  0.31616556  1.0
  P  P8  1  0.38483385  0.61573066  0.13509113  1.0
  P  P9  1  0.38483385  0.88426934  0.63509113  1.0
  P  P10  1  0.61516615  0.38426934  0.86490887  1.0
  P  P11  1  0.61516615  0.11573066  0.36490887  1.0
  O  O12  1  0.69983304  0.63358414  0.22787795  1.0
  O  O13  1  0.69983304  0.86641586  0.72787795  1.0
  O  O14  1  0.30016696  0.36641586  0.77212205  1.0
  O  O15  1  0.30016696  0.13358414  0.27212205  1.0
  O  O16  1  0.25508198  0.63366432  0.22780919  1.0
  O  O17  1  0.25508198  0.86633568  0.72780919  1.0
  O  O18  1  0.74491802  0.36633568  0.77219081  1.0
  O  O19  1  0.74491802  0.13366432  0.27219081  1.0
  O  O20  1  0.31371133  0.44763907  0.06392740  1.0
  O  O21  1  0.31371133  1.05236093  0.56392740  1.0
  O  O22  1  0.68628867  0.55236093  0.93607260  1.0
  O  O23  1  0.68628867  -0.05236093  0.43607260  1.0
  O  O24  1  0.27550448  0.75446647  1.02560507  1.0
  O  O25  1  0.27550448  0.74553353  0.52560507  1.0
  O  O26  1  0.72449552  0.24553353  -0.02560507  1.0
  O  O27  1  0.72449552  0.25446647  0.47439493  1.0
