# generated using pymatgen
data_K2AgSb
_symmetry_space_group_name_H-M   'P 1'
_cell_length_a   6.75022382
_cell_length_b   6.75022382
_cell_length_c   6.34959127
_cell_angle_alpha   90.00000000
_cell_angle_beta   90.00000000
_cell_angle_gamma   103.24341282
_symmetry_Int_Tables_number   1
_chemical_formula_structural   K2AgSb
_chemical_formula_sum   'K4 Ag2 Sb2'
_cell_volume   281.62808228
_cell_formula_units_Z   2
loop_
 _symmetry_equiv_pos_site_id
 _symmetry_equiv_pos_as_xyz
  1  'x, y, z'
loop_
 _atom_site_type_symbol
 _atom_site_label
 _atom_site_symmetry_multiplicity
 _atom_site_fract_x
 _atom_site_fract_y
 _atom_site_fract_z
 _atom_site_occupancy
  K  K0  1  -0.17887877  1.47635973  0.50016466  1.0
  K  K1  1  0.47635973  0.82112123  0.49983534  1.0
  K  K2  1  -0.47635973  1.17887877  -0.00016466  1.0
  K  K3  1  0.17887877  0.52364027  1.00016466  1.0
  Ag  Ag4  1  -0.00003061  1.00003061  0.25000000  1.0
  Ag  Ag5  1  0.00003061  0.99996939  0.75000000  1.0
  Sb  Sb6  1  0.73549704  0.73549704  0.00000000  1.0
  Sb  Sb7  1  0.26450296  0.26450296  0.50000000  1.0
