# generated using pymatgen
data_Ti4NiBi2
_symmetry_space_group_name_H-M   'P 1'
_cell_length_a   7.91860356
_cell_length_b   7.91860356
_cell_length_c   7.91860356
_cell_angle_alpha   95.27320766
_cell_angle_beta   95.27320766
_cell_angle_gamma   144.70520443
_symmetry_Int_Tables_number   1
_chemical_formula_structural   Ti4NiBi2
_chemical_formula_sum   'Ti8 Ni2 Bi4'
_cell_volume   273.38619505
_cell_formula_units_Z   2
loop_
 _symmetry_equiv_pos_site_id
 _symmetry_equiv_pos_as_xyz
  1  'x, y, z'
loop_
 _atom_site_type_symbol
 _atom_site_label
 _atom_site_symmetry_multiplicity
 _atom_site_fract_x
 _atom_site_fract_y
 _atom_site_fract_z
 _atom_site_occupancy
  Ti  Ti0  1  0.30355551  0.41891556  0.72247107  1.0
  Ti  Ti1  1  1.19644449  0.91891556  1.11536005  1.0
  Ti  Ti2  1  0.91891556  0.80355551  1.72247107  1.0
  Ti  Ti3  1  0.58108444  1.30355551  0.88463995  1.0
  Ti  Ti4  1  0.80355551  1.08108444  0.88463995  1.0
  Ti  Ti5  1  0.69644449  0.58108444  1.27752893  1.0
  Ti  Ti6  1  1.41891556  0.69644449  1.11536005  1.0
  Ti  Ti7  1  0.08108444  0.19644449  0.27752893  1.0
  Ni  Ni8  1  0.25000000  0.25000000  -0.00000000  1.0
  Ni  Ni9  1  0.75000000  0.75000000  -0.00000000  1.0
  Bi  Bi10  1  0.85968414  0.35968414  1.21936827  1.0
  Bi  Bi11  1  0.64031586  0.85968414  0.50000000  1.0
  Bi  Bi12  1  1.35968414  1.14031586  1.50000000  1.0
  Bi  Bi13  1  0.14031586  0.64031586  0.78063173  1.0
