# generated using pymatgen
data_Lu3InS6
_symmetry_space_group_name_H-M   'P 1'
_cell_length_a   13.33899719
_cell_length_b   16.38995883
_cell_length_c   3.78976476
_cell_angle_alpha   90.00000000
_cell_angle_beta   90.00000000
_cell_angle_gamma   90.00000000
_symmetry_Int_Tables_number   1
_chemical_formula_structural   Lu3InS6
_chemical_formula_sum   'Lu12 In4 S24'
_cell_volume   828.53965083
_cell_formula_units_Z   4
loop_
 _symmetry_equiv_pos_site_id
 _symmetry_equiv_pos_as_xyz
  1  'x, y, z'
loop_
 _atom_site_type_symbol
 _atom_site_label
 _atom_site_symmetry_multiplicity
 _atom_site_fract_x
 _atom_site_fract_y
 _atom_site_fract_z
 _atom_site_occupancy
  Lu  Lu0  1  0.19050496  0.64516829  0.74975190  1.0
  Lu  Lu1  1  0.69050496  0.85483171  0.25024810  1.0
  Lu  Lu2  1  0.80949504  0.35483171  0.74975190  1.0
  Lu  Lu3  1  0.30949504  0.14516829  0.25024810  1.0
  Lu  Lu4  1  0.96327126  0.77428769  0.74960497  1.0
  Lu  Lu5  1  0.46327126  0.72571231  0.25039503  1.0
  Lu  Lu6  1  0.03672874  0.22571231  0.74960497  1.0
  Lu  Lu7  1  0.53672874  0.27428769  0.25039503  1.0
  Lu  Lu8  1  0.74965446  0.60895923  0.75047693  1.0
  Lu  Lu9  1  0.24965446  0.89104077  0.24952307  1.0
  Lu  Lu10  1  0.25034554  0.39104077  0.75047693  1.0
  Lu  Lu11  1  0.75034554  0.10895923  0.24952307  1.0
  In  In12  1  0.50000000  0.00000000  0.75010425  1.0
  In  In13  1  0.00000000  0.50000000  0.24989575  1.0
  In  In14  1  0.50000000  0.50000000  0.75152653  1.0
  In  In15  1  0.00000000  0.00000000  0.24847347  1.0
  S  S16  1  0.38957925  0.62110737  0.75052360  1.0
  S  S17  1  0.88957925  0.87889263  0.24947640  1.0
  S  S18  1  0.61042075  0.37889263  0.75052360  1.0
  S  S19  1  0.11042075  0.12110737  0.24947640  1.0
  S  S20  1  0.38489778  0.24529338  0.75035558  1.0
  S  S21  1  0.88489778  0.25470662  0.24964442  1.0
  S  S22  1  0.61510222  0.75470662  0.75035558  1.0
  S  S23  1  0.11510222  0.74529338  0.24964442  1.0
  S  S24  1  0.31845031  0.78663631  0.74966497  1.0
  S  S25  1  0.81845031  0.71336369  0.25033503  1.0
  S  S26  1  0.68154969  0.21336369  0.74966497  1.0
  S  S27  1  0.18154969  0.28663631  0.25033503  1.0
  S  S28  1  0.30483868  0.02091538  0.75007826  1.0
  S  S29  1  0.80483868  0.47908462  0.24992174  1.0
  S  S30  1  0.69516132  0.97908462  0.75007826  1.0
  S  S31  1  0.19516132  0.52091538  0.24992174  1.0
  S  S32  1  0.09812332  0.90955916  0.74928914  1.0
  S  S33  1  0.59812332  0.59044084  0.25071086  1.0
  S  S34  1  0.90187668  0.09044084  0.74928914  1.0
  S  S35  1  0.40187668  0.40955916  0.25071086  1.0
  S  S36  1  0.98088987  0.60648003  0.74989609  1.0
  S  S37  1  0.48088987  0.89351997  0.25010391  1.0
  S  S38  1  0.01911013  0.39351997  0.74989609  1.0
  S  S39  1  0.51911013  0.10648003  0.25010391  1.0
