# generated using pymatgen
data_H3SNO3
_symmetry_space_group_name_H-M   'P 1'
_cell_length_a   8.16414223
_cell_length_b   9.58621860
_cell_length_c   8.28196484
_cell_angle_alpha   90.00000000
_cell_angle_beta   90.00000000
_cell_angle_gamma   90.00000000
_symmetry_Int_Tables_number   1
_chemical_formula_structural   H3SNO3
_chemical_formula_sum   'H24 S8 N8 O24'
_cell_volume   648.17350187
_cell_formula_units_Z   8
loop_
 _symmetry_equiv_pos_site_id
 _symmetry_equiv_pos_as_xyz
  1  'x, y, z'
loop_
 _atom_site_type_symbol
 _atom_site_label
 _atom_site_symmetry_multiplicity
 _atom_site_fract_x
 _atom_site_fract_y
 _atom_site_fract_z
 _atom_site_occupancy
  H  H0  1  0.65252620  0.43289059  0.40082953  1.0
  H  H1  1  0.84747380  0.56710941  0.90082953  1.0
  H  H2  1  0.15252620  0.06710941  0.59917047  1.0
  H  H3  1  0.34747380  0.93289059  0.09917047  1.0
  H  H4  1  0.34747380  0.56710941  0.59917047  1.0
  H  H5  1  0.15252620  0.43289059  0.09917047  1.0
  H  H6  1  0.84747380  0.93289059  0.40082953  1.0
  H  H7  1  0.65252620  0.06710941  0.90082953  1.0
  H  H8  1  0.74980771  0.36722372  0.56449432  1.0
  H  H9  1  0.75019229  0.63277628  0.06449432  1.0
  H  H10  1  0.24980771  0.13277628  0.43550568  1.0
  H  H11  1  0.25019229  0.86722372  0.93550568  1.0
  H  H12  1  0.25019229  0.63277628  0.43550568  1.0
  H  H13  1  0.24980771  0.36722372  0.93550568  1.0
  H  H14  1  0.75019229  0.86722372  0.56449432  1.0
  H  H15  1  0.74980771  0.13277628  0.06449432  1.0
  H  H16  1  0.80975668  0.52240838  0.48784373  1.0
  H  H17  1  0.69024332  0.47759162  0.98784373  1.0
  H  H18  1  0.30975668  0.97759162  0.51215627  1.0
  H  H19  1  0.19024332  0.02240838  0.01215627  1.0
  H  H20  1  0.19024332  0.47759162  0.51215627  1.0
  H  H21  1  0.30975668  0.52240838  0.01215627  1.0
  H  H22  1  0.69024332  0.02240838  0.48784373  1.0
  H  H23  1  0.80975668  0.97759162  0.98784373  1.0
  S  S24  1  0.91465470  0.33342224  0.33244323  1.0
  S  S25  1  0.58534530  0.66657776  0.83244323  1.0
  S  S26  1  0.41465470  0.16657776  0.66755677  1.0
  S  S27  1  0.08534530  0.83342224  0.16755677  1.0
  S  S28  1  0.08534530  0.66657776  0.66755677  1.0
  S  S29  1  0.41465470  0.33342224  0.16755677  1.0
  S  S30  1  0.58534530  0.83342224  0.33244323  1.0
  S  S31  1  0.91465470  0.16657776  0.83244323  1.0
  N  N32  1  0.76476452  0.42403632  0.45922802  1.0
  N  N33  1  0.73523548  0.57596368  0.95922802  1.0
  N  N34  1  0.26476452  0.07596368  0.54077198  1.0
  N  N35  1  0.23523548  0.92403632  0.04077198  1.0
  N  N36  1  0.23523548  0.57596368  0.54077198  1.0
  N  N37  1  0.26476452  0.42403632  0.04077198  1.0
  N  N38  1  0.73523548  0.92403632  0.45922802  1.0
  N  N39  1  0.76476452  0.07596368  0.95922802  1.0
  O  O40  1  0.05292366  0.32349456  0.44373212  1.0
  O  O41  1  0.44707634  0.67650544  0.94373212  1.0
  O  O42  1  0.55292366  0.17650544  0.55626788  1.0
  O  O43  1  0.94707634  0.82349456  0.05626788  1.0
  O  O44  1  0.94707634  0.67650544  0.55626788  1.0
  O  O45  1  0.55292366  0.32349456  0.05626788  1.0
  O  O46  1  0.44707634  0.82349456  0.44373212  1.0
  O  O47  1  0.05292366  0.17650544  0.94373212  1.0
  O  O48  1  0.93685029  0.43120568  0.19912951  1.0
  O  O49  1  0.56314971  0.56879432  0.69912951  1.0
  O  O50  1  0.43685029  0.06879432  0.80087049  1.0
  O  O51  1  0.06314971  0.93120568  0.30087049  1.0
  O  O52  1  0.06314971  0.56879432  0.80087049  1.0
  O  O53  1  0.43685029  0.43120568  0.30087049  1.0
  O  O54  1  0.56314971  0.93120568  0.19912951  1.0
  O  O55  1  0.93685029  0.06879432  0.69912951  1.0
  O  O56  1  0.83064768  0.20391386  0.29484409  1.0
  O  O57  1  0.66935232  0.79608614  0.79484409  1.0
  O  O58  1  0.33064768  0.29608614  0.70515591  1.0
  O  O59  1  0.16935232  0.70391386  0.20515591  1.0
  O  O60  1  0.16935232  0.79608614  0.70515591  1.0
  O  O61  1  0.33064768  0.20391386  0.20515591  1.0
  O  O62  1  0.66935232  0.70391386  0.29484409  1.0
  O  O63  1  0.83064768  0.29608614  0.79484409  1.0
