# generated using pymatgen
data_NaLiB2(H5N)2
_symmetry_space_group_name_H-M   'P 1'
_cell_length_a   8.84598920
_cell_length_b   7.36748102
_cell_length_c   5.12117038
_cell_angle_alpha   108.60891925
_cell_angle_beta   100.95982778
_cell_angle_gamma   103.18089007
_symmetry_Int_Tables_number   1
_chemical_formula_structural   NaLiB2(H5N)2
_chemical_formula_sum   'Na2 Li2 B4 H20 N4'
_cell_volume   295.21486122
_cell_formula_units_Z   2
loop_
 _symmetry_equiv_pos_site_id
 _symmetry_equiv_pos_as_xyz
  1  'x, y, z'
loop_
 _atom_site_type_symbol
 _atom_site_label
 _atom_site_symmetry_multiplicity
 _atom_site_fract_x
 _atom_site_fract_y
 _atom_site_fract_z
 _atom_site_occupancy
  Na  Na0  1  -0.51623676  -0.23143975  -0.85076704  1.0
  Na  Na1  1  -0.48376324  -0.76856025  -0.14923296  1.0
  Li  Li2  1  -0.86772777  -0.55589019  -0.48553495  1.0
  Li  Li3  1  -0.13227223  -0.44410981  -0.51446505  1.0
  B  B4  1  -0.75081036  -0.62493505  -1.02939497  1.0
  B  B5  1  -0.24918964  -0.37506495  0.02939497  1.0
  B  B6  1  -0.30475271  -0.80848515  -0.64786638  1.0
  B  B7  1  -0.69524729  -0.19151485  -0.35213362  1.0
  H  H8  1  -0.20586808  -0.52102987  -0.95505883  1.0
  H  H9  1  -0.79413192  -0.47897013  -0.04494117  1.0
  H  H10  1  -0.32494566  -0.91825172  -0.89936745  1.0
  H  H11  1  -0.67505434  -0.08174828  -0.10063255  1.0
  H  H12  1  -0.60792006  -0.55945386  -0.88449241  1.0
  H  H13  1  -0.39207994  -0.44054614  -0.11550759  1.0
  H  H14  1  -0.80785016  -0.84408802  -0.84659398  1.0
  H  H15  1  -0.19214984  -0.15591198  -0.15340602  1.0
  H  H16  1  -0.96935170  -0.80748404  -1.00100879  1.0
  H  H17  1  -0.03064830  -0.19251596  0.00100879  1.0
  H  H18  1  -0.89412601  -0.33077683  -0.73146255  1.0
  H  H19  1  -0.10587399  -0.66922317  -0.26853745  1.0
  H  H20  1  -0.36602062  -0.67296895  -0.64502223  1.0
  H  H21  1  -0.63397938  -0.32703105  -0.35497777  1.0
  H  H22  1  -0.93206389  -0.17041217  -0.47017301  1.0
  H  H23  1  -0.06793611  -0.82958783  -0.52982699  1.0
  H  H24  1  -0.38140614  -0.90990500  -0.53552409  1.0
  H  H25  1  -0.61859386  -0.09009500  -0.46447591  1.0
  H  H26  1  -0.75815353  -0.73238302  -0.27857750  1.0
  H  H27  1  -0.24184647  -0.26761698  -0.72142250  1.0
  N  N28  1  -0.85242130  -0.73334473  -0.87593323  1.0
  N  N29  1  -0.14757870  -0.26665527  -0.12406677  1.0
  N  N30  1  -0.88000487  -0.28291414  -0.51478465  1.0
  N  N31  1  -0.11999513  -0.71708586  -0.48521535  1.0
