# generated using pymatgen
data_Li2Co12P7
_symmetry_space_group_name_H-M   'P 1'
_cell_length_a   8.90069153
_cell_length_b   8.90069153
_cell_length_c   3.44681882
_cell_angle_alpha   90.00000000
_cell_angle_beta   90.00000000
_cell_angle_gamma   120.00000000
_symmetry_Int_Tables_number   1
_chemical_formula_structural   Li2Co12P7
_chemical_formula_sum   'Li2 Co12 P7'
_cell_volume   236.48118212
_cell_formula_units_Z   1
loop_
 _symmetry_equiv_pos_site_id
 _symmetry_equiv_pos_as_xyz
  1  'x, y, z'
loop_
 _atom_site_type_symbol
 _atom_site_label
 _atom_site_symmetry_multiplicity
 _atom_site_fract_x
 _atom_site_fract_y
 _atom_site_fract_z
 _atom_site_occupancy
  Li  Li0  1  0.00000000  0.00000000  0.50000000  1.0
  Li  Li1  1  0.66666667  0.33333333  0.00000000  1.0
  Co  Co2  1  0.71757022  0.61218622  0.50000000  1.0
  Co  Co3  1  0.89461600  0.28242978  0.50000000  1.0
  Co  Co4  1  0.38781378  0.10538400  0.50000000  1.0
  Co  Co5  1  0.23022680  0.42736939  0.50000000  1.0
  Co  Co6  1  0.19714259  0.76977320  0.50000000  1.0
  Co  Co7  1  0.57263061  0.80285741  0.50000000  1.0
  Co  Co8  1  0.48860831  0.54811394  0.00000000  1.0
  Co  Co9  1  0.05950562  0.51139169  0.00000000  1.0
  Co  Co10  1  0.45188606  0.94049438  0.00000000  1.0
  Co  Co11  1  0.27232996  0.22755033  0.00000000  1.0
  Co  Co12  1  0.95522037  0.72767004  0.00000000  1.0
  Co  Co13  1  0.77244967  0.04477963  0.00000000  1.0
  P  P14  1  0.45272391  0.37521958  0.50000000  1.0
  P  P15  1  0.92249567  0.54727609  0.50000000  1.0
  P  P16  1  0.62478042  0.07750433  0.50000000  1.0
  P  P17  1  0.04278946  0.25491757  0.00000000  1.0
  P  P18  1  0.21212811  0.95721054  0.00000000  1.0
  P  P19  1  0.74508243  0.78787189  0.00000000  1.0
  P  P20  1  0.33333333  0.66666667  0.00000000  1.0
