# generated using pymatgen
data_Lu6Co2Sn
_symmetry_space_group_name_H-M   'P 1'
_cell_length_a   8.17795584
_cell_length_b   8.17795584
_cell_length_c   8.17795584
_cell_angle_alpha   110.80021164
_cell_angle_beta   110.66114807
_cell_angle_gamma   106.98067500
_symmetry_Int_Tables_number   1
_chemical_formula_structural   Lu6Co2Sn
_chemical_formula_sum   'Lu12 Co4 Sn2'
_cell_volume   420.43533008
_cell_formula_units_Z   2
loop_
 _symmetry_equiv_pos_site_id
 _symmetry_equiv_pos_as_xyz
  1  'x, y, z'
loop_
 _atom_site_type_symbol
 _atom_site_label
 _atom_site_symmetry_multiplicity
 _atom_site_fract_x
 _atom_site_fract_y
 _atom_site_fract_z
 _atom_site_occupancy
  Lu  Lu0  1  0.81315891  0.71546666  0.52862557  1.0
  Lu  Lu1  1  0.18684109  0.71546666  0.90230776  1.0
  Lu  Lu2  1  0.81315891  1.28453334  1.09769224  1.0
  Lu  Lu3  1  0.18684109  0.28453334  0.47137443  1.0
  Lu  Lu4  1  0.68541966  0.38423547  0.69881580  1.0
  Lu  Lu5  1  1.31458034  1.01339614  0.69881580  1.0
  Lu  Lu6  1  0.68541966  0.98660386  0.30118420  1.0
  Lu  Lu7  1  0.31458034  0.61576453  0.30118420  1.0
  Lu  Lu8  1  0.55010656  0.76540350  0.78470306  1.0
  Lu  Lu9  1  1.01929957  1.23459650  0.78470306  1.0
  Lu  Lu10  1  0.98070043  0.76540350  0.21529694  1.0
  Lu  Lu11  1  0.44989344  0.23459650  0.21529694  1.0
  Co  Co12  1  0.88670671  1.38670671  0.50000000  1.0
  Co  Co13  1  1.11329329  0.61329329  0.50000000  1.0
  Co  Co14  1  0.62229754  -0.00000000  0.62229754  1.0
  Co  Co15  1  0.37770246  -0.00000000  0.37770246  1.0
  Sn  Sn16  1  0.50000000  0.50000000  0.00000000  1.0
  Sn  Sn17  1  0.00000000  0.00000000  0.00000000  1.0
