# generated using pymatgen
data_MgSiO3
_symmetry_space_group_name_H-M   'P 1'
_cell_length_a   6.53422660
_cell_length_b   6.53422660
_cell_length_c   5.06204091
_cell_angle_alpha   80.45773593
_cell_angle_beta   99.54226407
_cell_angle_gamma   93.53584289
_symmetry_Int_Tables_number   1
_chemical_formula_structural   MgSiO3
_chemical_formula_sum   'Mg4 Si4 O12'
_cell_volume   210.06001073
_cell_formula_units_Z   4
loop_
 _symmetry_equiv_pos_site_id
 _symmetry_equiv_pos_as_xyz
  1  'x, y, z'
loop_
 _atom_site_type_symbol
 _atom_site_label
 _atom_site_symmetry_multiplicity
 _atom_site_fract_x
 _atom_site_fract_y
 _atom_site_fract_z
 _atom_site_occupancy
  Mg  Mg0  1  0.76928441  0.76928441  0.75000000  1.0
  Mg  Mg1  1  0.23071559  0.23071559  0.25000000  1.0
  Mg  Mg2  1  0.40279770  0.40279770  0.75000000  1.0
  Mg  Mg3  1  0.59720230  0.59720230  0.25000000  1.0
  Si  Si4  1  1.29271482  -0.11236132  0.78197060  1.0
  Si  Si5  1  1.11236132  -0.29271482  0.28197060  1.0
  Si  Si6  1  0.88763868  0.29271482  0.71802940  1.0
  Si  Si7  1  0.70728518  0.11236132  0.21802940  1.0
  O  O8  1  1.47090712  -0.28732036  0.85847617  1.0
  O  O9  1  1.28732036  -0.47090712  0.35847617  1.0
  O  O10  1  0.71267964  0.47090712  0.64152383  1.0
  O  O11  1  0.52909288  0.28732036  0.14152383  1.0
  O  O12  1  0.79495372  0.09175475  0.92750819  1.0
  O  O13  1  0.90824525  0.20504628  0.42750819  1.0
  O  O14  1  1.09175475  -0.20504628  0.57249181  1.0
  O  O15  1  1.20504628  -0.09175475  0.07249181  1.0
  O  O16  1  0.35447351  0.11329139  0.63129198  1.0
  O  O17  1  0.88670861  0.64552649  0.13129198  1.0
  O  O18  1  1.11329139  -0.64552649  0.86870802  1.0
  O  O19  1  1.64552649  -0.11329139  0.36870802  1.0
