# generated using pymatgen
data_GaAsO4
_symmetry_space_group_name_H-M   'P 1'
_cell_length_a   5.08326492
_cell_length_b   5.08326492
_cell_length_c   7.33126101
_cell_angle_alpha   90.00000000
_cell_angle_beta   90.00000000
_cell_angle_gamma   89.92123497
_symmetry_Int_Tables_number   1
_chemical_formula_structural   GaAsO4
_chemical_formula_sum   'Ga2 As2 O8'
_cell_volume   189.43654254
_cell_formula_units_Z   2
loop_
 _symmetry_equiv_pos_site_id
 _symmetry_equiv_pos_as_xyz
  1  'x, y, z'
loop_
 _atom_site_type_symbol
 _atom_site_label
 _atom_site_symmetry_multiplicity
 _atom_site_fract_x
 _atom_site_fract_y
 _atom_site_fract_z
 _atom_site_occupancy
  Ga  Ga0  1  0.32035247  0.67964753  0.25000000  1.0
  Ga  Ga1  1  -0.32035247  1.32035247  0.75000000  1.0
  As  As2  1  0.82527178  0.82527178  -0.00000000  1.0
  As  As3  1  0.17472822  0.17472822  0.50000000  1.0
  O  O4  1  0.15924545  0.77256778  0.03228490  1.0
  O  O5  1  -0.22743222  1.15924545  0.96771510  1.0
  O  O6  1  0.22743222  0.84075455  0.46771510  1.0
  O  O7  1  -0.15924545  1.22743222  0.53228490  1.0
  O  O8  1  0.27768589  0.32253334  0.29951634  1.0
  O  O9  1  -0.67746666  1.27768589  0.70048366  1.0
  O  O10  1  0.67746666  0.72231411  0.20048366  1.0
  O  O11  1  -0.27768589  1.67746666  0.79951634  1.0
