# generated using pymatgen
data_NaTa3O8
_symmetry_space_group_name_H-M   'P 1'
_cell_length_a   7.31149053
_cell_length_b   7.31149053
_cell_length_c   7.31149053
_cell_angle_alpha   120.10077688
_cell_angle_beta   88.07316705
_cell_angle_gamma   122.14750577
_symmetry_Int_Tables_number   1
_chemical_formula_structural   NaTa3O8
_chemical_formula_sum   'Na2 Ta6 O16'
_cell_volume   271.40188123
_cell_formula_units_Z   2
loop_
 _symmetry_equiv_pos_site_id
 _symmetry_equiv_pos_as_xyz
  1  'x, y, z'
loop_
 _atom_site_type_symbol
 _atom_site_label
 _atom_site_symmetry_multiplicity
 _atom_site_fract_x
 _atom_site_fract_y
 _atom_site_fract_z
 _atom_site_occupancy
  Na  Na0  1  0.25000000  0.25000000  -0.00000000  1.0
  Na  Na1  1  0.75000000  0.75000000  0.00000000  1.0
  Ta  Ta2  1  0.26273045  0.23825479  0.50098523  1.0
  Ta  Ta3  1  0.23726955  0.73825479  0.97552434  1.0
  Ta  Ta4  1  0.76273045  1.26174521  1.02447566  1.0
  Ta  Ta5  1  0.73726955  0.76174521  0.49901477  1.0
  Ta  Ta6  1  0.25000000  0.75000000  0.50000000  1.0
  Ta  Ta7  1  0.75000000  1.25000000  0.50000000  1.0
  O  O8  1  1.06129796  0.89776229  0.55184022  1.0
  O  O9  1  0.65407793  0.49054227  0.55184022  1.0
  O  O10  1  0.84592207  1.39776229  0.83646434  1.0
  O  O11  1  0.43870204  0.99054227  0.83646434  1.0
  O  O12  1  0.56129796  1.00945773  1.16353566  1.0
  O  O13  1  1.15407793  1.60223771  1.16353566  1.0
  O  O14  1  0.34592207  0.50945773  0.44815978  1.0
  O  O15  1  0.93870204  1.10223771  0.44815978  1.0
  O  O16  1  0.32605476  0.48916830  0.81522307  1.0
  O  O17  1  0.17394524  0.98916830  1.16311354  1.0
  O  O18  1  0.82605476  1.01083170  0.83688646  1.0
  O  O19  1  0.67394524  0.51083170  0.18477693  1.0
  O  O20  1  0.43063234  0.11620017  0.54683251  1.0
  O  O21  1  0.06936766  0.61620017  0.68556784  1.0
  O  O22  1  0.93063234  1.38379983  1.31443216  1.0
  O  O23  1  0.56936766  0.88379983  0.45316749  1.0
