# generated using pymatgen
data_GaSiCN
_symmetry_space_group_name_H-M   'P 1'
_cell_length_a   3.15653460
_cell_length_b   5.59815817
_cell_length_c   5.09109154
_cell_angle_alpha   90.00000000
_cell_angle_beta   90.00000000
_cell_angle_gamma   90.00000000
_symmetry_Int_Tables_number   1
_chemical_formula_structural   GaSiCN
_chemical_formula_sum   'Ga2 Si2 C2 N2'
_cell_volume   89.96355848
_cell_formula_units_Z   2
loop_
 _symmetry_equiv_pos_site_id
 _symmetry_equiv_pos_as_xyz
  1  'x, y, z'
loop_
 _atom_site_type_symbol
 _atom_site_label
 _atom_site_symmetry_multiplicity
 _atom_site_fract_x
 _atom_site_fract_y
 _atom_site_fract_z
 _atom_site_occupancy
  Ga  Ga0  1  0.50000000  0.93771605  0.51616583  1.0
  Ga  Ga1  1  0.00000000  0.06228395  0.01616583  1.0
  Si  Si2  1  0.50000000  0.58929941  0.99347539  1.0
  Si  Si3  1  0.00000000  0.41070059  0.49347539  1.0
  C  C4  1  0.50000000  0.89168582  0.89552560  1.0
  C  C5  1  0.00000000  0.10831418  0.39552560  1.0
  N  N6  1  0.50000000  0.55618568  0.35893318  1.0
  N  N7  1  0.00000000  0.44381432  0.85893318  1.0
