# generated using pymatgen
data_MnSO4
_symmetry_space_group_name_H-M   'P 1'
_cell_length_a   4.88063879
_cell_length_b   4.88063879
_cell_length_c   6.92246755
_cell_angle_alpha   90.00000000
_cell_angle_beta   90.00000000
_cell_angle_gamma   113.77459177
_symmetry_Int_Tables_number   1
_chemical_formula_structural   MnSO4
_chemical_formula_sum   'Mn2 S2 O8'
_cell_volume   150.90412274
_cell_formula_units_Z   2
loop_
 _symmetry_equiv_pos_site_id
 _symmetry_equiv_pos_as_xyz
  1  'x, y, z'
loop_
 _atom_site_type_symbol
 _atom_site_label
 _atom_site_symmetry_multiplicity
 _atom_site_fract_x
 _atom_site_fract_y
 _atom_site_fract_z
 _atom_site_occupancy
  Mn  Mn0  1  -0.00000000  -0.00000000  0.50000000  1.0
  Mn  Mn1  1  0.00000000  0.00000000  -0.00000000  1.0
  S  S2  1  0.34816988  0.65183012  0.25000000  1.0
  S  S3  1  -0.34816988  1.34816988  0.75000000  1.0
  O  O4  1  0.22560180  0.31277001  0.25000000  1.0
  O  O5  1  -0.68722999  1.22560180  0.75000000  1.0
  O  O6  1  0.68722999  0.77439820  0.25000000  1.0
  O  O7  1  -0.22560180  1.68722999  0.75000000  1.0
  O  O8  1  0.24835616  0.75164384  0.42818811  1.0
  O  O9  1  0.24835616  0.75164384  0.07181189  1.0
  O  O10  1  -0.24835616  1.24835616  0.92818811  1.0
  O  O11  1  -0.24835616  1.24835616  0.57181189  1.0
