# generated using pymatgen
data_PRuS
_symmetry_space_group_name_H-M   'P 1'
_cell_length_a   5.76574017
_cell_length_b   5.79162103
_cell_length_c   5.83516145
_cell_angle_alpha   90.00000000
_cell_angle_beta   110.73760293
_cell_angle_gamma   90.00000000
_symmetry_Int_Tables_number   1
_chemical_formula_structural   PRuS
_chemical_formula_sum   'P4 Ru4 S4'
_cell_volume   182.22924697
_cell_formula_units_Z   4
loop_
 _symmetry_equiv_pos_site_id
 _symmetry_equiv_pos_as_xyz
  1  'x, y, z'
loop_
 _atom_site_type_symbol
 _atom_site_label
 _atom_site_symmetry_multiplicity
 _atom_site_fract_x
 _atom_site_fract_y
 _atom_site_fract_z
 _atom_site_occupancy
  P  P0  1  0.65044710  0.37699750  0.87350934  1.0
  P  P1  1  0.65044710  0.12300250  0.37350934  1.0
  P  P2  1  0.34955290  0.87699750  0.62649066  1.0
  P  P3  1  0.34955290  0.62300250  0.12649066  1.0
  Ru  Ru4  1  0.77389273  1.00226373  0.79310361  1.0
  Ru  Ru5  1  0.77389273  0.49773627  0.29310361  1.0
  Ru  Ru6  1  0.22610727  0.50226373  0.70689639  1.0
  Ru  Ru7  1  0.22610727  -0.00226373  0.20689639  1.0
  S  S8  1  0.83540623  0.62192194  0.69115065  1.0
  S  S9  1  0.83540623  0.87807806  0.19115065  1.0
  S  S10  1  0.16459377  0.12192194  0.80884935  1.0
  S  S11  1  0.16459377  0.37807806  0.30884935  1.0
