# generated using pymatgen
data_ZrIn2
_symmetry_space_group_name_H-M   'P 1'
_cell_length_a   14.12080625
_cell_length_b   14.12080625
_cell_length_c   14.12080625
_cell_angle_alpha   161.93989272
_cell_angle_beta   161.93989272
_cell_angle_gamma   25.64887384
_symmetry_Int_Tables_number   1
_chemical_formula_structural   ZrIn2
_chemical_formula_sum   'Zr4 In8'
_cell_volume   270.52292574
_cell_formula_units_Z   4
loop_
 _symmetry_equiv_pos_site_id
 _symmetry_equiv_pos_as_xyz
  1  'x, y, z'
loop_
 _atom_site_type_symbol
 _atom_site_label
 _atom_site_symmetry_multiplicity
 _atom_site_fract_x
 _atom_site_fract_y
 _atom_site_fract_z
 _atom_site_occupancy
  Zr  Zr0  1  0.82726076  0.32726076  0.50000000  1.0
  Zr  Zr1  1  0.92273924  0.92273924  1.00000000  1.0
  Zr  Zr2  1  0.67273924  0.17273924  0.50000000  1.0
  Zr  Zr3  1  0.07726076  0.07726076  -0.00000000  1.0
  In  In4  1  0.00050093  0.50050093  0.50000000  1.0
  In  In5  1  0.74949907  0.74949907  1.00000000  1.0
  In  In6  1  0.49949907  -0.00050093  0.50000000  1.0
  In  In7  1  0.25050093  0.25050093  -0.00000000  1.0
  In  In8  1  0.16207118  0.66207118  0.50000000  1.0
  In  In9  1  0.58792882  0.58792882  1.00000000  1.0
  In  In10  1  0.33792882  0.83792882  0.50000000  1.0
  In  In11  1  0.41207118  0.41207118  0.00000000  1.0
