# generated using pymatgen
data_MnAsO4
_symmetry_space_group_name_H-M   'P 1'
_cell_length_a   4.90707684
_cell_length_b   9.07449399
_cell_length_c   8.07665568
_cell_angle_alpha   90.00000000
_cell_angle_beta   121.64526322
_cell_angle_gamma   90.00000000
_symmetry_Int_Tables_number   1
_chemical_formula_structural   MnAsO4
_chemical_formula_sum   'Mn4 As4 O16'
_cell_volume   306.17235091
_cell_formula_units_Z   4
loop_
 _symmetry_equiv_pos_site_id
 _symmetry_equiv_pos_as_xyz
  1  'x, y, z'
loop_
 _atom_site_type_symbol
 _atom_site_label
 _atom_site_symmetry_multiplicity
 _atom_site_fract_x
 _atom_site_fract_y
 _atom_site_fract_z
 _atom_site_occupancy
  Mn  Mn0  1  0.50000000  0.50000000  -0.00000000  1.0
  Mn  Mn1  1  0.50000000  0.00000000  0.50000000  1.0
  Mn  Mn2  1  -0.00000000  0.50000000  0.50000000  1.0
  Mn  Mn3  1  -0.00000000  -0.00000000  0.00000000  1.0
  As  As4  1  0.32970652  0.32085725  0.29017848  1.0
  As  As5  1  0.32970652  0.17914275  0.79017848  1.0
  As  As6  1  0.67029348  0.82085725  0.20982152  1.0
  As  As7  1  0.67029348  0.67914275  0.70982152  1.0
  O  O8  1  0.35953790  0.12755213  0.27653709  1.0
  O  O9  1  0.35953790  0.37244787  0.77653709  1.0
  O  O10  1  0.64046210  0.62755213  0.22346291  1.0
  O  O11  1  0.64046210  0.87244787  0.72346291  1.0
  O  O12  1  0.99681726  0.37839252  0.29717948  1.0
  O  O13  1  0.99681726  0.12160748  0.79717948  1.0
  O  O14  1  0.00318274  0.87839252  0.20282052  1.0
  O  O15  1  0.00318274  0.62160748  0.70282052  1.0
  O  O16  1  0.73401724  0.87869041  0.43180438  1.0
  O  O17  1  0.73401724  0.62130959  0.93180438  1.0
  O  O18  1  0.26598276  0.37869041  0.06819562  1.0
  O  O19  1  0.26598276  0.12130959  0.56819562  1.0
  O  O20  1  0.68391868  0.37735208  0.49414901  1.0
  O  O21  1  0.68391868  0.12264792  0.99414901  1.0
  O  O22  1  0.31608132  0.87735208  0.00585099  1.0
  O  O23  1  0.31608132  0.62264792  0.50585099  1.0
