# generated using pymatgen
data_Cs4BiSbCl12
_symmetry_space_group_name_H-M   'P 1'
_cell_length_a   13.29730691
_cell_length_b   13.29730691
_cell_length_c   13.29730691
_cell_angle_alpha   131.57685172
_cell_angle_beta   131.57685172
_cell_angle_gamma   70.89817027
_symmetry_Int_Tables_number   1
_chemical_formula_structural   Cs4BiSbCl12
_chemical_formula_sum   'Cs8 Bi2 Sb2 Cl24'
_cell_volume   1288.56722663
_cell_formula_units_Z   2
loop_
 _symmetry_equiv_pos_site_id
 _symmetry_equiv_pos_as_xyz
  1  'x, y, z'
loop_
 _atom_site_type_symbol
 _atom_site_label
 _atom_site_symmetry_multiplicity
 _atom_site_fract_x
 _atom_site_fract_y
 _atom_site_fract_z
 _atom_site_occupancy
  Cs  Cs0  1  1.59329932  1.62500000  1.46829932  1.0
  Cs  Cs1  1  1.15670068  1.62500000  1.03170068  1.0
  Cs  Cs2  1  1.37500000  0.84329932  0.96829932  1.0
  Cs  Cs3  1  0.87500000  0.84329932  0.46829932  1.0
  Cs  Cs4  1  1.59329932  1.12500000  0.96829932  1.0
  Cs  Cs5  1  1.15670068  1.12500000  0.53170068  1.0
  Cs  Cs6  1  1.37500000  1.40670068  1.53170068  1.0
  Cs  Cs7  1  0.87500000  1.40670068  1.03170068  1.0
  Bi  Bi8  1  0.50000000  0.50000000  1.00000000  1.0
  Bi  Bi9  1  1.25000000  0.75000000  0.50000000  1.0
  Sb  Sb10  1  0.00000000  0.00000000  0.00000000  1.0
  Sb  Sb11  1  0.75000000  1.25000000  0.50000000  1.0
  Cl  Cl12  1  0.99949813  1.22213459  0.22263646  1.0
  Cl  Cl13  1  0.97213459  1.24949813  0.72263646  1.0
  Cl  Cl14  1  1.52686167  1.24949813  1.27736354  1.0
  Cl  Cl15  1  0.99949813  1.77686167  0.77736354  1.0
  Cl  Cl16  1  0.75050187  1.02786541  0.27736354  1.0
  Cl  Cl17  1  0.77786541  0.00050187  0.77736354  1.0
  Cl  Cl18  1  0.22313833  0.00050187  0.22263646  1.0
  Cl  Cl19  1  0.75050187  1.47313833  0.72263646  1.0
  Cl  Cl20  1  0.50429846  0.75475721  1.25045875  1.0
  Cl  Cl21  1  1.50475721  0.75429846  0.75045875  1.0
  Cl  Cl22  1  1.00383970  0.75429846  0.24954125  1.0
  Cl  Cl23  1  0.50429846  0.25383970  0.74954125  1.0
  Cl  Cl24  1  1.24570154  1.49524279  1.24954125  1.0
  Cl  Cl25  1  1.24524279  1.49570154  0.74954125  1.0
  Cl  Cl26  1  1.74616030  1.49570154  1.25045875  1.0
  Cl  Cl27  1  1.24570154  0.99616030  0.75045875  1.0
  Cl  Cl28  1  0.11183205  0.11183205  0.00000000  1.0
  Cl  Cl29  1  0.86183205  1.36183205  0.50000000  1.0
  Cl  Cl30  1  0.63816795  1.13816795  0.50000000  1.0
  Cl  Cl31  1  0.88816795  0.88816795  -0.00000000  1.0
  Cl  Cl32  1  1.37390162  1.37390162  1.00000000  1.0
  Cl  Cl33  1  0.12390162  0.62390162  0.50000000  1.0
  Cl  Cl34  1  1.37609838  0.87609838  0.50000000  1.0
  Cl  Cl35  1  0.62609838  0.62609838  0.00000000  1.0
