# generated using pymatgen
data_LiGaAs2O7
_symmetry_space_group_name_H-M   'P 1'
_cell_length_a   5.37832550
_cell_length_b   5.37832550
_cell_length_c   4.78970383
_cell_angle_alpha   81.07128357
_cell_angle_beta   98.92871643
_cell_angle_gamma   78.08319809
_symmetry_Int_Tables_number   1
_chemical_formula_structural   LiGaAs2O7
_chemical_formula_sum   'Li1 Ga1 As2 O7'
_cell_volume   131.38312548
_cell_formula_units_Z   1
loop_
 _symmetry_equiv_pos_site_id
 _symmetry_equiv_pos_as_xyz
  1  'x, y, z'
loop_
 _atom_site_type_symbol
 _atom_site_label
 _atom_site_symmetry_multiplicity
 _atom_site_fract_x
 _atom_site_fract_y
 _atom_site_fract_z
 _atom_site_occupancy
  Li  Li0  1  0.00210274  0.00210274  -0.00000000  1.0
  Ga  Ga1  1  0.62571982  -0.37428018  -0.00000000  1.0
  As  As2  1  1.07036255  0.50226706  0.59443203  1.0
  As  As3  1  1.50226706  0.07036255  0.40556797  1.0
  O  O4  1  1.30705431  0.64107403  0.73413394  1.0
  O  O5  1  1.64107403  0.30705431  0.26586606  1.0
  O  O6  1  0.89338574  -0.61004794  0.83789228  1.0
  O  O7  1  0.38995206  -0.10661426  0.16210772  1.0
  O  O8  1  0.70421260  -0.09001234  0.72921108  1.0
  O  O9  1  0.90998766  -0.29578740  0.27078892  1.0
  O  O10  1  1.19658142  0.19658142  0.50000000  1.0
