# generated using pymatgen
data_P3IrO9
_symmetry_space_group_name_H-M   'P 1'
_cell_length_a   5.09408706
_cell_length_b   10.50557314
_cell_length_c   7.17379083
_cell_angle_alpha   98.45127565
_cell_angle_beta   91.96641176
_cell_angle_gamma   91.90323052
_symmetry_Int_Tables_number   1
_chemical_formula_structural   P3IrO9
_chemical_formula_sum   'P6 Ir2 O18'
_cell_volume   379.23802228
_cell_formula_units_Z   2
loop_
 _symmetry_equiv_pos_site_id
 _symmetry_equiv_pos_as_xyz
  1  'x, y, z'
loop_
 _atom_site_type_symbol
 _atom_site_label
 _atom_site_symmetry_multiplicity
 _atom_site_fract_x
 _atom_site_fract_y
 _atom_site_fract_z
 _atom_site_occupancy
  P  P0  1  -0.49932513  -0.85690217  -0.65765159  1.0
  P  P1  1  -0.50067487  -0.14309783  -0.34234841  1.0
  P  P2  1  -0.51879979  -0.67721754  -0.94658405  1.0
  P  P3  1  -0.48120021  -0.32278246  -0.05341595  1.0
  P  P4  1  -0.76438142  -0.26834114  -0.69768380  1.0
  P  P5  1  -0.23561858  -0.73165886  -0.30231620  1.0
  Ir  Ir6  1  -0.00000000  0.00000000  -0.50000000  1.0
  Ir  Ir7  1  0.00000000  -0.50000000  0.00000000  1.0
  O  O8  1  -0.45048979  -0.80206765  -0.85066765  1.0
  O  O9  1  -0.54951021  -0.19793235  -0.14933235  1.0
  O  O10  1  -0.38628117  -0.73681795  -0.50405111  1.0
  O  O11  1  -0.61371883  -0.26318205  -0.49594889  1.0
  O  O12  1  -0.33397730  -0.97416195  -0.65752744  1.0
  O  O13  1  -0.66602270  -0.02583805  -0.34247256  1.0
  O  O14  1  -0.32551182  -0.56632295  -0.87589802  1.0
  O  O15  1  -0.67448818  -0.43367705  -0.12410198  1.0
  O  O16  1  -0.52087809  -0.26639406  -0.83639513  1.0
  O  O17  1  -0.47912191  -0.73360594  -0.16360487  1.0
  O  O18  1  -0.79382395  -0.87526073  -0.64251792  1.0
  O  O19  1  -0.20617605  -0.12473927  -0.35748208  1.0
  O  O20  1  -0.80740504  -0.65321953  -0.91729477  1.0
  O  O21  1  -0.19259496  -0.34678047  -0.08270523  1.0
  O  O22  1  -0.90960982  -0.39825234  -0.73587035  1.0
  O  O23  1  -0.09039018  -0.60174766  -0.26412965  1.0
  O  O24  1  -0.91624910  -0.14781392  -0.70733943  1.0
  O  O25  1  -0.08375090  -0.85218608  -0.29266057  1.0
