# generated using pymatgen
data_Co(ClO)2
_symmetry_space_group_name_H-M   'P 1'
_cell_length_a   5.32293263
_cell_length_b   5.32293263
_cell_length_c   3.32854273
_cell_angle_alpha   85.99740715
_cell_angle_beta   94.00259285
_cell_angle_gamma   87.95940421
_symmetry_Int_Tables_number   1
_chemical_formula_structural   Co(ClO)2
_chemical_formula_sum   'Co1 Cl2 O2'
_cell_volume   93.77245658
_cell_formula_units_Z   1
loop_
 _symmetry_equiv_pos_site_id
 _symmetry_equiv_pos_as_xyz
  1  'x, y, z'
loop_
 _atom_site_type_symbol
 _atom_site_label
 _atom_site_symmetry_multiplicity
 _atom_site_fract_x
 _atom_site_fract_y
 _atom_site_fract_z
 _atom_site_occupancy
  Co  Co0  1  0.00000000  0.00000000  0.00000000  1.0
  Cl  Cl1  1  0.79022248  -0.79022248  0.45742294  1.0
  Cl  Cl2  1  0.20977752  -0.20977752  0.54257706  1.0
  O  O3  1  0.77326552  -0.22673448  0.00000000  1.0
  O  O4  1  1.22673448  0.22673448  0.00000000  1.0
