# generated using pymatgen
data_CuHgSeBr
_symmetry_space_group_name_H-M   'P 1'
_cell_length_a   10.23377284
_cell_length_b   4.29682416
_cell_length_c   9.95735802
_cell_angle_alpha   90.00000000
_cell_angle_beta   90.00000000
_cell_angle_gamma   90.00000000
_symmetry_Int_Tables_number   1
_chemical_formula_structural   CuHgSeBr
_chemical_formula_sum   'Cu4 Hg4 Se4 Br4'
_cell_volume   437.85213968
_cell_formula_units_Z   4
loop_
 _symmetry_equiv_pos_site_id
 _symmetry_equiv_pos_as_xyz
  1  'x, y, z'
loop_
 _atom_site_type_symbol
 _atom_site_label
 _atom_site_symmetry_multiplicity
 _atom_site_fract_x
 _atom_site_fract_y
 _atom_site_fract_z
 _atom_site_occupancy
  Cu  Cu0  1  0.39722831  0.50000000  0.28437555  1.0
  Cu  Cu1  1  0.89722831  0.50000000  0.71562445  1.0
  Cu  Cu2  1  0.60277169  0.50000000  0.71562445  1.0
  Cu  Cu3  1  0.10277169  0.50000000  0.28437555  1.0
  Hg  Hg4  1  0.25000000  0.00000000  0.71306171  1.0
  Hg  Hg5  1  0.75000000  0.00000000  0.28693829  1.0
  Hg  Hg6  1  0.50000000  -0.00000000  0.00000000  1.0
  Hg  Hg7  1  0.00000000  0.00000000  0.00000000  1.0
  Se  Se8  1  0.99828688  -0.00000000  0.25537832  1.0
  Se  Se9  1  0.49828688  0.00000000  0.74462168  1.0
  Se  Se10  1  0.00171312  -0.00000000  0.74462168  1.0
  Se  Se11  1  0.50171312  0.00000000  0.25537832  1.0
  Br  Br12  1  0.25000000  0.50000000  0.06754592  1.0
  Br  Br13  1  0.75000000  0.50000000  0.93245408  1.0
  Br  Br14  1  0.25000000  0.50000000  0.47942606  1.0
  Br  Br15  1  0.75000000  0.50000000  0.52057394  1.0
