# generated using pymatgen
data_Cs5Tl9
_symmetry_space_group_name_H-M   'P 1'
_cell_length_a   10.83272814
_cell_length_b   10.83272814
_cell_length_c   18.86036568
_cell_angle_alpha   90.00000000
_cell_angle_beta   90.00000000
_cell_angle_gamma   120.00000000
_symmetry_Int_Tables_number   1
_chemical_formula_structural   Cs5Tl9
_chemical_formula_sum   'Cs15 Tl27'
_cell_volume   1916.71008789
_cell_formula_units_Z   3
loop_
 _symmetry_equiv_pos_site_id
 _symmetry_equiv_pos_as_xyz
  1  'x, y, z'
loop_
 _atom_site_type_symbol
 _atom_site_label
 _atom_site_symmetry_multiplicity
 _atom_site_fract_x
 _atom_site_fract_y
 _atom_site_fract_z
 _atom_site_occupancy
  Cs  Cs0  1  0.61367820  0.61367820  0.68517831  1.0
  Cs  Cs1  1  0.61367820  0.61367820  0.31482169  1.0
  Cs  Cs2  1  -0.00000000  0.38632180  0.68517831  1.0
  Cs  Cs3  1  -0.00000000  0.38632180  0.31482169  1.0
  Cs  Cs4  1  0.38632180  -0.00000000  0.68517831  1.0
  Cs  Cs5  1  0.38632180  0.00000000  0.31482169  1.0
  Cs  Cs6  1  0.27342761  0.27342761  0.81618374  1.0
  Cs  Cs7  1  0.27342761  0.27342761  0.18381626  1.0
  Cs  Cs8  1  -0.00000000  0.72657239  0.81618374  1.0
  Cs  Cs9  1  -0.00000000  0.72657239  0.18381626  1.0
  Cs  Cs10  1  0.72657239  0.00000000  0.81618374  1.0
  Cs  Cs11  1  0.72657239  0.00000000  0.18381626  1.0
  Cs  Cs12  1  0.33333333  0.66666667  0.50000000  1.0
  Cs  Cs13  1  0.66666667  0.33333333  0.50000000  1.0
  Cs  Cs14  1  -0.00000000  0.00000000  -0.00000000  1.0
  Tl  Tl15  1  0.17322539  0.70709100  -0.00000000  1.0
  Tl  Tl16  1  0.70709100  0.17322539  0.00000000  1.0
  Tl  Tl17  1  0.53386561  0.82677461  0.00000000  1.0
  Tl  Tl18  1  0.29290900  0.46613439  0.00000000  1.0
  Tl  Tl19  1  0.82677461  0.53386561  -0.00000000  1.0
  Tl  Tl20  1  0.46613439  0.29290900  0.00000000  1.0
  Tl  Tl21  1  0.61682433  0.61682433  0.90508910  1.0
  Tl  Tl22  1  0.61682433  0.61682433  0.09491090  1.0
  Tl  Tl23  1  0.00000000  0.38317567  0.90508910  1.0
  Tl  Tl24  1  0.00000000  0.38317567  0.09491090  1.0
  Tl  Tl25  1  0.38317567  -0.00000000  0.90508910  1.0
  Tl  Tl26  1  0.38317567  -0.00000000  0.09491090  1.0
  Tl  Tl27  1  0.27753704  0.27753704  0.58804339  1.0
  Tl  Tl28  1  0.27753704  0.27753704  0.41195661  1.0
  Tl  Tl29  1  0.00000000  0.72246296  0.58804339  1.0
  Tl  Tl30  1  0.00000000  0.72246296  0.41195661  1.0
  Tl  Tl31  1  0.72246296  0.00000000  0.58804339  1.0
  Tl  Tl32  1  0.72246296  0.00000000  0.41195661  1.0
  Tl  Tl33  1  0.33333333  0.66666667  0.85292401  1.0
  Tl  Tl34  1  0.33333333  0.66666667  0.14707599  1.0
  Tl  Tl35  1  0.66666667  0.33333333  0.85292401  1.0
  Tl  Tl36  1  0.66666667  0.33333333  0.14707599  1.0
  Tl  Tl37  1  0.79065399  0.79065399  0.50000000  1.0
  Tl  Tl38  1  -0.00000000  0.20934601  0.50000000  1.0
  Tl  Tl39  1  0.20934601  0.00000000  0.50000000  1.0
  Tl  Tl40  1  0.00000000  -0.00000000  0.64340190  1.0
  Tl  Tl41  1  0.00000000  0.00000000  0.35659810  1.0
