# generated using pymatgen
data_FeP(NO2)2
_symmetry_space_group_name_H-M   'P 1'
_cell_length_a   10.23493001
_cell_length_b   6.05038918
_cell_length_c   7.88185098
_cell_angle_alpha   90.00000000
_cell_angle_beta   90.00000000
_cell_angle_gamma   90.00000000
_symmetry_Int_Tables_number   1
_chemical_formula_structural   FeP(NO2)2
_chemical_formula_sum   'Fe4 P4 N8 O16'
_cell_volume   488.08606419
_cell_formula_units_Z   4
loop_
 _symmetry_equiv_pos_site_id
 _symmetry_equiv_pos_as_xyz
  1  'x, y, z'
loop_
 _atom_site_type_symbol
 _atom_site_label
 _atom_site_symmetry_multiplicity
 _atom_site_fract_x
 _atom_site_fract_y
 _atom_site_fract_z
 _atom_site_occupancy
  Fe  Fe0  1  0.16495300  0.75000000  0.90765324  1.0
  Fe  Fe1  1  0.66495300  0.75000000  0.59234676  1.0
  Fe  Fe2  1  0.83504700  0.25000000  0.09234676  1.0
  Fe  Fe3  1  0.33504700  0.25000000  0.40765324  1.0
  P  P4  1  0.34321046  0.75000000  0.54624409  1.0
  P  P5  1  0.84321046  0.75000000  0.95375591  1.0
  P  P6  1  0.65678954  0.25000000  0.45375591  1.0
  P  P7  1  0.15678954  0.25000000  0.04624409  1.0
  N  N8  1  0.34055267  0.75000000  -0.00776585  1.0
  N  N9  1  0.84055267  0.75000000  0.50776585  1.0
  N  N10  1  0.65944733  0.25000000  1.00776585  1.0
  N  N11  1  0.15944733  0.25000000  0.49223415  1.0
  N  N12  1  0.12303063  0.75000000  0.14241434  1.0
  N  N13  1  0.62303063  0.75000000  0.35758566  1.0
  N  N14  1  0.87696937  0.25000000  0.85758566  1.0
  N  N15  1  0.37696937  0.25000000  0.64241434  1.0
  O  O16  1  0.17194157  0.44896892  0.91897458  1.0
  O  O17  1  0.17194157  0.05103108  0.91897458  1.0
  O  O18  1  0.67194157  0.44896892  0.58102542  1.0
  O  O19  1  0.67194157  0.05103108  0.58102542  1.0
  O  O20  1  0.82805843  0.94896892  0.08102542  1.0
  O  O21  1  0.82805843  0.55103108  0.08102542  1.0
  O  O22  1  0.32805843  0.94896892  0.41897458  1.0
  O  O23  1  0.32805843  0.55103108  0.41897458  1.0
  O  O24  1  0.47777004  0.75000000  0.63377358  1.0
  O  O25  1  0.97777004  0.75000000  0.86622642  1.0
  O  O26  1  0.52222996  0.25000000  0.36622642  1.0
  O  O27  1  0.02222996  0.25000000  0.13377358  1.0
  O  O28  1  0.23328968  0.75000000  0.67755886  1.0
  O  O29  1  0.73328968  0.75000000  0.82244114  1.0
  O  O30  1  0.76671032  0.25000000  0.32244114  1.0
  O  O31  1  0.26671032  0.25000000  0.17755886  1.0
