# generated using pymatgen
data_OsOF5
_symmetry_space_group_name_H-M   'P 1'
_cell_length_a   10.11663394
_cell_length_b   5.41072235
_cell_length_c   9.25236776
_cell_angle_alpha   90.00000000
_cell_angle_beta   90.00000000
_cell_angle_gamma   90.00000000
_symmetry_Int_Tables_number   1
_chemical_formula_structural   OsOF5
_chemical_formula_sum   'Os4 O4 F20'
_cell_volume   506.45885771
_cell_formula_units_Z   4
loop_
 _symmetry_equiv_pos_site_id
 _symmetry_equiv_pos_as_xyz
  1  'x, y, z'
loop_
 _atom_site_type_symbol
 _atom_site_label
 _atom_site_symmetry_multiplicity
 _atom_site_fract_x
 _atom_site_fract_y
 _atom_site_fract_z
 _atom_site_occupancy
  Os  Os0  1  0.37258123  0.92215008  0.63460189  1.0
  Os  Os1  1  0.87258123  0.57784992  0.63460189  1.0
  Os  Os2  1  0.62741877  0.07784992  0.13460189  1.0
  Os  Os3  1  0.12741877  0.42215008  0.13460189  1.0
  O  O4  1  0.22050592  0.54367966  1.00151035  1.0
  O  O5  1  0.72050592  0.95632034  1.00151035  1.0
  O  O6  1  0.77949408  0.45632034  0.50151035  1.0
  O  O7  1  0.27949408  0.04367966  0.50151035  1.0
  F  F8  1  0.48885631  0.19062165  0.64575104  1.0
  F  F9  1  0.98885631  0.30937835  0.64575104  1.0
  F  F10  1  0.51114369  0.80937835  0.14575104  1.0
  F  F11  1  0.01114369  0.69062165  0.14575104  1.0
  F  F12  1  0.49101884  0.76078777  0.51100038  1.0
  F  F13  1  0.99101884  0.73921223  0.51100038  1.0
  F  F14  1  0.50898116  0.23921223  0.01100038  1.0
  F  F15  1  0.00898116  0.26078777  0.01100038  1.0
  F  F16  1  0.47665580  0.78735356  0.78495245  1.0
  F  F17  1  0.97665580  0.71264644  0.78495245  1.0
  F  F18  1  0.52334420  0.21264644  0.28495245  1.0
  F  F19  1  0.02334420  0.28735356  0.28495245  1.0
  F  F20  1  0.27514802  0.62862822  0.64951855  1.0
  F  F21  1  0.77514802  0.87137178  0.64951855  1.0
  F  F22  1  0.72485198  0.37137178  0.14951855  1.0
  F  F23  1  0.22485198  0.12862822  0.14951855  1.0
  F  F24  1  0.27183729  0.05797867  0.78486535  1.0
  F  F25  1  0.77183729  0.44202133  0.78486535  1.0
  F  F26  1  0.72816271  0.94202133  0.28486535  1.0
  F  F27  1  0.22816271  0.55797867  0.28486535  1.0
