# generated using pymatgen
data_Rb2GeS3
_symmetry_space_group_name_H-M   'P 1'
_cell_length_a   7.73559681
_cell_length_b   7.73559681
_cell_length_c   9.91037882
_cell_angle_alpha   58.69351146
_cell_angle_beta   121.30648854
_cell_angle_gamma   126.06677528
_symmetry_Int_Tables_number   1
_chemical_formula_structural   Rb2GeS3
_chemical_formula_sum   'Rb4 Ge2 S6'
_cell_volume   389.46974674
_cell_formula_units_Z   2
loop_
 _symmetry_equiv_pos_site_id
 _symmetry_equiv_pos_as_xyz
  1  'x, y, z'
loop_
 _atom_site_type_symbol
 _atom_site_label
 _atom_site_symmetry_multiplicity
 _atom_site_fract_x
 _atom_site_fract_y
 _atom_site_fract_z
 _atom_site_occupancy
  Rb  Rb0  1  1.41635195  -0.41635195  0.63246328  1.0
  Rb  Rb1  1  0.58364805  0.41635195  0.36753672  1.0
  Rb  Rb2  1  0.18818522  -0.18818522  0.81490067  1.0
  Rb  Rb3  1  0.81181478  -0.81181478  0.18509933  1.0
  Ge  Ge4  1  0.88082318  0.11917682  0.81785911  1.0
  Ge  Ge5  1  1.11917682  -0.11917682  0.18214089  1.0
  S  S6  1  0.88547037  -0.88547037  0.60152303  1.0
  S  S7  1  0.11452963  -0.11452963  0.39847697  1.0
  S  S8  1  0.70671065  0.29328935  0.77671560  1.0
  S  S9  1  1.29328935  -0.29328935  0.22328440  1.0
  S  S10  1  0.75793123  0.75793123  -0.00000000  1.0
  S  S11  1  0.24206877  0.24206877  -0.00000000  1.0
