# generated using pymatgen
data_Li2CaGeO4
_symmetry_space_group_name_H-M   'P 1'
_cell_length_a   10.82738622
_cell_length_b   7.03530992
_cell_length_c   5.18005234
_cell_angle_alpha   90.00000000
_cell_angle_beta   90.00000000
_cell_angle_gamma   90.00000000
_symmetry_Int_Tables_number   1
_chemical_formula_structural   Li2CaGeO4
_chemical_formula_sum   'Li8 Ca4 Ge4 O16'
_cell_volume   394.58539868
_cell_formula_units_Z   4
loop_
 _symmetry_equiv_pos_site_id
 _symmetry_equiv_pos_as_xyz
  1  'x, y, z'
loop_
 _atom_site_type_symbol
 _atom_site_label
 _atom_site_symmetry_multiplicity
 _atom_site_fract_x
 _atom_site_fract_y
 _atom_site_fract_z
 _atom_site_occupancy
  Li  Li0  1  0.91200583  0.49928729  0.16961093  1.0
  Li  Li1  1  0.91200583  0.00071271  0.16961093  1.0
  Li  Li2  1  0.41200583  0.49928729  0.33038907  1.0
  Li  Li3  1  0.41200583  0.00071271  0.33038907  1.0
  Li  Li4  1  0.08799417  0.99928729  0.83038907  1.0
  Li  Li5  1  0.08799417  0.50071271  0.83038907  1.0
  Li  Li6  1  0.58799417  0.99928729  0.66961093  1.0
  Li  Li7  1  0.58799417  0.50071271  0.66961093  1.0
  Ca  Ca8  1  0.65399307  0.25000000  0.18396034  1.0
  Ca  Ca9  1  0.15399307  0.25000000  0.31603966  1.0
  Ca  Ca10  1  0.34600693  0.75000000  0.81603966  1.0
  Ca  Ca11  1  0.84600693  0.75000000  0.68396034  1.0
  Ge  Ge12  1  0.84362459  0.25000000  0.66492519  1.0
  Ge  Ge13  1  0.34362459  0.25000000  0.83507481  1.0
  Ge  Ge14  1  0.15637541  0.75000000  0.33507481  1.0
  Ge  Ge15  1  0.65637541  0.75000000  0.16492519  1.0
  O  O16  1  0.58852691  0.95891693  0.29205304  1.0
  O  O17  1  0.58852691  0.54108307  0.29205304  1.0
  O  O18  1  0.08852691  0.95891693  0.20794696  1.0
  O  O19  1  0.08852691  0.54108307  0.20794696  1.0
  O  O20  1  0.41147309  0.45891693  0.70794696  1.0
  O  O21  1  0.41147309  0.04108307  0.70794696  1.0
  O  O22  1  0.91147309  0.45891693  0.79205304  1.0
  O  O23  1  0.91147309  0.04108307  0.79205304  1.0
  O  O24  1  0.85832062  0.25000000  0.32040449  1.0
  O  O25  1  0.35832062  0.25000000  0.17959551  1.0
  O  O26  1  0.14167938  0.75000000  0.67959551  1.0
  O  O27  1  0.64167938  0.75000000  0.82040449  1.0
  O  O28  1  0.68057125  0.25000000  0.73605506  1.0
  O  O29  1  0.18057125  0.25000000  0.76394494  1.0
  O  O30  1  0.31942875  0.75000000  0.26394494  1.0
  O  O31  1  0.81942875  0.75000000  0.23605506  1.0
