# generated using pymatgen
data_BiSe
_symmetry_space_group_name_H-M   'P 1'
_cell_length_a   6.13508680
_cell_length_b   7.57184730
_cell_length_c   8.41124366
_cell_angle_alpha   90.00000000
_cell_angle_beta   136.83732815
_cell_angle_gamma   90.00000000
_symmetry_Int_Tables_number   1
_chemical_formula_structural   BiSe
_chemical_formula_sum   'Bi4 Se4'
_cell_volume   267.29116963
_cell_formula_units_Z   4
loop_
 _symmetry_equiv_pos_site_id
 _symmetry_equiv_pos_as_xyz
  1  'x, y, z'
loop_
 _atom_site_type_symbol
 _atom_site_label
 _atom_site_symmetry_multiplicity
 _atom_site_fract_x
 _atom_site_fract_y
 _atom_site_fract_z
 _atom_site_occupancy
  Bi  Bi0  1  0.38422607  0.68343613  -0.00039192  1.0
  Bi  Bi1  1  0.38422607  0.81656387  0.49960808  1.0
  Bi  Bi2  1  0.61577393  0.31656387  1.00039192  1.0
  Bi  Bi3  1  0.61577393  0.18343613  0.50039192  1.0
  Se  Se4  1  0.78348711  0.65444826  0.49946284  1.0
  Se  Se5  1  0.78348711  0.84555174  -0.00053716  1.0
  Se  Se6  1  0.21651289  0.34555174  0.50053716  1.0
  Se  Se7  1  0.21651289  0.15444826  1.00053716  1.0
