# generated using pymatgen
data_Cd3Se3O10
_symmetry_space_group_name_H-M   'P 1'
_cell_length_a   8.62629150
_cell_length_b   5.47551310
_cell_length_c   10.87785572
_cell_angle_alpha   90.00000000
_cell_angle_beta   108.32528340
_cell_angle_gamma   90.00000000
_symmetry_Int_Tables_number   1
_chemical_formula_structural   Cd3Se3O10
_chemical_formula_sum   'Cd6 Se6 O20'
_cell_volume   487.74148970
_cell_formula_units_Z   2
loop_
 _symmetry_equiv_pos_site_id
 _symmetry_equiv_pos_as_xyz
  1  'x, y, z'
loop_
 _atom_site_type_symbol
 _atom_site_label
 _atom_site_symmetry_multiplicity
 _atom_site_fract_x
 _atom_site_fract_y
 _atom_site_fract_z
 _atom_site_occupancy
  Cd  Cd0  1  0.01932266  0.25705800  0.87888660  1.0
  Cd  Cd1  1  0.98067734  0.75705800  0.12111340  1.0
  Cd  Cd2  1  0.02893785  0.28032576  0.38390482  1.0
  Cd  Cd3  1  0.97106215  0.78032576  0.61609518  1.0
  Cd  Cd4  1  0.62960205  0.74270848  0.79520302  1.0
  Cd  Cd5  1  0.37039795  0.24270848  0.20479698  1.0
  Se  Se6  1  0.74840930  0.22785982  0.04478487  1.0
  Se  Se7  1  0.25159070  0.72785982  0.95521513  1.0
  Se  Se8  1  0.73982427  0.30682159  0.57405165  1.0
  Se  Se9  1  0.26017573  0.80682159  0.42594835  1.0
  Se  Se10  1  0.35389153  0.25568194  0.71781697  1.0
  Se  Se11  1  0.64610847  0.75568194  0.28218303  1.0
  O  O12  1  0.90336208  0.13585913  0.18039931  1.0
  O  O13  1  0.09663792  0.63585913  0.81960069  1.0
  O  O14  1  0.88747570  0.41461732  0.51039874  1.0
  O  O15  1  0.11252430  0.91461732  0.48960126  1.0
  O  O16  1  0.85375885  0.10069228  0.69099794  1.0
  O  O17  1  0.14624115  0.60069228  0.30900206  1.0
  O  O18  1  0.84716355  0.44930116  0.97935900  1.0
  O  O19  1  0.15283645  0.94930116  0.02064100  1.0
  O  O20  1  0.77492977  -0.01941456  0.95259565  1.0
  O  O21  1  0.22507023  0.48058544  0.04740435  1.0
  O  O22  1  0.74819368  0.56388016  0.66766472  1.0
  O  O23  1  0.25180632  0.06388016  0.33233528  1.0
  O  O24  1  0.47623879  0.05295651  0.67689962  1.0
  O  O25  1  0.52376121  0.55295651  0.32310038  1.0
  O  O26  1  0.47076952  0.44548991  0.83332438  1.0
  O  O27  1  0.52923048  0.94548991  0.16667562  1.0
  O  O28  1  0.25630835  0.41964963  0.58875072  1.0
  O  O29  1  0.74369165  0.91964963  0.41124928  1.0
  O  O30  1  0.23020612  0.10731287  0.78305595  1.0
  O  O31  1  0.76979388  0.60731287  0.21694405  1.0
