# generated using pymatgen
data_K2YNb5O15
_symmetry_space_group_name_H-M   'P 1'
_cell_length_a   12.65220851
_cell_length_b   12.65220851
_cell_length_c   3.92891073
_cell_angle_alpha   90.00000000
_cell_angle_beta   90.00000000
_cell_angle_gamma   90.00000000
_symmetry_Int_Tables_number   1
_chemical_formula_structural   K2YNb5O15
_chemical_formula_sum   'K4 Y2 Nb10 O30'
_cell_volume   628.93366526
_cell_formula_units_Z   2
loop_
 _symmetry_equiv_pos_site_id
 _symmetry_equiv_pos_as_xyz
  1  'x, y, z'
loop_
 _atom_site_type_symbol
 _atom_site_label
 _atom_site_symmetry_multiplicity
 _atom_site_fract_x
 _atom_site_fract_y
 _atom_site_fract_z
 _atom_site_occupancy
  K  K0  1  0.32926403  0.17073597  0.50000000  1.0
  K  K1  1  0.82926403  0.32926403  0.50000000  1.0
  K  K2  1  0.67073597  0.82926403  0.50000000  1.0
  K  K3  1  0.17073597  0.67073597  0.50000000  1.0
  Y  Y4  1  0.50000000  0.50000000  0.50000000  1.0
  Y  Y5  1  0.00000000  0.00000000  0.50000000  1.0
  Nb  Nb6  1  0.42390285  0.71211937  0.00000000  1.0
  Nb  Nb7  1  0.92390285  0.78788063  0.00000000  1.0
  Nb  Nb8  1  0.28788063  0.42390285  0.00000000  1.0
  Nb  Nb9  1  0.78788063  0.07609715  0.00000000  1.0
  Nb  Nb10  1  0.57609715  0.28788063  0.00000000  1.0
  Nb  Nb11  1  0.07609715  0.21211937  0.00000000  1.0
  Nb  Nb12  1  0.71211937  0.57609715  0.00000000  1.0
  Nb  Nb13  1  0.21211937  0.92390285  0.00000000  1.0
  Nb  Nb14  1  0.50000000  0.00000000  0.00000000  1.0
  Nb  Nb15  1  0.00000000  0.50000000  0.00000000  1.0
  O  O16  1  0.42280120  0.68656685  0.50000000  1.0
  O  O17  1  0.92280120  0.81343315  0.50000000  1.0
  O  O18  1  0.31343315  0.42280120  0.50000000  1.0
  O  O19  1  0.81343315  0.07719880  0.50000000  1.0
  O  O20  1  0.57719880  0.31343315  0.50000000  1.0
  O  O21  1  0.07719880  0.18656685  0.50000000  1.0
  O  O22  1  0.68656685  0.57719880  0.50000000  1.0
  O  O23  1  0.18656685  0.92280120  0.50000000  1.0
  O  O24  1  0.50069095  0.84215548  0.00000000  1.0
  O  O25  1  0.00069095  0.65784452  0.00000000  1.0
  O  O26  1  0.15784452  0.50069095  0.00000000  1.0
  O  O27  1  0.65784452  -0.00069095  -0.00000000  1.0
  O  O28  1  0.49930905  0.15784452  0.00000000  1.0
  O  O29  1  -0.00069095  0.34215548  0.00000000  1.0
  O  O30  1  0.84215548  0.49930905  0.00000000  1.0
  O  O31  1  0.34215548  0.00069095  -0.00000000  1.0
  O  O32  1  0.36833450  0.55936239  0.00000000  1.0
  O  O33  1  0.86833450  0.94063761  0.00000000  1.0
  O  O34  1  0.44063761  0.36833450  0.00000000  1.0
  O  O35  1  0.94063761  0.13166550  -0.00000000  1.0
  O  O36  1  0.63166550  0.44063761  0.00000000  1.0
  O  O37  1  0.13166550  0.05936239  0.00000000  1.0
  O  O38  1  0.55936239  0.63166550  0.00000000  1.0
  O  O39  1  0.05936239  0.86833450  -0.00000000  1.0
  O  O40  1  0.78395370  0.71604630  -0.00000000  1.0
  O  O41  1  0.28395370  0.78395370  0.00000000  1.0
  O  O42  1  0.21604630  0.28395370  -0.00000000  1.0
  O  O43  1  0.71604630  0.21604630  0.00000000  1.0
  O  O44  1  0.50000000  0.00000000  0.50000000  1.0
  O  O45  1  0.00000000  0.50000000  0.50000000  1.0
