# generated using pymatgen
data_Ba5P4
_symmetry_space_group_name_H-M   'P 1'
_cell_length_a   8.41070048
_cell_length_b   16.69079515
_cell_length_c   8.49474232
_cell_angle_alpha   90.00000000
_cell_angle_beta   90.00000000
_cell_angle_gamma   90.00000000
_symmetry_Int_Tables_number   1
_chemical_formula_structural   Ba5P4
_chemical_formula_sum   'Ba20 P16'
_cell_volume   1192.50278964
_cell_formula_units_Z   4
loop_
 _symmetry_equiv_pos_site_id
 _symmetry_equiv_pos_as_xyz
  1  'x, y, z'
loop_
 _atom_site_type_symbol
 _atom_site_label
 _atom_site_symmetry_multiplicity
 _atom_site_fract_x
 _atom_site_fract_y
 _atom_site_fract_z
 _atom_site_occupancy
  Ba  Ba0  1  0.42494510  0.39731136  0.16549015  1.0
  Ba  Ba1  1  0.42494510  0.10268864  0.16549015  1.0
  Ba  Ba2  1  0.92494510  0.39731136  0.33450985  1.0
  Ba  Ba3  1  0.92494510  0.10268864  0.33450985  1.0
  Ba  Ba4  1  0.57505490  0.89731136  0.83450985  1.0
  Ba  Ba5  1  0.57505490  0.60268864  0.83450985  1.0
  Ba  Ba6  1  0.07505490  0.89731136  0.66549015  1.0
  Ba  Ba7  1  0.07505490  0.60268864  0.66549015  1.0
  Ba  Ba8  1  0.09050731  0.39715956  0.84146748  1.0
  Ba  Ba9  1  0.09050731  0.10284044  0.84146748  1.0
  Ba  Ba10  1  0.59050731  0.39715956  0.65853252  1.0
  Ba  Ba11  1  0.59050731  0.10284044  0.65853252  1.0
  Ba  Ba12  1  0.90949269  0.89715956  0.15853252  1.0
  Ba  Ba13  1  0.90949269  0.60284044  0.15853252  1.0
  Ba  Ba14  1  0.40949269  0.89715956  0.34146748  1.0
  Ba  Ba15  1  0.40949269  0.60284044  0.34146748  1.0
  Ba  Ba16  1  0.25393513  0.25000000  0.50405342  1.0
  Ba  Ba17  1  0.75393513  0.25000000  0.99594658  1.0
  Ba  Ba18  1  0.74606487  0.75000000  0.49594658  1.0
  Ba  Ba19  1  0.24606487  0.75000000  0.00405342  1.0
  P  P20  1  0.25314765  0.44675509  0.50565444  1.0
  P  P21  1  0.25314765  0.05324491  0.50565444  1.0
  P  P22  1  0.75314765  0.44675509  0.99434556  1.0
  P  P23  1  0.75314765  0.05324491  0.99434556  1.0
  P  P24  1  0.74685235  0.94675509  0.49434556  1.0
  P  P25  1  0.74685235  0.55324491  0.49434556  1.0
  P  P26  1  0.24685235  0.94675509  0.00565444  1.0
  P  P27  1  0.24685235  0.55324491  0.00565444  1.0
  P  P28  1  0.35279182  0.25000000  0.90975683  1.0
  P  P29  1  0.85279182  0.25000000  0.59024317  1.0
  P  P30  1  0.64720818  0.75000000  0.09024317  1.0
  P  P31  1  0.14720818  0.75000000  0.40975683  1.0
  P  P32  1  0.15740136  0.25000000  0.10055557  1.0
  P  P33  1  0.65740136  0.25000000  0.39944443  1.0
  P  P34  1  0.84259864  0.75000000  0.89944443  1.0
  P  P35  1  0.34259864  0.75000000  0.60055557  1.0
