# generated using pymatgen
data_Lu4(Al8Pt3)3
_symmetry_space_group_name_H-M   'P 1'
_cell_length_a   13.10767769
_cell_length_b   7.50023256
_cell_length_c   7.50343763
_cell_angle_alpha   60.10732583
_cell_angle_beta   79.05247282
_cell_angle_gamma   84.51639996
_symmetry_Int_Tables_number   1
_chemical_formula_structural   Lu4(Al8Pt3)3
_chemical_formula_sum   'Lu4 Al24 Pt9'
_cell_volume   627.88991890
_cell_formula_units_Z   1
loop_
 _symmetry_equiv_pos_site_id
 _symmetry_equiv_pos_as_xyz
  1  'x, y, z'
loop_
 _atom_site_type_symbol
 _atom_site_label
 _atom_site_symmetry_multiplicity
 _atom_site_fract_x
 _atom_site_fract_y
 _atom_site_fract_z
 _atom_site_occupancy
  Lu  Lu0  1  -0.80797824  -0.83188276  -0.56242162  1.0
  Lu  Lu1  1  -0.19202176  -0.16811724  -0.43757838  1.0
  Lu  Lu2  1  -0.80799456  -0.50083787  -0.23260325  1.0
  Lu  Lu3  1  -0.19200544  -0.49916213  -0.76739675  1.0
  Al  Al4  1  -0.95134279  -0.83127817  -0.18467909  1.0
  Al  Al5  1  -0.04865721  -0.16872183  -0.81532091  1.0
  Al  Al6  1  -0.18291272  -0.83602890  -0.89711802  1.0
  Al  Al7  1  -0.81708728  -0.16397110  -0.10288198  1.0
  Al  Al8  1  -0.67340588  -0.49404786  -0.94300426  1.0
  Al  Al9  1  -0.32659412  -0.50595214  -0.05699574  1.0
  Al  Al10  1  -0.94316115  -0.50185980  -0.85248133  1.0
  Al  Al11  1  -0.05683885  -0.49814020  -0.14751867  1.0
  Al  Al12  1  -0.56194754  -0.16759967  -0.97893073  1.0
  Al  Al13  1  -0.43805246  -0.83240033  -0.02106927  1.0
  Al  Al14  1  -0.81590100  -0.37029767  -0.69091805  1.0
  Al  Al15  1  -0.18409900  -0.62970233  -0.30908195  1.0
  Al  Al16  1  -0.81646793  -0.95686524  -0.89700033  1.0
  Al  Al17  1  -0.18353207  -0.04313476  -0.10299967  1.0
  Al  Al18  1  -0.44098938  -0.50049225  -0.68592651  1.0
  Al  Al19  1  -0.55901062  -0.49950775  -0.31407349  1.0
  Al  Al20  1  -0.55900110  -0.83347698  -0.64684414  1.0
  Al  Al21  1  -0.44099890  -0.16652302  -0.35315586  1.0
  Al  Al22  1  -0.94325529  -0.16623324  -0.51728153  1.0
  Al  Al23  1  -0.05674471  -0.83376676  -0.48271847  1.0
  Al  Al24  1  -0.32677682  -0.83442488  -0.38410677  1.0
  Al  Al25  1  -0.67322318  -0.16557512  -0.61589323  1.0
  Al  Al26  1  -0.67181010  -0.83947750  -0.26963198  1.0
  Al  Al27  1  -0.32818990  -0.16052250  -0.73036802  1.0
  Pt  Pt28  1  -0.00000000  -0.50000000  -0.50000000  1.0
  Pt  Pt29  1  -0.63765288  -0.82444340  -0.95415464  1.0
  Pt  Pt30  1  -0.36234712  -0.17555660  -0.04584536  1.0
  Pt  Pt31  1  -0.99990959  -0.82852783  -0.82850495  1.0
  Pt  Pt32  1  -0.00009041  -0.17147217  -0.17149505  1.0
  Pt  Pt33  1  -0.36056693  -0.83318255  -0.70389261  1.0
  Pt  Pt34  1  -0.63943307  -0.16681745  -0.29610739  1.0
  Pt  Pt35  1  -0.63942100  -0.50917618  -0.61118553  1.0
  Pt  Pt36  1  -0.36057900  -0.49082382  -0.38881447  1.0
