# generated using pymatgen
data_Y2Mo(SeO4)3
_symmetry_space_group_name_H-M   'P 1'
_cell_length_a   7.14960093
_cell_length_b   6.59299454
_cell_length_c   10.89688021
_cell_angle_alpha   73.30283154
_cell_angle_beta   84.74278890
_cell_angle_gamma   86.46658693
_symmetry_Int_Tables_number   1
_chemical_formula_structural   Y2Mo(SeO4)3
_chemical_formula_sum   'Y4 Mo2 Se6 O24'
_cell_volume   489.58679296
_cell_formula_units_Z   2
loop_
 _symmetry_equiv_pos_site_id
 _symmetry_equiv_pos_as_xyz
  1  'x, y, z'
loop_
 _atom_site_type_symbol
 _atom_site_label
 _atom_site_symmetry_multiplicity
 _atom_site_fract_x
 _atom_site_fract_y
 _atom_site_fract_z
 _atom_site_occupancy
  Y  Y0  1  -0.86069174  -0.26700352  -0.99232536  1.0
  Y  Y1  1  -0.13930826  -0.73299648  -0.00767464  1.0
  Y  Y2  1  -0.68159301  -0.20176910  -0.66986810  1.0
  Y  Y3  1  -0.31840699  -0.79823090  -0.33013190  1.0
  Mo  Mo4  1  -0.39240550  -0.72123532  -0.70379768  1.0
  Mo  Mo5  1  -0.60759450  -0.27876468  -0.29620232  1.0
  Se  Se6  1  -0.84073132  -0.80025346  -0.28333449  1.0
  Se  Se7  1  -0.15926868  -0.19974654  -0.71666551  1.0
  Se  Se8  1  -0.63963314  -0.78820206  -0.99385446  1.0
  Se  Se9  1  -0.36036686  -0.21179794  -0.00614554  1.0
  Se  Se10  1  -0.86250851  -0.65442600  -0.64449364  1.0
  Se  Se11  1  -0.13749149  -0.34557400  -0.35550636  1.0
  O  O12  1  -0.62726322  -0.94205396  -0.30617966  1.0
  O  O13  1  -0.37273678  -0.05794604  -0.69382034  1.0
  O  O14  1  -0.89867163  -0.91968541  -0.11739448  1.0
  O  O15  1  -0.10132837  -0.08031459  -0.88260552  1.0
  O  O16  1  -1.00349006  -0.90219123  -0.35043613  1.0
  O  O17  1  0.00349006  -0.09780877  -0.64956387  1.0
  O  O18  1  -0.66876172  -0.82204815  -0.67883088  1.0
  O  O19  1  -0.33123828  -0.17795185  -0.32116912  1.0
  O  O20  1  -0.33311890  -0.78316485  -0.54440868  1.0
  O  O21  1  -0.66688110  -0.21683515  -0.45559132  1.0
  O  O22  1  -0.46067951  -0.71791547  -0.91769797  1.0
  O  O23  1  -0.53932049  -0.28208453  -0.08230203  1.0
  O  O24  1  -0.17538019  -0.69600256  -0.79792850  1.0
  O  O25  1  -0.82461981  -0.30399744  -0.20207150  1.0
  O  O26  1  -0.83904775  -0.63958153  -0.96153982  1.0
  O  O27  1  -0.16095225  -0.36041847  -0.03846018  1.0
  O  O28  1  -0.77442264  -0.54559369  -0.54003697  1.0
  O  O29  1  -0.22557736  -0.45440631  -0.45996303  1.0
  O  O30  1  -0.47359785  -0.45272997  -0.73142002  1.0
  O  O31  1  -0.52640215  -0.54727003  -0.26857998  1.0
  O  O32  1  -0.84448567  -0.42320449  -0.77282343  1.0
  O  O33  1  -0.15551433  -0.57679551  -0.22717657  1.0
  O  O34  1  -0.69133583  -0.04103654  -0.89251782  1.0
  O  O35  1  -0.30866417  -0.95896346  -0.10748218  1.0
