# generated using pymatgen
data_Pr(BRu)4
_symmetry_space_group_name_H-M   'P 1'
_cell_length_a   9.22742116
_cell_length_b   9.22742116
_cell_length_c   9.22742116
_cell_angle_alpha   132.03082558
_cell_angle_beta   132.03082558
_cell_angle_gamma   70.18034559
_symmetry_Int_Tables_number   1
_chemical_formula_structural   Pr(BRu)4
_chemical_formula_sum   'Pr4 B16 Ru16'
_cell_volume   424.90100912
_cell_formula_units_Z   4
loop_
 _symmetry_equiv_pos_site_id
 _symmetry_equiv_pos_as_xyz
  1  'x, y, z'
loop_
 _atom_site_type_symbol
 _atom_site_label
 _atom_site_symmetry_multiplicity
 _atom_site_fract_x
 _atom_site_fract_y
 _atom_site_fract_z
 _atom_site_occupancy
  Pr  Pr0  1  0.75000000  0.75000000  -0.00000000  1.0
  Pr  Pr1  1  1.25000000  1.25000000  1.00000000  1.0
  Pr  Pr2  1  -0.00000000  0.50000000  0.50000000  1.0
  Pr  Pr3  1  0.50000000  0.00000000  0.50000000  1.0
  B  B4  1  0.72467778  0.41442747  0.97478784  1.0
  B  B5  1  0.22467778  0.24988994  0.31025032  1.0
  B  B6  1  1.66442747  1.47467778  1.47478784  1.0
  B  B7  1  1.16442747  1.68963963  1.18974968  1.0
  B  B8  1  1.02532222  0.83557253  0.52521216  1.0
  B  B9  1  1.52532222  1.00011006  1.18974968  1.0
  B  B10  1  1.08557253  1.77532222  1.02521216  1.0
  B  B11  1  1.58557253  1.56036037  1.31025032  1.0
  B  B12  1  0.93963963  0.91442747  1.68974968  1.0
  B  B13  1  0.43963963  0.74988994  1.02521216  1.0
  B  B14  1  1.49988994  0.97467778  0.81025032  1.0
  B  B15  1  0.99988994  1.18963963  0.52521216  1.0
  B  B16  1  0.81036037  1.33557253  0.81025032  1.0
  B  B17  1  1.31036037  1.50011006  1.47478784  1.0
  B  B18  1  1.25011006  1.27532222  0.68974968  1.0
  B  B19  1  1.75011006  1.06036037  0.97478784  1.0
  Ru  Ru20  1  1.03990307  1.57431598  1.23731563  1.0
  Ru  Ru21  1  1.53990307  1.30258744  1.46558708  1.0
  Ru  Ru22  1  1.82431598  1.78990307  1.73731563  1.0
  Ru  Ru23  1  1.32431598  1.58700035  1.03441292  1.0
  Ru  Ru24  1  0.71009693  0.67568402  1.26268437  1.0
  Ru  Ru25  1  0.21009693  0.94741256  1.03441292  1.0
  Ru  Ru26  1  0.92568402  1.46009693  0.76268437  1.0
  Ru  Ru27  1  1.42568402  1.66299965  1.46558708  1.0
  Ru  Ru28  1  0.83700035  1.07431598  0.53441292  1.0
  Ru  Ru29  1  1.33700035  0.80258744  0.76268437  1.0
  Ru  Ru30  1  1.55258744  1.28990307  0.96558708  1.0
  Ru  Ru31  1  1.05258744  1.08700035  0.26268437  1.0
  Ru  Ru32  1  0.91299965  0.17568402  0.96558708  1.0
  Ru  Ru33  1  0.41299965  0.44741256  0.73731563  1.0
  Ru  Ru34  1  1.19741256  0.96009693  0.53441292  1.0
  Ru  Ru35  1  1.69741256  1.16299965  1.23731563  1.0
