# generated using pymatgen
data_Li2Ni(PS3)2
_symmetry_space_group_name_H-M   'P 1'
_cell_length_a   5.97180698
_cell_length_b   5.97180698
_cell_length_c   6.83983660
_cell_angle_alpha   89.97390895
_cell_angle_beta   90.02609105
_cell_angle_gamma   59.98937790
_symmetry_Int_Tables_number   1
_chemical_formula_structural   Li2Ni(PS3)2
_chemical_formula_sum   'Li2 Ni1 P2 S6'
_cell_volume   211.22300065
_cell_formula_units_Z   1
loop_
 _symmetry_equiv_pos_site_id
 _symmetry_equiv_pos_as_xyz
  1  'x, y, z'
loop_
 _atom_site_type_symbol
 _atom_site_label
 _atom_site_symmetry_multiplicity
 _atom_site_fract_x
 _atom_site_fract_y
 _atom_site_fract_z
 _atom_site_occupancy
  Ni  Ni0  1  0.01571851  0.01571851  -0.00000000  1.0
  S  S1  1  0.33747599  -0.29779018  0.77089892  1.0
  S  S2  1  0.70220982  -0.66252401  0.22910108  1.0
  S  S3  1  0.70158411  0.00770692  0.77078463  1.0
  S  S4  1  1.00770692  -0.29841589  0.22921537  1.0
  S  S5  1  1.00705935  -0.66189225  0.77074155  1.0
  S  S6  1  0.33810775  0.00705935  0.22925845  1.0
  Li  Li7  1  0.34892157  0.34892157  0.00000000  1.0
  Li  Li8  1  0.01565224  0.01565224  0.50000000  1.0
  P  P9  1  0.68212377  -0.31736002  0.83747770  1.0
  P  P10  1  0.68263998  -0.31787623  0.16252230  1.0
