# generated using pymatgen
data_Sr4Ir
_symmetry_space_group_name_H-M   'P 1'
_cell_length_a   8.79648110
_cell_length_b   8.79648110
_cell_length_c   8.79648110
_cell_angle_alpha   60.00000000
_cell_angle_beta   60.00000000
_cell_angle_gamma   60.00000000
_symmetry_Int_Tables_number   1
_chemical_formula_structural   Sr4Ir
_chemical_formula_sum   'Sr8 Ir2'
_cell_volume   481.29563535
_cell_formula_units_Z   2
loop_
 _symmetry_equiv_pos_site_id
 _symmetry_equiv_pos_as_xyz
  1  'x, y, z'
loop_
 _atom_site_type_symbol
 _atom_site_label
 _atom_site_symmetry_multiplicity
 _atom_site_fract_x
 _atom_site_fract_y
 _atom_site_fract_z
 _atom_site_occupancy
  Sr  Sr0  1  -0.12237894  0.87762106  0.36713683  1.0
  Sr  Sr1  1  0.87762106  -0.63286317  0.87762106  1.0
  Sr  Sr2  1  0.37237894  0.37237894  0.37237894  1.0
  Sr  Sr3  1  -0.11713683  0.37237894  0.37237894  1.0
  Sr  Sr4  1  -0.63286317  0.87762106  0.87762106  1.0
  Sr  Sr5  1  0.87762106  -0.12237894  0.87762106  1.0
  Sr  Sr6  1  0.37237894  -0.11713683  0.37237894  1.0
  Sr  Sr7  1  0.37237894  0.37237894  -0.11713683  1.0
  Ir  Ir8  1  0.50000000  0.50000000  -0.50000000  1.0
  Ir  Ir9  1  0.75000000  -0.25000000  0.75000000  1.0
