# generated using pymatgen
data_AgNO2
_symmetry_space_group_name_H-M   'P 1'
_cell_length_a   4.48022741
_cell_length_b   4.48022741
_cell_length_c   4.48022741
_cell_angle_alpha   123.51315167
_cell_angle_beta   95.09116449
_cell_angle_gamma   111.04683253
_symmetry_Int_Tables_number   1
_chemical_formula_structural   AgNO2
_chemical_formula_sum   'Ag1 N1 O2'
_cell_volume   65.04255476
_cell_formula_units_Z   1
loop_
 _symmetry_equiv_pos_site_id
 _symmetry_equiv_pos_as_xyz
  1  'x, y, z'
loop_
 _atom_site_type_symbol
 _atom_site_label
 _atom_site_symmetry_multiplicity
 _atom_site_fract_x
 _atom_site_fract_y
 _atom_site_fract_z
 _atom_site_occupancy
  Ag  Ag0  1  0.56132073  0.56132073  1.00000000  1.0
  N  N1  1  -0.00308780  -0.00308780  0.00000000  1.0
  O  O2  1  0.95233189  0.12868354  0.82364836  1.0
  O  O3  1  0.30503518  0.12868354  0.17635164  1.0
