# generated using pymatgen
data_Lu2MnS4
_symmetry_space_group_name_H-M   'P 1'
_cell_length_a   7.72330233
_cell_length_b   7.72330233
_cell_length_c   7.72330233
_cell_angle_alpha   60.00000000
_cell_angle_beta   60.00000000
_cell_angle_gamma   60.00000000
_symmetry_Int_Tables_number   1
_chemical_formula_structural   Lu2MnS4
_chemical_formula_sum   'Lu4 Mn2 S8'
_cell_volume   325.75726410
_cell_formula_units_Z   2
loop_
 _symmetry_equiv_pos_site_id
 _symmetry_equiv_pos_as_xyz
  1  'x, y, z'
loop_
 _atom_site_type_symbol
 _atom_site_label
 _atom_site_symmetry_multiplicity
 _atom_site_fract_x
 _atom_site_fract_y
 _atom_site_fract_z
 _atom_site_occupancy
  Lu  Lu0  1  0.12500000  0.12500000  1.62500000  1.0
  Lu  Lu1  1  0.12500000  0.62500000  0.12500000  1.0
  Lu  Lu2  1  0.62500000  0.12500000  1.12500000  1.0
  Lu  Lu3  1  0.12500000  0.12500000  0.12500000  1.0
  Mn  Mn4  1  0.75000000  -0.25000000  0.75000000  1.0
  Mn  Mn5  1  0.50000000  0.50000000  -0.50000000  1.0
  S  S6  1  0.37097277  0.37097277  -0.11291830  1.0
  S  S7  1  0.37097277  -0.11291830  0.37097277  1.0
  S  S8  1  -0.11291830  0.37097277  0.37097277  1.0
  S  S9  1  0.37097277  0.37097277  0.37097277  1.0
  S  S10  1  -0.12097277  0.87902723  0.36291830  1.0
  S  S11  1  0.87902723  -0.63708170  0.87902723  1.0
  S  S12  1  -0.63708170  0.87902723  0.87902723  1.0
  S  S13  1  0.87902723  -0.12097277  0.87902723  1.0
