# generated using pymatgen
data_Pb4Au
_symmetry_space_group_name_H-M   'P 1'
_cell_length_a   7.83875250
_cell_length_b   7.83875250
_cell_length_c   7.83875250
_cell_angle_alpha   60.00000000
_cell_angle_beta   60.00000000
_cell_angle_gamma   60.00000000
_symmetry_Int_Tables_number   1
_chemical_formula_structural   Pb4Au
_chemical_formula_sum   'Pb8 Au2'
_cell_volume   340.58526807
_cell_formula_units_Z   2
loop_
 _symmetry_equiv_pos_site_id
 _symmetry_equiv_pos_as_xyz
  1  'x, y, z'
loop_
 _atom_site_type_symbol
 _atom_site_label
 _atom_site_symmetry_multiplicity
 _atom_site_fract_x
 _atom_site_fract_y
 _atom_site_fract_z
 _atom_site_occupancy
  Pb  Pb0  1  -0.10618670  0.89381330  0.31856011  1.0
  Pb  Pb1  1  0.89381330  -0.68143989  0.89381330  1.0
  Pb  Pb2  1  0.35618670  0.35618670  0.35618670  1.0
  Pb  Pb3  1  -0.06856011  0.35618670  0.35618670  1.0
  Pb  Pb4  1  -0.68143989  0.89381330  0.89381330  1.0
  Pb  Pb5  1  0.89381330  -0.10618670  0.89381330  1.0
  Pb  Pb6  1  0.35618670  -0.06856011  0.35618670  1.0
  Pb  Pb7  1  0.35618670  0.35618670  -0.06856011  1.0
  Au  Au8  1  0.50000000  0.50000000  -0.50000000  1.0
  Au  Au9  1  0.75000000  -0.25000000  0.75000000  1.0
