# generated using pymatgen
data_NaSbO7
_symmetry_space_group_name_H-M   'P 1'
_cell_length_a   5.03271908
_cell_length_b   5.03271908
_cell_length_c   12.05401549
_cell_angle_alpha   90.00000000
_cell_angle_beta   90.00000000
_cell_angle_gamma   120.00000000
_symmetry_Int_Tables_number   1
_chemical_formula_structural   NaSbO7
_chemical_formula_sum   'Na2 Sb2 O14'
_cell_volume   264.40383813
_cell_formula_units_Z   2
loop_
 _symmetry_equiv_pos_site_id
 _symmetry_equiv_pos_as_xyz
  1  'x, y, z'
loop_
 _atom_site_type_symbol
 _atom_site_label
 _atom_site_symmetry_multiplicity
 _atom_site_fract_x
 _atom_site_fract_y
 _atom_site_fract_z
 _atom_site_occupancy
  Sb  Sb0  1  0.66666667  0.33333333  0.57720944  1.0
  Sb  Sb1  1  0.33333333  0.66666667  0.07720944  1.0
  Na  Na2  1  0.33333333  0.66666667  0.81572697  1.0
  Na  Na3  1  0.66666667  0.33333333  0.31572697  1.0
  O  O4  1  0.48649613  -0.02700773  0.48206681  1.0
  O  O5  1  0.02700773  0.51350387  0.48206681  1.0
  O  O6  1  0.48649613  0.51350387  0.48206681  1.0
  O  O7  1  0.51350387  0.02700773  -0.01793319  1.0
  O  O8  1  -0.02700773  0.48649613  -0.01793319  1.0
  O  O9  1  0.51350387  0.48649613  -0.01793319  1.0
  O  O10  1  0.84474944  0.15525056  0.70839918  1.0
  O  O11  1  0.84474944  0.68949889  0.70839918  1.0
  O  O12  1  0.31050111  0.15525056  0.70839918  1.0
  O  O13  1  0.15525056  0.84474944  0.20839918  1.0
  O  O14  1  0.15525056  0.31050111  0.20839918  1.0
  O  O15  1  0.68949889  0.84474944  0.20839918  1.0
  O  O16  1  -0.00000000  -0.00000000  0.66066565  1.0
  O  O17  1  0.00000000  0.00000000  0.16066565  1.0
