# generated using pymatgen
data_Lu4CdIr
_symmetry_space_group_name_H-M   'P 1'
_cell_length_a   9.43075875
_cell_length_b   9.43075875
_cell_length_c   9.43075875
_cell_angle_alpha   60.00000000
_cell_angle_beta   60.00000000
_cell_angle_gamma   60.00000000
_symmetry_Int_Tables_number   1
_chemical_formula_structural   Lu4CdIr
_chemical_formula_sum   'Lu16 Cd4 Ir4'
_cell_volume   593.09588094
_cell_formula_units_Z   4
loop_
 _symmetry_equiv_pos_site_id
 _symmetry_equiv_pos_as_xyz
  1  'x, y, z'
loop_
 _atom_site_type_symbol
 _atom_site_label
 _atom_site_symmetry_multiplicity
 _atom_site_fract_x
 _atom_site_fract_y
 _atom_site_fract_z
 _atom_site_occupancy
  Lu  Lu0  1  0.06248306  0.43751694  0.43751694  1.0
  Lu  Lu1  1  0.43751694  0.43751694  0.06248306  1.0
  Lu  Lu2  1  0.43751694  0.06248306  0.43751694  1.0
  Lu  Lu3  1  0.06248306  0.06248306  0.43751694  1.0
  Lu  Lu4  1  0.06248306  0.43751694  0.06248306  1.0
  Lu  Lu5  1  0.43751694  0.06248306  0.06248306  1.0
  Lu  Lu6  1  -0.80938696  0.80938696  0.80938696  1.0
  Lu  Lu7  1  -0.19061304  0.80938696  0.19061304  1.0
  Lu  Lu8  1  -0.19061304  0.19061304  0.80938696  1.0
  Lu  Lu9  1  0.19061304  1.19061304  -0.19061304  1.0
  Lu  Lu10  1  0.19061304  -0.19061304  0.19061304  1.0
  Lu  Lu11  1  -0.19061304  0.19061304  0.19061304  1.0
  Lu  Lu12  1  -0.35015934  0.64984066  0.64984066  1.0
  Lu  Lu13  1  1.05047803  0.64984066  -0.35015934  1.0
  Lu  Lu14  1  -0.35015934  0.64984066  1.05047803  1.0
  Lu  Lu15  1  0.64984066  1.05047803  -0.35015934  1.0
  Cd  Cd16  1  0.41873477  1.41873477  0.41873477  1.0
  Cd  Cd17  1  -0.25620432  0.41873477  0.41873477  1.0
  Cd  Cd18  1  0.41873477  1.41873477  -0.25620432  1.0
  Cd  Cd19  1  0.41873477  -0.25620432  0.41873477  1.0
  Ir  Ir20  1  0.85814230  0.85814230  -0.14185770  1.0
  Ir  Ir21  1  0.42557309  0.85814230  -0.14185770  1.0
  Ir  Ir22  1  0.85814230  0.85814230  -0.57442691  1.0
  Ir  Ir23  1  0.85814230  0.42557309  -0.14185770  1.0
