# generated using pymatgen
data_KNiPO4
_symmetry_space_group_name_H-M   'P 1'
_cell_length_a   8.77118395
_cell_length_b   9.32481036
_cell_length_c   4.95715479
_cell_angle_alpha   90.00000000
_cell_angle_beta   90.00000000
_cell_angle_gamma   90.00000000
_symmetry_Int_Tables_number   1
_chemical_formula_structural   KNiPO4
_chemical_formula_sum   'K4 Ni4 P4 O16'
_cell_volume   405.44384085
_cell_formula_units_Z   4
loop_
 _symmetry_equiv_pos_site_id
 _symmetry_equiv_pos_as_xyz
  1  'x, y, z'
loop_
 _atom_site_type_symbol
 _atom_site_label
 _atom_site_symmetry_multiplicity
 _atom_site_fract_x
 _atom_site_fract_y
 _atom_site_fract_z
 _atom_site_occupancy
  Ni  Ni0  1  0.15297173  0.95846118  0.70952939  1.0
  Ni  Ni1  1  0.65297173  0.54153882  0.70952939  1.0
  Ni  Ni2  1  0.84702827  0.04153882  0.20952939  1.0
  Ni  Ni3  1  0.34702827  0.45846118  0.20952939  1.0
  O  O4  1  0.28959448  0.61465727  0.95436554  1.0
  O  O5  1  0.78959448  0.88534273  0.95436554  1.0
  O  O6  1  0.71040552  0.38534273  0.45436554  1.0
  O  O7  1  0.21040552  0.11465727  0.45436554  1.0
  O  O8  1  0.25599137  0.78368704  0.56106787  1.0
  O  O9  1  0.75599137  0.71631296  0.56106787  1.0
  O  O10  1  0.74400863  0.21631296  0.06106787  1.0
  O  O11  1  0.24400863  0.28368704  0.06106787  1.0
  O  O12  1  0.18529246  0.51766499  0.49649861  1.0
  O  O13  1  0.68529246  0.98233501  0.49649861  1.0
  O  O14  1  0.81470754  0.48233501  -0.00350139  1.0
  O  O15  1  0.31470754  0.01766499  -0.00350139  1.0
  O  O16  1  0.45402843  0.58582231  0.51744485  1.0
  O  O17  1  0.95402843  0.91417769  0.51744485  1.0
  O  O18  1  0.54597157  0.41417769  0.01744485  1.0
  O  O19  1  0.04597157  0.08582231  0.01744485  1.0
  P  P20  1  0.29273917  0.62702222  0.64224648  1.0
  P  P21  1  0.79273917  0.87297778  0.64224648  1.0
  P  P22  1  0.70726083  0.37297778  0.14224648  1.0
  P  P23  1  0.20726083  0.12702222  0.14224648  1.0
  K  K24  1  0.50019518  0.81736941  0.18484728  1.0
  K  K25  1  1.00019518  0.68263059  0.18484728  1.0
  K  K26  1  0.49980482  0.18263059  0.68484728  1.0
  K  K27  1  -0.00019518  0.31736941  0.68484728  1.0
