# generated using pymatgen
data_Tm(ClO4)3
_symmetry_space_group_name_H-M   'P 1'
_cell_length_a   10.28718087
_cell_length_b   10.28718087
_cell_length_c   10.28718087
_cell_angle_alpha   50.05881997
_cell_angle_beta   50.05881997
_cell_angle_gamma   50.05881997
_symmetry_Int_Tables_number   1
_chemical_formula_structural   Tm(ClO4)3
_chemical_formula_sum   'Tm2 Cl6 O24'
_cell_volume   589.00548039
_cell_formula_units_Z   2
loop_
 _symmetry_equiv_pos_site_id
 _symmetry_equiv_pos_as_xyz
  1  'x, y, z'
loop_
 _atom_site_type_symbol
 _atom_site_label
 _atom_site_symmetry_multiplicity
 _atom_site_fract_x
 _atom_site_fract_y
 _atom_site_fract_z
 _atom_site_occupancy
  Tm  Tm0  1  0.00062792  0.00062792  0.00062792  1.0
  Tm  Tm1  1  0.50062792  0.50062792  -0.49937208  1.0
  Cl  Cl2  1  0.60358353  0.89970617  -0.75502245  1.0
  Cl  Cl3  1  0.10358353  0.74497755  -0.60029383  1.0
  Cl  Cl4  1  0.74497755  0.39970617  -0.89641647  1.0
  Cl  Cl5  1  0.24497755  0.60358353  -0.10029383  1.0
  Cl  Cl6  1  0.39970617  0.10358353  -0.25502245  1.0
  Cl  Cl7  1  0.89970617  0.24497755  -0.39641647  1.0
  O  O8  1  0.78934158  -0.12550684  0.19618942  1.0
  O  O9  1  0.28934158  0.69618942  -0.62550684  1.0
  O  O10  1  0.69618942  0.37449316  -0.71065842  1.0
  O  O11  1  1.19618942  -0.21065842  -0.12550684  1.0
  O  O12  1  0.37449316  0.28934158  -0.30381058  1.0
  O  O13  1  0.87449316  0.19618942  -0.21065842  1.0
  O  O14  1  0.62911562  0.70959326  -0.69443587  1.0
  O  O15  1  0.12911562  0.80556413  -0.79040674  1.0
  O  O16  1  0.80556413  0.20959326  -0.87088438  1.0
  O  O17  1  0.30556413  0.62911562  -0.29040674  1.0
  O  O18  1  0.20959326  0.12911562  -0.19443587  1.0
  O  O19  1  0.70959326  0.30556413  -0.37088438  1.0
  O  O20  1  0.89603957  -0.54255957  -0.03022554  1.0
  O  O21  1  0.39603957  0.46977446  -0.04255957  1.0
  O  O22  1  0.46977446  0.95744043  -0.60396043  1.0
  O  O23  1  0.96977446  -0.10396043  -0.54255957  1.0
  O  O24  1  0.95744043  0.39603957  -0.53022554  1.0
  O  O25  1  0.45744043  -0.03022554  -0.10396043  1.0
  O  O26  1  1.08400320  -0.43786173  0.02061173  1.0
  O  O27  1  0.58400320  -0.47938827  0.06213827  1.0
  O  O28  1  0.52061173  0.06213827  -0.41599680  1.0
  O  O29  1  1.02061173  0.08400320  -0.43786173  1.0
  O  O30  1  1.06213827  -0.41599680  -0.47938827  1.0
  O  O31  1  0.56213827  0.02061173  0.08400320  1.0
