# generated using pymatgen
data_InSO7
_symmetry_space_group_name_H-M   'P 1'
_cell_length_a   5.51617634
_cell_length_b   7.73138124
_cell_length_c   13.69508173
_cell_angle_alpha   90.00000000
_cell_angle_beta   106.46152384
_cell_angle_gamma   90.00000000
_symmetry_Int_Tables_number   1
_chemical_formula_structural   InSO7
_chemical_formula_sum   'In4 S4 O28'
_cell_volume   560.12261211
_cell_formula_units_Z   4
loop_
 _symmetry_equiv_pos_site_id
 _symmetry_equiv_pos_as_xyz
  1  'x, y, z'
loop_
 _atom_site_type_symbol
 _atom_site_label
 _atom_site_symmetry_multiplicity
 _atom_site_fract_x
 _atom_site_fract_y
 _atom_site_fract_z
 _atom_site_occupancy
  S  S0  1  0.86361273  0.75000000  0.69384522  1.0
  S  S1  1  0.13638727  0.25000000  0.30615478  1.0
  S  S2  1  0.18703510  0.75000000  0.13590832  1.0
  S  S3  1  0.81296490  0.25000000  0.86409168  1.0
  O  O4  1  0.91588973  0.90977437  0.64306022  1.0
  O  O5  1  0.91588973  0.59022563  0.64306022  1.0
  O  O6  1  0.08411027  0.40977437  0.35693978  1.0
  O  O7  1  0.08411027  0.09022563  0.35693978  1.0
  O  O8  1  0.78747697  0.40914140  0.92274272  1.0
  O  O9  1  0.78747697  0.09085860  0.92274272  1.0
  O  O10  1  0.21252303  0.90914140  0.07725728  1.0
  O  O11  1  0.21252303  0.59085860  0.07725728  1.0
  O  O12  1  0.62374807  1.11542979  0.46173323  1.0
  O  O13  1  0.62374807  0.38457021  0.46173323  1.0
  O  O14  1  0.37625193  0.61542979  0.53826677  1.0
  O  O15  1  0.37625193  -0.11542979  0.53826677  1.0
  O  O16  1  0.28131912  -0.01024772  0.83573341  1.0
  O  O17  1  0.28131912  0.51024772  0.83573341  1.0
  O  O18  1  0.71868088  0.48975228  0.16426659  1.0
  O  O19  1  0.71868088  0.01024772  0.16426659  1.0
  O  O20  1  0.62785361  0.75000000  0.98242103  1.0
  O  O21  1  0.37214639  0.25000000  0.01757897  1.0
  O  O22  1  -0.03679637  0.75000000  0.43724060  1.0
  O  O23  1  1.03679637  0.25000000  0.56275940  1.0
  O  O24  1  1.02268769  0.75000000  0.80389129  1.0
  O  O25  1  -0.02268769  0.25000000  0.19610871  1.0
  O  O26  1  0.59572134  0.75000000  0.70083269  1.0
  O  O27  1  0.40427866  0.25000000  0.29916731  1.0
  O  O28  1  0.35226260  0.75000000  0.23964523  1.0
  O  O29  1  0.64773740  0.25000000  0.76035477  1.0
  O  O30  1  -0.09003602  0.75000000  0.14085770  1.0
  O  O31  1  1.09003602  0.25000000  0.85914230  1.0
  In  In32  1  -0.00000000  0.00000000  0.50000000  1.0
  In  In33  1  -0.00000000  0.50000000  0.50000000  1.0
  In  In34  1  0.50000000  0.00000000  0.00000000  1.0
  In  In35  1  0.50000000  0.50000000  0.00000000  1.0
