# generated using pymatgen
data_Zr5Si4
_symmetry_space_group_name_H-M   'P 1'
_cell_length_a   7.14905992
_cell_length_b   7.14905992
_cell_length_c   13.06223282
_cell_angle_alpha   90.00000000
_cell_angle_beta   90.00000000
_cell_angle_gamma   90.00000000
_symmetry_Int_Tables_number   1
_chemical_formula_structural   Zr5Si4
_chemical_formula_sum   'Zr20 Si16'
_cell_volume   667.59841175
_cell_formula_units_Z   4
loop_
 _symmetry_equiv_pos_site_id
 _symmetry_equiv_pos_as_xyz
  1  'x, y, z'
loop_
 _atom_site_type_symbol
 _atom_site_label
 _atom_site_symmetry_multiplicity
 _atom_site_fract_x
 _atom_site_fract_y
 _atom_site_fract_z
 _atom_site_occupancy
  Zr  Zr0  1  0.49890401  0.64558312  0.12348062  1.0
  Zr  Zr1  1  0.99890401  0.85441688  0.62651938  1.0
  Zr  Zr2  1  0.35441688  0.50109599  0.37651938  1.0
  Zr  Zr3  1  0.85441688  0.99890401  0.37348062  1.0
  Zr  Zr4  1  0.50109599  0.35441688  0.62348062  1.0
  Zr  Zr5  1  0.00109599  0.14558312  0.12651938  1.0
  Zr  Zr6  1  0.64558312  0.49890401  0.87651938  1.0
  Zr  Zr7  1  0.14558312  0.00109599  0.87348062  1.0
  Zr  Zr8  1  0.99870175  0.64952572  0.03533382  1.0
  Zr  Zr9  1  0.49870175  0.85047428  0.71466618  1.0
  Zr  Zr10  1  0.35047428  0.00129825  0.46466618  1.0
  Zr  Zr11  1  0.85047428  0.49870175  0.28533382  1.0
  Zr  Zr12  1  0.00129825  0.35047428  0.53533382  1.0
  Zr  Zr13  1  0.50129825  0.14952572  0.21466618  1.0
  Zr  Zr14  1  0.64952572  0.99870175  0.96466618  1.0
  Zr  Zr15  1  0.14952572  0.50129825  0.78533382  1.0
  Zr  Zr16  1  0.17522015  0.82477985  0.25000000  1.0
  Zr  Zr17  1  0.67522015  0.67522015  0.50000000  1.0
  Zr  Zr18  1  0.82477985  0.17522015  0.75000000  1.0
  Zr  Zr19  1  0.32477985  0.32477985  0.00000000  1.0
  Si  Si20  1  0.35290064  0.70499915  0.92753383  1.0
  Si  Si21  1  0.85290064  0.79500085  0.82246617  1.0
  Si  Si22  1  0.29500085  0.64709936  0.57246617  1.0
  Si  Si23  1  0.79500085  0.85290064  0.17753383  1.0
  Si  Si24  1  0.64709936  0.29500085  0.42753383  1.0
  Si  Si25  1  0.14709936  0.20499915  0.32246617  1.0
  Si  Si26  1  0.70499915  0.35290064  0.07246617  1.0
  Si  Si27  1  0.20499915  0.14709936  0.67753383  1.0
  Si  Si28  1  0.30102916  0.94972105  0.06228113  1.0
  Si  Si29  1  0.80102916  0.55027895  0.68771887  1.0
  Si  Si30  1  0.05027895  0.69897084  0.43771887  1.0
  Si  Si31  1  0.55027895  0.80102916  0.31228113  1.0
  Si  Si32  1  0.69897084  0.05027895  0.56228113  1.0
  Si  Si33  1  0.19897084  0.44972105  0.18771887  1.0
  Si  Si34  1  0.94972105  0.30102916  0.93771887  1.0
  Si  Si35  1  0.44972105  0.19897084  0.81228113  1.0
