# generated using pymatgen
data_Nb4As3
_symmetry_space_group_name_H-M   'P 1'
_cell_length_a   7.61169151
_cell_length_b   7.61169151
_cell_length_c   18.84654122
_cell_angle_alpha   90.00000000
_cell_angle_beta   90.00000000
_cell_angle_gamma   153.10736524
_symmetry_Int_Tables_number   1
_chemical_formula_structural   Nb4As3
_chemical_formula_sum   'Nb16 As12'
_cell_volume   493.90096131
_cell_formula_units_Z   4
loop_
 _symmetry_equiv_pos_site_id
 _symmetry_equiv_pos_as_xyz
  1  'x, y, z'
loop_
 _atom_site_type_symbol
 _atom_site_label
 _atom_site_symmetry_multiplicity
 _atom_site_fract_x
 _atom_site_fract_y
 _atom_site_fract_z
 _atom_site_occupancy
  Nb  Nb0  1  0.00000000  0.00000000  0.00000000  1.0
  Nb  Nb1  1  0.00000000  0.00000000  0.50000000  1.0
  Nb  Nb2  1  0.26341695  0.73658305  0.83954325  1.0
  Nb  Nb3  1  0.26341695  0.73658305  0.66045675  1.0
  Nb  Nb4  1  -0.26341695  0.26341695  0.33954325  1.0
  Nb  Nb5  1  -0.26341695  0.26341695  0.16045675  1.0
  Nb  Nb6  1  0.32896657  0.67103343  0.47330247  1.0
  Nb  Nb7  1  0.32896657  0.67103343  0.02669753  1.0
  Nb  Nb8  1  -0.32896657  0.32896657  0.97330247  1.0
  Nb  Nb9  1  -0.32896657  0.32896657  0.52669753  1.0
  Nb  Nb10  1  0.46815773  0.53184227  0.88076398  1.0
  Nb  Nb11  1  0.46815773  0.53184227  0.61923602  1.0
  Nb  Nb12  1  -0.46815773  0.46815773  0.38076398  1.0
  Nb  Nb13  1  -0.46815773  0.46815773  0.11923602  1.0
  Nb  Nb14  1  0.05511025  0.94488975  0.75000000  1.0
  Nb  Nb15  1  -0.05511025  0.05511025  0.25000000  1.0
  As  As16  1  0.41449726  0.58550274  0.75000000  1.0
  As  As17  1  -0.41449726  0.41449726  0.25000000  1.0
  As  As18  1  -0.30637067  0.30637067  0.75000000  1.0
  As  As19  1  0.30637067  0.69362933  0.25000000  1.0
  As  As20  1  0.09983434  0.90016566  0.88279562  1.0
  As  As21  1  0.09983434  0.90016566  0.61720438  1.0
  As  As22  1  -0.09983434  0.09983434  0.38279562  1.0
  As  As23  1  -0.09983434  0.09983434  0.11720438  1.0
  As  As24  1  0.15583856  0.84416144  0.42158517  1.0
  As  As25  1  0.15583856  0.84416144  0.07841483  1.0
  As  As26  1  -0.15583856  0.15583856  0.92158517  1.0
  As  As27  1  -0.15583856  0.15583856  0.57841483  1.0
