# generated using pymatgen
data_K4Mn(P3O10)2
_symmetry_space_group_name_H-M   'P 1'
_cell_length_a   7.55605342
_cell_length_b   7.04349984
_cell_length_c   9.34181975
_cell_angle_alpha   99.76168185
_cell_angle_beta   102.12077207
_cell_angle_gamma   96.90432522
_symmetry_Int_Tables_number   1
_chemical_formula_structural   K4Mn(P3O10)2
_chemical_formula_sum   'K4 Mn1 P6 O20'
_cell_volume   472.75503422
_cell_formula_units_Z   1
loop_
 _symmetry_equiv_pos_site_id
 _symmetry_equiv_pos_as_xyz
  1  'x, y, z'
loop_
 _atom_site_type_symbol
 _atom_site_label
 _atom_site_symmetry_multiplicity
 _atom_site_fract_x
 _atom_site_fract_y
 _atom_site_fract_z
 _atom_site_occupancy
  Mn  Mn0  1  0.00000000  -0.50000000  -0.00000000  1.0
  K  K1  1  -0.23875154  -0.72636712  -0.58666189  1.0
  K  K2  1  -0.76124846  -0.27363288  -0.41333811  1.0
  K  K3  1  -0.51662898  -0.21608257  -0.86663144  1.0
  K  K4  1  -0.48337102  -0.78391743  -0.13336856  1.0
  P  P5  1  -0.71109477  -0.74274169  -0.83024093  1.0
  P  P6  1  -0.28890523  -0.25725831  -0.16975907  1.0
  P  P7  1  -0.73655036  -0.76702069  -0.52297467  1.0
  P  P8  1  -0.26344964  -0.23297931  -0.47702533  1.0
  P  P9  1  -0.96093656  -0.06985864  -0.78000334  1.0
  P  P10  1  -0.03906344  -0.93014136  -0.21999666  1.0
  O  O11  1  -0.84566937  -0.95545274  -0.21577885  1.0
  O  O12  1  -0.15433063  -0.04454726  -0.78422115  1.0
  O  O13  1  -0.82291764  -0.99319135  -0.61692920  1.0
  O  O14  1  -0.17708236  -0.00680865  -0.38307080  1.0
  O  O15  1  -0.87257832  -0.92666872  -0.87678922  1.0
  O  O16  1  -0.12742168  -0.07333128  -0.12321078  1.0
  O  O17  1  -0.53064243  -0.80337383  -0.84327767  1.0
  O  O18  1  -0.46935757  -0.19662617  -0.15672233  1.0
  O  O19  1  -0.55066037  -0.77639795  -0.43267438  1.0
  O  O20  1  -0.44933963  -0.22360205  -0.56732562  1.0
  O  O21  1  -0.71335162  -0.65207650  -0.66188906  1.0
  O  O22  1  -0.28664838  -0.34792350  -0.33811094  1.0
  O  O23  1  -0.76563698  -0.59370668  -0.92902828  1.0
  O  O24  1  -0.23436302  -0.40629332  -0.07097172  1.0
  O  O25  1  -0.91117526  -0.27136653  -0.83110172  1.0
  O  O26  1  -0.08882474  -0.72863347  -0.16889828  1.0
  O  O27  1  -0.10314473  -0.61523822  -0.89407265  1.0
  O  O28  1  -0.89685527  -0.38476178  -0.10592735  1.0
  O  O29  1  -0.87686489  -0.67511150  -0.45680142  1.0
  O  O30  1  -0.12313511  -0.32488850  -0.54319858  1.0
