# generated using pymatgen
data_Ni3(TeO4)2
_symmetry_space_group_name_H-M   'P 1'
_cell_length_a   11.98538263
_cell_length_b   11.98538263
_cell_length_c   5.84965927
_cell_angle_alpha   90.00000000
_cell_angle_beta   90.00000000
_cell_angle_gamma   120.00000000
_symmetry_Int_Tables_number   1
_chemical_formula_structural   Ni3(TeO4)2
_chemical_formula_sum   'Ni12 Te8 O32'
_cell_volume   727.72116891
_cell_formula_units_Z   4
loop_
 _symmetry_equiv_pos_site_id
 _symmetry_equiv_pos_as_xyz
  1  'x, y, z'
loop_
 _atom_site_type_symbol
 _atom_site_label
 _atom_site_symmetry_multiplicity
 _atom_site_fract_x
 _atom_site_fract_y
 _atom_site_fract_z
 _atom_site_occupancy
  O  O0  1  0.74789786  0.71323520  0.27841677  1.0
  O  O1  1  0.74789786  0.03466266  0.27841677  1.0
  O  O2  1  0.71323520  0.74789786  0.77841677  1.0
  O  O3  1  0.71323520  0.96533734  0.77841677  1.0
  O  O4  1  0.96533734  0.71323520  0.27841677  1.0
  O  O5  1  0.96533734  0.25210214  0.27841677  1.0
  O  O6  1  0.28676480  0.25210214  0.27841677  1.0
  O  O7  1  0.28676480  0.03466266  0.27841677  1.0
  O  O8  1  0.25210214  0.96533734  0.77841677  1.0
  O  O9  1  0.25210214  0.28676480  0.77841677  1.0
  O  O10  1  0.03466266  0.74789786  0.77841677  1.0
  O  O11  1  0.03466266  0.28676480  0.77841677  1.0
  O  O12  1  0.18910032  0.59455016  0.16670723  1.0
  O  O13  1  0.59455016  0.18910032  0.66670723  1.0
  O  O14  1  0.59455016  0.40544984  0.66670723  1.0
  O  O15  1  0.40544984  0.59455016  0.16670723  1.0
  O  O16  1  0.40544984  0.81089968  0.16670723  1.0
  O  O17  1  0.81089968  0.40544984  0.66670723  1.0
  O  O18  1  -0.00000000  -0.00000000  -0.29794970  1.0
  O  O19  1  0.00000000  -0.00000000  0.20205030  1.0
  O  O20  1  0.96168926  0.48084463  0.13677292  1.0
  O  O21  1  0.48084463  0.96168926  0.63677292  1.0
  O  O22  1  0.48084463  0.51915537  0.63677292  1.0
  O  O23  1  0.51915537  0.48084463  0.13677292  1.0
  O  O24  1  0.51915537  0.03831074  0.13677292  1.0
  O  O25  1  0.03831074  0.51915537  0.63677292  1.0
  O  O26  1  0.58882860  0.79441430  0.37287936  1.0
  O  O27  1  0.79441430  0.58882860  0.87287936  1.0
  O  O28  1  0.79441430  0.20558570  0.87287936  1.0
  O  O29  1  0.20558570  0.79441430  0.37287936  1.0
  O  O30  1  0.20558570  0.41117140  0.37287936  1.0
  O  O31  1  0.41117140  0.20558570  0.87287936  1.0
  Ni  Ni32  1  0.35326968  0.92771278  0.22417004  1.0
  Ni  Ni33  1  0.35326968  0.42555690  0.22417004  1.0
  Ni  Ni34  1  0.92771278  0.35326968  0.72417004  1.0
  Ni  Ni35  1  0.92771278  0.57444310  0.72417004  1.0
  Ni  Ni36  1  0.57444310  0.92771278  0.22417004  1.0
  Ni  Ni37  1  0.57444310  0.64673032  0.22417004  1.0
  Ni  Ni38  1  0.07228722  0.64673032  0.22417004  1.0
  Ni  Ni39  1  0.07228722  0.42555690  0.22417004  1.0
  Ni  Ni40  1  0.64673032  0.57444310  0.72417004  1.0
  Ni  Ni41  1  0.64673032  0.07228722  0.72417004  1.0
  Ni  Ni42  1  0.42555690  0.35326968  0.72417004  1.0
  Ni  Ni43  1  0.42555690  0.07228722  0.72417004  1.0
  Te  Te44  1  0.22294243  0.11147121  0.03798693  1.0
  Te  Te45  1  0.11147121  0.22294243  0.53798693  1.0
  Te  Te46  1  0.11147121  0.88852879  0.53798693  1.0
  Te  Te47  1  0.88852879  0.11147121  0.03798693  1.0
  Te  Te48  1  0.88852879  0.77705757  0.03798693  1.0
  Te  Te49  1  0.77705757  0.88852879  0.53798693  1.0
  Te  Te50  1  0.33333333  0.66666667  0.39838957  1.0
  Te  Te51  1  0.66666667  0.33333333  0.89838957  1.0
