# generated using pymatgen
data_Nb5SiB2
_symmetry_space_group_name_H-M   'P 1'
_cell_length_a   7.31863936
_cell_length_b   7.31863936
_cell_length_c   7.31863936
_cell_angle_alpha   129.42662920
_cell_angle_beta   129.42662920
_cell_angle_gamma   74.32507112
_symmetry_Int_Tables_number   1
_chemical_formula_structural   Nb5SiB2
_chemical_formula_sum   'Nb10 Si2 B4'
_cell_volume   227.99472065
_cell_formula_units_Z   2
loop_
 _symmetry_equiv_pos_site_id
 _symmetry_equiv_pos_as_xyz
  1  'x, y, z'
loop_
 _atom_site_type_symbol
 _atom_site_label
 _atom_site_symmetry_multiplicity
 _atom_site_fract_x
 _atom_site_fract_y
 _atom_site_fract_z
 _atom_site_occupancy
  Nb  Nb0  1  0.00000000  0.00000000  0.00000000  1.0
  Nb  Nb1  1  0.50000000  0.50000000  1.00000000  1.0
  Nb  Nb2  1  1.19317406  0.69317406  1.16103123  1.0
  Nb  Nb3  1  0.46785717  0.96785717  1.16103123  1.0
  Nb  Nb4  1  1.03214283  1.19317406  1.50000000  1.0
  Nb  Nb5  1  0.30682594  0.46785717  0.50000000  1.0
  Nb  Nb6  1  0.69317406  0.53214283  0.50000000  1.0
  Nb  Nb7  1  0.96785717  0.80682594  1.50000000  1.0
  Nb  Nb8  1  0.53214283  1.03214283  0.83896877  1.0
  Nb  Nb9  1  0.80682594  0.30682594  0.83896877  1.0
  Si  Si10  1  0.75000000  0.75000000  1.00000000  1.0
  Si  Si11  1  0.25000000  0.25000000  -0.00000000  1.0
  B  B12  1  0.88753949  0.38753949  1.27507899  1.0
  B  B13  1  0.61246051  0.88753949  1.50000000  1.0
  B  B14  1  0.38753949  0.11246051  0.50000000  1.0
  B  B15  1  0.11246051  0.61246051  0.72492101  1.0
