# generated using pymatgen
data_Na5VO5
_symmetry_space_group_name_H-M   'P 1'
_cell_length_a   6.02693465
_cell_length_b   16.58036756
_cell_length_c   6.51669707
_cell_angle_alpha   90.00000000
_cell_angle_beta   90.00000000
_cell_angle_gamma   90.00000000
_symmetry_Int_Tables_number   1
_chemical_formula_structural   Na5VO5
_chemical_formula_sum   'Na20 V4 O20'
_cell_volume   651.20566537
_cell_formula_units_Z   4
loop_
 _symmetry_equiv_pos_site_id
 _symmetry_equiv_pos_as_xyz
  1  'x, y, z'
loop_
 _atom_site_type_symbol
 _atom_site_label
 _atom_site_symmetry_multiplicity
 _atom_site_fract_x
 _atom_site_fract_y
 _atom_site_fract_z
 _atom_site_occupancy
  Na  Na0  1  0.64687359  0.91485560  0.99436614  1.0
  Na  Na1  1  0.64687359  0.91485560  0.50563386  1.0
  Na  Na2  1  0.64687359  0.58514440  0.49436614  1.0
  Na  Na3  1  0.64687359  0.58514440  0.00563386  1.0
  Na  Na4  1  0.35312641  0.41485560  0.99436614  1.0
  Na  Na5  1  0.35312641  0.41485560  0.50563386  1.0
  Na  Na6  1  0.35312641  0.08514440  0.49436614  1.0
  Na  Na7  1  0.35312641  0.08514440  0.00563386  1.0
  Na  Na8  1  0.92238265  0.08791250  0.25000000  1.0
  Na  Na9  1  0.92238265  0.41208750  0.75000000  1.0
  Na  Na10  1  0.07761735  0.58791250  0.25000000  1.0
  Na  Na11  1  0.07761735  0.91208750  0.75000000  1.0
  Na  Na12  1  0.56932107  0.23021926  0.25000000  1.0
  Na  Na13  1  0.56932107  0.26978074  0.75000000  1.0
  Na  Na14  1  0.43067893  0.73021926  0.25000000  1.0
  Na  Na15  1  0.43067893  0.76978074  0.75000000  1.0
  Na  Na16  1  1.05827823  0.25000000  0.50000000  1.0
  Na  Na17  1  1.05827823  0.25000000  0.00000000  1.0
  Na  Na18  1  -0.05827823  0.75000000  0.50000000  1.0
  Na  Na19  1  -0.05827823  0.75000000  0.00000000  1.0
  V  V20  1  0.78953183  0.40373049  0.25000000  1.0
  V  V21  1  0.78953183  0.09626951  0.75000000  1.0
  V  V22  1  0.21046817  0.90373049  0.25000000  1.0
  V  V23  1  0.21046817  0.59626951  0.75000000  1.0
  O  O24  1  0.73639711  0.34538398  0.46506129  1.0
  O  O25  1  0.73639711  0.34538398  0.03493871  1.0
  O  O26  1  0.73639711  0.15461602  0.96506129  1.0
  O  O27  1  0.73639711  0.15461602  0.53493871  1.0
  O  O28  1  0.26360289  0.84538398  0.46506129  1.0
  O  O29  1  0.26360289  0.84538398  0.03493871  1.0
  O  O30  1  0.26360289  0.65461602  0.96506129  1.0
  O  O31  1  0.26360289  0.65461602  0.53493871  1.0
  O  O32  1  1.05798859  0.44041372  0.25000000  1.0
  O  O33  1  1.05798859  0.05958628  0.75000000  1.0
  O  O34  1  -0.05798859  0.94041372  0.25000000  1.0
  O  O35  1  -0.05798859  0.55958628  0.75000000  1.0
  O  O36  1  0.77509329  0.67492414  0.25000000  1.0
  O  O37  1  0.77509329  0.82507586  0.75000000  1.0
  O  O38  1  0.22490671  0.17492414  0.25000000  1.0
  O  O39  1  0.22490671  0.32507586  0.75000000  1.0
  O  O40  1  0.59785495  0.48076576  0.25000000  1.0
  O  O41  1  0.59785495  0.01923424  0.75000000  1.0
  O  O42  1  0.40214505  0.98076576  0.25000000  1.0
  O  O43  1  0.40214505  0.51923424  0.75000000  1.0
