# generated using pymatgen
data_Sr5Ge3
_symmetry_space_group_name_H-M   'P 1'
_cell_length_a   9.85889394
_cell_length_b   9.85889394
_cell_length_c   9.85889394
_cell_angle_alpha   131.21274959
_cell_angle_beta   131.21274959
_cell_angle_gamma   71.47528187
_symmetry_Int_Tables_number   1
_chemical_formula_structural   Sr5Ge3
_chemical_formula_sum   'Sr10 Ge6'
_cell_volume   530.69713804
_cell_formula_units_Z   2
loop_
 _symmetry_equiv_pos_site_id
 _symmetry_equiv_pos_as_xyz
  1  'x, y, z'
loop_
 _atom_site_type_symbol
 _atom_site_label
 _atom_site_symmetry_multiplicity
 _atom_site_fract_x
 _atom_site_fract_y
 _atom_site_fract_z
 _atom_site_occupancy
  Sr  Sr0  1  0.00000000  0.00000000  0.00000000  1.0
  Sr  Sr1  1  0.50000000  0.50000000  1.00000000  1.0
  Sr  Sr2  1  1.18093176  0.68093176  1.14384824  1.0
  Sr  Sr3  1  0.46291648  0.96291648  1.14384824  1.0
  Sr  Sr4  1  1.03708352  1.18093176  1.50000000  1.0
  Sr  Sr5  1  0.31906824  0.46291648  0.50000000  1.0
  Sr  Sr6  1  0.68093176  0.53708352  0.50000000  1.0
  Sr  Sr7  1  0.96291648  0.81906824  1.50000000  1.0
  Sr  Sr8  1  0.53708352  1.03708352  0.85615176  1.0
  Sr  Sr9  1  0.81906824  0.31906824  0.85615176  1.0
  Ge  Ge10  1  0.88614337  0.38614337  1.27228673  1.0
  Ge  Ge11  1  0.61385663  0.88614337  1.50000000  1.0
  Ge  Ge12  1  0.38614337  0.11385663  0.50000000  1.0
  Ge  Ge13  1  0.11385663  0.61385663  0.72771327  1.0
  Ge  Ge14  1  0.75000000  0.75000000  1.00000000  1.0
  Ge  Ge15  1  0.25000000  0.25000000  -0.00000000  1.0
