# generated using pymatgen
data_V2PO4
_symmetry_space_group_name_H-M   'P 1'
_cell_length_a   7.73704523
_cell_length_b   7.73704523
_cell_length_c   6.10662845
_cell_angle_alpha   90.00000000
_cell_angle_beta   90.00000000
_cell_angle_gamma   90.00000000
_symmetry_Int_Tables_number   1
_chemical_formula_structural   V2PO4
_chemical_formula_sum   'V8 P4 O16'
_cell_volume   365.55419147
_cell_formula_units_Z   4
loop_
 _symmetry_equiv_pos_site_id
 _symmetry_equiv_pos_as_xyz
  1  'x, y, z'
loop_
 _atom_site_type_symbol
 _atom_site_label
 _atom_site_symmetry_multiplicity
 _atom_site_fract_x
 _atom_site_fract_y
 _atom_site_fract_z
 _atom_site_occupancy
  V  V0  1  -0.11649673  0.27190039  0.65033335  1.0
  V  V1  1  0.38350327  0.77190039  0.34966665  1.0
  V  V2  1  0.27190039  1.11649673  0.34966665  1.0
  V  V3  1  0.77190039  0.61649673  0.65033335  1.0
  V  V4  1  1.11649673  0.72809961  0.65033335  1.0
  V  V5  1  0.61649673  0.22809961  0.34966665  1.0
  V  V6  1  0.72809961  -0.11649673  0.34966665  1.0
  V  V7  1  0.22809961  0.38350327  0.65033335  1.0
  P  P8  1  0.25000000  0.75000000  0.00000000  1.0
  P  P9  1  0.75000000  0.25000000  0.00000000  1.0
  P  P10  1  0.75000000  0.75000000  0.00000000  1.0
  P  P11  1  0.25000000  0.25000000  0.00000000  1.0
  O  O12  1  0.08624719  0.22476011  0.49846738  1.0
  O  O13  1  0.58624719  0.72476011  0.50153262  1.0
  O  O14  1  0.22476011  0.91375281  0.50153262  1.0
  O  O15  1  0.72476011  0.41375281  0.49846738  1.0
  O  O16  1  0.91375281  0.77523989  0.49846738  1.0
  O  O17  1  0.41375281  0.27523989  0.50153262  1.0
  O  O18  1  0.77523989  0.08624719  0.50153262  1.0
  O  O19  1  0.27523989  0.58624719  0.49846738  1.0
  O  O20  1  0.24842984  1.00838765  1.07386604  1.0
  O  O21  1  0.74842984  0.50838765  -0.07386604  1.0
  O  O22  1  1.00838765  0.75157016  -0.07386604  1.0
  O  O23  1  0.50838765  0.25157016  1.07386604  1.0
  O  O24  1  0.75157016  -0.00838765  1.07386604  1.0
  O  O25  1  0.25157016  0.49161235  -0.07386604  1.0
  O  O26  1  -0.00838765  0.24842984  -0.07386604  1.0
  O  O27  1  0.49161235  0.74842984  1.07386604  1.0
