# generated using pymatgen
data_H3C6SeO3F5
_symmetry_space_group_name_H-M   'P 1'
_cell_length_a   4.75670924
_cell_length_b   17.97767897
_cell_length_c   5.65939140
_cell_angle_alpha   79.26097876
_cell_angle_beta   83.71315301
_cell_angle_gamma   87.68398860
_symmetry_Int_Tables_number   1
_chemical_formula_structural   H3C6SeO3F5
_chemical_formula_sum   'H6 C12 Se2 O6 F10'
_cell_volume   472.52582594
_cell_formula_units_Z   2
loop_
 _symmetry_equiv_pos_site_id
 _symmetry_equiv_pos_as_xyz
  1  'x, y, z'
loop_
 _atom_site_type_symbol
 _atom_site_label
 _atom_site_symmetry_multiplicity
 _atom_site_fract_x
 _atom_site_fract_y
 _atom_site_fract_z
 _atom_site_occupancy
  H  H0  1  -0.30916698  -0.58108460  -0.89140957  1.0
  H  H1  1  -0.69083302  -0.41891540  -0.10859043  1.0
  H  H2  1  -0.08781726  -0.56026632  -0.24346394  1.0
  H  H3  1  -0.91218274  -0.43973368  -0.75653606  1.0
  H  H4  1  -0.42133973  -0.56061410  -0.24640864  1.0
  H  H5  1  -0.57866027  -0.43938590  -0.75359136  1.0
  C  C6  1  -0.66207001  -0.73177601  -0.50459377  1.0
  C  C7  1  -0.33792999  -0.26822399  -0.49540623  1.0
  C  C8  1  -0.51257845  -0.76411053  -0.31130812  1.0
  C  C9  1  -0.48742155  -0.23588947  -0.68869188  1.0
  C  C10  1  -0.50212356  -0.84229660  -0.23216090  1.0
  C  C11  1  -0.49787644  -0.15770340  -0.76783910  1.0
  C  C12  1  -0.64371075  -0.88948526  -0.34777666  1.0
  C  C13  1  -0.35628925  -0.11051474  -0.65222334  1.0
  C  C14  1  -0.79251666  -0.85824750  -0.54308889  1.0
  C  C15  1  -0.20748334  -0.14175250  -0.45691111  1.0
  C  C16  1  -0.79880188  -0.77984996  -0.61902521  1.0
  C  C17  1  -0.20119812  -0.22015004  -0.38097479  1.0
  Se  Se18  1  -0.69765484  -0.61989318  -0.61986656  1.0
  Se  Se19  1  -0.30234516  -0.38010682  -0.38013344  1.0
  O  O20  1  -0.32962475  -0.60810843  -0.71166416  1.0
  O  O21  1  -0.67037525  -0.39189157  -0.28833584  1.0
  O  O22  1  -0.73853758  -0.58956299  -0.35671341  1.0
  O  O23  1  -0.26146242  -0.41043701  -0.64328659  1.0
  O  O24  1  -0.26930599  -0.54334424  -0.16366609  1.0
  O  O25  1  -0.73069401  -0.45665576  -0.83633391  1.0
  F  F26  1  -0.36987658  -0.72083589  -0.19570772  1.0
  F  F27  1  -0.63012342  -0.27916411  -0.80429228  1.0
  F  F28  1  -0.35571455  -0.87284253  -0.04537619  1.0
  F  F29  1  -0.64428545  -0.12715747  -0.95462381  1.0
  F  F30  1  -0.63554632  -0.96466616  -0.27148822  1.0
  F  F31  1  -0.36445368  -0.03533384  -0.72851178  1.0
  F  F32  1  -0.92724005  -0.90374522  -0.65597246  1.0
  F  F33  1  -0.07275995  -0.09625478  -0.34402754  1.0
  F  F34  1  -0.94189677  -0.75107609  -0.81109558  1.0
  F  F35  1  -0.05810323  -0.24892391  -0.18890442  1.0
