# generated using pymatgen
data_La2CuGe6
_symmetry_space_group_name_H-M   'P 1'
_cell_length_a   11.32500201
_cell_length_b   11.32500201
_cell_length_c   4.24644060
_cell_angle_alpha   90.00000000
_cell_angle_beta   90.00000000
_cell_angle_gamma   158.89256313
_symmetry_Int_Tables_number   1
_chemical_formula_structural   La2CuGe6
_chemical_formula_sum   'La2 Cu1 Ge6'
_cell_volume   196.13104313
_cell_formula_units_Z   1
loop_
 _symmetry_equiv_pos_site_id
 _symmetry_equiv_pos_as_xyz
  1  'x, y, z'
loop_
 _atom_site_type_symbol
 _atom_site_label
 _atom_site_symmetry_multiplicity
 _atom_site_fract_x
 _atom_site_fract_y
 _atom_site_fract_z
 _atom_site_occupancy
  La  La0  1  -0.22040804  0.22040804  0.50000000  1.0
  La  La1  1  0.11162290  0.88837710  0.50000000  1.0
  Cu  Cu2  1  -0.44501735  0.44501735  0.00000000  1.0
  Ge  Ge3  1  -0.50218373  0.50218373  0.50000000  1.0
  Ge  Ge4  1  0.38598677  0.61401323  0.50000000  1.0
  Ge  Ge5  1  -0.00274802  0.00274802  0.00000000  1.0
  Ge  Ge6  1  -0.11488761  0.11488761  0.00000000  1.0
  Ge  Ge7  1  -0.33644844  0.33644844  0.00000000  1.0
  Ge  Ge8  1  0.23108351  0.76891649  0.00000000  1.0
