# generated using pymatgen
data_K2LiAlF6
_symmetry_space_group_name_H-M   'P 1'
_cell_length_a   9.91048002
_cell_length_b   9.91048002
_cell_length_c   9.91048002
_cell_angle_alpha   33.52009634
_cell_angle_beta   33.52009634
_cell_angle_gamma   33.52009634
_symmetry_Int_Tables_number   1
_chemical_formula_structural   K2LiAlF6
_chemical_formula_sum   'K4 Li2 Al2 F12'
_cell_volume   264.38666160
_cell_formula_units_Z   2
loop_
 _symmetry_equiv_pos_site_id
 _symmetry_equiv_pos_as_xyz
  1  'x, y, z'
loop_
 _atom_site_type_symbol
 _atom_site_label
 _atom_site_symmetry_multiplicity
 _atom_site_fract_x
 _atom_site_fract_y
 _atom_site_fract_z
 _atom_site_occupancy
  K  K0  1  0.78016767  0.78016767  0.78016767  1.0
  K  K1  1  1.21983233  1.21983233  0.21983233  1.0
  K  K2  1  1.62806293  0.62806293  0.62806293  1.0
  K  K3  1  1.37193707  0.37193707  0.37193707  1.0
  Li  Li4  1  0.90249339  0.90249339  0.90249339  1.0
  Li  Li5  1  1.09750661  1.09750661  0.09750661  1.0
  Al  Al6  1  1.50000000  0.50000000  0.50000000  1.0
  Al  Al7  1  0.00000000  0.00000000  -0.00000000  1.0
  F  F8  1  1.30917538  0.30917538  0.76864495  1.0
  F  F9  1  1.30917538  0.76864495  0.30917538  1.0
  F  F10  1  1.23135505  0.69082462  0.69082462  1.0
  F  F11  1  1.69082462  0.23135505  0.69082462  1.0
  F  F12  1  1.69082462  0.69082462  0.23135505  1.0
  F  F13  1  1.76864495  0.30917538  0.30917538  1.0
  F  F14  1  1.10894838  1.10894838  0.66468448  1.0
  F  F15  1  1.10894838  1.66468448  0.10894838  1.0
  F  F16  1  1.33531552  0.89105162  -0.10894838  1.0
  F  F17  1  0.89105162  1.33531552  -0.10894838  1.0
  F  F18  1  0.89105162  0.89105162  0.33531552  1.0
  F  F19  1  1.66468448  1.10894838  0.10894838  1.0
