# generated using pymatgen
data_TiP
_symmetry_space_group_name_H-M   'P 1'
_cell_length_a   7.33002178
_cell_length_b   7.33002178
_cell_length_c   4.87327533
_cell_angle_alpha   90.00000000
_cell_angle_beta   90.00000000
_cell_angle_gamma   120.00000000
_symmetry_Int_Tables_number   1
_chemical_formula_structural   TiP
_chemical_formula_sum   'Ti6 P6'
_cell_volume   226.75773549
_cell_formula_units_Z   6
loop_
 _symmetry_equiv_pos_site_id
 _symmetry_equiv_pos_as_xyz
  1  'x, y, z'
loop_
 _atom_site_type_symbol
 _atom_site_label
 _atom_site_symmetry_multiplicity
 _atom_site_fract_x
 _atom_site_fract_y
 _atom_site_fract_z
 _atom_site_occupancy
  Ti  Ti0  1  0.66664634  0.66664634  0.25000000  1.0
  Ti  Ti1  1  0.33335366  0.00000000  0.25000000  1.0
  Ti  Ti2  1  0.00000000  0.33335366  0.25000000  1.0
  Ti  Ti3  1  0.33335366  0.33335366  0.75000000  1.0
  Ti  Ti4  1  0.66664634  0.00000000  0.75000000  1.0
  Ti  Ti5  1  -0.00000000  0.66664634  0.75000000  1.0
  P  P6  1  0.33332336  0.33332336  0.25000000  1.0
  P  P7  1  0.66667664  0.00000000  0.25000000  1.0
  P  P8  1  -0.00000000  0.66667664  0.25000000  1.0
  P  P9  1  0.66667664  0.66667664  0.75000000  1.0
  P  P10  1  0.33332336  0.00000000  0.75000000  1.0
  P  P11  1  0.00000000  0.33332336  0.75000000  1.0
