# generated using pymatgen
data_Sc2Ni
_symmetry_space_group_name_H-M   'P 1'
_cell_length_a   8.56847180
_cell_length_b   8.56847180
_cell_length_c   8.56847180
_cell_angle_alpha   60.00000000
_cell_angle_beta   60.00000000
_cell_angle_gamma   60.00000000
_symmetry_Int_Tables_number   1
_chemical_formula_structural   Sc2Ni
_chemical_formula_sum   'Sc16 Ni8'
_cell_volume   444.83107375
_cell_formula_units_Z   8
loop_
 _symmetry_equiv_pos_site_id
 _symmetry_equiv_pos_as_xyz
  1  'x, y, z'
loop_
 _atom_site_type_symbol
 _atom_site_label
 _atom_site_symmetry_multiplicity
 _atom_site_fract_x
 _atom_site_fract_y
 _atom_site_fract_z
 _atom_site_occupancy
  Sc  Sc0  1  1.12500000  0.62500000  0.62500000  1.0
  Sc  Sc1  1  0.62500000  1.12500000  -0.37500000  1.0
  Sc  Sc2  1  -0.37500000  0.62500000  1.12500000  1.0
  Sc  Sc3  1  -0.37500000  0.62500000  0.62500000  1.0
  Sc  Sc4  1  0.81432783  0.81432783  -0.81432783  1.0
  Sc  Sc5  1  0.18567217  1.18567217  -0.18567217  1.0
  Sc  Sc6  1  0.81432783  -0.81432783  0.81432783  1.0
  Sc  Sc7  1  0.18567217  -0.18567217  0.18567217  1.0
  Sc  Sc8  1  -0.81432783  0.81432783  0.81432783  1.0
  Sc  Sc9  1  -0.18567217  0.18567217  0.18567217  1.0
  Sc  Sc10  1  0.43567217  1.43567217  0.06432783  1.0
  Sc  Sc11  1  0.06432783  0.06432783  0.43567217  1.0
  Sc  Sc12  1  0.43567217  1.06432783  0.43567217  1.0
  Sc  Sc13  1  0.06432783  1.43567217  0.06432783  1.0
  Sc  Sc14  1  0.06432783  1.43567217  0.43567217  1.0
  Sc  Sc15  1  0.43567217  1.06432783  0.06432783  1.0
  Ni  Ni16  1  -0.24034277  0.41344759  0.41344759  1.0
  Ni  Ni17  1  0.41344759  -0.24034277  0.41344759  1.0
  Ni  Ni18  1  0.41344759  1.41344759  -0.24034277  1.0
  Ni  Ni19  1  0.41344759  1.41344759  0.41344759  1.0
  Ni  Ni20  1  0.49034277  0.83655241  -0.16344759  1.0
  Ni  Ni21  1  0.83655241  0.49034277  0.83655241  1.0
  Ni  Ni22  1  0.83655241  0.83655241  -0.50965723  1.0
  Ni  Ni23  1  0.83655241  0.83655241  0.83655241  1.0
