# generated using pymatgen
data_Y2TeO6
_symmetry_space_group_name_H-M   'P 1'
_cell_length_a   5.33717205
_cell_length_b   9.20702186
_cell_length_c   10.10995420
_cell_angle_alpha   90.00000000
_cell_angle_beta   90.00000000
_cell_angle_gamma   90.00000000
_symmetry_Int_Tables_number   1
_chemical_formula_structural   Y2TeO6
_chemical_formula_sum   'Y8 Te4 O24'
_cell_volume   496.79768794
_cell_formula_units_Z   4
loop_
 _symmetry_equiv_pos_site_id
 _symmetry_equiv_pos_as_xyz
  1  'x, y, z'
loop_
 _atom_site_type_symbol
 _atom_site_label
 _atom_site_symmetry_multiplicity
 _atom_site_fract_x
 _atom_site_fract_y
 _atom_site_fract_z
 _atom_site_occupancy
  Y  Y0  1  0.48274340  0.89704219  0.03774142  1.0
  Y  Y1  1  0.98274340  0.60295781  0.96225858  1.0
  Y  Y2  1  0.51725660  0.39704219  0.46225858  1.0
  Y  Y3  1  0.01725660  0.10295781  0.53774142  1.0
  Y  Y4  1  0.45993099  0.78253711  0.63441896  1.0
  Y  Y5  1  0.95993099  0.71746289  0.36558104  1.0
  Y  Y6  1  0.54006901  0.28253711  0.86558104  1.0
  Y  Y7  1  0.04006901  0.21746289  0.13441896  1.0
  Te  Te8  1  0.96327254  0.99469849  0.85112960  1.0
  Te  Te9  1  0.46327254  0.50530151  0.14887040  1.0
  Te  Te10  1  0.03672746  0.49469849  0.64887040  1.0
  Te  Te11  1  0.53672746  0.00530151  0.35112960  1.0
  O  O12  1  0.32426332  0.35724862  0.67832701  1.0
  O  O13  1  0.82426332  0.14275138  0.32167299  1.0
  O  O14  1  0.67573668  0.85724862  0.82167299  1.0
  O  O15  1  0.17573668  0.64275138  0.17832701  1.0
  O  O16  1  0.24385397  0.58677838  0.50291575  1.0
  O  O17  1  0.74385397  0.91322162  0.49708425  1.0
  O  O18  1  0.75614603  0.08677838  0.99708425  1.0
  O  O19  1  0.25614603  0.41322162  0.00291575  1.0
  O  O20  1  0.18946725  0.64390601  0.76372335  1.0
  O  O21  1  0.68946725  0.85609399  0.23627665  1.0
  O  O22  1  0.81053275  0.14390601  0.73627665  1.0
  O  O23  1  0.31053275  0.35609399  0.26372335  1.0
  O  O24  1  0.17225831  0.94964361  0.69596866  1.0
  O  O25  1  0.67225831  0.55035639  0.30403134  1.0
  O  O26  1  0.82774169  0.44964361  0.80403134  1.0
  O  O27  1  0.32774169  0.05035639  0.19596866  1.0
  O  O28  1  0.09309863  0.84154733  0.97182674  1.0
  O  O29  1  0.59309863  0.65845267  0.02817326  1.0
  O  O30  1  0.90690137  0.34154733  0.52817326  1.0
  O  O31  1  0.40690137  0.15845267  0.47182674  1.0
  O  O32  1  0.76069270  0.61557440  0.56738036  1.0
  O  O33  1  0.26069270  0.88442560  0.43261964  1.0
  O  O34  1  0.23930730  0.11557440  0.93261964  1.0
  O  O35  1  0.73930730  0.38442560  0.06738036  1.0
