# generated using pymatgen
data_KLaTiO4
_symmetry_space_group_name_H-M   'P 1'
_cell_length_a   13.63905409
_cell_length_b   5.47205346
_cell_length_c   5.45478739
_cell_angle_alpha   90.00000000
_cell_angle_beta   90.00000000
_cell_angle_gamma   90.00000000
_symmetry_Int_Tables_number   1
_chemical_formula_structural   KLaTiO4
_chemical_formula_sum   'K4 La4 Ti4 O16'
_cell_volume   407.11060107
_cell_formula_units_Z   4
loop_
 _symmetry_equiv_pos_site_id
 _symmetry_equiv_pos_as_xyz
  1  'x, y, z'
loop_
 _atom_site_type_symbol
 _atom_site_label
 _atom_site_symmetry_multiplicity
 _atom_site_fract_x
 _atom_site_fract_y
 _atom_site_fract_z
 _atom_site_occupancy
  Ti  Ti0  1  0.74204762  0.00226289  0.75000000  1.0
  Ti  Ti1  1  0.74204762  0.49773711  0.25000000  1.0
  Ti  Ti2  1  0.25795238  0.50226289  0.75000000  1.0
  Ti  Ti3  1  0.25795238  -0.00226289  0.25000000  1.0
  O  O4  1  0.76888402  0.75000000  0.00000000  1.0
  O  O5  1  0.76888402  0.75000000  0.50000000  1.0
  O  O6  1  0.23111598  0.25000000  0.00000000  1.0
  O  O7  1  0.23111598  0.25000000  0.50000000  1.0
  O  O8  1  0.93287702  0.97051920  0.75000000  1.0
  O  O9  1  0.93287702  0.52948080  0.25000000  1.0
  O  O10  1  0.06712298  0.47051920  0.75000000  1.0
  O  O11  1  0.06712298  0.02948080  0.25000000  1.0
  O  O12  1  0.22272410  0.75000000  0.00000000  1.0
  O  O13  1  0.22272410  0.75000000  0.50000000  1.0
  O  O14  1  0.77727590  0.25000000  0.00000000  1.0
  O  O15  1  0.77727590  0.25000000  0.50000000  1.0
  O  O16  1  0.38627389  0.51025958  0.75000000  1.0
  O  O17  1  0.38627389  0.98974042  0.25000000  1.0
  O  O18  1  0.61372611  0.01025958  0.75000000  1.0
  O  O19  1  0.61372611  0.48974042  0.25000000  1.0
  K  K20  1  0.40663134  1.00650581  0.75000000  1.0
  K  K21  1  0.40663134  0.49349419  0.25000000  1.0
  K  K22  1  0.59336866  0.50650581  0.75000000  1.0
  K  K23  1  0.59336866  -0.00650581  0.25000000  1.0
  La  La24  1  0.89535523  0.50916083  0.75000000  1.0
  La  La25  1  0.89535523  0.99083917  0.25000000  1.0
  La  La26  1  0.10464477  0.00916083  0.75000000  1.0
  La  La27  1  0.10464477  0.49083917  0.25000000  1.0
