# generated using pymatgen
data_Ca2Ni10H
_symmetry_space_group_name_H-M   'P 1'
_cell_length_a   4.99001282
_cell_length_b   4.99001282
_cell_length_c   7.94561023
_cell_angle_alpha   90.00000000
_cell_angle_beta   90.00000000
_cell_angle_gamma   120.00000000
_symmetry_Int_Tables_number   1
_chemical_formula_structural   Ca2Ni10H
_chemical_formula_sum   'Ca2 Ni10 H1'
_cell_volume   171.34096634
_cell_formula_units_Z   1
loop_
 _symmetry_equiv_pos_site_id
 _symmetry_equiv_pos_as_xyz
  1  'x, y, z'
loop_
 _atom_site_type_symbol
 _atom_site_label
 _atom_site_symmetry_multiplicity
 _atom_site_fract_x
 _atom_site_fract_y
 _atom_site_fract_z
 _atom_site_occupancy
  Ca  Ca0  1  0.00000000  0.00000000  -0.00019588  1.0
  Ca  Ca1  1  0.00000000  0.00000000  0.50185771  1.0
  Ni  Ni2  1  0.33333333  0.66666667  0.98701190  1.0
  Ni  Ni3  1  0.66666667  0.33333333  0.99701482  1.0
  Ni  Ni4  1  0.50780081  0.01560162  0.25471137  1.0
  Ni  Ni5  1  0.98439838  0.49219919  0.25471137  1.0
  Ni  Ni6  1  0.50780081  0.49219919  0.25471137  1.0
  Ni  Ni7  1  0.33333333  0.66666667  0.50148504  1.0
  Ni  Ni8  1  0.66666667  0.33333333  0.50287705  1.0
  Ni  Ni9  1  0.50095036  0.00190072  0.74777408  1.0
  Ni  Ni10  1  0.99809928  0.49904964  0.74777408  1.0
  Ni  Ni11  1  0.50095036  0.49904964  0.74777408  1.0
  H  H12  1  0.33333333  0.66666667  0.18709302  1.0
