# generated using pymatgen
data_K2Ni(NO3)4
_symmetry_space_group_name_H-M   'P 1'
_cell_length_a   9.24784711
_cell_length_b   9.24784711
_cell_length_c   9.18676100
_cell_angle_alpha   82.97466312
_cell_angle_beta   97.02533688
_cell_angle_gamma   133.97206147
_symmetry_Int_Tables_number   1
_chemical_formula_structural   K2Ni(NO3)4
_chemical_formula_sum   'K4 Ni2 N8 O24'
_cell_volume   560.41981392
_cell_formula_units_Z   2
loop_
 _symmetry_equiv_pos_site_id
 _symmetry_equiv_pos_as_xyz
  1  'x, y, z'
loop_
 _atom_site_type_symbol
 _atom_site_label
 _atom_site_symmetry_multiplicity
 _atom_site_fract_x
 _atom_site_fract_y
 _atom_site_fract_z
 _atom_site_occupancy
  K  K0  1  0.96864250  0.77839778  0.13242087  1.0
  K  K1  1  0.22160222  0.03135750  0.63242087  1.0
  K  K2  1  1.24349092  0.44884932  0.19819056  1.0
  K  K3  1  0.55115068  -0.24349092  0.69819056  1.0
  Ni  Ni4  1  0.62791347  0.07828389  0.30717465  1.0
  Ni  Ni5  1  0.92171611  0.37208653  0.80717465  1.0
  N  N6  1  0.78990309  -0.10899058  0.38585264  1.0
  N  N7  1  1.10899058  0.21009691  0.88585264  1.0
  N  N8  1  0.65157893  0.01178681  0.00790046  1.0
  N  N9  1  0.98821319  0.34842107  0.50790046  1.0
  N  N10  1  0.27994986  -0.15273181  0.39561781  1.0
  N  N11  1  1.15273181  0.72005014  0.89561781  1.0
  N  N12  1  0.52767193  0.33727607  0.26972053  1.0
  N  N13  1  0.66272393  0.47232807  0.76972053  1.0
  O  O14  1  0.83112523  0.83019651  0.49657251  1.0
  O  O15  1  0.16980349  0.16887477  -0.00342749  1.0
  O  O16  1  0.89129651  -0.02615891  0.27512014  1.0
  O  O17  1  1.02615891  0.10870349  0.77512014  1.0
  O  O18  1  0.63194618  -0.13594020  0.39024522  1.0
  O  O19  1  1.13594020  0.36805382  0.89024522  1.0
  O  O20  1  0.52942195  -0.17081564  0.03995320  1.0
  O  O21  1  1.17081564  0.47057805  0.53995320  1.0
  O  O22  1  0.70725779  0.07350719  0.87503398  1.0
  O  O23  1  0.92649281  0.29274221  0.37503398  1.0
  O  O24  1  0.72714964  0.14408281  0.09946102  1.0
  O  O25  1  0.85591719  0.27285036  0.59946102  1.0
  O  O26  1  0.43289247  -0.04134831  0.48487012  1.0
  O  O27  1  1.04134831  0.56710753  0.98487012  1.0
  O  O28  1  0.31980264  -0.14894610  0.26510272  1.0
  O  O29  1  1.14894610  0.68019736  0.76510272  1.0
  O  O30  1  1.10691738  0.74813219  0.42909627  1.0
  O  O31  1  0.25186781  -0.10691738  0.92909627  1.0
  O  O32  1  0.64935413  0.31773323  0.25209269  1.0
  O  O33  1  0.68226677  0.35064587  0.75209269  1.0
  O  O34  1  0.36324414  0.19891433  0.32723387  1.0
  O  O35  1  0.80108567  0.63675586  0.82723387  1.0
  O  O36  1  0.49797504  0.41870521  0.72564074  1.0
  O  O37  1  0.58129479  0.50202496  0.22564074  1.0
