# generated using pymatgen
data_CdH4CN2Cl2O
_symmetry_space_group_name_H-M   'P 1'
_cell_length_a   3.88491226
_cell_length_b   10.77720806
_cell_length_c   8.29148184
_cell_angle_alpha   71.87250192
_cell_angle_beta   80.14448604
_cell_angle_gamma   78.35588005
_symmetry_Int_Tables_number   1
_chemical_formula_structural   CdH4CN2Cl2O
_chemical_formula_sum   'Cd2 H8 C2 N4 Cl4 O2'
_cell_volume   320.93447070
_cell_formula_units_Z   2
loop_
 _symmetry_equiv_pos_site_id
 _symmetry_equiv_pos_as_xyz
  1  'x, y, z'
loop_
 _atom_site_type_symbol
 _atom_site_label
 _atom_site_symmetry_multiplicity
 _atom_site_fract_x
 _atom_site_fract_y
 _atom_site_fract_z
 _atom_site_occupancy
  Cd  Cd0  1  -0.70215867  -0.67568000  -0.88520936  1.0
  Cd  Cd1  1  -0.29784133  -0.32432000  -0.11479064  1.0
  H  H2  1  -0.91216226  -0.36601577  -0.46590501  1.0
  H  H3  1  -0.08783774  -0.63398423  -0.53409499  1.0
  H  H4  1  -0.94517904  -0.29848895  -0.68418965  1.0
  H  H5  1  -0.05482096  -0.70151105  -0.31581035  1.0
  H  H6  1  -0.77993441  -0.91497040  -0.21405961  1.0
  H  H7  1  -0.22006559  -0.08502960  -0.78594039  1.0
  H  H8  1  -0.54848905  -1.00459977  -0.35346313  1.0
  H  H9  1  -0.45151095  0.00459977  -0.64653687  1.0
  C  C10  1  -0.77859428  -0.81519862  -0.46890053  1.0
  C  C11  1  -0.22140572  -0.18480138  -0.53109947  1.0
  N  N12  1  -1.03387176  -0.29684791  -0.56198925  1.0
  N  N13  1  0.03387176  -0.70315209  -0.43801075  1.0
  N  N14  1  -0.67693040  -0.91645249  -0.33467448  1.0
  N  N15  1  -0.32306960  -0.08354751  -0.66532552  1.0
  Cl  Cl16  1  -0.31393915  -0.52404190  -0.80534334  1.0
  Cl  Cl17  1  -0.68606085  -0.47595810  -0.19465666  1.0
  Cl  Cl18  1  -0.09382515  -0.79597967  -0.99425637  1.0
  Cl  Cl19  1  -0.90617485  -0.20402033  -0.00574363  1.0
  O  O20  1  -0.68891000  -0.82527420  -0.62041870  1.0
  O  O21  1  -0.31109000  -0.17472580  -0.37958130  1.0
