# generated using pymatgen
data_Na2CdH4(SeO5)2
_symmetry_space_group_name_H-M   'P 1'
_cell_length_a   6.06665692
_cell_length_b   13.52251566
_cell_length_c   5.95851982
_cell_angle_alpha   90.00000000
_cell_angle_beta   105.90325694
_cell_angle_gamma   90.00000000
_symmetry_Int_Tables_number   1
_chemical_formula_structural   Na2CdH4(SeO5)2
_chemical_formula_sum   'Na4 Cd2 H8 Se4 O20'
_cell_volume   470.10682293
_cell_formula_units_Z   2
loop_
 _symmetry_equiv_pos_site_id
 _symmetry_equiv_pos_as_xyz
  1  'x, y, z'
loop_
 _atom_site_type_symbol
 _atom_site_label
 _atom_site_symmetry_multiplicity
 _atom_site_fract_x
 _atom_site_fract_y
 _atom_site_fract_z
 _atom_site_occupancy
  Na  Na0  1  0.40971798  0.87566678  0.74454111  1.0
  Na  Na1  1  0.40971798  0.62433322  0.24454111  1.0
  Na  Na2  1  0.59028202  0.37566678  0.75545889  1.0
  Na  Na3  1  0.59028202  0.12433322  0.25545889  1.0
  Cd  Cd4  1  0.00000000  0.00000000  0.00000000  1.0
  Cd  Cd5  1  -0.00000000  0.50000000  0.50000000  1.0
  H  H6  1  0.90049557  0.20708559  0.99814107  1.0
  H  H7  1  0.90049557  0.29291441  0.49814107  1.0
  H  H8  1  0.09950443  0.70708559  0.50185893  1.0
  H  H9  1  0.09950443  0.79291441  0.00185893  1.0
  H  H10  1  0.31784103  0.65838210  0.67609648  1.0
  H  H11  1  0.31784103  0.84161790  0.17609648  1.0
  H  H12  1  0.68215897  0.15838210  0.82390352  1.0
  H  H13  1  0.68215897  0.34161790  0.32390352  1.0
  Se  Se14  1  0.76308624  0.61927834  0.93163953  1.0
  Se  Se15  1  0.76308624  0.88072166  0.43163953  1.0
  Se  Se16  1  0.23691376  0.11927834  0.56836047  1.0
  Se  Se17  1  0.23691376  0.38072166  0.06836047  1.0
  O  O18  1  0.01707891  0.82626377  0.49058970  1.0
  O  O19  1  0.01707891  0.67373623  0.99058970  1.0
  O  O20  1  0.98292109  0.32626377  0.00941030  1.0
  O  O21  1  0.98292109  0.17373623  0.50941030  1.0
  O  O22  1  0.80336730  0.35367660  0.47329637  1.0
  O  O23  1  0.80336730  0.14632340  0.97329637  1.0
  O  O24  1  0.19663270  0.85367660  0.02670363  1.0
  O  O25  1  0.19663270  0.64632340  0.52670363  1.0
  O  O26  1  0.74232976  0.95333419  0.65453323  1.0
  O  O27  1  0.74232976  0.54666581  0.15453323  1.0
  O  O28  1  0.25767024  0.45333419  0.84546677  1.0
  O  O29  1  0.25767024  0.04666581  0.34546677  1.0
  O  O30  1  0.72062337  0.54859688  0.69131753  1.0
  O  O31  1  0.72062337  0.95140312  0.19131753  1.0
  O  O32  1  0.27937663  0.04859688  0.80868247  1.0
  O  O33  1  0.27937663  0.45140312  0.30868247  1.0
  O  O34  1  0.54605249  0.69918601  0.89449660  1.0
  O  O35  1  0.54605249  0.80081399  0.39449660  1.0
  O  O36  1  0.45394751  0.19918601  0.60550340  1.0
  O  O37  1  0.45394751  0.30081399  0.10550340  1.0
