# generated using pymatgen
data_Gd4Mg3Ag10
_symmetry_space_group_name_H-M   'P 1'
_cell_length_a   8.63612255
_cell_length_b   8.63612255
_cell_length_c   10.28857366
_cell_angle_alpha   90.00000000
_cell_angle_beta   90.00000000
_cell_angle_gamma   72.37788166
_symmetry_Int_Tables_number   1
_chemical_formula_structural   Gd4Mg3Ag10
_chemical_formula_sum   'Gd8 Mg6 Ag20'
_cell_volume   731.34000033
_cell_formula_units_Z   2
loop_
 _symmetry_equiv_pos_site_id
 _symmetry_equiv_pos_as_xyz
  1  'x, y, z'
loop_
 _atom_site_type_symbol
 _atom_site_label
 _atom_site_symmetry_multiplicity
 _atom_site_fract_x
 _atom_site_fract_y
 _atom_site_fract_z
 _atom_site_occupancy
  Gd  Gd0  1  -0.19557692  1.19557692  0.29886000  1.0
  Gd  Gd1  1  0.30442308  0.69557692  0.20114000  1.0
  Gd  Gd2  1  0.19557692  0.80442308  0.70114000  1.0
  Gd  Gd3  1  -0.30442308  1.30442308  0.79886000  1.0
  Gd  Gd4  1  0.19865765  1.19865765  0.50000000  1.0
  Gd  Gd5  1  -0.30134235  0.69865765  -0.00000000  1.0
  Gd  Gd6  1  -0.19865765  0.80134235  0.50000000  1.0
  Gd  Gd7  1  0.30134235  1.30134235  0.00000000  1.0
  Mg  Mg8  1  -0.48140174  0.98140174  0.25000000  1.0
  Mg  Mg9  1  0.01859826  1.48140174  0.25000000  1.0
  Mg  Mg10  1  -0.01859826  0.51859826  0.75000000  1.0
  Mg  Mg11  1  0.48140174  1.01859826  0.75000000  1.0
  Mg  Mg12  1  -0.50000000  0.50000000  0.50000000  1.0
  Mg  Mg13  1  0.00000000  1.00000000  -0.00000000  1.0
  Ag  Ag14  1  0.38867954  1.33045979  0.29453594  1.0
  Ag  Ag15  1  -0.11132046  0.83045979  0.20546406  1.0
  Ag  Ag16  1  0.33045979  1.38867954  0.70546406  1.0
  Ag  Ag17  1  -0.16954021  0.88867954  0.79453594  1.0
  Ag  Ag18  1  -0.33045979  0.61132046  0.29453594  1.0
  Ag  Ag19  1  0.16954021  1.11132046  0.20546406  1.0
  Ag  Ag20  1  -0.38867954  0.66954021  0.70546406  1.0
  Ag  Ag21  1  0.11132046  1.16954021  0.79453594  1.0
  Ag  Ag22  1  0.43410701  0.84494835  0.47884820  1.0
  Ag  Ag23  1  -0.06589299  1.34494835  0.02115180  1.0
  Ag  Ag24  1  -0.15505165  1.43410701  0.52115180  1.0
  Ag  Ag25  1  0.34494835  0.93410701  0.97884820  1.0
  Ag  Ag26  1  0.15505165  0.56589299  0.47884820  1.0
  Ag  Ag27  1  -0.34494835  1.06589299  0.02115180  1.0
  Ag  Ag28  1  -0.43410701  1.15505165  0.52115180  1.0
  Ag  Ag29  1  0.06589299  0.65505165  0.97884820  1.0
  Ag  Ag30  1  -0.40201559  1.40201559  0.09660413  1.0
  Ag  Ag31  1  0.09798441  0.90201559  0.40339587  1.0
  Ag  Ag32  1  0.40201559  0.59798441  0.90339587  1.0
  Ag  Ag33  1  -0.09798441  1.09798441  0.59660413  1.0
