# generated using pymatgen
data_MnSiRh
_symmetry_space_group_name_H-M   'P 1'
_cell_length_a   5.98453984
_cell_length_b   3.81210948
_cell_length_c   7.24423924
_cell_angle_alpha   90.00000000
_cell_angle_beta   90.00000000
_cell_angle_gamma   90.00000000
_symmetry_Int_Tables_number   1
_chemical_formula_structural   MnSiRh
_chemical_formula_sum   'Mn4 Si4 Rh4'
_cell_volume   165.26805312
_cell_formula_units_Z   4
loop_
 _symmetry_equiv_pos_site_id
 _symmetry_equiv_pos_as_xyz
  1  'x, y, z'
loop_
 _atom_site_type_symbol
 _atom_site_label
 _atom_site_symmetry_multiplicity
 _atom_site_fract_x
 _atom_site_fract_y
 _atom_site_fract_z
 _atom_site_occupancy
  Mn  Mn0  1  0.96916473  0.75000000  0.68197530  1.0
  Mn  Mn1  1  0.46916473  0.75000000  0.81802470  1.0
  Mn  Mn2  1  0.03083527  0.25000000  0.31802470  1.0
  Mn  Mn3  1  0.53083527  0.25000000  0.18197530  1.0
  Si  Si4  1  0.73625087  0.75000000  0.37818992  1.0
  Si  Si5  1  0.23625087  0.75000000  0.12181008  1.0
  Si  Si6  1  0.26374913  0.25000000  0.62181008  1.0
  Si  Si7  1  0.76374913  0.25000000  0.87818992  1.0
  Rh  Rh8  1  0.83861083  0.75000000  0.06451222  1.0
  Rh  Rh9  1  0.33861083  0.75000000  0.43548778  1.0
  Rh  Rh10  1  0.16138917  0.25000000  0.93548778  1.0
  Rh  Rh11  1  0.66138917  0.25000000  0.56451222  1.0
