# generated using pymatgen
data_NaSr4(SbO4)3
_symmetry_space_group_name_H-M   'P 1'
_cell_length_a   8.24485299
_cell_length_b   8.21592628
_cell_length_c   11.57200276
_cell_angle_alpha   90.00000000
_cell_angle_beta   134.56792101
_cell_angle_gamma   90.00000000
_symmetry_Int_Tables_number   1
_chemical_formula_structural   NaSr4(SbO4)3
_chemical_formula_sum   'Na2 Sr8 Sb6 O24'
_cell_volume   558.44898730
_cell_formula_units_Z   2
loop_
 _symmetry_equiv_pos_site_id
 _symmetry_equiv_pos_as_xyz
  1  'x, y, z'
loop_
 _atom_site_type_symbol
 _atom_site_label
 _atom_site_symmetry_multiplicity
 _atom_site_fract_x
 _atom_site_fract_y
 _atom_site_fract_z
 _atom_site_occupancy
  Na  Na0  1  0.00000000  -0.00000000  0.00000000  1.0
  Na  Na1  1  -0.00000000  0.50000000  0.50000000  1.0
  Sr  Sr2  1  0.45409143  0.25434202  0.72082850  1.0
  Sr  Sr3  1  0.45409143  0.24565798  0.22082850  1.0
  Sr  Sr4  1  0.54590857  0.75434202  0.77917150  1.0
  Sr  Sr5  1  0.54590857  0.74565798  0.27917150  1.0
  Sr  Sr6  1  0.96573549  0.24425701  0.73594222  1.0
  Sr  Sr7  1  0.96573549  0.25574299  0.23594222  1.0
  Sr  Sr8  1  0.03426451  0.74425701  0.76405778  1.0
  Sr  Sr9  1  0.03426451  0.75574299  0.26405778  1.0
  Sb  Sb10  1  0.50000000  0.00000000  0.50000000  1.0
  Sb  Sb11  1  0.50000000  0.50000000  -0.00000000  1.0
  Sb  Sb12  1  -0.00000000  0.00000000  0.50000000  1.0
  Sb  Sb13  1  0.00000000  0.50000000  0.00000000  1.0
  Sb  Sb14  1  0.50000000  0.00000000  -0.00000000  1.0
  Sb  Sb15  1  0.50000000  0.50000000  0.50000000  1.0
  O  O16  1  0.97924526  0.72741753  0.95394613  1.0
  O  O17  1  0.97924526  0.77258247  0.45394613  1.0
  O  O18  1  0.02075474  0.22741753  0.54605387  1.0
  O  O19  1  0.02075474  0.27258247  0.04605387  1.0
  O  O20  1  0.71213479  0.45653765  0.75109555  1.0
  O  O21  1  0.71213479  0.04346235  0.25109555  1.0
  O  O22  1  0.28786521  0.95653765  0.74890445  1.0
  O  O23  1  0.28786521  0.54346235  0.24890445  1.0
  O  O24  1  0.68983994  0.03721069  0.72702510  1.0
  O  O25  1  0.68983994  0.46278931  0.22702510  1.0
  O  O26  1  0.31016006  0.53721069  0.77297490  1.0
  O  O27  1  0.31016006  0.96278931  0.27297490  1.0
  O  O28  1  0.20825250  0.45979392  0.95790982  1.0
  O  O29  1  0.20825250  0.04020608  0.45790982  1.0
  O  O30  1  0.79174750  0.95979392  0.54209018  1.0
  O  O31  1  0.79174750  0.54020608  0.04209018  1.0
  O  O32  1  0.23842080  0.04125024  0.96422641  1.0
  O  O33  1  0.23842080  0.45874976  0.46422641  1.0
  O  O34  1  0.76157920  0.54125024  0.53577359  1.0
  O  O35  1  0.76157920  0.95874976  0.03577359  1.0
  O  O36  1  0.52211379  0.24946439  0.97021880  1.0
  O  O37  1  0.52211379  0.25053561  0.47021880  1.0
  O  O38  1  0.47788621  0.74946439  0.52978120  1.0
  O  O39  1  0.47788621  0.75053561  0.02978120  1.0
