# generated using pymatgen
data_K2Mn3H6S3O16
_symmetry_space_group_name_H-M   'P 1'
_cell_length_a   9.93601778
_cell_length_b   9.93601778
_cell_length_c   10.07749417
_cell_angle_alpha   90.00000000
_cell_angle_beta   90.00000000
_cell_angle_gamma   46.42998276
_symmetry_Int_Tables_number   1
_chemical_formula_structural   K2Mn3H6S3O16
_chemical_formula_sum   'K4 Mn6 H12 S6 O32'
_cell_volume   720.83394495
_cell_formula_units_Z   2
loop_
 _symmetry_equiv_pos_site_id
 _symmetry_equiv_pos_as_xyz
  1  'x, y, z'
loop_
 _atom_site_type_symbol
 _atom_site_label
 _atom_site_symmetry_multiplicity
 _atom_site_fract_x
 _atom_site_fract_y
 _atom_site_fract_z
 _atom_site_occupancy
  S  S0  1  -0.37467769  1.01902279  0.21574106  1.0
  S  S1  1  0.01902279  0.62532231  0.71574106  1.0
  S  S2  1  -0.01902279  0.37467769  0.21574106  1.0
  S  S3  1  -0.62532231  0.98097721  0.71574106  1.0
  S  S4  1  -0.68275271  0.68275271  0.37886270  1.0
  S  S5  1  -0.31724729  0.31724729  0.87886270  1.0
  Mn  Mn6  1  -0.12254157  0.94624571  0.48701997  1.0
  Mn  Mn7  1  -0.05375429  0.87745843  0.98701997  1.0
  Mn  Mn8  1  0.05375429  0.12254157  0.48701997  1.0
  Mn  Mn9  1  -0.87745843  1.05375429  0.98701997  1.0
  Mn  Mn10  1  -0.30375755  0.30375755  0.20526395  1.0
  Mn  Mn11  1  -0.69624245  0.69624245  0.70526395  1.0
  O  O12  1  -0.45716612  1.21508575  0.20943554  1.0
  O  O13  1  0.21508575  0.54283388  0.70943554  1.0
  O  O14  1  -0.21508575  0.45716612  0.20943554  1.0
  O  O15  1  -0.54283388  0.78491425  0.70943554  1.0
  O  O16  1  -0.23732119  0.91562759  0.32641269  1.0
  O  O17  1  -0.08437241  0.76267881  0.82641269  1.0
  O  O18  1  0.08437241  0.23732119  0.32641269  1.0
  O  O19  1  -0.76267881  1.08437241  0.82641269  1.0
  O  O20  1  -0.28346270  0.92425103  0.08516750  1.0
  O  O21  1  -0.07574897  0.71653730  0.58516750  1.0
  O  O22  1  0.07574897  0.28346270  0.08516750  1.0
  O  O23  1  -0.71653730  1.07574897  0.58516750  1.0
  O  O24  1  -0.52673100  1.02553050  0.24165113  1.0
  O  O25  1  0.02553050  0.47326900  0.74165113  1.0
  O  O26  1  -0.02553050  0.52673100  0.24165113  1.0
  O  O27  1  -0.47326900  0.97446950  0.74165113  1.0
  O  O28  1  -0.60331599  0.85898917  0.09385280  1.0
  O  O29  1  -0.14101083  0.39668401  0.59385280  1.0
  O  O30  1  0.14101083  0.60331599  0.09385280  1.0
  O  O31  1  -0.39668401  1.14101083  0.59385280  1.0
  O  O32  1  -0.72448655  0.85893061  0.37880408  1.0
  O  O33  1  -0.14106939  0.27551345  0.87880408  1.0
  O  O34  1  0.14106939  0.72448655  0.37880408  1.0
  O  O35  1  -0.27551345  1.14106939  0.87880408  1.0
  O  O36  1  -0.56625255  0.56625255  0.49669518  1.0
  O  O37  1  -0.43374745  0.43374745  -0.00330482  1.0
  O  O38  1  -0.57989805  0.57989805  0.25218206  1.0
  O  O39  1  -0.42010195  0.42010195  0.75218206  1.0
  O  O40  1  -0.19646086  0.19646086  0.40409530  1.0
  O  O41  1  -0.80353914  0.80353914  0.90409530  1.0
  O  O42  1  -0.05039535  0.05039535  0.12251813  1.0
  O  O43  1  -0.94960465  0.94960465  0.62251813  1.0
  K  K44  1  -0.35172354  0.73581671  0.43930955  1.0
  K  K45  1  -0.26418329  0.64827646  0.93930955  1.0
  K  K46  1  0.26418329  0.35172354  0.43930955  1.0
  K  K47  1  -0.64827646  1.26418329  0.93930955  1.0
  H  H48  1  -0.58492277  0.92607353  0.15285453  1.0
  H  H49  1  -0.07392647  0.41507723  0.65285453  1.0
  H  H50  1  0.07392647  0.58492277  0.15285453  1.0
  H  H51  1  -0.41507723  1.07392647  0.65285453  1.0
  H  H52  1  -0.58485955  0.76697718  0.15039090  1.0
  H  H53  1  -0.23302282  0.41514045  0.65039090  1.0
  H  H54  1  0.23302282  0.58485955  0.15039090  1.0
  H  H55  1  -0.41514045  1.23302282  0.65039090  1.0
  H  H56  1  -0.02384868  0.02384868  0.70015456  1.0
  H  H57  1  -0.97615132  0.97615132  0.20015456  1.0
  H  H58  1  -0.30312342  0.30312342  0.45494863  1.0
  H  H59  1  -0.69687658  0.69687658  0.95494863  1.0
