# generated using pymatgen
data_ScRe2
_symmetry_space_group_name_H-M   'P 1'
_cell_length_a   5.28569415
_cell_length_b   5.28569415
_cell_length_c   8.58951086
_cell_angle_alpha   90.00000000
_cell_angle_beta   90.00000000
_cell_angle_gamma   120.00000000
_symmetry_Int_Tables_number   1
_chemical_formula_structural   ScRe2
_chemical_formula_sum   'Sc4 Re8'
_cell_volume   207.82755337
_cell_formula_units_Z   4
loop_
 _symmetry_equiv_pos_site_id
 _symmetry_equiv_pos_as_xyz
  1  'x, y, z'
loop_
 _atom_site_type_symbol
 _atom_site_label
 _atom_site_symmetry_multiplicity
 _atom_site_fract_x
 _atom_site_fract_y
 _atom_site_fract_z
 _atom_site_occupancy
  Sc  Sc0  1  0.33333333  0.66666667  0.93782957  1.0
  Sc  Sc1  1  0.33333333  0.66666667  0.56217043  1.0
  Sc  Sc2  1  0.66666667  0.33333333  0.43782957  1.0
  Sc  Sc3  1  0.66666667  0.33333333  0.06217043  1.0
  Re  Re4  1  0.00000000  0.00000000  0.50000000  1.0
  Re  Re5  1  0.00000000  0.00000000  0.00000000  1.0
  Re  Re6  1  0.17162914  0.82837086  0.25000000  1.0
  Re  Re7  1  0.17162914  0.34325829  0.25000000  1.0
  Re  Re8  1  0.82837086  0.17162914  0.75000000  1.0
  Re  Re9  1  0.82837086  0.65674171  0.75000000  1.0
  Re  Re10  1  0.65674171  0.82837086  0.25000000  1.0
  Re  Re11  1  0.34325829  0.17162914  0.75000000  1.0
