# generated using pymatgen
data_Sr4Hf3O10
_symmetry_space_group_name_H-M   'P 1'
_cell_length_a   14.92840305
_cell_length_b   14.92840305
_cell_length_c   14.92840305
_cell_angle_alpha   164.06906210
_cell_angle_beta   164.06906210
_cell_angle_gamma   22.60353875
_symmetry_Int_Tables_number   1
_chemical_formula_structural   Sr4Hf3O10
_chemical_formula_sum   'Sr4 Hf3 O10'
_cell_volume   250.59558932
_cell_formula_units_Z   1
loop_
 _symmetry_equiv_pos_site_id
 _symmetry_equiv_pos_as_xyz
  1  'x, y, z'
loop_
 _atom_site_type_symbol
 _atom_site_label
 _atom_site_symmetry_multiplicity
 _atom_site_fract_x
 _atom_site_fract_y
 _atom_site_fract_z
 _atom_site_occupancy
  Sr  Sr0  1  0.70444592  0.70444592  1.00000000  1.0
  Sr  Sr1  1  0.29555408  0.29555408  0.00000000  1.0
  Sr  Sr2  1  0.56972285  0.56972285  1.00000000  1.0
  Sr  Sr3  1  0.43027715  0.43027715  0.00000000  1.0
  Hf  Hf4  1  0.85751777  0.85751777  1.00000000  1.0
  Hf  Hf5  1  0.14248223  0.14248223  0.00000000  1.0
  Hf  Hf6  1  0.00000000  0.00000000  0.00000000  1.0
  O  O7  1  0.35888204  0.85888204  0.50000000  1.0
  O  O8  1  0.64111796  0.14111796  0.50000000  1.0
  O  O9  1  0.85888204  0.35888204  0.50000000  1.0
  O  O10  1  0.14111796  0.64111796  0.50000000  1.0
  O  O11  1  0.92921720  0.92921720  1.00000000  1.0
  O  O12  1  0.07078280  0.07078280  0.00000000  1.0
  O  O13  1  0.78670786  0.78670786  1.00000000  1.0
  O  O14  1  0.21329214  0.21329214  0.00000000  1.0
  O  O15  1  0.50000000  0.00000000  0.50000000  1.0
  O  O16  1  0.00000000  0.50000000  0.50000000  1.0
