# generated using pymatgen
data_SiO2
_symmetry_space_group_name_H-M   'P 1'
_cell_length_a   12.07636929
_cell_length_b   12.07636929
_cell_length_c   12.07636929
_cell_angle_alpha   152.13229437
_cell_angle_beta   152.13229437
_cell_angle_gamma   39.82014012
_symmetry_Int_Tables_number   1
_chemical_formula_structural   SiO2
_chemical_formula_sum   'Si8 O16'
_cell_volume   384.07937504
_cell_formula_units_Z   8
loop_
 _symmetry_equiv_pos_site_id
 _symmetry_equiv_pos_as_xyz
  1  'x, y, z'
loop_
 _atom_site_type_symbol
 _atom_site_label
 _atom_site_symmetry_multiplicity
 _atom_site_fract_x
 _atom_site_fract_y
 _atom_site_fract_z
 _atom_site_occupancy
  Si  Si0  1  0.43459895  0.81288420  1.12445486  1.0
  Si  Si1  1  0.68842934  0.31014409  0.87554514  1.0
  Si  Si2  1  0.31540105  0.93985591  0.87828525  1.0
  Si  Si3  1  1.06157066  0.43711580  1.12171475  1.0
  Si  Si4  1  0.68985591  1.31157066  1.12445486  1.0
  Si  Si5  1  1.18711580  0.56540105  0.87554514  1.0
  Si  Si6  1  0.56288420  0.93842934  0.87828525  1.0
  Si  Si7  1  1.06014409  0.68459895  1.12171475  1.0
  O  O8  1  0.37500000  0.86059363  0.98559363  1.0
  O  O9  1  0.87500000  0.38940637  1.01440637  1.0
  O  O10  1  0.61059363  1.12500000  0.98559363  1.0
  O  O11  1  1.13940637  0.62500000  1.01440637  1.0
  O  O12  1  0.55801448  0.55801448  1.00000000  1.0
  O  O13  1  0.19198552  0.69198552  0.50000000  1.0
  O  O14  1  0.44198552  0.44198552  0.00000000  1.0
  O  O15  1  0.30801448  0.80801448  0.50000000  1.0
  O  O16  1  0.56427572  0.06427572  0.50000000  1.0
  O  O17  1  0.18572428  0.18572428  -0.00000000  1.0
  O  O18  1  0.93572428  0.43572428  0.50000000  1.0
  O  O19  1  0.81427572  0.81427572  1.00000000  1.0
  O  O20  1  0.77440805  0.22559195  1.00000000  1.0
  O  O21  1  0.22559195  0.77440805  1.00000000  1.0
  O  O22  1  0.97559195  0.47559195  0.95118389  1.0
  O  O23  1  0.52440805  1.02440805  1.04881611  1.0
