# generated using pymatgen
data_Na3Ca3GaP4
_symmetry_space_group_name_H-M   'P 1'
_cell_length_a   9.21304358
_cell_length_b   9.21304358
_cell_length_c   7.02638189
_cell_angle_alpha   90.00000000
_cell_angle_beta   90.00000000
_cell_angle_gamma   120.00000000
_symmetry_Int_Tables_number   1
_chemical_formula_structural   Na3Ca3GaP4
_chemical_formula_sum   'Na6 Ca6 Ga2 P8'
_cell_volume   516.49798667
_cell_formula_units_Z   2
loop_
 _symmetry_equiv_pos_site_id
 _symmetry_equiv_pos_as_xyz
  1  'x, y, z'
loop_
 _atom_site_type_symbol
 _atom_site_label
 _atom_site_symmetry_multiplicity
 _atom_site_fract_x
 _atom_site_fract_y
 _atom_site_fract_z
 _atom_site_occupancy
  Na  Na0  1  0.86328174  0.72656347  0.55327124  1.0
  Na  Na1  1  0.27343653  0.13671826  0.55327124  1.0
  Na  Na2  1  0.86328174  0.13671826  0.55327124  1.0
  Na  Na3  1  0.13671826  0.27343653  0.05327124  1.0
  Na  Na4  1  0.72656347  0.86328174  0.05327124  1.0
  Na  Na5  1  0.13671826  0.86328174  0.05327124  1.0
  Ca  Ca6  1  0.47513868  0.95027736  0.72739877  1.0
  Ca  Ca7  1  0.04972264  0.52486132  0.72739877  1.0
  Ca  Ca8  1  0.47513868  0.52486132  0.72739877  1.0
  Ca  Ca9  1  0.52486132  0.04972264  0.22739877  1.0
  Ca  Ca10  1  0.95027736  0.47513868  0.22739877  1.0
  Ca  Ca11  1  0.52486132  0.47513868  0.22739877  1.0
  Ga  Ga12  1  0.66666667  0.33333333  0.84872636  1.0
  Ga  Ga13  1  0.33333333  0.66666667  0.34872636  1.0
  P  P14  1  0.80882232  0.61764464  0.95626441  1.0
  P  P15  1  0.38235536  0.19117768  0.95626441  1.0
  P  P16  1  0.80882232  0.19117768  0.95626441  1.0
  P  P17  1  0.19117768  0.38235536  0.45626441  1.0
  P  P18  1  0.61764464  0.80882232  0.45626441  1.0
  P  P19  1  0.19117768  0.80882232  0.45626441  1.0
  P  P20  1  0.66666667  0.33333333  0.49757041  1.0
  P  P21  1  0.33333333  0.66666667  -0.00242959  1.0
