# generated using pymatgen
data_Ca7Si6H4CO23
_symmetry_space_group_name_H-M   'P 1'
_cell_length_a   9.45713492
_cell_length_b   9.45713492
_cell_length_c   6.68248649
_cell_angle_alpha   75.40399447
_cell_angle_beta   104.59600553
_cell_angle_gamma   71.85085785
_symmetry_Int_Tables_number   1
_chemical_formula_structural   Ca7Si6H4CO23
_chemical_formula_sum   'Ca7 Si6 H4 C1 O23'
_cell_volume   512.87829601
_cell_formula_units_Z   1
loop_
 _symmetry_equiv_pos_site_id
 _symmetry_equiv_pos_as_xyz
  1  'x, y, z'
loop_
 _atom_site_type_symbol
 _atom_site_label
 _atom_site_symmetry_multiplicity
 _atom_site_fract_x
 _atom_site_fract_y
 _atom_site_fract_z
 _atom_site_occupancy
  Ca  Ca0  1  0.99760103  -0.99760103  0.46150026  1.0
  Ca  Ca1  1  1.05654326  0.67414190  0.00121875  1.0
  Ca  Ca2  1  0.32585810  -0.05654326  0.00121875  1.0
  Ca  Ca3  1  0.73870864  -0.23859805  0.48676983  1.0
  Ca  Ca4  1  1.23859805  0.26129136  0.48676983  1.0
  Ca  Ca5  1  1.62411418  0.08295516  0.97579923  1.0
  Ca  Ca6  1  0.91704484  -0.62411418  0.97579923  1.0
  Si  Si7  1  1.61166273  0.17998795  0.42277700  1.0
  Si  Si8  1  0.82001205  -0.61166273  0.42277700  1.0
  Si  Si9  1  1.30944079  0.33753643  0.98398618  1.0
  Si  Si10  1  0.66246357  -0.30944079  0.98398618  1.0
  Si  Si11  1  1.15946804  0.63107749  0.55512638  1.0
  Si  Si12  1  0.36892251  -0.15946804  0.55512638  1.0
  H  H13  1  0.34778268  -0.34778268  0.29057577  1.0
  H  H14  1  0.42956419  -0.42956419  0.14491601  1.0
  H  H15  1  0.66297602  -0.66297602  0.70685158  1.0
  H  H16  1  0.57302650  -0.57302650  0.84201562  1.0
  C  C17  1  -0.00007457  0.00007457  0.00048758  1.0
  O  O18  1  1.72703078  0.03044110  0.38166921  1.0
  O  O19  1  0.96955890  -0.72703078  0.38166921  1.0
  O  O20  1  0.71818885  -0.71818885  0.50548587  1.0
  O  O21  1  1.48052580  0.30159945  0.17290842  1.0
  O  O22  1  0.69840055  -0.48052580  0.17290842  1.0
  O  O23  1  1.52385937  0.14991329  0.59658149  1.0
  O  O24  1  0.85008671  -0.52385937  0.59658149  1.0
  O  O25  1  1.33518035  0.19190130  0.88979700  1.0
  O  O26  1  0.80809870  -0.33518035  0.88979700  1.0
  O  O27  1  1.16558852  0.38079106  0.07827688  1.0
  O  O28  1  0.61920894  -0.16558852  0.07827688  1.0
  O  O29  1  1.29559437  0.49698635  0.79372984  1.0
  O  O30  1  0.50301365  -0.29559437  0.79372984  1.0
  O  O31  1  1.12723852  0.54705961  0.37730596  1.0
  O  O32  1  0.45294039  -0.12723852  0.37730596  1.0
  O  O33  1  1.01025681  0.73651399  0.60650124  1.0
  O  O34  1  0.26348601  -0.01025681  0.60650124  1.0
  O  O35  1  0.24466078  -0.24466078  0.46548576  1.0
  O  O36  1  0.90261554  -0.04935403  0.07179589  1.0
  O  O37  1  1.04935403  0.09738446  0.07179589  1.0
  O  O38  1  0.05796609  -0.05796609  0.86749222  1.0
  O  O39  1  0.33962803  -0.33962803  0.13795393  1.0
  O  O40  1  0.66520570  -0.66520570  0.85854875  1.0
