# generated using pymatgen
data_Cs2MoO4
_symmetry_space_group_name_H-M   'P 1'
_cell_length_a   14.40145265
_cell_length_b   6.84740232
_cell_length_c   8.30884521
_cell_angle_alpha   90.00000000
_cell_angle_beta   90.00000000
_cell_angle_gamma   90.00000000
_symmetry_Int_Tables_number   1
_chemical_formula_structural   Cs2MoO4
_chemical_formula_sum   'Cs8 Mo4 O16'
_cell_volume   819.35633294
_cell_formula_units_Z   4
loop_
 _symmetry_equiv_pos_site_id
 _symmetry_equiv_pos_as_xyz
  1  'x, y, z'
loop_
 _atom_site_type_symbol
 _atom_site_label
 _atom_site_symmetry_multiplicity
 _atom_site_fract_x
 _atom_site_fract_y
 _atom_site_fract_z
 _atom_site_occupancy
  Cs  Cs0  1  0.66742583  0.25000000  1.10358822  1.0
  Cs  Cs1  1  0.83257417  0.75000000  0.60358822  1.0
  Cs  Cs2  1  0.16742583  0.25000000  0.39641178  1.0
  Cs  Cs3  1  0.33257417  0.75000000  -0.10358822  1.0
  Cs  Cs4  1  0.54920241  0.25000000  0.64611145  1.0
  Cs  Cs5  1  -0.04920241  0.75000000  0.14611145  1.0
  Cs  Cs6  1  1.04920241  0.25000000  0.85388855  1.0
  Cs  Cs7  1  0.45079759  0.75000000  0.35388855  1.0
  Mo  Mo8  1  0.39485654  0.25000000  0.14984855  1.0
  Mo  Mo9  1  0.10514346  0.75000000  0.64984855  1.0
  Mo  Mo10  1  0.89485654  0.25000000  0.35015145  1.0
  Mo  Mo11  1  0.60514346  0.75000000  0.85015145  1.0
  O  O12  1  0.48730942  0.25000000  0.29489715  1.0
  O  O13  1  1.01269058  0.75000000  0.79489715  1.0
  O  O14  1  -0.01269058  0.25000000  0.20510285  1.0
  O  O15  1  0.51269058  0.75000000  0.70510285  1.0
  O  O16  1  0.32495052  0.03828898  0.18135723  1.0
  O  O17  1  0.17504948  0.96171102  0.68135723  1.0
  O  O18  1  0.82495052  0.46171102  0.31864277  1.0
  O  O19  1  0.67504948  0.53828898  0.81864277  1.0
  O  O20  1  0.67504948  0.96171102  0.81864277  1.0
  O  O21  1  0.82495052  0.03828898  0.31864277  1.0
  O  O22  1  0.17504948  0.53828898  0.68135723  1.0
  O  O23  1  0.32495052  0.46171102  0.18135723  1.0
  O  O24  1  0.44170698  0.25000000  -0.04780967  1.0
  O  O25  1  0.05829302  0.75000000  0.45219033  1.0
  O  O26  1  0.94170698  0.25000000  0.54780967  1.0
  O  O27  1  0.55829302  0.75000000  1.04780967  1.0
