# generated using pymatgen
data_Ca3(GaP2)2
_symmetry_space_group_name_H-M   'P 1'
_cell_length_a   8.03260615
_cell_length_b   8.03260615
_cell_length_c   6.48365113
_cell_angle_alpha   90.88657077
_cell_angle_beta   89.11342923
_cell_angle_gamma   103.99756141
_symmetry_Int_Tables_number   1
_chemical_formula_structural   Ca3(GaP2)2
_chemical_formula_sum   'Ca6 Ga4 P8'
_cell_volume   405.84254396
_cell_formula_units_Z   2
loop_
 _symmetry_equiv_pos_site_id
 _symmetry_equiv_pos_as_xyz
  1  'x, y, z'
loop_
 _atom_site_type_symbol
 _atom_site_label
 _atom_site_symmetry_multiplicity
 _atom_site_fract_x
 _atom_site_fract_y
 _atom_site_fract_z
 _atom_site_occupancy
  Ca  Ca0  1  0.75151279  -0.00491864  0.97594438  1.0
  Ca  Ca1  1  1.00491864  0.24848721  0.47594438  1.0
  Ca  Ca2  1  0.99508136  -0.24848721  0.52405562  1.0
  Ca  Ca3  1  1.24848721  0.00491864  0.02405562  1.0
  Ca  Ca4  1  1.39979743  0.39979743  0.75000000  1.0
  Ca  Ca5  1  0.60020257  -0.39979743  0.25000000  1.0
  Ga  Ga6  1  0.41919615  -0.17558273  0.59235724  1.0
  Ga  Ga7  1  1.17558273  0.58080385  0.09235724  1.0
  Ga  Ga8  1  0.82441727  -0.58080385  0.90764276  1.0
  Ga  Ga9  1  1.58080385  0.17558273  0.40764276  1.0
  P  P10  1  1.28426813  0.05864582  0.52204795  1.0
  P  P11  1  0.94135418  -0.28426813  0.02204795  1.0
  P  P12  1  1.05864582  0.28426813  0.97795205  1.0
  P  P13  1  0.71573187  -0.05864582  0.47795205  1.0
  P  P14  1  0.43557355  -0.25769263  0.93985974  1.0
  P  P15  1  1.25769263  0.56442645  0.43985974  1.0
  P  P16  1  0.74230737  -0.56442645  0.56014026  1.0
  P  P17  1  1.56442645  0.25769263  0.06014026  1.0
