# generated using pymatgen
data_KCrH4(C2O5)2
_symmetry_space_group_name_H-M   'P 1'
_cell_length_a   4.93902391
_cell_length_b   4.93902391
_cell_length_c   10.12773858
_cell_angle_alpha   89.84149029
_cell_angle_beta   90.15850971
_cell_angle_gamma   86.67049747
_symmetry_Int_Tables_number   1
_chemical_formula_structural   KCrH4(C2O5)2
_chemical_formula_sum   'K1 Cr1 H4 C4 O10'
_cell_volume   246.63659850
_cell_formula_units_Z   1
loop_
 _symmetry_equiv_pos_site_id
 _symmetry_equiv_pos_as_xyz
  1  'x, y, z'
loop_
 _atom_site_type_symbol
 _atom_site_label
 _atom_site_symmetry_multiplicity
 _atom_site_fract_x
 _atom_site_fract_y
 _atom_site_fract_z
 _atom_site_occupancy
  K  K0  1  0.00000000  0.00000000  0.00000000  1.0
  Cr  Cr1  1  0.50000000  -0.50000000  0.50000000  1.0
  H  H2  1  0.95500564  -0.72712478  0.59851751  1.0
  H  H3  1  1.72712478  0.04499436  0.59851751  1.0
  H  H4  1  1.04499436  0.72712478  0.40148249  1.0
  H  H5  1  0.27287522  -0.04499436  0.40148249  1.0
  C  C6  1  1.26077254  0.52248114  0.75190160  1.0
  C  C7  1  0.47751886  -0.26077254  0.75190160  1.0
  C  C8  1  0.73922746  -0.52248114  0.24809840  1.0
  C  C9  1  1.52248114  0.26077254  0.24809840  1.0
  O  O10  1  1.25142276  0.38766496  0.64039956  1.0
  O  O11  1  0.61233504  -0.25142276  0.64039956  1.0
  O  O12  1  0.74857724  -0.38766496  0.35960044  1.0
  O  O13  1  1.38766496  0.25142276  0.35960044  1.0
  O  O14  1  1.11425421  0.49015083  0.84750869  1.0
  O  O15  1  0.50984917  -0.11425421  0.84750869  1.0
  O  O16  1  0.88574579  -0.49015083  0.15249131  1.0
  O  O17  1  1.49015083  0.11425421  0.15249131  1.0
  O  O18  1  0.78326346  -0.78326346  0.55648649  1.0
  O  O19  1  0.21673654  -0.21673654  0.44351351  1.0
