# generated using pymatgen
data_KSeO2F
_symmetry_space_group_name_H-M   'P 1'
_cell_length_a   4.56159829
_cell_length_b   6.16772723
_cell_length_c   7.42124407
_cell_angle_alpha   90.00000000
_cell_angle_beta   108.73380532
_cell_angle_gamma   90.00000000
_symmetry_Int_Tables_number   1
_chemical_formula_structural   KSeO2F
_chemical_formula_sum   'K2 Se2 O4 F2'
_cell_volume   197.73269974
_cell_formula_units_Z   2
loop_
 _symmetry_equiv_pos_site_id
 _symmetry_equiv_pos_as_xyz
  1  'x, y, z'
loop_
 _atom_site_type_symbol
 _atom_site_label
 _atom_site_symmetry_multiplicity
 _atom_site_fract_x
 _atom_site_fract_y
 _atom_site_fract_z
 _atom_site_occupancy
  K  K0  1  0.66432171  0.75000000  0.32566354  1.0
  K  K1  1  0.33567829  0.25000000  0.67433646  1.0
  Se  Se2  1  0.91820640  0.75000000  0.83995010  1.0
  Se  Se3  1  0.08179360  0.25000000  0.16004990  1.0
  O  O4  1  0.84973100  0.96661344  0.69907925  1.0
  O  O5  1  0.84973100  0.53338656  0.69907925  1.0
  O  O6  1  0.15026900  0.46661344  0.30092075  1.0
  O  O7  1  0.15026900  0.03338656  0.30092075  1.0
  F  F8  1  0.36653145  0.75000000  0.91676774  1.0
  F  F9  1  0.63346855  0.25000000  0.08323226  1.0
