# generated using pymatgen
data_LiMgVO4
_symmetry_space_group_name_H-M   'P 1'
_cell_length_a   5.17616134
_cell_length_b   5.17616134
_cell_length_c   6.28056399
_cell_angle_alpha   90.00000000
_cell_angle_beta   90.00000000
_cell_angle_gamma   113.46090934
_symmetry_Int_Tables_number   1
_chemical_formula_structural   LiMgVO4
_chemical_formula_sum   'Li2 Mg2 V2 O8'
_cell_volume   154.36212735
_cell_formula_units_Z   2
loop_
 _symmetry_equiv_pos_site_id
 _symmetry_equiv_pos_as_xyz
  1  'x, y, z'
loop_
 _atom_site_type_symbol
 _atom_site_label
 _atom_site_symmetry_multiplicity
 _atom_site_fract_x
 _atom_site_fract_y
 _atom_site_fract_z
 _atom_site_occupancy
  Li  Li0  1  -0.33799355  1.33799355  0.25000000  1.0
  Li  Li1  1  0.33799355  0.66200645  0.75000000  1.0
  Mg  Mg2  1  0.00000000  0.00000000  0.50000000  1.0
  Mg  Mg3  1  0.00000000  0.00000000  0.00000000  1.0
  V  V4  1  0.35456681  0.64543319  0.25000000  1.0
  V  V5  1  -0.35456681  1.35456681  0.75000000  1.0
  O  O6  1  0.23481965  0.27591622  0.25000000  1.0
  O  O7  1  -0.72408378  1.23481965  0.75000000  1.0
  O  O8  1  0.72408378  0.76518035  0.25000000  1.0
  O  O9  1  -0.23481965  1.72408378  0.75000000  1.0
  O  O10  1  0.24136686  0.75863314  0.46958507  1.0
  O  O11  1  0.24136686  0.75863314  0.03041493  1.0
  O  O12  1  -0.24136686  1.24136686  0.96958507  1.0
  O  O13  1  -0.24136686  1.24136686  0.53041493  1.0
