# generated using pymatgen
data_BaLi2MnV2O8
_symmetry_space_group_name_H-M   'P 1'
_cell_length_a   5.29638525
_cell_length_b   5.29638525
_cell_length_c   7.28571552
_cell_angle_alpha   90.00000000
_cell_angle_beta   90.00000000
_cell_angle_gamma   120.00000000
_symmetry_Int_Tables_number   1
_chemical_formula_structural   BaLi2MnV2O8
_chemical_formula_sum   'Ba1 Li2 Mn1 V2 O8'
_cell_volume   176.99539865
_cell_formula_units_Z   1
loop_
 _symmetry_equiv_pos_site_id
 _symmetry_equiv_pos_as_xyz
  1  'x, y, z'
loop_
 _atom_site_type_symbol
 _atom_site_label
 _atom_site_symmetry_multiplicity
 _atom_site_fract_x
 _atom_site_fract_y
 _atom_site_fract_z
 _atom_site_occupancy
  Ba  Ba0  1  0.00000000  0.00000000  0.00000000  1.0
  Li  Li1  1  0.33333333  0.66666667  0.73565782  1.0
  Li  Li2  1  0.66666667  0.33333333  0.26434218  1.0
  Mn  Mn3  1  0.00000000  0.00000000  0.50000000  1.0
  V  V4  1  0.33333333  0.66666667  0.24867331  1.0
  V  V5  1  0.66666667  0.33333333  0.75132669  1.0
  O  O6  1  0.29967156  0.96255477  0.31834589  1.0
  O  O7  1  0.96255477  0.66288322  0.68165411  1.0
  O  O8  1  0.66288322  0.70032844  0.31834589  1.0
  O  O9  1  0.03744523  0.33711678  0.31834589  1.0
  O  O10  1  0.70032844  0.03744523  0.68165411  1.0
  O  O11  1  0.33711678  0.29967156  0.68165411  1.0
  O  O12  1  0.33333333  0.66666667  0.01471318  1.0
  O  O13  1  0.66666667  0.33333333  0.98528682  1.0
