# generated using pymatgen
data_Sr3Ta5O15
_symmetry_space_group_name_H-M   'P 1'
_cell_length_a   12.57058262
_cell_length_b   12.57058262
_cell_length_c   3.97368166
_cell_angle_alpha   90.00000000
_cell_angle_beta   90.00000000
_cell_angle_gamma   90.00000000
_symmetry_Int_Tables_number   1
_chemical_formula_structural   Sr3Ta5O15
_chemical_formula_sum   'Sr6 Ta10 O30'
_cell_volume   627.91937739
_cell_formula_units_Z   2
loop_
 _symmetry_equiv_pos_site_id
 _symmetry_equiv_pos_as_xyz
  1  'x, y, z'
loop_
 _atom_site_type_symbol
 _atom_site_label
 _atom_site_symmetry_multiplicity
 _atom_site_fract_x
 _atom_site_fract_y
 _atom_site_fract_z
 _atom_site_occupancy
  Sr  Sr0  1  0.83692216  0.66307784  0.50000000  1.0
  Sr  Sr1  1  0.33692216  0.83692216  0.50000000  1.0
  Sr  Sr2  1  0.16307784  0.33692216  0.50000000  1.0
  Sr  Sr3  1  0.66307784  0.16307784  0.50000000  1.0
  Sr  Sr4  1  0.50000000  0.50000000  0.50000000  1.0
  Sr  Sr5  1  0.00000000  0.00000000  0.50000000  1.0
  Ta  Ta6  1  0.29032101  0.58076220  -0.00000000  1.0
  Ta  Ta7  1  0.79032101  0.91923780  0.00000000  1.0
  Ta  Ta8  1  0.41923780  0.29032101  -0.00000000  1.0
  Ta  Ta9  1  0.91923780  0.20967899  -0.00000000  1.0
  Ta  Ta10  1  0.70967899  0.41923780  -0.00000000  1.0
  Ta  Ta11  1  0.20967899  0.08076220  0.00000000  1.0
  Ta  Ta12  1  0.58076220  0.70967899  -0.00000000  1.0
  Ta  Ta13  1  0.08076220  0.79032101  -0.00000000  1.0
  Ta  Ta14  1  0.50000000  0.00000000  0.00000000  1.0
  Ta  Ta15  1  0.00000000  0.50000000  0.00000000  1.0
  O  O16  1  0.29456614  0.58262778  0.50000000  1.0
  O  O17  1  0.79456614  0.91737222  0.50000000  1.0
  O  O18  1  0.41737222  0.29456614  0.50000000  1.0
  O  O19  1  0.91737222  0.20543386  0.50000000  1.0
  O  O20  1  0.70543386  0.41737222  0.50000000  1.0
  O  O21  1  0.20543386  0.08262778  0.50000000  1.0
  O  O22  1  0.58262778  0.70543386  0.50000000  1.0
  O  O23  1  0.08262778  0.79456614  0.50000000  1.0
  O  O24  1  0.49223799  0.84130665  -0.00000000  1.0
  O  O25  1  0.99223799  0.65869335  0.00000000  1.0
  O  O26  1  0.15869335  0.49223799  0.00000000  1.0
  O  O27  1  0.65869335  0.00776201  -0.00000000  1.0
  O  O28  1  0.50776201  0.15869335  -0.00000000  1.0
  O  O29  1  0.00776201  0.34130665  0.00000000  1.0
  O  O30  1  0.84130665  0.50776201  0.00000000  1.0
  O  O31  1  0.34130665  0.99223799  -0.00000000  1.0
  O  O32  1  0.43776443  0.63633055  0.00000000  1.0
  O  O33  1  0.93776443  0.86366945  -0.00000000  1.0
  O  O34  1  0.36366945  0.43776443  -0.00000000  1.0
  O  O35  1  0.86366945  0.06223557  0.00000000  1.0
  O  O36  1  0.56223557  0.36366945  0.00000000  1.0
  O  O37  1  0.06223557  0.13633055  -0.00000000  1.0
  O  O38  1  0.63633055  0.56223557  -0.00000000  1.0
  O  O39  1  0.13633055  0.93776443  0.00000000  1.0
  O  O40  1  0.26971395  0.23028605  0.00000000  1.0
  O  O41  1  0.76971395  0.26971395  -0.00000000  1.0
  O  O42  1  0.73028605  0.76971395  0.00000000  1.0
  O  O43  1  0.23028605  0.73028605  -0.00000000  1.0
  O  O44  1  0.50000000  0.00000000  0.50000000  1.0
  O  O45  1  0.00000000  0.50000000  0.50000000  1.0
