# generated using pymatgen
data_Ta3SeI7
_symmetry_space_group_name_H-M   'P 1'
_cell_length_a   7.63126345
_cell_length_b   7.63126345
_cell_length_c   14.56468835
_cell_angle_alpha   90.00000000
_cell_angle_beta   90.00000000
_cell_angle_gamma   120.00000000
_symmetry_Int_Tables_number   1
_chemical_formula_structural   Ta3SeI7
_chemical_formula_sum   'Ta6 Se2 I14'
_cell_volume   734.55568086
_cell_formula_units_Z   2
loop_
 _symmetry_equiv_pos_site_id
 _symmetry_equiv_pos_as_xyz
  1  'x, y, z'
loop_
 _atom_site_type_symbol
 _atom_site_label
 _atom_site_symmetry_multiplicity
 _atom_site_fract_x
 _atom_site_fract_y
 _atom_site_fract_z
 _atom_site_occupancy
  Ta  Ta0  1  0.74077338  0.87038669  0.13777407  1.0
  Ta  Ta1  1  0.87038669  0.74077338  0.63777407  1.0
  Ta  Ta2  1  0.87038669  0.12961331  0.63777407  1.0
  Ta  Ta3  1  0.12961331  0.87038669  0.13777407  1.0
  Ta  Ta4  1  0.12961331  0.25922662  0.13777407  1.0
  Ta  Ta5  1  0.25922662  0.12961331  0.63777407  1.0
  Se  Se6  1  0.00000000  0.00000000  0.00784381  1.0
  Se  Se7  1  -0.00000000  -0.00000000  0.50784381  1.0
  I  I8  1  0.99517996  0.49758998  0.03198541  1.0
  I  I9  1  0.49758998  0.99517996  0.53198541  1.0
  I  I10  1  0.49758998  0.50241002  0.53198541  1.0
  I  I11  1  0.50241002  0.49758998  0.03198541  1.0
  I  I12  1  0.50241002  0.00482004  0.03198541  1.0
  I  I13  1  0.00482004  0.50241002  0.53198541  1.0
  I  I14  1  0.33643542  0.16821771  0.26688920  1.0
  I  I15  1  0.16821771  0.33643542  0.76688920  1.0
  I  I16  1  0.16821771  0.83178229  0.76688920  1.0
  I  I17  1  0.83178229  0.16821771  0.26688920  1.0
  I  I18  1  0.83178229  0.66356458  0.26688920  1.0
  I  I19  1  0.66356458  0.83178229  0.76688920  1.0
  I  I20  1  0.33333333  0.66666667  0.23591016  1.0
  I  I21  1  0.66666667  0.33333333  0.73591016  1.0
