# generated using pymatgen
data_Li2PS4
_symmetry_space_group_name_H-M   'P 1'
_cell_length_a   8.78555512
_cell_length_b   9.18340961
_cell_length_c   8.36504614
_cell_angle_alpha   90.00000000
_cell_angle_beta   90.00000000
_cell_angle_gamma   90.00000000
_symmetry_Int_Tables_number   1
_chemical_formula_structural   Li2PS4
_chemical_formula_sum   'Li8 P4 S16'
_cell_volume   674.90322551
_cell_formula_units_Z   4
loop_
 _symmetry_equiv_pos_site_id
 _symmetry_equiv_pos_as_xyz
  1  'x, y, z'
loop_
 _atom_site_type_symbol
 _atom_site_label
 _atom_site_symmetry_multiplicity
 _atom_site_fract_x
 _atom_site_fract_y
 _atom_site_fract_z
 _atom_site_occupancy
  Li  Li0  1  0.21321997  0.14179565  0.95235455  1.0
  Li  Li1  1  0.21321997  0.85820435  0.45235455  1.0
  Li  Li2  1  0.71321997  0.64179565  0.54764545  1.0
  Li  Li3  1  0.71321997  0.35820435  0.04764545  1.0
  Li  Li4  1  0.78678003  0.14179565  0.54764545  1.0
  Li  Li5  1  0.78678003  0.85820435  0.04764545  1.0
  Li  Li6  1  0.28678003  0.64179565  0.95235455  1.0
  Li  Li7  1  0.28678003  0.35820435  0.45235455  1.0
  P  P8  1  0.50000000  0.37706954  0.75000000  1.0
  P  P9  1  0.50000000  0.62293046  0.25000000  1.0
  P  P10  1  0.00000000  0.87706954  0.75000000  1.0
  P  P11  1  0.00000000  0.12293046  0.25000000  1.0
  S  S12  1  0.52902753  0.24914689  0.55129524  1.0
  S  S13  1  0.52902753  0.75085311  0.05129524  1.0
  S  S14  1  1.02902753  0.74914689  0.94870476  1.0
  S  S15  1  1.02902753  0.25085311  0.44870476  1.0
  S  S16  1  0.47097247  0.24914689  0.94870476  1.0
  S  S17  1  0.47097247  0.75085311  0.44870476  1.0
  S  S18  1  -0.02902753  0.74914689  0.55129524  1.0
  S  S19  1  -0.02902753  0.25085311  0.05129524  1.0
  S  S20  1  0.31060539  0.50028076  0.70469668  1.0
  S  S21  1  0.31060539  0.49971924  0.20469668  1.0
  S  S22  1  0.81060539  1.00028076  0.79530332  1.0
  S  S23  1  0.81060539  -0.00028076  0.29530332  1.0
  S  S24  1  0.68939461  0.50028076  0.79530332  1.0
  S  S25  1  0.68939461  0.49971924  0.29530332  1.0
  S  S26  1  0.18939461  1.00028076  0.70469668  1.0
  S  S27  1  0.18939461  -0.00028076  0.20469668  1.0
