# generated using pymatgen
data_PbO
_symmetry_space_group_name_H-M   'P 1'
_cell_length_a   5.53989900
_cell_length_b   5.74996398
_cell_length_c   46.00162711
_cell_angle_alpha   90.00000000
_cell_angle_beta   90.00000000
_cell_angle_gamma   90.00000000
_symmetry_Int_Tables_number   1
_chemical_formula_structural   PbO
_chemical_formula_sum   'Pb32 O32'
_cell_volume   1465.34593636
_cell_formula_units_Z   32
loop_
 _symmetry_equiv_pos_site_id
 _symmetry_equiv_pos_as_xyz
  1  'x, y, z'
loop_
 _atom_site_type_symbol
 _atom_site_label
 _atom_site_symmetry_multiplicity
 _atom_site_fract_x
 _atom_site_fract_y
 _atom_site_fract_z
 _atom_site_occupancy
  Pb  Pb0  1  0.78489324  0.74436273  0.87499673  1.0
  Pb  Pb1  1  0.78489324  0.74436273  0.62500327  1.0
  Pb  Pb2  1  0.78489324  0.75563727  0.37499673  1.0
  Pb  Pb3  1  0.78489324  0.75563727  0.12500327  1.0
  Pb  Pb4  1  0.21510676  0.24436273  0.87499673  1.0
  Pb  Pb5  1  0.21510676  0.24436273  0.62500327  1.0
  Pb  Pb6  1  0.21510676  0.25563727  0.37499673  1.0
  Pb  Pb7  1  0.21510676  0.25563727  0.12500327  1.0
  Pb  Pb8  1  0.78488552  0.25028656  0.81250115  1.0
  Pb  Pb9  1  0.78488552  0.25028656  0.68749885  1.0
  Pb  Pb10  1  0.78488552  0.24971344  0.31250115  1.0
  Pb  Pb11  1  0.78488552  0.24971344  0.18749885  1.0
  Pb  Pb12  1  0.21511448  0.75028656  0.81250115  1.0
  Pb  Pb13  1  0.21511448  0.75028656  0.68749885  1.0
  Pb  Pb14  1  0.21511448  0.74971344  0.31250115  1.0
  Pb  Pb15  1  0.21511448  0.74971344  0.18749885  1.0
  Pb  Pb16  1  0.78487002  0.24326513  0.93750206  1.0
  Pb  Pb17  1  0.78487002  0.24326513  0.56249794  1.0
  Pb  Pb18  1  0.78487002  0.25673487  0.43750206  1.0
  Pb  Pb19  1  0.78487002  0.25673487  0.06249794  1.0
  Pb  Pb20  1  0.21512998  0.74326513  0.93750206  1.0
  Pb  Pb21  1  0.21512998  0.74326513  0.56249794  1.0
  Pb  Pb22  1  0.21512998  0.75673487  0.43750206  1.0
  Pb  Pb23  1  0.21512998  0.75673487  0.06249794  1.0
  Pb  Pb24  1  0.78484830  0.75343036  0.75000000  1.0
  Pb  Pb25  1  0.78484830  0.74656964  0.25000000  1.0
  Pb  Pb26  1  0.21515170  0.25343036  0.75000000  1.0
  Pb  Pb27  1  0.21515170  0.24656964  0.25000000  1.0
  Pb  Pb28  1  0.78487972  0.75000000  0.00000000  1.0
  Pb  Pb29  1  0.78487972  0.75000000  0.50000000  1.0
  Pb  Pb30  1  0.21512028  0.25000000  0.00000000  1.0
  Pb  Pb31  1  0.21512028  0.25000000  0.50000000  1.0
  O  O32  1  0.99686023  0.49549616  0.96875198  1.0
  O  O33  1  0.99686023  0.49549616  0.53124802  1.0
  O  O34  1  0.99686023  0.00450384  0.46875198  1.0
  O  O35  1  0.99686023  0.00450384  0.03124802  1.0
  O  O36  1  0.00313977  0.99549616  0.96875198  1.0
  O  O37  1  0.00313977  0.99549616  0.53124802  1.0
  O  O38  1  0.00313977  0.50450384  0.46875198  1.0
  O  O39  1  0.00313977  0.50450384  0.03124802  1.0
  O  O40  1  0.99712534  0.99708522  0.84374942  1.0
  O  O41  1  0.99712534  0.99708522  0.65625058  1.0
  O  O42  1  0.99712534  0.50291478  0.34374942  1.0
  O  O43  1  0.99712534  0.50291478  0.15625058  1.0
  O  O44  1  0.00287466  0.49708522  0.84374942  1.0
  O  O45  1  0.00287466  0.49708522  0.65625058  1.0
  O  O46  1  0.00287466  0.00291478  0.34374942  1.0
  O  O47  1  0.00287466  0.00291478  0.15625058  1.0
  O  O48  1  0.99854149  0.50298959  0.78124925  1.0
  O  O49  1  0.99854149  0.50298959  0.71875075  1.0
  O  O50  1  0.99854149  0.99701041  0.28124925  1.0
  O  O51  1  0.99854149  0.99701041  0.21875075  1.0
  O  O52  1  0.00145851  0.00298959  0.78124925  1.0
  O  O53  1  0.00145851  0.00298959  0.71875075  1.0
  O  O54  1  0.00145851  0.49701041  0.28124925  1.0
  O  O55  1  0.00145851  0.49701041  0.21875075  1.0
  O  O56  1  0.99939353  0.49232302  0.90624979  1.0
  O  O57  1  0.99939353  0.49232302  0.59375021  1.0
  O  O58  1  0.99939353  0.00767698  0.40624979  1.0
  O  O59  1  0.99939353  0.00767698  0.09375021  1.0
  O  O60  1  0.00060647  0.99232302  0.90624979  1.0
  O  O61  1  0.00060647  0.99232302  0.59375021  1.0
  O  O62  1  0.00060647  0.50767698  0.40624979  1.0
  O  O63  1  0.00060647  0.50767698  0.09375021  1.0
