# generated using pymatgen
data_Cs2ZrSe3
_symmetry_space_group_name_H-M   'P 1'
_cell_length_a   8.25966183
_cell_length_b   8.25966183
_cell_length_c   7.20015340
_cell_angle_alpha   90.00000000
_cell_angle_beta   90.00000000
_cell_angle_gamma   71.05118762
_symmetry_Int_Tables_number   1
_chemical_formula_structural   Cs2ZrSe3
_chemical_formula_sum   'Cs4 Zr2 Se6'
_cell_volume   464.58988596
_cell_formula_units_Z   2
loop_
 _symmetry_equiv_pos_site_id
 _symmetry_equiv_pos_as_xyz
  1  'x, y, z'
loop_
 _atom_site_type_symbol
 _atom_site_label
 _atom_site_symmetry_multiplicity
 _atom_site_fract_x
 _atom_site_fract_y
 _atom_site_fract_z
 _atom_site_occupancy
  Cs  Cs0  1  -0.18133516  1.49366553  0.25000000  1.0
  Cs  Cs1  1  0.49366553  0.81866484  0.75000000  1.0
  Cs  Cs2  1  -0.49366553  1.18133516  0.25000000  1.0
  Cs  Cs3  1  0.18133516  0.50633447  0.75000000  1.0
  Zr  Zr4  1  0.08156168  0.91843832  0.25000000  1.0
  Zr  Zr5  1  -0.08156168  1.08156168  0.75000000  1.0
  Se  Se6  1  0.86483491  0.86483491  0.50000000  1.0
  Se  Se7  1  0.86483491  0.86483491  0.00000000  1.0
  Se  Se8  1  0.13516509  0.13516509  0.50000000  1.0
  Se  Se9  1  0.13516509  0.13516509  0.00000000  1.0
  Se  Se10  1  0.34140977  0.65859023  0.25000000  1.0
  Se  Se11  1  -0.34140977  1.34140977  0.75000000  1.0
