# generated using pymatgen
data_TaSCl7O
_symmetry_space_group_name_H-M   'P 1'
_cell_length_a   17.44964092
_cell_length_b   9.46733170
_cell_length_c   7.91004692
_cell_angle_alpha   90.00000000
_cell_angle_beta   90.00000000
_cell_angle_gamma   90.00000000
_symmetry_Int_Tables_number   1
_chemical_formula_structural   TaSCl7O
_chemical_formula_sum   'Ta4 S4 Cl28 O4'
_cell_volume   1306.75192218
_cell_formula_units_Z   4
loop_
 _symmetry_equiv_pos_site_id
 _symmetry_equiv_pos_as_xyz
  1  'x, y, z'
loop_
 _atom_site_type_symbol
 _atom_site_label
 _atom_site_symmetry_multiplicity
 _atom_site_fract_x
 _atom_site_fract_y
 _atom_site_fract_z
 _atom_site_occupancy
  Ta  Ta0  1  0.86383972  0.25000000  0.00342689  1.0
  Ta  Ta1  1  0.36383972  0.25000000  0.49657311  1.0
  Ta  Ta2  1  0.13616028  0.75000000  0.99657311  1.0
  Ta  Ta3  1  0.63616028  0.75000000  0.50342689  1.0
  S  S4  1  0.66351612  0.25000000  0.15858983  1.0
  S  S5  1  0.16351612  0.25000000  0.34141017  1.0
  S  S6  1  0.33648388  0.75000000  0.84141017  1.0
  S  S7  1  0.83648388  0.75000000  0.65858983  1.0
  Cl  Cl8  1  0.84986876  1.00439921  0.02219525  1.0
  Cl  Cl9  1  0.84986876  0.49560079  0.02219525  1.0
  Cl  Cl10  1  0.34986876  1.00439921  0.47780475  1.0
  Cl  Cl11  1  0.34986876  0.49560079  0.47780475  1.0
  Cl  Cl12  1  0.15013124  0.50439921  0.97780475  1.0
  Cl  Cl13  1  0.15013124  -0.00439921  0.97780475  1.0
  Cl  Cl14  1  0.65013124  0.50439921  0.52219525  1.0
  Cl  Cl15  1  0.65013124  -0.00439921  0.52219525  1.0
  Cl  Cl16  1  0.62551407  0.41706368  0.01208049  1.0
  Cl  Cl17  1  0.62551407  0.08293632  0.01208049  1.0
  Cl  Cl18  1  0.12551407  0.41706368  0.48791951  1.0
  Cl  Cl19  1  0.12551407  0.08293632  0.48791951  1.0
  Cl  Cl20  1  0.37448593  0.91706368  0.98791951  1.0
  Cl  Cl21  1  0.37448593  0.58293632  0.98791951  1.0
  Cl  Cl22  1  0.87448593  0.91706368  0.51208049  1.0
  Cl  Cl23  1  0.87448593  0.58293632  0.51208049  1.0
  Cl  Cl24  1  0.97789218  0.25000000  0.86667797  1.0
  Cl  Cl25  1  0.47789218  0.25000000  0.63332203  1.0
  Cl  Cl26  1  0.02210782  0.75000000  0.13332203  1.0
  Cl  Cl27  1  0.52210782  0.75000000  0.36667797  1.0
  Cl  Cl28  1  0.91242717  0.25000000  0.28075142  1.0
  Cl  Cl29  1  0.41242717  0.25000000  0.21924858  1.0
  Cl  Cl30  1  0.08757283  0.75000000  0.71924858  1.0
  Cl  Cl31  1  0.58757283  0.75000000  0.78075142  1.0
  Cl  Cl32  1  0.78596700  0.25000000  0.76473600  1.0
  Cl  Cl33  1  0.28596700  0.25000000  0.73526400  1.0
  Cl  Cl34  1  0.21403300  0.75000000  0.23526400  1.0
  Cl  Cl35  1  0.71403300  0.75000000  0.26473600  1.0
  O  O36  1  0.74843400  0.25000000  0.15238220  1.0
  O  O37  1  0.24843400  0.25000000  0.34761780  1.0
  O  O38  1  0.25156600  0.75000000  0.84761780  1.0
  O  O39  1  0.75156600  0.75000000  0.65238220  1.0
