# generated using pymatgen
data_ZrCl
_symmetry_space_group_name_H-M   'P 1'
_cell_length_a   9.98926045
_cell_length_b   9.98926045
_cell_length_c   9.98926045
_cell_angle_alpha   19.87139155
_cell_angle_beta   19.87139155
_cell_angle_gamma   19.87139155
_symmetry_Int_Tables_number   1
_chemical_formula_structural   ZrCl
_chemical_formula_sum   'Zr2 Cl2'
_cell_volume   100.73699098
_cell_formula_units_Z   2
loop_
 _symmetry_equiv_pos_site_id
 _symmetry_equiv_pos_as_xyz
  1  'x, y, z'
loop_
 _atom_site_type_symbol
 _atom_site_label
 _atom_site_symmetry_multiplicity
 _atom_site_fract_x
 _atom_site_fract_y
 _atom_site_fract_z
 _atom_site_occupancy
  Zr  Zr0  1  1.62622392  0.62622392  0.62622392  1.0
  Zr  Zr1  1  1.37377608  0.37377608  0.37377608  1.0
  Cl  Cl2  1  0.90035369  0.90035369  0.90035369  1.0
  Cl  Cl3  1  1.09964631  1.09964631  0.09964631  1.0
