# generated using pymatgen
data_Co
_symmetry_space_group_name_H-M   'P 1'
_cell_length_a   8.36201965
_cell_length_b   8.36201965
_cell_length_c   4.54437517
_cell_angle_alpha   90.00000000
_cell_angle_beta   90.00000000
_cell_angle_gamma   90.00000000
_symmetry_Int_Tables_number   1
_chemical_formula_structural   Co
_chemical_formula_sum   Co28
_cell_volume   317.75803888
_cell_formula_units_Z   28
loop_
 _symmetry_equiv_pos_site_id
 _symmetry_equiv_pos_as_xyz
  1  'x, y, z'
loop_
 _atom_site_type_symbol
 _atom_site_label
 _atom_site_symmetry_multiplicity
 _atom_site_fract_x
 _atom_site_fract_y
 _atom_site_fract_z
 _atom_site_occupancy
  Co  Co0  1  0.09405619  0.90594381  0.50000000  1.0
  Co  Co1  1  0.90594381  0.09405619  0.50000000  1.0
  Co  Co2  1  0.40594381  0.40594381  -0.00000000  1.0
  Co  Co3  1  0.59405619  0.59405619  -0.00000000  1.0
  Co  Co4  1  0.36196040  0.97651509  0.50000000  1.0
  Co  Co5  1  0.63803960  0.02348491  0.50000000  1.0
  Co  Co6  1  0.13803960  0.47651509  -0.00000000  1.0
  Co  Co7  1  0.86196040  0.52348491  -0.00000000  1.0
  Co  Co8  1  0.97651509  0.36196040  0.50000000  1.0
  Co  Co9  1  0.02348491  0.63803960  0.50000000  1.0
  Co  Co10  1  0.47651509  0.13803960  0.00000000  1.0
  Co  Co11  1  0.52348491  0.86196040  0.00000000  1.0
  Co  Co12  1  0.44941024  0.25539517  0.50000000  1.0
  Co  Co13  1  0.55058976  0.74460483  0.50000000  1.0
  Co  Co14  1  0.05058976  0.75539517  0.00000000  1.0
  Co  Co15  1  0.94941024  0.24460483  0.00000000  1.0
  Co  Co16  1  0.25539517  0.44941024  0.50000000  1.0
  Co  Co17  1  0.74460483  0.55058976  0.50000000  1.0
  Co  Co18  1  0.75539517  0.05058976  -0.00000000  1.0
  Co  Co19  1  0.24460483  0.94941024  -0.00000000  1.0
  Co  Co20  1  0.30858324  0.69141676  0.24904399  1.0
  Co  Co21  1  0.69141676  0.30858324  0.24904399  1.0
  Co  Co22  1  0.19141676  0.19141676  0.74904399  1.0
  Co  Co23  1  0.80858324  0.80858324  0.74904399  1.0
  Co  Co24  1  0.69141676  0.30858324  0.75095601  1.0
  Co  Co25  1  0.30858324  0.69141676  0.75095601  1.0
  Co  Co26  1  0.80858324  0.80858324  0.25095601  1.0
  Co  Co27  1  0.19141676  0.19141676  0.25095601  1.0
