# generated using pymatgen
data_ZrSnCl6
_symmetry_space_group_name_H-M   'P 1'
_cell_length_a   12.04572230
_cell_length_b   6.64596319
_cell_length_c   18.71078738
_cell_angle_alpha   90.00000000
_cell_angle_beta   91.69660182
_cell_angle_gamma   90.00000000
_symmetry_Int_Tables_number   1
_chemical_formula_structural   ZrSnCl6
_chemical_formula_sum   'Zr6 Sn6 Cl36'
_cell_volume   1497.24341949
_cell_formula_units_Z   6
loop_
 _symmetry_equiv_pos_site_id
 _symmetry_equiv_pos_as_xyz
  1  'x, y, z'
loop_
 _atom_site_type_symbol
 _atom_site_label
 _atom_site_symmetry_multiplicity
 _atom_site_fract_x
 _atom_site_fract_y
 _atom_site_fract_z
 _atom_site_occupancy
  Zr  Zr0  1  0.83744282  1.02494756  0.25114382  1.0
  Zr  Zr1  1  0.83744282  -0.02494756  0.75114382  1.0
  Zr  Zr2  1  0.66847830  0.51014783  0.41060658  1.0
  Zr  Zr3  1  0.66847830  0.48985217  0.91060658  1.0
  Zr  Zr4  1  0.34996461  0.48294216  0.24410026  1.0
  Zr  Zr5  1  0.34996461  0.51705784  0.74410026  1.0
  Sn  Sn6  1  0.49848582  0.99413113  0.08174127  1.0
  Sn  Sn7  1  0.49848582  0.00586887  0.58174127  1.0
  Sn  Sn8  1  0.17542919  1.01040304  0.41784613  1.0
  Sn  Sn9  1  0.17542919  -0.01040304  0.91784613  1.0
  Sn  Sn10  1  0.03285601  0.48932422  0.07845971  1.0
  Sn  Sn11  1  0.03285601  0.51067578  0.57845971  1.0
  Cl  Cl12  1  0.02619099  0.84699708  0.50792923  1.0
  Cl  Cl13  1  0.02619099  0.15300292  0.00792923  1.0
  Cl  Cl14  1  0.96265399  0.84181752  0.84457642  1.0
  Cl  Cl15  1  0.96265399  0.15818248  0.34457642  1.0
  Cl  Cl16  1  0.98454256  0.85122512  0.19522443  1.0
  Cl  Cl17  1  0.98454256  0.14877488  0.69522443  1.0
  Cl  Cl18  1  0.84164949  0.31439795  0.17566820  1.0
  Cl  Cl19  1  0.84164949  0.68560205  0.67566820  1.0
  Cl  Cl20  1  0.81022656  0.37272431  0.48781529  1.0
  Cl  Cl21  1  0.81022656  0.62727569  0.98781529  1.0
  Cl  Cl22  1  0.80866475  0.69847284  0.33575868  1.0
  Cl  Cl23  1  0.80866475  0.30152716  0.83575868  1.0
  Cl  Cl24  1  0.68005180  0.79240383  0.82579992  1.0
  Cl  Cl25  1  0.68005180  0.20759617  0.32579992  1.0
  Cl  Cl26  1  0.68783313  0.86362538  0.18141846  1.0
  Cl  Cl27  1  0.68783313  0.13637462  0.68141846  1.0
  Cl  Cl28  1  0.65219221  0.82197874  0.47722478  1.0
  Cl  Cl29  1  0.65219221  0.17802126  0.97722478  1.0
  Cl  Cl30  1  0.51818151  0.64524094  0.97275459  1.0
  Cl  Cl31  1  0.51818152  0.35475906  0.47275459  1.0
  Cl  Cl32  1  0.51168105  0.63926975  0.31708510  1.0
  Cl  Cl33  1  0.51168105  0.36073025  0.81708510  1.0
  Cl  Cl34  1  0.49370793  0.34608398  0.15949798  1.0
  Cl  Cl35  1  0.49370793  0.65391602  0.65949798  1.0
  Cl  Cl36  1  0.34509213  0.79566815  0.16708875  1.0
  Cl  Cl37  1  0.34509213  0.20433185  0.66708875  1.0
  Cl  Cl38  1  0.33859083  0.85387212  0.49901304  1.0
  Cl  Cl39  1  0.33859083  0.14612788  0.99901304  1.0
  Cl  Cl40  1  0.35945763  0.82003740  0.81439564  1.0
  Cl  Cl41  1  0.35945763  0.17996260  0.31439564  1.0
  Cl  Cl42  1  0.21311076  0.63329610  0.31848109  1.0
  Cl  Cl43  1  0.21311076  0.36670390  0.81848109  1.0
  Cl  Cl44  1  0.19976548  0.32906910  0.16555154  1.0
  Cl  Cl45  1  0.19976548  0.67093090  0.66555154  1.0
  Cl  Cl46  1  0.17975044  0.64741777  -0.00728093  1.0
  Cl  Cl47  1  0.17975044  0.35258223  0.49271907  1.0
