# generated using pymatgen
data_Y11Sn10
_symmetry_space_group_name_H-M   'P 1'
_cell_length_a   11.87898001
_cell_length_b   11.87898001
_cell_length_c   11.87898001
_cell_angle_alpha   121.21893305
_cell_angle_beta   121.21893305
_cell_angle_gamma   87.90140162
_symmetry_Int_Tables_number   1
_chemical_formula_structural   Y11Sn10
_chemical_formula_sum   'Y22 Sn20'
_cell_volume   1162.59928846
_cell_formula_units_Z   2
loop_
 _symmetry_equiv_pos_site_id
 _symmetry_equiv_pos_as_xyz
  1  'x, y, z'
loop_
 _atom_site_type_symbol
 _atom_site_label
 _atom_site_symmetry_multiplicity
 _atom_site_fract_x
 _atom_site_fract_y
 _atom_site_fract_z
 _atom_site_occupancy
  Y  Y0  1  0.67376357  0.67376357  1.34752714  1.0
  Y  Y1  1  0.32623643  0.67376357  1.00000000  1.0
  Y  Y2  1  0.67376357  0.32623643  1.00000000  1.0
  Y  Y3  1  0.32623643  0.32623643  0.65247286  1.0
  Y  Y4  1  0.43712946  0.68856932  0.74856014  1.0
  Y  Y5  1  1.05999081  0.31143068  0.74856014  1.0
  Y  Y6  1  0.94000919  0.68856932  1.25143986  1.0
  Y  Y7  1  0.56287054  0.31143068  0.25143986  1.0
  Y  Y8  1  0.68856932  0.43712946  0.74856014  1.0
  Y  Y9  1  0.31143068  1.05999081  0.74856014  1.0
  Y  Y10  1  0.68856932  0.94000919  1.25143986  1.0
  Y  Y11  1  0.31143068  0.56287054  0.25143986  1.0
  Y  Y12  1  0.56698453  0.89799656  0.66898797  1.0
  Y  Y13  1  0.77099142  0.10200344  0.66898797  1.0
  Y  Y14  1  1.22900858  0.89799656  1.33101203  1.0
  Y  Y15  1  0.43301547  0.10200344  0.33101203  1.0
  Y  Y16  1  0.89799656  0.56698453  0.66898797  1.0
  Y  Y17  1  0.10200344  0.77099142  0.66898797  1.0
  Y  Y18  1  0.89799656  1.22900858  1.33101203  1.0
  Y  Y19  1  0.10200344  0.43301547  0.33101203  1.0
  Y  Y20  1  0.83408633  0.83408633  1.00000000  1.0
  Y  Y21  1  0.16591367  0.16591367  0.00000000  1.0
  Sn  Sn22  1  0.61834435  0.61834435  0.58886682  1.0
  Sn  Sn23  1  0.97052247  0.97052247  1.58886682  1.0
  Sn  Sn24  1  1.02947753  0.61834435  1.00000000  1.0
  Sn  Sn25  1  0.38165565  0.97052247  1.00000000  1.0
  Sn  Sn26  1  0.61834435  1.02947753  1.00000000  1.0
  Sn  Sn27  1  0.97052247  0.38165565  1.00000000  1.0
  Sn  Sn28  1  1.02947753  1.02947753  1.41113318  1.0
  Sn  Sn29  1  0.38165565  0.38165565  0.41113318  1.0
  Sn  Sn30  1  0.50000000  0.85551513  1.35551513  1.0
  Sn  Sn31  1  0.85551513  0.50000000  1.35551513  1.0
  Sn  Sn32  1  0.14448487  0.50000000  0.64448487  1.0
  Sn  Sn33  1  0.50000000  0.14448487  0.64448487  1.0
  Sn  Sn34  1  0.87042119  0.87042119  1.74084239  1.0
  Sn  Sn35  1  0.12957881  0.87042119  1.00000000  1.0
  Sn  Sn36  1  0.87042119  0.12957881  1.00000000  1.0
  Sn  Sn37  1  0.12957881  0.12957881  0.25915761  1.0
  Sn  Sn38  1  0.61286192  0.61286192  1.00000000  1.0
  Sn  Sn39  1  0.38713808  0.38713808  0.00000000  1.0
  Sn  Sn40  1  0.25000000  0.75000000  0.50000000  1.0
  Sn  Sn41  1  0.75000000  0.25000000  0.50000000  1.0
