# generated using pymatgen
data_MgH4(ClO4)2
_symmetry_space_group_name_H-M   'P 1'
_cell_length_a   6.49950779
_cell_length_b   5.58951505
_cell_length_c   10.02911659
_cell_angle_alpha   90.00000000
_cell_angle_beta   98.44454329
_cell_angle_gamma   90.00000000
_symmetry_Int_Tables_number   1
_chemical_formula_structural   MgH4(ClO4)2
_chemical_formula_sum   'Mg2 H8 Cl4 O16'
_cell_volume   360.39864569
_cell_formula_units_Z   2
loop_
 _symmetry_equiv_pos_site_id
 _symmetry_equiv_pos_as_xyz
  1  'x, y, z'
loop_
 _atom_site_type_symbol
 _atom_site_label
 _atom_site_symmetry_multiplicity
 _atom_site_fract_x
 _atom_site_fract_y
 _atom_site_fract_z
 _atom_site_occupancy
  Mg  Mg0  1  0.50000000  0.00000000  -0.00000000  1.0
  Mg  Mg1  1  0.50000000  0.50000000  0.50000000  1.0
  H  H2  1  0.12445362  0.75834971  0.94710344  1.0
  H  H3  1  0.87554638  0.25834971  0.55289656  1.0
  H  H4  1  0.87554638  0.24165029  0.05289656  1.0
  H  H5  1  0.12445362  0.74165029  0.44710344  1.0
  H  H6  1  0.24374608  0.65008857  0.07841234  1.0
  H  H7  1  0.75625392  0.15008857  0.42158766  1.0
  H  H8  1  0.75625392  0.34991143  0.92158766  1.0
  H  H9  1  0.24374608  0.84991143  0.57841234  1.0
  Cl  Cl10  1  0.74805771  0.81444165  0.76641661  1.0
  Cl  Cl11  1  0.25194229  0.31444165  0.73358339  1.0
  Cl  Cl12  1  0.25194229  0.18555835  0.23358339  1.0
  Cl  Cl13  1  0.74805771  0.68555835  0.26641661  1.0
  O  O14  1  0.54785599  0.79646041  0.82805397  1.0
  O  O15  1  0.45214401  0.29646041  0.67194603  1.0
  O  O16  1  0.45214401  0.20353959  0.17194603  1.0
  O  O17  1  0.54785599  0.70353959  0.32805397  1.0
  O  O18  1  0.89430545  0.62998471  0.83743481  1.0
  O  O19  1  0.10569455  0.12998471  0.66256519  1.0
  O  O20  1  0.10569455  0.37001529  0.16256519  1.0
  O  O21  1  0.89430545  0.87001529  0.33743481  1.0
  O  O22  1  0.69471393  0.73873118  0.62122600  1.0
  O  O23  1  0.30528607  0.23873118  0.87877400  1.0
  O  O24  1  0.30528607  0.26126882  0.37877400  1.0
  O  O25  1  0.69471393  0.76126882  0.12122600  1.0
  O  O26  1  0.24255467  0.78899457  0.01858423  1.0
  O  O27  1  0.75744533  0.28899457  0.48141577  1.0
  O  O28  1  0.75744533  0.21100543  0.98141577  1.0
  O  O29  1  0.24255467  0.71100543  0.51858423  1.0
