# generated using pymatgen
data_KCr(SO4)2
_symmetry_space_group_name_H-M   'P 1'
_cell_length_a   4.83655420
_cell_length_b   4.83655420
_cell_length_c   16.52354743
_cell_angle_alpha   90.00000000
_cell_angle_beta   90.00000000
_cell_angle_gamma   120.00000000
_symmetry_Int_Tables_number   1
_chemical_formula_structural   KCr(SO4)2
_chemical_formula_sum   'K2 Cr2 S4 O16'
_cell_volume   334.73878875
_cell_formula_units_Z   2
loop_
 _symmetry_equiv_pos_site_id
 _symmetry_equiv_pos_as_xyz
  1  'x, y, z'
loop_
 _atom_site_type_symbol
 _atom_site_label
 _atom_site_symmetry_multiplicity
 _atom_site_fract_x
 _atom_site_fract_y
 _atom_site_fract_z
 _atom_site_occupancy
  K  K0  1  0.00000000  0.00000000  0.25000000  1.0
  K  K1  1  -0.00000000  0.00000000  0.75000000  1.0
  Cr  Cr2  1  0.00000000  0.00000000  0.00000000  1.0
  Cr  Cr3  1  0.00000000  -0.00000000  0.50000000  1.0
  S  S4  1  0.33333333  0.66666667  0.89742819  1.0
  S  S5  1  0.66666667  0.33333333  0.60257181  1.0
  S  S6  1  0.33333333  0.66666667  0.39742819  1.0
  S  S7  1  0.66666667  0.33333333  0.10257181  1.0
  O  O8  1  0.29099529  0.93661669  0.92761435  1.0
  O  O9  1  0.93661669  0.29099529  0.57238565  1.0
  O  O10  1  0.64562140  0.70900471  0.92761435  1.0
  O  O11  1  0.06338331  0.35437860  0.92761435  1.0
  O  O12  1  0.70900471  0.64562140  0.57238565  1.0
  O  O13  1  0.35437860  0.06338331  0.57238565  1.0
  O  O14  1  0.93661669  0.64562140  0.07238565  1.0
  O  O15  1  0.64562140  0.93661669  0.42761435  1.0
  O  O16  1  0.70900471  0.06338331  0.07238565  1.0
  O  O17  1  0.35437860  0.29099529  0.07238565  1.0
  O  O18  1  0.06338331  0.70900471  0.42761435  1.0
  O  O19  1  0.29099529  0.35437860  0.42761435  1.0
  O  O20  1  0.33333333  0.66666667  0.80863932  1.0
  O  O21  1  0.66666667  0.33333333  0.69136068  1.0
  O  O22  1  0.33333333  0.66666667  0.30863932  1.0
  O  O23  1  0.66666667  0.33333333  0.19136068  1.0
