# generated using pymatgen
data_RbP(HO2)2
_symmetry_space_group_name_H-M   'P 1'
_cell_length_a   7.78589955
_cell_length_b   6.39266911
_cell_length_c   9.53556863
_cell_angle_alpha   90.00000000
_cell_angle_beta   108.66702979
_cell_angle_gamma   90.00000000
_symmetry_Int_Tables_number   1
_chemical_formula_structural   RbP(HO2)2
_chemical_formula_sum   'Rb4 P4 H8 O16'
_cell_volume   449.64371706
_cell_formula_units_Z   4
loop_
 _symmetry_equiv_pos_site_id
 _symmetry_equiv_pos_as_xyz
  1  'x, y, z'
loop_
 _atom_site_type_symbol
 _atom_site_label
 _atom_site_symmetry_multiplicity
 _atom_site_fract_x
 _atom_site_fract_y
 _atom_site_fract_z
 _atom_site_occupancy
  Rb  Rb0  1  0.27083629  0.23620817  0.29781135  1.0
  Rb  Rb1  1  0.27083629  0.26379183  0.79781135  1.0
  Rb  Rb2  1  0.72916371  0.73620817  0.20218865  1.0
  Rb  Rb3  1  0.72916371  0.76379183  0.70218865  1.0
  P  P4  1  0.76784239  0.24355681  0.47805903  1.0
  P  P5  1  0.76784239  0.25644319  0.97805903  1.0
  P  P6  1  0.23215761  0.74355681  0.02194097  1.0
  P  P7  1  0.23215761  0.75644319  0.52194097  1.0
  H  H8  1  0.00000000  0.50000000  0.00000000  1.0
  H  H9  1  0.00000000  0.00000000  0.50000000  1.0
  H  H10  1  0.00000000  0.50000000  0.50000000  1.0
  H  H11  1  0.00000000  0.00000000  0.00000000  1.0
  H  H12  1  0.65098152  0.22330871  0.16714942  1.0
  H  H13  1  0.65098152  0.27669129  0.66714942  1.0
  H  H14  1  0.34901848  0.72330871  0.33285058  1.0
  H  H15  1  0.34901848  0.77669129  0.83285058  1.0
  O  O16  1  0.67614732  0.16131601  0.32150361  1.0
  O  O17  1  0.67614732  0.33868399  0.82150361  1.0
  O  O18  1  0.32385268  0.66131601  0.17849639  1.0
  O  O19  1  0.32385268  0.83868399  0.67849639  1.0
  O  O20  1  0.61388988  0.25658446  0.05492954  1.0
  O  O21  1  0.61388988  0.24341554  0.55492954  1.0
  O  O22  1  0.38611012  0.75658446  0.44507046  1.0
  O  O23  1  0.38611012  0.74341554  0.94507046  1.0
  O  O24  1  0.84039203  0.47288067  0.48282585  1.0
  O  O25  1  0.84039203  0.02711933  -0.01717415  1.0
  O  O26  1  0.15960797  0.97288067  1.01717415  1.0
  O  O27  1  0.15960797  0.52711933  0.51717415  1.0
  O  O28  1  0.92317901  0.40336011  0.07111016  1.0
  O  O29  1  0.92317901  0.09663989  0.57111016  1.0
  O  O30  1  0.07682099  0.90336011  0.42888984  1.0
  O  O31  1  0.07682099  0.59663989  0.92888984  1.0
