# generated using pymatgen
data_Rb2Sr2(CO3)3
_symmetry_space_group_name_H-M   'P 1'
_cell_length_a   8.64882152
_cell_length_b   8.64882152
_cell_length_c   8.64882152
_cell_angle_alpha   109.47122063
_cell_angle_beta   109.47122063
_cell_angle_gamma   109.47122063
_symmetry_Int_Tables_number   1
_chemical_formula_structural   Rb2Sr2(CO3)3
_chemical_formula_sum   'Rb4 Sr4 C6 O18'
_cell_volume   498.02244258
_cell_formula_units_Z   2
loop_
 _symmetry_equiv_pos_site_id
 _symmetry_equiv_pos_as_xyz
  1  'x, y, z'
loop_
 _atom_site_type_symbol
 _atom_site_label
 _atom_site_symmetry_multiplicity
 _atom_site_fract_x
 _atom_site_fract_y
 _atom_site_fract_z
 _atom_site_occupancy
  Rb  Rb0  1  1.37791311  1.37791311  1.37791311  1.0
  Rb  Rb1  1  1.50000000  1.00000000  1.12208689  1.0
  Rb  Rb2  1  1.00000000  1.12208689  1.50000000  1.0
  Rb  Rb3  1  1.12208689  0.50000000  1.00000000  1.0
  Sr  Sr4  1  0.91261634  0.91261634  0.91261634  1.0
  Sr  Sr5  1  0.50000000  1.00000000  0.58738366  1.0
  Sr  Sr6  1  1.00000000  0.58738366  1.50000000  1.0
  Sr  Sr7  1  0.58738366  1.50000000  1.00000000  1.0
  C  C8  1  1.09462088  0.84462088  1.25000000  1.0
  C  C9  1  0.25000000  1.09462088  0.84462088  1.0
  C  C10  1  0.75000000  1.40537912  0.65537912  1.0
  C  C11  1  0.84462088  0.25000000  1.09462088  1.0
  C  C12  1  0.65537912  0.75000000  0.40537912  1.0
  C  C13  1  0.40537912  0.65537912  0.75000000  1.0
  O  O14  1  0.15317788  0.91868501  0.79583007  1.0
  O  O15  1  1.62285494  1.35734781  1.70416993  1.0
  O  O16  1  0.79583007  1.15317788  0.91868501  1.0
  O  O17  1  0.73449287  0.87714506  0.58131499  1.0
  O  O18  1  0.91868501  0.79583007  0.15317788  1.0
  O  O19  1  1.14265219  0.76550713  1.34682212  1.0
  O  O20  1  0.87714506  0.58131499  0.73449287  1.0
  O  O21  1  1.34682212  1.14265219  1.76550713  1.0
  O  O22  1  1.76550713  1.34682212  1.14265219  1.0
  O  O23  1  0.70416993  0.62285494  0.35734781  1.0
  O  O24  1  0.35734781  0.70416993  0.62285494  1.0
  O  O25  1  0.58131499  0.73449287  0.87714506  1.0
  O  O26  1  1.22533298  0.97533298  1.25000000  1.0
  O  O27  1  0.25000000  1.22533298  0.97533298  1.0
  O  O28  1  0.75000000  1.27466702  0.52466702  1.0
  O  O29  1  0.97533298  0.25000000  1.22533298  1.0
  O  O30  1  0.52466702  0.75000000  0.27466702  1.0
  O  O31  1  0.27466702  0.52466702  0.75000000  1.0
