# generated using pymatgen
data_CaFe(GeO3)2
_symmetry_space_group_name_H-M   'P 1'
_cell_length_a   6.88037871
_cell_length_b   6.88037871
_cell_length_c   5.43134554
_cell_angle_alpha   80.19697757
_cell_angle_beta   99.80302243
_cell_angle_gamma   97.85790097
_symmetry_Int_Tables_number   1
_chemical_formula_structural   CaFe(GeO3)2
_chemical_formula_sum   'Ca2 Fe2 Ge4 O12'
_cell_volume   248.12294666
_cell_formula_units_Z   2
loop_
 _symmetry_equiv_pos_site_id
 _symmetry_equiv_pos_as_xyz
  1  'x, y, z'
loop_
 _atom_site_type_symbol
 _atom_site_label
 _atom_site_symmetry_multiplicity
 _atom_site_fract_x
 _atom_site_fract_y
 _atom_site_fract_z
 _atom_site_occupancy
  Ca  Ca0  1  0.80607045  0.80607045  0.75000000  1.0
  Ca  Ca1  1  0.19392955  0.19392955  0.25000000  1.0
  Fe  Fe2  1  0.41867936  0.41867936  0.75000000  1.0
  Fe  Fe3  1  0.58132064  0.58132064  0.25000000  1.0
  Ge  Ge4  1  1.31502741  -0.11122182  0.77210601  1.0
  Ge  Ge5  1  1.11122182  -0.31502741  0.27210601  1.0
  Ge  Ge6  1  0.88877818  0.31502741  0.72789399  1.0
  Ge  Ge7  1  0.68497259  0.11122182  0.22789399  1.0
  O  O8  1  1.48303667  -0.29038254  0.85933795  1.0
  O  O9  1  1.29038254  -0.48303667  0.35933795  1.0
  O  O10  1  0.70961746  0.48303667  0.64066205  1.0
  O  O11  1  0.51696333  0.29038254  0.14066205  1.0
  O  O12  1  0.82339762  0.10717569  0.97191375  1.0
  O  O13  1  0.89282431  0.17660238  0.47191375  1.0
  O  O14  1  1.10717569  -0.17660238  0.52808625  1.0
  O  O15  1  1.17660238  -0.10717569  0.02808625  1.0
  O  O16  1  0.39126441  0.13277906  0.64942212  1.0
  O  O17  1  0.86722094  0.60873559  0.14942212  1.0
  O  O18  1  1.13277906  -0.60873559  0.85057788  1.0
  O  O19  1  1.60873559  -0.13277906  0.35057788  1.0
