# generated using pymatgen
data_Zr4Fe2H2O
_symmetry_space_group_name_H-M   'P 1'
_cell_length_a   8.75602875
_cell_length_b   8.75602875
_cell_length_c   8.75602875
_cell_angle_alpha   60.00000000
_cell_angle_beta   60.00000000
_cell_angle_gamma   60.00000000
_symmetry_Int_Tables_number   1
_chemical_formula_structural   Zr4Fe2H2O
_chemical_formula_sum   'Zr16 Fe8 H8 O4'
_cell_volume   474.68612576
_cell_formula_units_Z   4
loop_
 _symmetry_equiv_pos_site_id
 _symmetry_equiv_pos_as_xyz
  1  'x, y, z'
loop_
 _atom_site_type_symbol
 _atom_site_label
 _atom_site_symmetry_multiplicity
 _atom_site_fract_x
 _atom_site_fract_y
 _atom_site_fract_z
 _atom_site_occupancy
  Zr  Zr0  1  0.69044809  0.69044809  -0.69044809  1.0
  Zr  Zr1  1  0.30955191  1.30955191  -0.30955191  1.0
  Zr  Zr2  1  0.69044809  -0.69044809  0.69044809  1.0
  Zr  Zr3  1  0.30955191  -0.30955191  0.30955191  1.0
  Zr  Zr4  1  -0.69044809  0.69044809  0.69044809  1.0
  Zr  Zr5  1  -0.30955191  0.30955191  0.30955191  1.0
  Zr  Zr6  1  -0.44044809  0.55955191  0.94044809  1.0
  Zr  Zr7  1  0.94044809  0.94044809  -0.44044809  1.0
  Zr  Zr8  1  0.55955191  0.94044809  0.55955191  1.0
  Zr  Zr9  1  0.94044809  0.55955191  0.94044809  1.0
  Zr  Zr10  1  0.94044809  0.55955191  -0.44044809  1.0
  Zr  Zr11  1  0.55955191  0.94044809  -0.05955191  1.0
  Zr  Zr12  1  0.62500000  1.12500000  0.12500000  1.0
  Zr  Zr13  1  0.12500000  1.62500000  0.12500000  1.0
  Zr  Zr14  1  0.12500000  0.12500000  1.62500000  1.0
  Zr  Zr15  1  0.12500000  0.12500000  0.12500000  1.0
  Fe  Fe16  1  0.02092247  1.32635918  0.32635918  1.0
  Fe  Fe17  1  0.32635918  1.02092247  0.32635918  1.0
  Fe  Fe18  1  0.32635918  1.32635918  0.02092247  1.0
  Fe  Fe19  1  0.32635918  1.32635918  0.32635918  1.0
  Fe  Fe20  1  -0.77092247  0.92364082  0.92364082  1.0
  Fe  Fe21  1  0.92364082  -0.77092247  0.92364082  1.0
  Fe  Fe22  1  0.92364082  0.92364082  -0.77092247  1.0
  Fe  Fe23  1  0.92364082  0.92364082  0.92364082  1.0
  H  H24  1  -0.22007607  0.40669202  0.40669202  1.0
  H  H25  1  0.40669202  -0.22007607  0.40669202  1.0
  H  H26  1  0.40669202  1.40669202  -0.22007607  1.0
  H  H27  1  0.40669202  1.40669202  0.40669202  1.0
  H  H28  1  0.47007607  0.84330798  -0.15669202  1.0
  H  H29  1  0.84330798  0.47007607  0.84330798  1.0
  H  H30  1  0.84330798  0.84330798  -0.52992393  1.0
  H  H31  1  0.84330798  0.84330798  0.84330798  1.0
  O  O32  1  1.12500000  0.62500000  0.62500000  1.0
  O  O33  1  0.62500000  1.12500000  -0.37500000  1.0
  O  O34  1  -0.37500000  0.62500000  1.12500000  1.0
  O  O35  1  -0.37500000  0.62500000  0.62500000  1.0
