# generated using pymatgen
data_Ca2Mn(AsO5)2
_symmetry_space_group_name_H-M   'P 1'
_cell_length_a   5.67732350
_cell_length_b   14.67493880
_cell_length_c   5.40651037
_cell_angle_alpha   90.00000000
_cell_angle_beta   101.84481889
_cell_angle_gamma   90.00000000
_symmetry_Int_Tables_number   1
_chemical_formula_structural   Ca2Mn(AsO5)2
_chemical_formula_sum   'Ca4 Mn2 As4 O20'
_cell_volume   440.84886880
_cell_formula_units_Z   2
loop_
 _symmetry_equiv_pos_site_id
 _symmetry_equiv_pos_as_xyz
  1  'x, y, z'
loop_
 _atom_site_type_symbol
 _atom_site_label
 _atom_site_symmetry_multiplicity
 _atom_site_fract_x
 _atom_site_fract_y
 _atom_site_fract_z
 _atom_site_occupancy
  Mn  Mn0  1  0.00000000  0.00000000  0.00000000  1.0
  Mn  Mn1  1  -0.00000000  0.50000000  0.50000000  1.0
  O  O2  1  1.17932685  0.83052185  0.53247248  1.0
  O  O3  1  1.17932685  0.66947815  0.03247248  1.0
  O  O4  1  -0.17932685  0.33052185  0.96752752  1.0
  O  O5  1  -0.17932685  0.16947815  0.46752752  1.0
  O  O6  1  0.81635437  0.95365130  0.68251924  1.0
  O  O7  1  0.81635437  0.54634870  0.18251924  1.0
  O  O8  1  0.18364563  0.45365130  0.81748076  1.0
  O  O9  1  0.18364563  0.04634870  0.31748076  1.0
  O  O10  1  0.80234693  0.58170671  0.66842335  1.0
  O  O11  1  0.80234693  0.91829329  0.16842335  1.0
  O  O12  1  0.19765307  0.08170671  0.83157665  1.0
  O  O13  1  0.19765307  0.41829329  0.33157665  1.0
  O  O14  1  0.67175059  0.70890318  0.99231396  1.0
  O  O15  1  0.67175059  0.79109682  0.49231396  1.0
  O  O16  1  0.32824941  0.20890318  0.50768604  1.0
  O  O17  1  0.32824941  0.29109682  0.00768604  1.0
  O  O18  1  0.78876829  0.42181249  0.48859324  1.0
  O  O19  1  0.78876829  0.07818751  0.98859324  1.0
  O  O20  1  0.21123171  0.92181249  0.01140676  1.0
  O  O21  1  0.21123171  0.57818751  0.51140676  1.0
  As  As22  1  0.89295063  0.63058151  0.97158377  1.0
  As  As23  1  0.89295063  0.86941849  0.47158377  1.0
  As  As24  1  0.10704937  0.13058151  0.52841623  1.0
  As  As25  1  0.10704937  0.36941849  0.02841623  1.0
  Ca  Ca26  1  0.51500287  0.84662294  0.83830653  1.0
  Ca  Ca27  1  0.51500287  0.65337706  0.33830653  1.0
  Ca  Ca28  1  0.48499713  0.34662294  0.66169347  1.0
  Ca  Ca29  1  0.48499713  0.15337706  0.16169347  1.0
