# generated using pymatgen
data_CaBi2
_symmetry_space_group_name_H-M   'P 1'
_cell_length_a   8.88355574
_cell_length_b   8.88355574
_cell_length_c   4.59521791
_cell_angle_alpha   90.00000000
_cell_angle_beta   90.00000000
_cell_angle_gamma   148.80304225
_symmetry_Int_Tables_number   1
_chemical_formula_structural   CaBi2
_chemical_formula_sum   'Ca2 Bi4'
_cell_volume   187.84260387
_cell_formula_units_Z   2
loop_
 _symmetry_equiv_pos_site_id
 _symmetry_equiv_pos_as_xyz
  1  'x, y, z'
loop_
 _atom_site_type_symbol
 _atom_site_label
 _atom_site_symmetry_multiplicity
 _atom_site_fract_x
 _atom_site_fract_y
 _atom_site_fract_z
 _atom_site_occupancy
  Ca  Ca0  1  -0.09867664  0.09867664  0.25000000  1.0
  Ca  Ca1  1  0.09867664  0.90132336  0.75000000  1.0
  Bi  Bi2  1  -0.43434682  0.43434682  0.25000000  1.0
  Bi  Bi3  1  0.43434682  0.56565318  0.75000000  1.0
  Bi  Bi4  1  0.25699156  0.74300844  0.25000000  1.0
  Bi  Bi5  1  -0.25699156  0.25699156  0.75000000  1.0
