# generated using pymatgen
data_Ta4SiTe4
_symmetry_space_group_name_H-M   'P 1'
_cell_length_a   10.97225538
_cell_length_b   18.99039555
_cell_length_c   4.83240948
_cell_angle_alpha   90.00000000
_cell_angle_beta   90.00000000
_cell_angle_gamma   90.00000000
_symmetry_Int_Tables_number   1
_chemical_formula_structural   Ta4SiTe4
_chemical_formula_sum   'Ta16 Si4 Te16'
_cell_volume   1006.91693512
_cell_formula_units_Z   4
loop_
 _symmetry_equiv_pos_site_id
 _symmetry_equiv_pos_as_xyz
  1  'x, y, z'
loop_
 _atom_site_type_symbol
 _atom_site_label
 _atom_site_symmetry_multiplicity
 _atom_site_fract_x
 _atom_site_fract_y
 _atom_site_fract_z
 _atom_site_occupancy
  Ta  Ta0  1  0.43726878  0.61541536  0.50000000  1.0
  Ta  Ta1  1  0.93726878  0.88458464  0.50000000  1.0
  Ta  Ta2  1  0.56273122  0.38458464  0.50000000  1.0
  Ta  Ta3  1  0.06273122  0.11541536  0.50000000  1.0
  Ta  Ta4  1  0.20037465  0.96406772  0.50000000  1.0
  Ta  Ta5  1  0.70037465  0.53593228  0.50000000  1.0
  Ta  Ta6  1  0.79962535  0.03593228  0.50000000  1.0
  Ta  Ta7  1  0.29962535  0.46406772  0.50000000  1.0
  Ta  Ta8  1  0.31410164  0.55630466  0.00000000  1.0
  Ta  Ta9  1  0.81410164  0.94369534  0.00000000  1.0
  Ta  Ta10  1  0.68589836  0.44369534  0.00000000  1.0
  Ta  Ta11  1  0.18589836  0.05630466  0.00000000  1.0
  Ta  Ta12  1  0.09737714  0.89294014  0.00000000  1.0
  Ta  Ta13  1  0.59737714  0.60705986  0.00000000  1.0
  Ta  Ta14  1  0.90262286  0.10705986  0.00000000  1.0
  Ta  Ta15  1  0.40262286  0.39294014  0.00000000  1.0
  Si  Si16  1  0.50000000  0.50000000  0.74998625  1.0
  Si  Si17  1  0.50000000  0.50000000  0.25001375  1.0
  Si  Si18  1  0.00000000  0.00000000  0.74998625  1.0
  Si  Si19  1  0.00000000  0.00000000  0.25001375  1.0
  Te  Te20  1  0.16810429  0.81433726  0.50000000  1.0
  Te  Te21  1  0.66810429  0.68566274  0.50000000  1.0
  Te  Te22  1  0.83189571  0.18566274  0.50000000  1.0
  Te  Te23  1  0.33189571  0.31433726  0.50000000  1.0
  Te  Te24  1  0.17733918  0.59772057  0.50000000  1.0
  Te  Te25  1  0.67733918  0.90227943  0.50000000  1.0
  Te  Te26  1  0.82266082  0.40227943  0.50000000  1.0
  Te  Te27  1  0.32266082  0.09772057  0.50000000  1.0
  Te  Te28  1  0.39208703  0.70033082  0.00000000  1.0
  Te  Te29  1  0.89208703  0.79966918  0.00000000  1.0
  Te  Te30  1  0.60791297  0.29966918  0.00000000  1.0
  Te  Te31  1  0.10791297  0.20033082  0.00000000  1.0
  Te  Te32  1  0.34736408  0.93724887  0.00000000  1.0
  Te  Te33  1  0.84736408  0.56275113  0.00000000  1.0
  Te  Te34  1  0.65263592  0.06275113  0.00000000  1.0
  Te  Te35  1  0.15263592  0.43724887  0.00000000  1.0
