# generated using pymatgen
data_V2Fe2PbO10
_symmetry_space_group_name_H-M   'P 1'
_cell_length_a   5.60537175
_cell_length_b   5.60537175
_cell_length_c   8.18890708
_cell_angle_alpha   67.24722500
_cell_angle_beta   112.75277500
_cell_angle_gamma   116.28599179
_symmetry_Int_Tables_number   1
_chemical_formula_structural   V2Fe2PbO10
_chemical_formula_sum   'V2 Fe2 Pb1 O10'
_cell_volume   205.38780168
_cell_formula_units_Z   1
loop_
 _symmetry_equiv_pos_site_id
 _symmetry_equiv_pos_as_xyz
  1  'x, y, z'
loop_
 _atom_site_type_symbol
 _atom_site_label
 _atom_site_symmetry_multiplicity
 _atom_site_fract_x
 _atom_site_fract_y
 _atom_site_fract_z
 _atom_site_occupancy
  Fe  Fe0  1  1.50000000  0.00000000  0.50000000  1.0
  Fe  Fe1  1  1.00000000  0.50000000  0.50000000  1.0
  V  V2  1  1.43025118  -0.43025118  0.24323672  1.0
  V  V3  1  0.56974882  0.43025118  0.75676328  1.0
  Pb  Pb4  1  0.00000000  0.00000000  0.00000000  1.0
  O  O5  1  0.31459205  0.21257871  0.27347543  1.0
  O  O6  1  0.78742129  0.68540795  0.27347543  1.0
  O  O7  1  1.21257871  -0.68540795  0.72652457  1.0
  O  O8  1  1.68540795  -0.21257871  0.72652457  1.0
  O  O9  1  0.71131095  0.28868905  0.96851949  1.0
  O  O10  1  1.28868905  -0.28868905  0.03148051  1.0
  O  O11  1  0.81685840  0.18314160  0.42793484  1.0
  O  O12  1  1.18314160  -0.18314160  0.57206516  1.0
  O  O13  1  1.33527097  -0.33527097  0.38681050  1.0
  O  O14  1  0.66472903  0.33527097  0.61318950  1.0
