# generated using pymatgen
data_CsAsO4
_symmetry_space_group_name_H-M   'P 1'
_cell_length_a   6.85320052
_cell_length_b   6.85320052
_cell_length_c   6.85320052
_cell_angle_alpha   110.10287916
_cell_angle_beta   110.10287916
_cell_angle_gamma   108.21515811
_symmetry_Int_Tables_number   1
_chemical_formula_structural   CsAsO4
_chemical_formula_sum   'Cs2 As2 O8'
_cell_volume   247.68646609
_cell_formula_units_Z   2
loop_
 _symmetry_equiv_pos_site_id
 _symmetry_equiv_pos_as_xyz
  1  'x, y, z'
loop_
 _atom_site_type_symbol
 _atom_site_label
 _atom_site_symmetry_multiplicity
 _atom_site_fract_x
 _atom_site_fract_y
 _atom_site_fract_z
 _atom_site_occupancy
  Cs  Cs0  1  0.50000000  0.50000000  -0.00000000  1.0
  Cs  Cs1  1  1.25000000  0.75000000  0.50000000  1.0
  As  As2  1  0.00000000  0.00000000  0.00000000  1.0
  As  As3  1  0.75000000  1.25000000  0.50000000  1.0
  O  O4  1  1.02491345  0.98781469  0.75027443  1.0
  O  O5  1  0.72508655  0.97536098  0.46290125  1.0
  O  O6  1  0.73781469  1.27491345  1.25027443  1.0
  O  O7  1  1.01218531  1.76245973  1.03709875  1.0
  O  O8  1  0.51245973  0.26218531  0.53709875  1.0
  O  O9  1  1.23754027  1.27463902  1.24972557  1.0
  O  O10  1  1.72536098  0.97508655  0.96290125  1.0
  O  O11  1  1.02463902  1.48754027  0.74972557  1.0
