# generated using pymatgen
data_CsAs2Se3
_symmetry_space_group_name_H-M   'P 1'
_cell_length_a   15.03671640
_cell_length_b   7.61656572
_cell_length_c   13.91096392
_cell_angle_alpha   90.00000000
_cell_angle_beta   90.00000000
_cell_angle_gamma   90.00000000
_symmetry_Int_Tables_number   1
_chemical_formula_structural   CsAs2Se3
_chemical_formula_sum   'Cs8 As16 Se24'
_cell_volume   1593.19680477
_cell_formula_units_Z   8
loop_
 _symmetry_equiv_pos_site_id
 _symmetry_equiv_pos_as_xyz
  1  'x, y, z'
loop_
 _atom_site_type_symbol
 _atom_site_label
 _atom_site_symmetry_multiplicity
 _atom_site_fract_x
 _atom_site_fract_y
 _atom_site_fract_z
 _atom_site_occupancy
  Cs  Cs0  1  0.40606855  0.75000000  0.06840606  1.0
  Cs  Cs1  1  0.90606855  0.75000000  0.43159394  1.0
  Cs  Cs2  1  0.59393145  0.25000000  0.93159394  1.0
  Cs  Cs3  1  0.09393145  0.25000000  0.56840606  1.0
  Cs  Cs4  1  0.06839567  0.75000000  0.09547585  1.0
  Cs  Cs5  1  0.56839567  0.75000000  0.40452415  1.0
  Cs  Cs6  1  0.93160433  0.25000000  0.90452415  1.0
  Cs  Cs7  1  0.43160433  0.25000000  0.59547585  1.0
  As  As8  1  0.25863738  0.91698261  0.73146270  1.0
  As  As9  1  0.25863738  0.58301739  0.73146270  1.0
  As  As10  1  0.75863738  0.91698261  0.76853730  1.0
  As  As11  1  0.75863738  0.58301739  0.76853730  1.0
  As  As12  1  0.74136262  0.41698261  0.26853730  1.0
  As  As13  1  0.74136262  0.08301739  0.26853730  1.0
  As  As14  1  0.24136262  0.41698261  0.23146270  1.0
  As  As15  1  0.24136262  0.08301739  0.23146270  1.0
  As  As16  1  0.49071568  0.75000000  0.76634092  1.0
  As  As17  1  0.99071568  0.75000000  0.73365908  1.0
  As  As18  1  0.50928432  0.25000000  0.23365908  1.0
  As  As19  1  0.00928432  0.25000000  0.26634092  1.0
  As  As20  1  0.77764399  0.75000000  0.06174221  1.0
  As  As21  1  0.27764399  0.75000000  0.43825779  1.0
  As  As22  1  0.22235601  0.25000000  0.93825779  1.0
  As  As23  1  0.72235601  0.25000000  0.56174221  1.0
  Se  Se24  1  0.39525136  0.98839014  0.82706108  1.0
  Se  Se25  1  0.39525136  0.51160986  0.82706108  1.0
  Se  Se26  1  0.89525136  0.98839014  0.67293892  1.0
  Se  Se27  1  0.89525136  0.51160986  0.67293892  1.0
  Se  Se28  1  0.60474864  0.48839014  0.17293892  1.0
  Se  Se29  1  0.60474864  0.01160986  0.17293892  1.0
  Se  Se30  1  0.10474864  0.48839014  0.32706108  1.0
  Se  Se31  1  0.10474864  0.01160986  0.32706108  1.0
  Se  Se32  1  0.15233816  0.98964123  0.86490191  1.0
  Se  Se33  1  0.15233816  0.51035877  0.86490191  1.0
  Se  Se34  1  0.65233816  0.98964123  0.63509809  1.0
  Se  Se35  1  0.65233816  0.51035877  0.63509809  1.0
  Se  Se36  1  0.84766184  0.48964123  0.13509809  1.0
  Se  Se37  1  0.84766184  0.01035877  0.13509809  1.0
  Se  Se38  1  0.34766184  0.48964123  0.36490191  1.0
  Se  Se39  1  0.34766184  0.01035877  0.36490191  1.0
  Se  Se40  1  0.37951459  0.75000000  0.57067965  1.0
  Se  Se41  1  0.87951459  0.75000000  0.92932035  1.0
  Se  Se42  1  0.62048541  0.25000000  0.42932035  1.0
  Se  Se43  1  0.12048541  0.25000000  0.07067965  1.0
  Se  Se44  1  0.10235599  0.75000000  0.61053390  1.0
  Se  Se45  1  0.60235599  0.75000000  0.88946610  1.0
  Se  Se46  1  0.89764401  0.25000000  0.38946610  1.0
  Se  Se47  1  0.39764401  0.25000000  0.11053390  1.0
