# generated using pymatgen
data_Na2W(OF2)2
_symmetry_space_group_name_H-M   'P 1'
_cell_length_a   5.13305184
_cell_length_b   18.76986599
_cell_length_c   5.53374123
_cell_angle_alpha   90.00000000
_cell_angle_beta   90.00000000
_cell_angle_gamma   90.00000000
_symmetry_Int_Tables_number   1
_chemical_formula_structural   Na2W(OF2)2
_chemical_formula_sum   'Na8 W4 O8 F16'
_cell_volume   533.15767978
_cell_formula_units_Z   4
loop_
 _symmetry_equiv_pos_site_id
 _symmetry_equiv_pos_as_xyz
  1  'x, y, z'
loop_
 _atom_site_type_symbol
 _atom_site_label
 _atom_site_symmetry_multiplicity
 _atom_site_fract_x
 _atom_site_fract_y
 _atom_site_fract_z
 _atom_site_occupancy
  Na  Na0  1  0.50000000  0.05176939  0.25000000  1.0
  Na  Na1  1  0.50000000  0.94823061  0.75000000  1.0
  Na  Na2  1  0.00000000  0.55176939  0.25000000  1.0
  Na  Na3  1  0.00000000  0.44823061  0.75000000  1.0
  Na  Na4  1  0.50000000  0.72953658  0.25000000  1.0
  Na  Na5  1  0.50000000  0.27046342  0.75000000  1.0
  Na  Na6  1  0.00000000  0.22953658  0.25000000  1.0
  Na  Na7  1  0.00000000  0.77046342  0.75000000  1.0
  W  W8  1  0.50000000  0.39260780  0.25000000  1.0
  W  W9  1  0.50000000  0.60739220  0.75000000  1.0
  W  W10  1  0.00000000  0.89260780  0.25000000  1.0
  W  W11  1  0.00000000  0.10739220  0.75000000  1.0
  O  O12  1  0.27370130  0.45100960  0.11740240  1.0
  O  O13  1  0.27370130  0.54899040  0.61740240  1.0
  O  O14  1  0.77370130  0.95100960  0.38259760  1.0
  O  O15  1  0.77370130  0.04899040  0.88259760  1.0
  O  O16  1  0.72629870  0.45100960  0.38259760  1.0
  O  O17  1  0.72629870  0.54899040  0.88259760  1.0
  O  O18  1  0.22629870  0.95100960  0.11740240  1.0
  O  O19  1  0.22629870  0.04899040  0.61740240  1.0
  F  F20  1  0.30227000  0.30634924  0.10591980  1.0
  F  F21  1  0.30227000  0.69365076  0.60591980  1.0
  F  F22  1  0.80227000  0.80634924  0.39408020  1.0
  F  F23  1  0.80227000  0.19365076  0.89408020  1.0
  F  F24  1  0.69773000  0.30634924  0.39408020  1.0
  F  F25  1  0.69773000  0.69365076  0.89408020  1.0
  F  F26  1  0.19773000  0.80634924  0.10591980  1.0
  F  F27  1  0.19773000  0.19365076  0.60591980  1.0
  F  F28  1  0.20892588  0.12559739  0.03820702  1.0
  F  F29  1  0.20892588  0.87440261  0.53820702  1.0
  F  F30  1  0.70892588  0.62559739  0.46179298  1.0
  F  F31  1  0.70892588  0.37440261  0.96179298  1.0
  F  F32  1  0.79107412  0.12559739  0.46179298  1.0
  F  F33  1  0.79107412  0.87440261  0.96179298  1.0
  F  F34  1  0.29107412  0.62559739  0.03820702  1.0
  F  F35  1  0.29107412  0.37440261  0.53820702  1.0
