# generated using pymatgen
data_Ba3LaIr2O9
_symmetry_space_group_name_H-M   'P 1'
_cell_length_a   5.99525068
_cell_length_b   5.99525068
_cell_length_c   15.21121168
_cell_angle_alpha   90.00000000
_cell_angle_beta   90.00000000
_cell_angle_gamma   120.00000000
_symmetry_Int_Tables_number   1
_chemical_formula_structural   Ba3LaIr2O9
_chemical_formula_sum   'Ba6 La2 Ir4 O18'
_cell_volume   473.48817373
_cell_formula_units_Z   2
loop_
 _symmetry_equiv_pos_site_id
 _symmetry_equiv_pos_as_xyz
  1  'x, y, z'
loop_
 _atom_site_type_symbol
 _atom_site_label
 _atom_site_symmetry_multiplicity
 _atom_site_fract_x
 _atom_site_fract_y
 _atom_site_fract_z
 _atom_site_occupancy
  Ba  Ba0  1  0.33333333  0.66666667  0.39504382  1.0
  Ba  Ba1  1  0.33333333  0.66666667  0.10495618  1.0
  Ba  Ba2  1  0.66666667  0.33333333  0.89504382  1.0
  Ba  Ba3  1  0.66666667  0.33333333  0.60495618  1.0
  Ba  Ba4  1  0.00000000  0.00000000  0.25000000  1.0
  Ba  Ba5  1  0.00000000  0.00000000  0.75000000  1.0
  La  La6  1  0.00000000  0.00000000  0.50000000  1.0
  La  La7  1  0.00000000  0.00000000  0.00000000  1.0
  Ir  Ir8  1  0.33333333  0.66666667  0.83254930  1.0
  Ir  Ir9  1  0.33333333  0.66666667  0.66745070  1.0
  Ir  Ir10  1  0.66666667  0.33333333  0.33254930  1.0
  Ir  Ir11  1  0.66666667  0.33333333  0.16745070  1.0
  O  O12  1  0.17864181  0.82135819  0.90624280  1.0
  O  O13  1  0.17864181  0.82135819  0.59375720  1.0
  O  O14  1  0.17864181  0.35728362  0.90624280  1.0
  O  O15  1  0.17864181  0.35728362  0.59375720  1.0
  O  O16  1  0.82135819  0.17864181  0.40624280  1.0
  O  O17  1  0.82135819  0.17864181  0.09375720  1.0
  O  O18  1  0.82135819  0.64271638  0.40624280  1.0
  O  O19  1  0.82135819  0.64271638  0.09375720  1.0
  O  O20  1  0.64271638  0.82135819  0.90624280  1.0
  O  O21  1  0.64271638  0.82135819  0.59375720  1.0
  O  O22  1  0.35728362  0.17864181  0.40624280  1.0
  O  O23  1  0.35728362  0.17864181  0.09375720  1.0
  O  O24  1  0.50851405  0.49148595  0.25000000  1.0
  O  O25  1  0.50851405  0.01702809  0.25000000  1.0
  O  O26  1  0.49148595  0.50851405  0.75000000  1.0
  O  O27  1  0.49148595  0.98297191  0.75000000  1.0
  O  O28  1  0.98297191  0.49148595  0.25000000  1.0
  O  O29  1  0.01702809  0.50851405  0.75000000  1.0
