# generated using pymatgen
data_SN
_symmetry_space_group_name_H-M   'P 1'
_cell_length_a   8.34544237
_cell_length_b   13.67400107
_cell_length_c   6.62671738
_cell_angle_alpha   90.00000000
_cell_angle_beta   90.00000000
_cell_angle_gamma   90.00000000
_symmetry_Int_Tables_number   1
_chemical_formula_structural   SN
_chemical_formula_sum   'S16 N16'
_cell_volume   756.21175019
_cell_formula_units_Z   16
loop_
 _symmetry_equiv_pos_site_id
 _symmetry_equiv_pos_as_xyz
  1  'x, y, z'
loop_
 _atom_site_type_symbol
 _atom_site_label
 _atom_site_symmetry_multiplicity
 _atom_site_fract_x
 _atom_site_fract_y
 _atom_site_fract_z
 _atom_site_occupancy
  S  S0  1  0.44376100  0.86163728  0.28955943  1.0
  S  S1  1  0.44376100  0.63836272  0.28955943  1.0
  S  S2  1  0.94376100  0.86163728  0.21044057  1.0
  S  S3  1  0.94376100  0.63836272  0.21044057  1.0
  S  S4  1  0.55623900  0.36163728  0.71044057  1.0
  S  S5  1  0.55623900  0.13836272  0.71044057  1.0
  S  S6  1  0.05623900  0.36163728  0.78955943  1.0
  S  S7  1  0.05623900  0.13836272  0.78955943  1.0
  S  S8  1  0.27637147  0.86227876  0.70086950  1.0
  S  S9  1  0.27637147  0.63772124  0.70086950  1.0
  S  S10  1  0.77637147  0.86227876  0.79913050  1.0
  S  S11  1  0.77637147  0.63772124  0.79913050  1.0
  S  S12  1  0.72362853  0.36227876  0.29913050  1.0
  S  S13  1  0.72362853  0.13772124  0.29913050  1.0
  S  S14  1  0.22362853  0.36227876  0.20086950  1.0
  S  S15  1  0.22362853  0.13772124  0.20086950  1.0
  N  N16  1  0.34283057  0.89387893  0.48454361  1.0
  N  N17  1  0.34283057  0.60612107  0.48454361  1.0
  N  N18  1  0.84283057  0.89387893  1.01545639  1.0
  N  N19  1  0.84283057  0.60612107  1.01545639  1.0
  N  N20  1  0.65716943  0.39387893  0.51545639  1.0
  N  N21  1  0.65716943  0.10612107  0.51545639  1.0
  N  N22  1  0.15716943  0.39387893  -0.01545639  1.0
  N  N23  1  0.15716943  0.10612107  -0.01545639  1.0
  N  N24  1  0.49825025  0.75000000  0.25950479  1.0
  N  N25  1  0.99825025  0.75000000  0.24049521  1.0
  N  N26  1  0.50174975  0.25000000  0.74049521  1.0
  N  N27  1  0.00174975  0.25000000  0.75950479  1.0
  N  N28  1  0.26678152  0.75000000  0.76789156  1.0
  N  N29  1  0.76678152  0.75000000  0.73210844  1.0
  N  N30  1  0.73321848  0.25000000  0.23210844  1.0
  N  N31  1  0.23321848  0.25000000  0.26789156  1.0
