# generated using pymatgen
data_HCl
_symmetry_space_group_name_H-M   'P 1'
_cell_length_a   4.45863321
_cell_length_b   4.45863321
_cell_length_c   5.22732090
_cell_angle_alpha   90.00000000
_cell_angle_beta   90.00000000
_cell_angle_gamma   75.12009209
_symmetry_Int_Tables_number   1
_chemical_formula_structural   HCl
_chemical_formula_sum   'H2 Cl2'
_cell_volume   100.43135465
_cell_formula_units_Z   2
loop_
 _symmetry_equiv_pos_site_id
 _symmetry_equiv_pos_as_xyz
  1  'x, y, z'
loop_
 _atom_site_type_symbol
 _atom_site_label
 _atom_site_symmetry_multiplicity
 _atom_site_fract_x
 _atom_site_fract_y
 _atom_site_fract_z
 _atom_site_occupancy
  H  H0  1  0.05394654  0.94605346  -0.00852856  1.0
  H  H1  1  -0.05394654  1.05394654  0.49147144  1.0
  Cl  Cl2  1  0.21661034  0.78338966  0.17852856  1.0
  Cl  Cl3  1  -0.21661034  1.21661034  0.67852856  1.0
