# generated using pymatgen
data_PbI2
_symmetry_space_group_name_H-M   'P 1'
_cell_length_a   4.66084044
_cell_length_b   4.66084044
_cell_length_c   37.78581638
_cell_angle_alpha   90.00000000
_cell_angle_beta   90.00000000
_cell_angle_gamma   120.00000000
_symmetry_Int_Tables_number   1
_chemical_formula_structural   PbI2
_chemical_formula_sum   'Pb5 I10'
_cell_volume   710.86627689
_cell_formula_units_Z   5
loop_
 _symmetry_equiv_pos_site_id
 _symmetry_equiv_pos_as_xyz
  1  'x, y, z'
loop_
 _atom_site_type_symbol
 _atom_site_label
 _atom_site_symmetry_multiplicity
 _atom_site_fract_x
 _atom_site_fract_y
 _atom_site_fract_z
 _atom_site_occupancy
  Pb  Pb0  1  0.00000000  0.00000000  0.05314006  1.0
  Pb  Pb1  1  -0.00000000  -0.00000000  0.25302673  1.0
  Pb  Pb2  1  -0.00000000  -0.00000000  0.45297829  1.0
  Pb  Pb3  1  -0.00000000  -0.00000000  0.65285433  1.0
  Pb  Pb4  1  0.66666667  0.33333333  0.85299752  1.0
  I  I5  1  0.00000000  0.00000000  0.90228476  1.0
  I  I6  1  0.66666667  0.33333333  0.10244336  1.0
  I  I7  1  0.66666667  0.33333333  0.30233037  1.0
  I  I8  1  0.66666667  0.33333333  0.50228103  1.0
  I  I9  1  0.66666667  0.33333333  0.70214107  1.0
  I  I10  1  0.33333333  0.66666667  0.00385044  1.0
  I  I11  1  0.33333333  0.66666667  0.20372661  1.0
  I  I12  1  0.33333333  0.66666667  0.40367778  1.0
  I  I13  1  0.33333333  0.66666667  0.60355708  1.0
  I  I14  1  0.33333333  0.66666667  0.80371056  1.0
