# generated using pymatgen
data_Gd3BWO9
_symmetry_space_group_name_H-M   'P 1'
_cell_length_a   8.64629392
_cell_length_b   8.64629392
_cell_length_c   5.46315213
_cell_angle_alpha   90.00000000
_cell_angle_beta   90.00000000
_cell_angle_gamma   120.00000000
_symmetry_Int_Tables_number   1
_chemical_formula_structural   Gd3BWO9
_chemical_formula_sum   'Gd6 B2 W2 O18'
_cell_volume   353.69906790
_cell_formula_units_Z   2
loop_
 _symmetry_equiv_pos_site_id
 _symmetry_equiv_pos_as_xyz
  1  'x, y, z'
loop_
 _atom_site_type_symbol
 _atom_site_label
 _atom_site_symmetry_multiplicity
 _atom_site_fract_x
 _atom_site_fract_y
 _atom_site_fract_z
 _atom_site_occupancy
  Gd  Gd0  1  0.72308046  0.64228726  0.08135668  1.0
  Gd  Gd1  1  0.64228726  0.91920681  0.58135668  1.0
  Gd  Gd2  1  0.91920681  0.27691954  0.08135668  1.0
  Gd  Gd3  1  0.35771274  0.08079319  0.08135668  1.0
  Gd  Gd4  1  0.27691954  0.35771274  0.58135668  1.0
  Gd  Gd5  1  0.08079319  0.72308046  0.58135668  1.0
  B  B6  1  0.00000000  0.00000000  -0.08848342  1.0
  B  B7  1  0.00000000  0.00000000  0.41151658  1.0
  W  W8  1  0.33333333  0.66666667  0.03911272  1.0
  W  W9  1  0.66666667  0.33333333  0.53911272  1.0
  O  O10  1  0.05437765  0.87494623  0.92033516  1.0
  O  O11  1  0.87494623  0.82056858  0.42033516  1.0
  O  O12  1  0.82056858  0.94562235  0.92033516  1.0
  O  O13  1  0.12505377  0.17943142  0.92033516  1.0
  O  O14  1  0.94562235  0.12505377  0.42033516  1.0
  O  O15  1  0.17943142  0.05437765  0.42033516  1.0
  O  O16  1  0.26436098  0.79830791  0.24486056  1.0
  O  O17  1  0.79830791  0.53394693  0.74486056  1.0
  O  O18  1  0.53394693  0.73563902  0.24486056  1.0
  O  O19  1  0.20169209  0.46605307  0.24486056  1.0
  O  O20  1  0.73563902  0.20169209  0.74486056  1.0
  O  O21  1  0.46605307  0.26436098  0.74486056  1.0
  O  O22  1  0.86555992  0.48199371  0.31060450  1.0
  O  O23  1  0.48199371  0.61643379  0.81060450  1.0
  O  O24  1  0.61643379  0.13444008  0.31060450  1.0
  O  O25  1  0.51800629  0.38356621  0.31060450  1.0
  O  O26  1  0.13444008  0.51800629  0.81060450  1.0
  O  O27  1  0.38356621  0.86555992  0.81060450  1.0
