# generated using pymatgen
data_YMoBrO4
_symmetry_space_group_name_H-M   'P 1'
_cell_length_a   7.32775232
_cell_length_b   7.04769887
_cell_length_c   10.93001012
_cell_angle_alpha   107.83775515
_cell_angle_beta   103.14346198
_cell_angle_gamma   95.19209089
_symmetry_Int_Tables_number   1
_chemical_formula_structural   YMoBrO4
_chemical_formula_sum   'Y4 Mo4 Br4 O16'
_cell_volume   515.38789260
_cell_formula_units_Z   4
loop_
 _symmetry_equiv_pos_site_id
 _symmetry_equiv_pos_as_xyz
  1  'x, y, z'
loop_
 _atom_site_type_symbol
 _atom_site_label
 _atom_site_symmetry_multiplicity
 _atom_site_fract_x
 _atom_site_fract_y
 _atom_site_fract_z
 _atom_site_occupancy
  Y  Y0  1  -0.09314484  -0.66941930  -0.72878212  1.0
  Y  Y1  1  -0.90685516  -0.33058070  -0.27121788  1.0
  Y  Y2  1  -0.66309787  -0.37648229  -0.76791011  1.0
  Y  Y3  1  -0.33690213  -0.62351771  -0.23208989  1.0
  Mo  Mo4  1  -0.81881376  -0.72433007  -0.13532927  1.0
  Mo  Mo5  1  -0.18118624  -0.27566993  -0.86467073  1.0
  Mo  Mo6  1  -0.57893589  -0.77234521  -0.62831479  1.0
  Mo  Mo7  1  -0.42106411  -0.22765479  -0.37168521  1.0
  Br  Br8  1  -1.01361209  -0.26568890  -0.52227846  1.0
  Br  Br9  1  0.01361209  -0.73431110  -0.47772154  1.0
  Br  Br10  1  -0.72218864  -0.19209459  -0.98848980  1.0
  Br  Br11  1  -0.27781136  -0.80790541  -0.01151020  1.0
  O  O12  1  -0.74220655  -0.65145671  -0.96024537  1.0
  O  O13  1  -0.25779345  -0.34854329  -0.03975463  1.0
  O  O14  1  -0.89171263  -0.98881566  -0.20290783  1.0
  O  O15  1  -0.10828737  -0.01118434  -0.79709217  1.0
  O  O16  1  -0.62888955  -0.65371028  -0.19693479  1.0
  O  O17  1  -0.37111045  -0.34628972  -0.80306521  1.0
  O  O18  1  -0.98890858  -0.40533428  -0.81085986  1.0
  O  O19  1  -0.01109142  -0.59466572  -0.18914014  1.0
  O  O20  1  -0.64812324  -0.03552272  -0.67483316  1.0
  O  O21  1  -0.35187676  -0.96447728  -0.32516684  1.0
  O  O22  1  -0.38741405  -0.72406129  -0.69399165  1.0
  O  O23  1  -0.61258595  -0.27593871  -0.30600835  1.0
  O  O24  1  -0.50081664  -0.67571476  -0.45170004  1.0
  O  O25  1  -0.49918336  -0.32428524  -0.54829996  1.0
  O  O26  1  -0.77064594  -0.65658884  -0.70199492  1.0
  O  O27  1  -0.22935406  -0.34341116  -0.29800508  1.0
