# generated using pymatgen
data_Hg3(TeCl)2
_symmetry_space_group_name_H-M   'P 1'
_cell_length_a   8.37158086
_cell_length_b   8.37158086
_cell_length_c   8.37158086
_cell_angle_alpha   109.47122063
_cell_angle_beta   109.47122063
_cell_angle_gamma   109.47122063
_symmetry_Int_Tables_number   1
_chemical_formula_structural   Hg3(TeCl)2
_chemical_formula_sum   'Hg6 Te4 Cl4'
_cell_volume   451.64846464
_cell_formula_units_Z   2
loop_
 _symmetry_equiv_pos_site_id
 _symmetry_equiv_pos_as_xyz
  1  'x, y, z'
loop_
 _atom_site_type_symbol
 _atom_site_label
 _atom_site_symmetry_multiplicity
 _atom_site_fract_x
 _atom_site_fract_y
 _atom_site_fract_z
 _atom_site_occupancy
  Hg  Hg0  1  1.18220515  0.93220515  1.25000000  1.0
  Hg  Hg1  1  0.25000000  1.18220515  0.93220515  1.0
  Hg  Hg2  1  0.75000000  1.31779485  0.56779485  1.0
  Hg  Hg3  1  0.93220515  0.25000000  1.18220515  1.0
  Hg  Hg4  1  0.56779485  0.75000000  0.31779485  1.0
  Hg  Hg5  1  0.31779485  0.56779485  0.75000000  1.0
  Te  Te6  1  0.94386562  0.94386562  0.94386562  1.0
  Te  Te7  1  0.50000000  1.00000000  0.55613438  1.0
  Te  Te8  1  1.00000000  0.55613438  1.50000000  1.0
  Te  Te9  1  0.55613438  1.50000000  1.00000000  1.0
  Cl  Cl10  1  1.48942801  1.48942801  1.48942801  1.0
  Cl  Cl11  1  1.50000000  1.00000000  1.01057199  1.0
  Cl  Cl12  1  1.00000000  1.01057199  1.50000000  1.0
  Cl  Cl13  1  1.01057199  0.50000000  1.00000000  1.0
