# generated using pymatgen
data_LuNbO4
_symmetry_space_group_name_H-M   'P 1'
_cell_length_a   6.53150397
_cell_length_b   6.53150397
_cell_length_c   5.09891029
_cell_angle_alpha   68.61144747
_cell_angle_beta   111.38855253
_cell_angle_gamma   65.70676170
_symmetry_Int_Tables_number   1
_chemical_formula_structural   LuNbO4
_chemical_formula_sum   'Lu2 Nb2 O8'
_cell_volume   146.77711570
_cell_formula_units_Z   2
loop_
 _symmetry_equiv_pos_site_id
 _symmetry_equiv_pos_as_xyz
  1  'x, y, z'
loop_
 _atom_site_type_symbol
 _atom_site_label
 _atom_site_symmetry_multiplicity
 _atom_site_fract_x
 _atom_site_fract_y
 _atom_site_fract_z
 _atom_site_occupancy
  Lu  Lu0  1  1.37210846  0.37210846  0.75000000  1.0
  Lu  Lu1  1  0.62789154  0.62789154  0.25000000  1.0
  Nb  Nb2  1  0.88995567  0.88995567  0.75000000  1.0
  Nb  Nb3  1  1.11004433  0.11004433  0.25000000  1.0
  O  O4  1  1.62567404  -0.04728955  0.83910667  1.0
  O  O5  1  1.04728955  0.37432596  0.33910667  1.0
  O  O6  1  0.95271045  0.62567404  0.66089333  1.0
  O  O7  1  1.37432596  0.04728955  0.16089333  1.0
  O  O8  1  1.28470731  -0.21835861  0.70428685  1.0
  O  O9  1  1.21835861  0.71529269  0.20428685  1.0
  O  O10  1  0.78164139  0.28470731  0.79571315  1.0
  O  O11  1  1.71529269  0.21835861  0.29571315  1.0
