# generated using pymatgen
data_V2Ge(O2F)2
_symmetry_space_group_name_H-M   'P 1'
_cell_length_a   9.47918771
_cell_length_b   8.82248725
_cell_length_c   5.02793700
_cell_angle_alpha   90.00000000
_cell_angle_beta   90.00000000
_cell_angle_gamma   90.00000000
_symmetry_Int_Tables_number   1
_chemical_formula_structural   V2Ge(O2F)2
_chemical_formula_sum   'V8 Ge4 O16 F8'
_cell_volume   420.48643561
_cell_formula_units_Z   4
loop_
 _symmetry_equiv_pos_site_id
 _symmetry_equiv_pos_as_xyz
  1  'x, y, z'
loop_
 _atom_site_type_symbol
 _atom_site_label
 _atom_site_symmetry_multiplicity
 _atom_site_fract_x
 _atom_site_fract_y
 _atom_site_fract_z
 _atom_site_occupancy
  V  V0  1  0.87030666  0.41313026  0.40506451  1.0
  V  V1  1  0.87030666  0.08686974  0.40506451  1.0
  V  V2  1  0.37030666  0.41313026  0.09493549  1.0
  V  V3  1  0.37030666  0.08686974  0.09493549  1.0
  V  V4  1  0.12969334  0.91313026  0.59493549  1.0
  V  V5  1  0.12969334  0.58686974  0.59493549  1.0
  V  V6  1  0.62969334  0.91313026  0.90506451  1.0
  V  V7  1  0.62969334  0.58686974  0.90506451  1.0
  Ge  Ge8  1  0.56119271  0.25000000  0.60363174  1.0
  Ge  Ge9  1  0.06119271  0.25000000  0.89636826  1.0
  Ge  Ge10  1  0.43880729  0.75000000  0.39636826  1.0
  Ge  Ge11  1  0.93880729  0.75000000  0.10363174  1.0
  O  O12  1  0.99104216  0.91290914  0.28856257  1.0
  O  O13  1  0.99104216  0.58709086  0.28856257  1.0
  O  O14  1  0.49104216  0.91290914  0.21143743  1.0
  O  O15  1  0.49104216  0.58709086  0.21143743  1.0
  O  O16  1  0.00895784  0.41290914  0.71143743  1.0
  O  O17  1  0.00895784  0.08709086  0.71143743  1.0
  O  O18  1  0.50895784  0.41290914  0.78856257  1.0
  O  O19  1  0.50895784  0.08709086  0.78856257  1.0
  O  O20  1  0.97579778  0.25000000  0.21330560  1.0
  O  O21  1  0.47579778  0.25000000  0.28669440  1.0
  O  O22  1  0.02420222  0.75000000  0.78669440  1.0
  O  O23  1  0.52420222  0.75000000  0.71330560  1.0
  O  O24  1  0.74876341  0.25000000  0.55460609  1.0
  O  O25  1  0.24876341  0.25000000  0.94539391  1.0
  O  O26  1  0.25123659  0.75000000  0.44539391  1.0
  O  O27  1  0.75123659  0.75000000  0.05460609  1.0
  F  F28  1  0.74669015  0.43920923  0.09606586  1.0
  F  F29  1  0.74669015  0.06079077  0.09606586  1.0
  F  F30  1  0.24669015  0.43920923  0.40393414  1.0
  F  F31  1  0.24669015  0.06079077  0.40393414  1.0
  F  F32  1  0.25330985  0.93920923  0.90393414  1.0
  F  F33  1  0.25330985  0.56079077  0.90393414  1.0
  F  F34  1  0.75330985  0.93920923  0.59606586  1.0
  F  F35  1  0.75330985  0.56079077  0.59606586  1.0
