# generated using pymatgen
data_Cs2V4O9
_symmetry_space_group_name_H-M   'P 1'
_cell_length_a   5.69943915
_cell_length_b   5.69943915
_cell_length_c   15.72185089
_cell_angle_alpha   90.00000000
_cell_angle_beta   90.00000000
_cell_angle_gamma   90.00000000
_symmetry_Int_Tables_number   1
_chemical_formula_structural   Cs2V4O9
_chemical_formula_sum   'Cs4 V8 O18'
_cell_volume   510.70242067
_cell_formula_units_Z   2
loop_
 _symmetry_equiv_pos_site_id
 _symmetry_equiv_pos_as_xyz
  1  'x, y, z'
loop_
 _atom_site_type_symbol
 _atom_site_label
 _atom_site_symmetry_multiplicity
 _atom_site_fract_x
 _atom_site_fract_y
 _atom_site_fract_z
 _atom_site_occupancy
  Cs  Cs0  1  0.75138563  0.72864914  -0.00000000  1.0
  Cs  Cs1  1  0.72864914  0.24861437  0.50000000  1.0
  Cs  Cs2  1  0.24861437  0.27135086  -0.00000000  1.0
  Cs  Cs3  1  0.27135086  0.75138563  0.50000000  1.0
  V  V4  1  0.88178667  0.68974596  0.70199633  1.0
  V  V5  1  0.88178667  0.68974596  0.29800367  1.0
  V  V6  1  0.68974596  0.11821333  0.20199633  1.0
  V  V7  1  0.68974596  0.11821333  0.79800367  1.0
  V  V8  1  0.11821333  0.31025404  0.70199633  1.0
  V  V9  1  0.11821333  0.31025404  0.29800367  1.0
  V  V10  1  0.31025404  0.88178667  0.20199633  1.0
  V  V11  1  0.31025404  0.88178667  0.79800367  1.0
  O  O12  1  0.81817551  0.74903690  0.60254517  1.0
  O  O13  1  0.81817551  0.74903690  0.39745483  1.0
  O  O14  1  0.74903690  0.18182449  0.10254517  1.0
  O  O15  1  0.74903690  0.18182449  0.89745483  1.0
  O  O16  1  0.18182449  0.25096310  0.60254517  1.0
  O  O17  1  0.18182449  0.25096310  0.39745483  1.0
  O  O18  1  0.25096310  0.81817551  0.10254517  1.0
  O  O19  1  0.25096310  0.81817551  0.89745483  1.0
  O  O20  1  0.62951234  0.79607987  0.77825608  1.0
  O  O21  1  0.62951234  0.79607987  0.22174392  1.0
  O  O22  1  0.79607987  0.37048766  0.27825608  1.0
  O  O23  1  0.79607987  0.37048766  0.72174392  1.0
  O  O24  1  0.37048766  0.20392013  0.77825608  1.0
  O  O25  1  0.37048766  0.20392013  0.22174392  1.0
  O  O26  1  0.20392013  0.62951234  0.27825608  1.0
  O  O27  1  0.20392013  0.62951234  0.72174392  1.0
  O  O28  1  0.00000000  0.00000000  0.75000000  1.0
  O  O29  1  0.00000000  0.00000000  0.25000000  1.0
