# generated using pymatgen
data_TiS3
_symmetry_space_group_name_H-M   'P 1'
_cell_length_a   5.03172713
_cell_length_b   3.41745545
_cell_length_c   9.60246126
_cell_angle_alpha   90.00000000
_cell_angle_beta   96.17049383
_cell_angle_gamma   90.00000000
_symmetry_Int_Tables_number   1
_chemical_formula_structural   TiS3
_chemical_formula_sum   'Ti2 S6'
_cell_volume   164.16443773
_cell_formula_units_Z   2
loop_
 _symmetry_equiv_pos_site_id
 _symmetry_equiv_pos_as_xyz
  1  'x, y, z'
loop_
 _atom_site_type_symbol
 _atom_site_label
 _atom_site_symmetry_multiplicity
 _atom_site_fract_x
 _atom_site_fract_y
 _atom_site_fract_z
 _atom_site_occupancy
  Ti  Ti0  1  0.77884644  0.75000000  0.64014710  1.0
  Ti  Ti1  1  0.22115356  0.25000000  0.35985290  1.0
  S  S2  1  0.39295271  0.75000000  0.20265286  1.0
  S  S3  1  0.60704729  0.25000000  0.79734714  1.0
  S  S4  1  -0.01478751  0.75000000  0.20214392  1.0
  S  S5  1  1.01478751  0.25000000  0.79785608  1.0
  S  S6  1  0.25939925  0.75000000  0.54591360  1.0
  S  S7  1  0.74060075  0.25000000  0.45408640  1.0
