# generated using pymatgen
data_ZrTl2PbSe4
_symmetry_space_group_name_H-M   'P 1'
_cell_length_a   9.13288370
_cell_length_b   9.13288370
_cell_length_c   7.15602377
_cell_angle_alpha   73.50546140
_cell_angle_beta   106.49453860
_cell_angle_gamma   123.87620942
_symmetry_Int_Tables_number   1
_chemical_formula_structural   ZrTl2PbSe4
_chemical_formula_sum   'Zr2 Tl4 Pb2 Se8'
_cell_volume   469.20542608
_cell_formula_units_Z   2
loop_
 _symmetry_equiv_pos_site_id
 _symmetry_equiv_pos_as_xyz
  1  'x, y, z'
loop_
 _atom_site_type_symbol
 _atom_site_label
 _atom_site_symmetry_multiplicity
 _atom_site_fract_x
 _atom_site_fract_y
 _atom_site_fract_z
 _atom_site_occupancy
  Zr  Zr0  1  0.87470248  0.87470248  0.25000000  1.0
  Zr  Zr1  1  0.12529752  0.12529752  0.75000000  1.0
  Tl  Tl2  1  0.37880721  -0.12221067  0.26478360  1.0
  Tl  Tl3  1  1.12221067  0.62119279  0.76478360  1.0
  Tl  Tl4  1  0.87778933  0.37880721  0.23521640  1.0
  Tl  Tl5  1  0.62119279  0.12221067  0.73521640  1.0
  Pb  Pb6  1  0.37419854  0.37419854  0.25000000  1.0
  Pb  Pb7  1  0.62580146  0.62580146  0.75000000  1.0
  Se  Se8  1  0.79819588  -0.00415173  0.49689187  1.0
  Se  Se9  1  1.00415173  0.20180412  0.99689187  1.0
  Se  Se10  1  0.99584827  0.79819588  0.00310813  1.0
  Se  Se11  1  0.20180412  0.00415173  0.50310813  1.0
  Se  Se12  1  0.54825922  -0.23703525  0.03485252  1.0
  Se  Se13  1  1.23703525  0.45174078  0.53485252  1.0
  Se  Se14  1  0.76296475  0.54825922  0.46514748  1.0
  Se  Se15  1  0.45174078  0.23703525  0.96514748  1.0
