# generated using pymatgen
data_KFeSe2
_symmetry_space_group_name_H-M   'P 1'
_cell_length_a   6.89880316
_cell_length_b   6.89880316
_cell_length_c   5.59904277
_cell_angle_alpha   78.26943620
_cell_angle_beta   101.73056380
_cell_angle_gamma   64.30296879
_symmetry_Int_Tables_number   1
_chemical_formula_structural   KFeSe2
_chemical_formula_sum   'K2 Fe2 Se4'
_cell_volume   221.90816933
_cell_formula_units_Z   2
loop_
 _symmetry_equiv_pos_site_id
 _symmetry_equiv_pos_as_xyz
  1  'x, y, z'
loop_
 _atom_site_type_symbol
 _atom_site_label
 _atom_site_symmetry_multiplicity
 _atom_site_fract_x
 _atom_site_fract_y
 _atom_site_fract_z
 _atom_site_occupancy
  K  K0  1  0.86228583  -0.13771417  0.75000000  1.0
  K  K1  1  1.13771417  0.13771417  0.25000000  1.0
  Fe  Fe2  1  1.49741627  0.49741627  0.75000000  1.0
  Fe  Fe3  1  0.50258373  -0.49741627  0.25000000  1.0
  Se  Se4  1  0.41625315  -0.19032694  0.89855829  1.0
  Se  Se5  1  1.19032694  0.58374685  0.39855829  1.0
  Se  Se6  1  0.80967306  -0.58374685  0.60144171  1.0
  Se  Se7  1  1.58374685  0.19032694  0.10144171  1.0
