# generated using pymatgen
data_Gd2Sc3Ge4
_symmetry_space_group_name_H-M   'P 1'
_cell_length_a   7.26699499
_cell_length_b   14.14723317
_cell_length_c   7.53913523
_cell_angle_alpha   90.00000000
_cell_angle_beta   90.00000000
_cell_angle_gamma   90.00000000
_symmetry_Int_Tables_number   1
_chemical_formula_structural   Gd2Sc3Ge4
_chemical_formula_sum   'Gd8 Sc12 Ge16'
_cell_volume   775.08245358
_cell_formula_units_Z   4
loop_
 _symmetry_equiv_pos_site_id
 _symmetry_equiv_pos_as_xyz
  1  'x, y, z'
loop_
 _atom_site_type_symbol
 _atom_site_label
 _atom_site_symmetry_multiplicity
 _atom_site_fract_x
 _atom_site_fract_y
 _atom_site_fract_z
 _atom_site_occupancy
  Gd  Gd0  1  0.49813350  0.90374223  0.67575144  1.0
  Gd  Gd1  1  0.49813350  0.59625777  0.67575144  1.0
  Gd  Gd2  1  0.99813350  0.90374223  0.82424856  1.0
  Gd  Gd3  1  0.99813350  0.59625777  0.82424856  1.0
  Gd  Gd4  1  0.50186650  0.40374223  0.32424856  1.0
  Gd  Gd5  1  0.50186650  0.09625777  0.32424856  1.0
  Gd  Gd6  1  0.00186650  0.40374223  0.17575144  1.0
  Gd  Gd7  1  0.00186650  0.09625777  0.17575144  1.0
  Sc  Sc8  1  0.16716443  0.37446029  0.66811487  1.0
  Sc  Sc9  1  0.16716443  0.12553971  0.66811487  1.0
  Sc  Sc10  1  0.66716443  0.37446029  0.83188513  1.0
  Sc  Sc11  1  0.66716443  0.12553971  0.83188513  1.0
  Sc  Sc12  1  0.83283557  0.87446029  0.33188513  1.0
  Sc  Sc13  1  0.83283557  0.62553971  0.33188513  1.0
  Sc  Sc14  1  0.33283557  0.87446029  0.16811487  1.0
  Sc  Sc15  1  0.33283557  0.62553971  0.16811487  1.0
  Sc  Sc16  1  0.33049616  0.25000000  0.00103004  1.0
  Sc  Sc17  1  0.83049616  0.25000000  0.49896996  1.0
  Sc  Sc18  1  0.66950384  0.75000000  0.99896996  1.0
  Sc  Sc19  1  0.16950384  0.75000000  0.50103004  1.0
  Ge  Ge20  1  0.33027783  0.45873035  0.96005521  1.0
  Ge  Ge21  1  0.33027783  0.04126965  0.96005521  1.0
  Ge  Ge22  1  0.83027783  0.45873035  0.53994479  1.0
  Ge  Ge23  1  0.83027783  0.04126965  0.53994479  1.0
  Ge  Ge24  1  0.66972217  0.95873035  0.03994479  1.0
  Ge  Ge25  1  0.66972217  0.54126965  0.03994479  1.0
  Ge  Ge26  1  0.16972217  0.95873035  0.46005521  1.0
  Ge  Ge27  1  0.16972217  0.54126965  0.46005521  1.0
  Ge  Ge28  1  0.46867446  0.25000000  0.62720311  1.0
  Ge  Ge29  1  0.96867446  0.25000000  0.87279689  1.0
  Ge  Ge30  1  0.53132554  0.75000000  0.37279689  1.0
  Ge  Ge31  1  0.03132554  0.75000000  0.12720311  1.0
  Ge  Ge32  1  0.19611734  0.25000000  0.36189080  1.0
  Ge  Ge33  1  0.69611734  0.25000000  0.13810920  1.0
  Ge  Ge34  1  0.80388266  0.75000000  0.63810920  1.0
  Ge  Ge35  1  0.30388266  0.75000000  0.86189080  1.0
