# generated using pymatgen
data_FeN2F5
_symmetry_space_group_name_H-M   'P 1'
_cell_length_a   6.91774347
_cell_length_b   7.29110932
_cell_length_c   12.62021895
_cell_angle_alpha   90.00000000
_cell_angle_beta   90.00000000
_cell_angle_gamma   90.00000000
_symmetry_Int_Tables_number   1
_chemical_formula_structural   FeN2F5
_chemical_formula_sum   'Fe4 N8 F20'
_cell_volume   636.53890523
_cell_formula_units_Z   4
loop_
 _symmetry_equiv_pos_site_id
 _symmetry_equiv_pos_as_xyz
  1  'x, y, z'
loop_
 _atom_site_type_symbol
 _atom_site_label
 _atom_site_symmetry_multiplicity
 _atom_site_fract_x
 _atom_site_fract_y
 _atom_site_fract_z
 _atom_site_occupancy
  Fe  Fe0  1  0.50000000  0.00000000  0.50000000  1.0
  Fe  Fe1  1  0.50000000  0.50000000  0.50000000  1.0
  Fe  Fe2  1  0.00000000  0.00000000  0.00000000  1.0
  Fe  Fe3  1  0.00000000  0.50000000  0.00000000  1.0
  N  N4  1  0.51131545  0.75000000  0.17285645  1.0
  N  N5  1  0.01131545  0.75000000  0.32714355  1.0
  N  N6  1  0.48868455  0.25000000  0.82714355  1.0
  N  N7  1  0.98868455  0.25000000  0.67285645  1.0
  N  N8  1  0.48851172  0.75000000  0.82833085  1.0
  N  N9  1  0.98851172  0.75000000  0.67166915  1.0
  N  N10  1  0.51148828  0.25000000  0.17166915  1.0
  N  N11  1  0.01148828  0.25000000  0.32833085  1.0
  F  F12  1  0.27478453  0.95168430  0.55776302  1.0
  F  F13  1  0.27478453  0.54831570  0.55776302  1.0
  F  F14  1  0.77478453  0.95168430  0.94223698  1.0
  F  F15  1  0.77478453  0.54831570  0.94223698  1.0
  F  F16  1  0.72521547  0.45168430  0.44223698  1.0
  F  F17  1  0.72521547  0.04831570  0.44223698  1.0
  F  F18  1  0.22521547  0.45168430  0.05776302  1.0
  F  F19  1  0.22521547  0.04831570  0.05776302  1.0
  F  F20  1  0.09658219  0.45463275  0.87407582  1.0
  F  F21  1  0.09658219  0.04536725  0.87407582  1.0
  F  F22  1  0.59658219  0.45463275  0.62592418  1.0
  F  F23  1  0.59658219  0.04536725  0.62592418  1.0
  F  F24  1  0.90341781  0.95463275  0.12592418  1.0
  F  F25  1  0.90341781  0.54536725  0.12592418  1.0
  F  F26  1  0.40341781  0.95463275  0.37407582  1.0
  F  F27  1  0.40341781  0.54536725  0.37407582  1.0
  F  F28  1  0.07982485  0.75000000  0.98470537  1.0
  F  F29  1  0.57982485  0.75000000  0.51529463  1.0
  F  F30  1  0.92017515  0.25000000  0.01529463  1.0
  F  F31  1  0.42017515  0.25000000  0.48470537  1.0
