# generated using pymatgen
data_NaGaO2
_symmetry_space_group_name_H-M   'P 1'
_cell_length_a   5.68245517
_cell_length_b   5.68245517
_cell_length_c   5.68245517
_cell_angle_alpha   30.85247098
_cell_angle_beta   30.85247098
_cell_angle_gamma   30.85247097
_symmetry_Int_Tables_number   1
_chemical_formula_structural   NaGaO2
_chemical_formula_sum   'Na1 Ga1 O2'
_cell_volume   42.79929581
_cell_formula_units_Z   1
loop_
 _symmetry_equiv_pos_site_id
 _symmetry_equiv_pos_as_xyz
  1  'x, y, z'
loop_
 _atom_site_type_symbol
 _atom_site_label
 _atom_site_symmetry_multiplicity
 _atom_site_fract_x
 _atom_site_fract_y
 _atom_site_fract_z
 _atom_site_occupancy
  Na  Na0  1  -0.00000000  0.00000000  -0.00000000  1.0
  Ga  Ga1  1  1.50000000  0.50000000  0.50000000  1.0
  O  O2  1  0.76740427  0.76740427  0.76740427  1.0
  O  O3  1  1.23259573  1.23259573  0.23259573  1.0
