# generated using pymatgen
data_NbP4(S2Cl)5
_symmetry_space_group_name_H-M   'P 1'
_cell_length_a   12.61804815
_cell_length_b   12.14157404
_cell_length_c   10.44597976
_cell_angle_alpha   67.01960763
_cell_angle_beta   67.05450492
_cell_angle_gamma   69.78103048
_symmetry_Int_Tables_number   1
_chemical_formula_structural   NbP4(S2Cl)5
_chemical_formula_sum   'Nb2 P8 S20 Cl10'
_cell_volume   1320.99590422
_cell_formula_units_Z   2
loop_
 _symmetry_equiv_pos_site_id
 _symmetry_equiv_pos_as_xyz
  1  'x, y, z'
loop_
 _atom_site_type_symbol
 _atom_site_label
 _atom_site_symmetry_multiplicity
 _atom_site_fract_x
 _atom_site_fract_y
 _atom_site_fract_z
 _atom_site_occupancy
  Nb  Nb0  1  -0.34930760  -0.63082767  -0.52820496  1.0
  Nb  Nb1  1  -0.65069240  -0.36917233  -0.47179504  1.0
  P  P2  1  -0.57092204  -0.78002133  -0.85884875  1.0
  P  P3  1  -0.42907796  -0.21997867  -0.14115125  1.0
  P  P4  1  -0.83406350  -0.84488373  -0.80775550  1.0
  P  P5  1  -0.16593650  -0.15511627  -0.19224450  1.0
  P  P6  1  -0.83398153  -0.56141727  -0.80047964  1.0
  P  P7  1  -0.16601847  -0.43858273  -0.19952036  1.0
  P  P8  1  -0.77929145  -0.82313073  -0.51788334  1.0
  P  P9  1  -0.22070855  -0.17686927  -0.48211666  1.0
  S  S10  1  -0.59604380  -0.19447115  -1.04032444  1.0
  S  S11  1  -0.40395620  -0.80552885  0.04032444  1.0
  S  S12  1  -0.65049645  -0.87215487  -0.92008279  1.0
  S  S13  1  -0.34950355  -0.12784513  -0.07991721  1.0
  S  S14  1  -0.65036957  -0.58914346  -0.91300424  1.0
  S  S15  1  -0.34963043  -0.41085654  -0.08699576  1.0
  S  S16  1  -0.91331166  -0.65399992  -0.86140885  1.0
  S  S17  1  -0.08668834  -0.34600008  -0.13859115  1.0
  S  S18  1  -0.90719529  -0.92880215  -0.86188233  1.0
  S  S19  1  -0.09280471  -0.07119785  -0.13811767  1.0
  S  S20  1  -0.90662054  -0.38818203  -0.84945547  1.0
  S  S21  1  -0.09337946  -0.61181797  -0.15054453  1.0
  S  S22  1  -0.59584119  -0.85050530  -0.63094165  1.0
  S  S23  1  -0.40415881  -0.14949470  -0.36905835  1.0
  S  S24  1  -0.85860529  -0.91517334  -0.57985629  1.0
  S  S25  1  -0.14139471  -0.08482666  -0.42014371  1.0
  S  S26  1  -0.85836909  -0.63216909  -0.57280452  1.0
  S  S27  1  -0.14163091  -0.36783091  -0.42719548  1.0
  S  S28  1  -0.80130975  -0.88762905  -0.31110208  1.0
  S  S29  1  -0.19869025  -0.11237095  -0.68889792  1.0
  Cl  Cl30  1  -0.26880826  -0.73273168  -0.69887157  1.0
  Cl  Cl31  1  -0.73119174  -0.26726832  -0.30112843  1.0
  Cl  Cl32  1  -0.52310693  -0.50901830  -0.63706123  1.0
  Cl  Cl33  1  -0.47689307  -0.49098170  -0.36293877  1.0
  Cl  Cl34  1  -0.78232936  -0.28684156  -0.60287516  1.0
  Cl  Cl35  1  -0.21767064  -0.71315844  -0.39712484  1.0
  Cl  Cl36  1  -0.47078499  -0.76564980  -0.36998974  1.0
  Cl  Cl37  1  -0.52921501  -0.23435020  -0.63001026  1.0
  Cl  Cl38  1  -0.73719642  -0.53437868  -0.32065005  1.0
  Cl  Cl39  1  -0.26280358  -0.46562132  -0.67934995  1.0
