# generated using pymatgen
data_Li3Y(BO3)2
_symmetry_space_group_name_H-M   'P 1'
_cell_length_a   8.67747753
_cell_length_b   6.46354143
_cell_length_c   10.06458651
_cell_angle_alpha   90.00000000
_cell_angle_beta   116.68034172
_cell_angle_gamma   90.00000000
_symmetry_Int_Tables_number   1
_chemical_formula_structural   Li3Y(BO3)2
_chemical_formula_sum   'Li12 Y4 B8 O24'
_cell_volume   504.39052727
_cell_formula_units_Z   4
loop_
 _symmetry_equiv_pos_site_id
 _symmetry_equiv_pos_as_xyz
  1  'x, y, z'
loop_
 _atom_site_type_symbol
 _atom_site_label
 _atom_site_symmetry_multiplicity
 _atom_site_fract_x
 _atom_site_fract_y
 _atom_site_fract_z
 _atom_site_occupancy
  Li  Li0  1  0.10354517  0.25389129  0.47938157  1.0
  Li  Li1  1  0.89645483  0.75389129  0.02061843  1.0
  Li  Li2  1  0.89645483  0.74610871  0.52061843  1.0
  Li  Li3  1  0.10354517  0.24610871  0.97938157  1.0
  Li  Li4  1  0.20585616  0.93839735  0.16633110  1.0
  Li  Li5  1  0.79414384  0.43839735  0.33366890  1.0
  Li  Li6  1  0.79414384  0.06160265  0.83366890  1.0
  Li  Li7  1  0.20585616  0.56160265  0.66633110  1.0
  Li  Li8  1  0.33623021  0.71872239  0.03978367  1.0
  Li  Li9  1  0.66376979  0.21872239  0.46021633  1.0
  Li  Li10  1  0.66376979  0.28127761  0.96021633  1.0
  Li  Li11  1  0.33623021  0.78127761  0.53978367  1.0
  Y  Y12  1  0.31824413  0.47165261  0.30141863  1.0
  Y  Y13  1  0.68175587  0.97165261  0.19858137  1.0
  Y  Y14  1  0.68175587  0.52834739  0.69858137  1.0
  Y  Y15  1  0.31824413  0.02834739  0.80141863  1.0
  B  B16  1  0.03958707  0.66118159  0.31980726  1.0
  B  B17  1  0.96041293  0.16118159  0.18019274  1.0
  B  B18  1  0.96041293  0.33881841  0.68019274  1.0
  B  B19  1  0.03958707  0.83881841  0.81980726  1.0
  B  B20  1  0.55360720  0.82730813  0.39051682  1.0
  B  B21  1  0.44639280  0.32730813  0.10948318  1.0
  B  B22  1  0.44639280  0.17269187  0.60948318  1.0
  B  B23  1  0.55360720  0.67269187  0.89051682  1.0
  O  O24  1  0.09252114  0.70554015  0.21103268  1.0
  O  O25  1  0.90747886  0.20554015  0.28896732  1.0
  O  O26  1  0.90747886  0.29445985  0.78896732  1.0
  O  O27  1  0.09252114  0.79445985  0.71103268  1.0
  O  O28  1  0.12156101  0.20948948  0.19344242  1.0
  O  O29  1  0.87843899  0.70948948  0.30655758  1.0
  O  O30  1  0.87843899  0.79051052  0.80655758  1.0
  O  O31  1  0.12156101  0.29051052  0.69344242  1.0
  O  O32  1  0.16215117  0.55832005  0.44586956  1.0
  O  O33  1  0.83784883  0.05832005  0.05413044  1.0
  O  O34  1  0.83784883  0.44167995  0.55413044  1.0
  O  O35  1  0.16215117  0.94167995  0.94586956  1.0
  O  O36  1  0.29538155  0.43718543  0.06250018  1.0
  O  O37  1  0.70461845  0.93718543  0.43749982  1.0
  O  O38  1  0.70461845  0.56281457  0.93749982  1.0
  O  O39  1  0.29538155  0.06281457  0.56250018  1.0
  O  O40  1  0.44249325  0.82176004  0.23915882  1.0
  O  O41  1  0.55750675  0.32176004  0.26084118  1.0
  O  O42  1  0.55750675  0.17823996  0.76084118  1.0
  O  O43  1  0.44249325  0.67823996  0.73915882  1.0
  O  O44  1  0.51110138  0.71001542  0.48384641  1.0
  O  O45  1  0.48889862  0.21001542  0.01615359  1.0
  O  O46  1  0.48889862  0.28998458  0.51615359  1.0
  O  O47  1  0.51110138  0.78998458  0.98384641  1.0
