# generated using pymatgen
data_V2Pb3O8
_symmetry_space_group_name_H-M   'P 1'
_cell_length_a   7.48748969
_cell_length_b   6.55860610
_cell_length_c   9.47377294
_cell_angle_alpha   90.00000000
_cell_angle_beta   114.21906160
_cell_angle_gamma   90.00000000
_symmetry_Int_Tables_number   1
_chemical_formula_structural   V2Pb3O8
_chemical_formula_sum   'V4 Pb6 O16'
_cell_volume   424.28514734
_cell_formula_units_Z   2
loop_
 _symmetry_equiv_pos_site_id
 _symmetry_equiv_pos_as_xyz
  1  'x, y, z'
loop_
 _atom_site_type_symbol
 _atom_site_label
 _atom_site_symmetry_multiplicity
 _atom_site_fract_x
 _atom_site_fract_y
 _atom_site_fract_z
 _atom_site_occupancy
  O  O0  1  0.27248415  0.76615583  0.51222674  1.0
  O  O1  1  0.72751585  0.26615583  0.98777326  1.0
  O  O2  1  0.72751585  0.23384417  0.48777326  1.0
  O  O3  1  0.27248415  0.73384417  0.01222674  1.0
  O  O4  1  0.24004138  0.19401405  0.51918989  1.0
  O  O5  1  0.75995862  0.69401405  0.98081011  1.0
  O  O6  1  0.75995862  0.80598595  0.48081011  1.0
  O  O7  1  0.24004138  0.30598595  0.01918989  1.0
  O  O8  1  0.32924183  0.47634964  0.78404416  1.0
  O  O9  1  0.67075817  0.97634964  0.71595584  1.0
  O  O10  1  0.67075817  0.52365036  0.21595584  1.0
  O  O11  1  0.32924183  0.02365036  0.28404416  1.0
  O  O12  1  0.03773786  0.04235460  0.72812155  1.0
  O  O13  1  0.96226214  0.54235460  0.77187845  1.0
  O  O14  1  0.96226214  0.95764540  0.27187845  1.0
  O  O15  1  0.03773786  0.45764540  0.22812155  1.0
  Pb  Pb16  1  -0.00000000  0.50000000  0.50000000  1.0
  Pb  Pb17  1  0.00000000  0.00000000  0.00000000  1.0
  Pb  Pb18  1  0.38348249  0.11220983  0.78725566  1.0
  Pb  Pb19  1  0.61651751  0.61220983  0.71274434  1.0
  Pb  Pb20  1  0.61651751  0.88779017  0.21274434  1.0
  Pb  Pb21  1  0.38348249  0.38779017  0.28725566  1.0
  V  V22  1  0.20055098  0.52036511  0.89978241  1.0
  V  V23  1  0.79944902  0.02036511  0.60021759  1.0
  V  V24  1  0.79944902  0.47963489  0.10021759  1.0
  V  V25  1  0.20055098  0.97963489  0.39978241  1.0
