# generated using pymatgen
data_S2N
_symmetry_space_group_name_H-M   'P 1'
_cell_length_a   11.80385348
_cell_length_b   11.80385348
_cell_length_c   4.39147951
_cell_angle_alpha   90.00000000
_cell_angle_beta   90.00000000
_cell_angle_gamma   90.00000000
_symmetry_Int_Tables_number   1
_chemical_formula_structural   S2N
_chemical_formula_sum   'S16 N8'
_cell_volume   611.86904351
_cell_formula_units_Z   8
loop_
 _symmetry_equiv_pos_site_id
 _symmetry_equiv_pos_as_xyz
  1  'x, y, z'
loop_
 _atom_site_type_symbol
 _atom_site_label
 _atom_site_symmetry_multiplicity
 _atom_site_fract_x
 _atom_site_fract_y
 _atom_site_fract_z
 _atom_site_occupancy
  S  S0  1  0.37999456  0.62000544  0.50864877  1.0
  S  S1  1  0.87999456  0.87999456  0.00864877  1.0
  S  S2  1  0.62000544  0.37999456  0.50864877  1.0
  S  S3  1  0.12000544  0.12000544  0.00864877  1.0
  S  S4  1  0.34481435  0.85170264  0.71713665  1.0
  S  S5  1  0.84481435  0.64829736  0.21713665  1.0
  S  S6  1  0.14829736  0.65518565  0.71713665  1.0
  S  S7  1  0.64829736  0.84481435  0.21713665  1.0
  S  S8  1  0.65518565  0.14829736  0.71713665  1.0
  S  S9  1  0.15518565  0.35170264  0.21713665  1.0
  S  S10  1  0.85170264  0.34481435  0.71713665  1.0
  S  S11  1  0.35170264  0.15518565  0.21713665  1.0
  S  S12  1  0.17726361  0.82273639  0.58935992  1.0
  S  S13  1  0.67726361  0.67726361  0.08935992  1.0
  S  S14  1  0.82273639  0.17726361  0.58935992  1.0
  S  S15  1  0.32273639  0.32273639  0.08935992  1.0
  N  N16  1  0.41927406  0.74683605  0.56215901  1.0
  N  N17  1  0.91927406  0.75316395  0.06215901  1.0
  N  N18  1  0.25316395  0.58072594  0.56215901  1.0
  N  N19  1  0.75316395  0.91927406  0.06215901  1.0
  N  N20  1  0.58072594  0.25316395  0.56215901  1.0
  N  N21  1  0.08072594  0.24683605  0.06215901  1.0
  N  N22  1  0.74683605  0.41927406  0.56215901  1.0
  N  N23  1  0.24683605  0.08072594  0.06215901  1.0
