# generated using pymatgen
data_BaGd2PtO5
_symmetry_space_group_name_H-M   'P 1'
_cell_length_a   6.68524285
_cell_length_b   6.68524285
_cell_length_c   5.95101303
_cell_angle_alpha   90.00000000
_cell_angle_beta   90.00000000
_cell_angle_gamma   90.00000000
_symmetry_Int_Tables_number   1
_chemical_formula_structural   BaGd2PtO5
_chemical_formula_sum   'Ba2 Gd4 Pt2 O10'
_cell_volume   265.96548259
_cell_formula_units_Z   2
loop_
 _symmetry_equiv_pos_site_id
 _symmetry_equiv_pos_as_xyz
  1  'x, y, z'
loop_
 _atom_site_type_symbol
 _atom_site_label
 _atom_site_symmetry_multiplicity
 _atom_site_fract_x
 _atom_site_fract_y
 _atom_site_fract_z
 _atom_site_occupancy
  Ba  Ba0  1  0.50000000  0.50000000  0.00000000  1.0
  Ba  Ba1  1  0.00000000  0.00000000  0.00000000  1.0
  Gd  Gd2  1  0.32476544  0.17523456  0.50000000  1.0
  Gd  Gd3  1  0.82476544  0.32476544  0.50000000  1.0
  Gd  Gd4  1  0.67523456  0.82476544  0.50000000  1.0
  Gd  Gd5  1  0.17523456  0.67523456  0.50000000  1.0
  Pt  Pt6  1  0.50000000  0.00000000  0.00000000  1.0
  Pt  Pt7  1  0.00000000  0.50000000  0.00000000  1.0
  O  O8  1  0.86028905  0.63971095  0.74271750  1.0
  O  O9  1  0.86028905  0.63971095  0.25728250  1.0
  O  O10  1  0.36028905  0.86028905  0.74271750  1.0
  O  O11  1  0.36028905  0.86028905  0.25728250  1.0
  O  O12  1  0.13971095  0.36028905  0.74271750  1.0
  O  O13  1  0.13971095  0.36028905  0.25728250  1.0
  O  O14  1  0.63971095  0.13971095  0.74271750  1.0
  O  O15  1  0.63971095  0.13971095  0.25728250  1.0
  O  O16  1  0.50000000  0.50000000  0.50000000  1.0
  O  O17  1  0.00000000  0.00000000  0.50000000  1.0
