# generated using pymatgen
data_Sr(BRh)2
_symmetry_space_group_name_H-M   'P 1'
_cell_length_a   7.11982367
_cell_length_b   6.13938151
_cell_length_c   5.60420553
_cell_angle_alpha   74.48458590
_cell_angle_beta   56.18829147
_cell_angle_gamma   49.32712263
_symmetry_Int_Tables_number   1
_chemical_formula_structural   Sr(BRh)2
_chemical_formula_sum   'Sr2 B4 Rh4'
_cell_volume   152.59979681
_cell_formula_units_Z   2
loop_
 _symmetry_equiv_pos_site_id
 _symmetry_equiv_pos_as_xyz
  1  'x, y, z'
loop_
 _atom_site_type_symbol
 _atom_site_label
 _atom_site_symmetry_multiplicity
 _atom_site_fract_x
 _atom_site_fract_y
 _atom_site_fract_z
 _atom_site_occupancy
  Sr  Sr0  1  0.50000000  -0.50000000  0.50000000  1.0
  Sr  Sr1  1  0.75000000  0.75000000  0.75000000  1.0
  B  B2  1  0.82782915  -0.82782915  0.82782915  1.0
  B  B3  1  1.42217085  0.07782915  0.42217085  1.0
  B  B4  1  0.17217085  -0.17217085  0.17217085  1.0
  B  B5  1  1.07782915  0.42217085  0.07782915  1.0
  Rh  Rh6  1  0.86923608  0.86923608  -0.86923608  1.0
  Rh  Rh7  1  0.13076392  0.13076392  -0.13076392  1.0
  Rh  Rh8  1  1.38076392  0.38076392  0.11923608  1.0
  Rh  Rh9  1  0.11923608  0.11923608  1.38076392  1.0
