# generated using pymatgen
data_Bi2AuO5
_symmetry_space_group_name_H-M   'P 1'
_cell_length_a   8.73440700
_cell_length_b   8.73440700
_cell_length_c   5.89139514
_cell_angle_alpha   90.00000000
_cell_angle_beta   90.00000000
_cell_angle_gamma   90.00000000
_symmetry_Int_Tables_number   1
_chemical_formula_structural   Bi2AuO5
_chemical_formula_sum   'Bi8 Au4 O20'
_cell_volume   449.45374347
_cell_formula_units_Z   4
loop_
 _symmetry_equiv_pos_site_id
 _symmetry_equiv_pos_as_xyz
  1  'x, y, z'
loop_
 _atom_site_type_symbol
 _atom_site_label
 _atom_site_symmetry_multiplicity
 _atom_site_fract_x
 _atom_site_fract_y
 _atom_site_fract_z
 _atom_site_occupancy
  Bi  Bi0  1  0.64774998  0.35225002  0.25000000  1.0
  Bi  Bi1  1  0.35225002  0.35225002  0.75000000  1.0
  Bi  Bi2  1  0.64774998  0.64774998  0.75000000  1.0
  Bi  Bi3  1  0.35225002  0.64774998  0.25000000  1.0
  Bi  Bi4  1  0.85225002  0.14774998  0.75000000  1.0
  Bi  Bi5  1  0.14774998  0.14774998  0.25000000  1.0
  Bi  Bi6  1  0.85225002  0.85225002  0.25000000  1.0
  Bi  Bi7  1  0.14774998  0.85225002  0.75000000  1.0
  Au  Au8  1  0.00000000  0.50000000  0.40400580  1.0
  Au  Au9  1  0.00000000  0.50000000  0.90400580  1.0
  Au  Au10  1  0.50000000  0.00000000  0.59599420  1.0
  Au  Au11  1  0.50000000  0.00000000  0.09599420  1.0
  O  O12  1  0.08129431  0.71296321  0.39023018  1.0
  O  O13  1  0.91870569  0.71296321  0.89023018  1.0
  O  O14  1  0.08129431  0.28703679  0.89023018  1.0
  O  O15  1  0.91870569  0.28703679  0.39023018  1.0
  O  O16  1  0.21296321  0.58129431  0.89023018  1.0
  O  O17  1  0.78703679  0.58129431  0.39023018  1.0
  O  O18  1  0.21296321  0.41870569  0.39023018  1.0
  O  O19  1  0.78703679  0.41870569  0.89023018  1.0
  O  O20  1  0.41870569  0.78703679  0.60976982  1.0
  O  O21  1  0.58129431  0.78703679  0.10976982  1.0
  O  O22  1  0.41870569  0.21296321  0.10976982  1.0
  O  O23  1  0.58129431  0.21296321  0.60976982  1.0
  O  O24  1  0.28703679  0.91870569  0.10976982  1.0
  O  O25  1  0.71296321  0.91870569  0.60976982  1.0
  O  O26  1  0.28703679  0.08129431  0.60976982  1.0
  O  O27  1  0.71296321  0.08129431  0.10976982  1.0
  O  O28  1  0.50000000  0.50000000  0.50000000  1.0
  O  O29  1  0.50000000  0.50000000  0.00000000  1.0
  O  O30  1  0.00000000  0.00000000  0.00000000  1.0
  O  O31  1  0.00000000  0.00000000  0.50000000  1.0
