# generated using pymatgen
data_Ca2In
_symmetry_space_group_name_H-M   'P 1'
_cell_length_a   7.24092417
_cell_length_b   5.36856261
_cell_length_c   10.00615990
_cell_angle_alpha   90.00000000
_cell_angle_beta   90.00000000
_cell_angle_gamma   90.00000000
_symmetry_Int_Tables_number   1
_chemical_formula_structural   Ca2In
_chemical_formula_sum   'Ca8 In4'
_cell_volume   388.97300361
_cell_formula_units_Z   4
loop_
 _symmetry_equiv_pos_site_id
 _symmetry_equiv_pos_as_xyz
  1  'x, y, z'
loop_
 _atom_site_type_symbol
 _atom_site_label
 _atom_site_symmetry_multiplicity
 _atom_site_fract_x
 _atom_site_fract_y
 _atom_site_fract_z
 _atom_site_occupancy
  Ca  Ca0  1  0.96449622  0.75000000  0.70231011  1.0
  Ca  Ca1  1  0.46449622  0.75000000  0.79768989  1.0
  Ca  Ca2  1  0.03550378  0.25000000  0.29768989  1.0
  Ca  Ca3  1  0.53550378  0.25000000  0.20231011  1.0
  Ca  Ca4  1  0.82691823  0.75000000  0.06564830  1.0
  Ca  Ca5  1  0.32691823  0.75000000  0.43435170  1.0
  Ca  Ca6  1  0.17308177  0.25000000  0.93435170  1.0
  Ca  Ca7  1  0.67308177  0.25000000  0.56564830  1.0
  In  In8  1  0.77845718  0.75000000  0.38799188  1.0
  In  In9  1  0.27845718  0.75000000  0.11200812  1.0
  In  In10  1  0.22154282  0.25000000  0.61200812  1.0
  In  In11  1  0.72154282  0.25000000  0.88799188  1.0
