# generated using pymatgen
data_MnSe2O5
_symmetry_space_group_name_H-M   'P 1'
_cell_length_a   6.96528339
_cell_length_b   10.73753265
_cell_length_c   6.32064643
_cell_angle_alpha   90.00000000
_cell_angle_beta   90.00000000
_cell_angle_gamma   90.00000000
_symmetry_Int_Tables_number   1
_chemical_formula_structural   MnSe2O5
_chemical_formula_sum   'Mn4 Se8 O20'
_cell_volume   472.72087981
_cell_formula_units_Z   4
loop_
 _symmetry_equiv_pos_site_id
 _symmetry_equiv_pos_as_xyz
  1  'x, y, z'
loop_
 _atom_site_type_symbol
 _atom_site_label
 _atom_site_symmetry_multiplicity
 _atom_site_fract_x
 _atom_site_fract_y
 _atom_site_fract_z
 _atom_site_occupancy
  Mn  Mn0  1  0.50000000  0.06061142  0.75000000  1.0
  Mn  Mn1  1  0.50000000  0.93938858  0.25000000  1.0
  Mn  Mn2  1  0.00000000  0.56061142  0.75000000  1.0
  Mn  Mn3  1  0.00000000  0.43938858  0.25000000  1.0
  Se  Se4  1  0.36609664  0.34495222  0.53858902  1.0
  Se  Se5  1  0.36609664  0.65504778  0.03858902  1.0
  Se  Se6  1  0.86609664  0.84495222  0.96141098  1.0
  Se  Se7  1  0.86609664  0.15504778  0.46141098  1.0
  Se  Se8  1  0.63390336  0.34495222  0.96141098  1.0
  Se  Se9  1  0.63390336  0.65504778  0.46141098  1.0
  Se  Se10  1  0.13390336  0.84495222  0.53858902  1.0
  Se  Se11  1  0.13390336  0.15504778  0.03858902  1.0
  O  O12  1  0.30345687  0.21214304  0.66479944  1.0
  O  O13  1  0.30345687  0.78785696  0.16479944  1.0
  O  O14  1  0.80345687  0.71214304  0.83520056  1.0
  O  O15  1  0.80345687  0.28785696  0.33520056  1.0
  O  O16  1  0.69654313  0.21214304  0.83520056  1.0
  O  O17  1  0.69654313  0.78785696  0.33520056  1.0
  O  O18  1  0.19654313  0.71214304  0.66479944  1.0
  O  O19  1  0.19654313  0.28785696  0.16479944  1.0
  O  O20  1  0.15901556  0.43281859  0.54748894  1.0
  O  O21  1  0.15901556  0.56718141  0.04748894  1.0
  O  O22  1  0.65901556  0.93281859  0.95251106  1.0
  O  O23  1  0.65901556  0.06718141  0.45251106  1.0
  O  O24  1  0.84098444  0.43281859  0.95251106  1.0
  O  O25  1  0.84098444  0.56718141  0.45251106  1.0
  O  O26  1  0.34098444  0.93281859  0.54748894  1.0
  O  O27  1  0.34098444  0.06718141  0.04748894  1.0
  O  O28  1  0.50000000  0.43102587  0.75000000  1.0
  O  O29  1  0.50000000  0.56897413  0.25000000  1.0
  O  O30  1  0.00000000  0.93102587  0.75000000  1.0
  O  O31  1  -0.00000000  0.06897413  0.25000000  1.0
