# generated using pymatgen
data_Al2Cu2Bi2S3Cl8
_symmetry_space_group_name_H-M   'P 1'
_cell_length_a   6.60136965
_cell_length_b   6.60136965
_cell_length_c   25.89637990
_cell_angle_alpha   90.00000000
_cell_angle_beta   90.00000000
_cell_angle_gamma   120.00000000
_symmetry_Int_Tables_number   1
_chemical_formula_structural   Al2Cu2Bi2S3Cl8
_chemical_formula_sum   'Al4 Cu4 Bi4 S6 Cl16'
_cell_volume   977.32226598
_cell_formula_units_Z   2
loop_
 _symmetry_equiv_pos_site_id
 _symmetry_equiv_pos_as_xyz
  1  'x, y, z'
loop_
 _atom_site_type_symbol
 _atom_site_label
 _atom_site_symmetry_multiplicity
 _atom_site_fract_x
 _atom_site_fract_y
 _atom_site_fract_z
 _atom_site_occupancy
  Al  Al0  1  0.33333333  0.66666667  0.91416200  1.0
  Al  Al1  1  0.33333333  0.66666667  0.58583800  1.0
  Al  Al2  1  0.66666667  0.33333333  0.41416200  1.0
  Al  Al3  1  0.66666667  0.33333333  0.08583800  1.0
  Cu  Cu4  1  0.66666667  0.33333333  0.25000000  1.0
  Cu  Cu5  1  0.33333333  0.66666667  0.75000000  1.0
  Cu  Cu6  1  0.00000000  0.00000000  0.25000000  1.0
  Cu  Cu7  1  0.00000000  0.00000000  0.75000000  1.0
  Bi  Bi8  1  0.33333333  0.66666667  0.31692516  1.0
  Bi  Bi9  1  0.33333333  0.66666667  0.18307484  1.0
  Bi  Bi10  1  0.66666667  0.33333333  0.81692516  1.0
  Bi  Bi11  1  0.66666667  0.33333333  0.68307484  1.0
  S  S12  1  0.33285056  0.98406703  0.25000000  1.0
  S  S13  1  0.98406703  0.65121647  0.75000000  1.0
  S  S14  1  0.65121647  0.66714944  0.25000000  1.0
  S  S15  1  0.01593297  0.34878353  0.25000000  1.0
  S  S16  1  0.66714944  0.01593297  0.75000000  1.0
  S  S17  1  0.34878353  0.33285056  0.75000000  1.0
  Cl  Cl18  1  0.94540835  0.66043464  0.38137021  1.0
  Cl  Cl19  1  0.94540835  0.66043464  0.11862979  1.0
  Cl  Cl20  1  0.66043464  0.71502628  0.88137021  1.0
  Cl  Cl21  1  0.66043464  0.71502628  0.61862979  1.0
  Cl  Cl22  1  0.71502628  0.05459165  0.38137021  1.0
  Cl  Cl23  1  0.71502628  0.05459165  0.11862979  1.0
  Cl  Cl24  1  0.33956536  0.28497372  0.38137021  1.0
  Cl  Cl25  1  0.33956536  0.28497372  0.11862979  1.0
  Cl  Cl26  1  0.05459165  0.33956536  0.88137021  1.0
  Cl  Cl27  1  0.05459165  0.33956536  0.61862979  1.0
  Cl  Cl28  1  0.28497372  0.94540835  0.88137021  1.0
  Cl  Cl29  1  0.28497372  0.94540835  0.61862979  1.0
  Cl  Cl30  1  0.33333333  0.66666667  0.50490892  1.0
  Cl  Cl31  1  0.33333333  0.66666667  -0.00490892  1.0
  Cl  Cl32  1  0.66666667  0.33333333  1.00490892  1.0
  Cl  Cl33  1  0.66666667  0.33333333  0.49509108  1.0
