# generated using pymatgen
data_CaWO4
_symmetry_space_group_name_H-M   'P 1'
_cell_length_a   6.86888776
_cell_length_b   6.86888776
_cell_length_c   5.30192569
_cell_angle_alpha   67.29803507
_cell_angle_beta   112.70196493
_cell_angle_gamma   66.15839385
_symmetry_Int_Tables_number   1
_chemical_formula_structural   CaWO4
_chemical_formula_sum   'Ca2 W2 O8'
_cell_volume   161.79078066
_cell_formula_units_Z   2
loop_
 _symmetry_equiv_pos_site_id
 _symmetry_equiv_pos_as_xyz
  1  'x, y, z'
loop_
 _atom_site_type_symbol
 _atom_site_label
 _atom_site_symmetry_multiplicity
 _atom_site_fract_x
 _atom_site_fract_y
 _atom_site_fract_z
 _atom_site_occupancy
  Ca  Ca0  1  0.62499891  0.62499891  0.75000000  1.0
  Ca  Ca1  1  1.37500109  0.37500109  0.25000000  1.0
  W  W2  1  1.12499642  0.12499642  0.75000000  1.0
  W  W3  1  0.87500358  0.87500358  0.25000000  1.0
  O  O4  1  1.36106422  0.06027424  0.14305856  1.0
  O  O5  1  0.93972576  0.63893578  0.64305856  1.0
  O  O6  1  1.06027424  0.36106422  0.35694144  1.0
  O  O7  1  1.63893578  -0.06027424  0.85694144  1.0
  O  O8  1  1.71800489  0.20333703  0.15771919  1.0
  O  O9  1  0.79666297  0.28199511  0.65771919  1.0
  O  O10  1  1.20333703  0.71800489  0.34228081  1.0
  O  O11  1  1.28199511  -0.20333703  0.84228081  1.0
