# generated using pymatgen
data_Ba7Na5Li3N3
_symmetry_space_group_name_H-M   'P 1'
_cell_length_a   12.48236240
_cell_length_b   12.48236240
_cell_length_c   12.48236240
_cell_angle_alpha   60.00000000
_cell_angle_beta   60.00000000
_cell_angle_gamma   60.00000000
_symmetry_Int_Tables_number   1
_chemical_formula_structural   Ba7Na5Li3N3
_chemical_formula_sum   'Ba14 Na10 Li6 N6'
_cell_volume   1375.23008440
_cell_formula_units_Z   2
loop_
 _symmetry_equiv_pos_site_id
 _symmetry_equiv_pos_as_xyz
  1  'x, y, z'
loop_
 _atom_site_type_symbol
 _atom_site_label
 _atom_site_symmetry_multiplicity
 _atom_site_fract_x
 _atom_site_fract_y
 _atom_site_fract_z
 _atom_site_occupancy
  Ba  Ba0  1  -0.71041873  0.71041873  0.71041873  1.0
  Ba  Ba1  1  -0.28958127  0.71041873  0.28958127  1.0
  Ba  Ba2  1  -0.28958127  0.28958127  0.71041873  1.0
  Ba  Ba3  1  0.28958127  1.28958127  -0.28958127  1.0
  Ba  Ba4  1  0.28958127  -0.28958127  0.28958127  1.0
  Ba  Ba5  1  -0.28958127  0.28958127  0.28958127  1.0
  Ba  Ba6  1  0.89581598  0.89581598  -0.10418402  1.0
  Ba  Ba7  1  0.31255205  0.89581598  -0.10418402  1.0
  Ba  Ba8  1  0.89581598  0.89581598  -0.68744795  1.0
  Ba  Ba9  1  0.89581598  0.31255205  -0.10418402  1.0
  Ba  Ba10  1  0.10350935  0.10350935  0.10350935  1.0
  Ba  Ba11  1  0.68947195  0.10350935  0.10350935  1.0
  Ba  Ba12  1  0.10350935  0.10350935  0.68947195  1.0
  Ba  Ba13  1  0.10350935  0.68947195  0.10350935  1.0
  Na  Na14  1  0.50928239  0.99071761  -0.00928239  1.0
  Na  Na15  1  0.99071761  0.99071761  -0.49071761  1.0
  Na  Na16  1  0.99071761  0.50928239  -0.00928239  1.0
  Na  Na17  1  0.50928239  0.50928239  -0.00928239  1.0
  Na  Na18  1  0.50928239  0.99071761  -0.49071761  1.0
  Na  Na19  1  0.99071761  0.50928239  -0.49071761  1.0
  Na  Na20  1  0.32819707  0.32819707  0.32819707  1.0
  Na  Na21  1  0.01540879  0.32819707  0.32819707  1.0
  Na  Na22  1  0.32819707  0.32819707  0.01540879  1.0
  Na  Na23  1  0.32819707  0.01540879  0.32819707  1.0
  Li  Li24  1  0.68328129  0.68328129  -0.31671871  1.0
  Li  Li25  1  0.95015612  0.68328129  -0.31671871  1.0
  Li  Li26  1  0.68328129  0.68328129  -0.04984388  1.0
  Li  Li27  1  0.68328129  0.95015612  -0.31671871  1.0
  Li  Li28  1  -0.50000000  0.50000000  0.50000000  1.0
  Li  Li29  1  0.00000000  0.00000000  0.00000000  1.0
  N  N30  1  -0.85171827  0.85171827  0.85171827  1.0
  N  N31  1  -0.14828173  0.85171827  0.14828173  1.0
  N  N32  1  -0.14828173  0.14828173  0.85171827  1.0
  N  N33  1  0.14828173  1.14828173  -0.14828173  1.0
  N  N34  1  0.14828173  -0.14828173  0.14828173  1.0
  N  N35  1  -0.14828173  0.14828173  0.14828173  1.0
