# generated using pymatgen
data_Hf(TlS)4
_symmetry_space_group_name_H-M   'P 1'
_cell_length_a   9.30798510
_cell_length_b   9.30726472
_cell_length_c   15.77977094
_cell_angle_alpha   104.44472980
_cell_angle_beta   103.86758227
_cell_angle_gamma   89.88571365
_symmetry_Int_Tables_number   1
_chemical_formula_structural   Hf(TlS)4
_chemical_formula_sum   'Hf5 Tl20 S20'
_cell_volume   1282.80082425
_cell_formula_units_Z   5
loop_
 _symmetry_equiv_pos_site_id
 _symmetry_equiv_pos_as_xyz
  1  'x, y, z'
loop_
 _atom_site_type_symbol
 _atom_site_label
 _atom_site_symmetry_multiplicity
 _atom_site_fract_x
 _atom_site_fract_y
 _atom_site_fract_z
 _atom_site_occupancy
  Hf  Hf0  1  -0.32179886  -0.98615581  -0.40087899  1.0
  Hf  Hf1  1  -0.67820114  -0.01384419  -0.59912101  1.0
  Hf  Hf2  1  -0.68411241  -0.82833736  -0.80146075  1.0
  Hf  Hf3  1  -0.31588759  -0.17166264  -0.19853925  1.0
  Hf  Hf4  1  -0.50000000  0.00000000  0.00000000  1.0
  Tl  Tl5  1  -0.93236820  -0.96237629  -0.20210051  1.0
  Tl  Tl6  1  -0.06763180  -0.03762371  -0.79789949  1.0
  Tl  Tl7  1  -0.28270730  -0.79236971  -0.59870421  1.0
  Tl  Tl8  1  -0.71729270  -0.20763029  -0.40129579  1.0
  Tl  Tl9  1  -0.91731499  -0.78939294  -0.40284742  1.0
  Tl  Tl10  1  -0.08268501  -0.21060706  -0.59715258  1.0
  Tl  Tl11  1  -0.54815119  -0.78115154  -0.20356649  1.0
  Tl  Tl12  1  -0.45184881  -0.21884846  -0.79643351  1.0
  Tl  Tl13  1  -0.89587789  -0.62932213  -0.61462306  1.0
  Tl  Tl14  1  -0.10412211  -0.37067787  -0.38537694  1.0
  Tl  Tl15  1  -0.29938176  -0.61937560  -0.81106763  1.0
  Tl  Tl16  1  -0.70061824  -0.38062440  -0.18893237  1.0
  Tl  Tl17  1  -0.52944951  -0.59033479  -0.40330385  1.0
  Tl  Tl18  1  -0.47055049  -0.40966521  -0.59669615  1.0
  Tl  Tl19  1  -0.88214174  -0.41788808  -0.79739074  1.0
  Tl  Tl20  1  -0.11785826  -0.58211192  -0.20260926  1.0
  Tl  Tl21  1  -0.28932248  -0.38790340  -1.00495031  1.0
  Tl  Tl22  1  -0.71067752  -0.61209660  0.00495031  1.0
  Tl  Tl23  1  -0.89306030  -0.21548411  -0.99049890  1.0
  Tl  Tl24  1  -0.10693970  -0.78451589  -0.00950110  1.0
  S  S25  1  -0.93758446  -0.93446809  -0.59498269  1.0
  S  S26  1  -0.06241554  -0.06553191  -0.40501731  1.0
  S  S27  1  -0.60117163  -0.92800684  -0.42447451  1.0
  S  S28  1  -0.39882837  -0.07199316  -0.57552549  1.0
  S  S29  1  -0.75807577  -0.92378188  -0.97707053  1.0
  S  S30  1  -0.24192423  -0.07621812  -0.02292947  1.0
  S  S31  1  -0.42076646  -0.91576551  -0.82478503  1.0
  S  S32  1  -0.57923354  -0.08423449  -0.17521497  1.0
  S  S33  1  -0.94759537  -0.76035019  -0.80867057  1.0
  S  S34  1  -0.05240463  -0.23964981  -0.19132943  1.0
  S  S35  1  -0.60998296  -0.75668249  -0.62599297  1.0
  S  S36  1  -0.39001704  -0.24331751  -0.37400703  1.0
  S  S37  1  -0.60932456  -0.56615035  -0.79916563  1.0
  S  S38  1  -0.39067544  -0.43384965  -0.20083437  1.0
  S  S39  1  -0.75198961  -0.27669587  -0.60330206  1.0
  S  S40  1  -0.24801039  -0.72330413  -0.39669794  1.0
  S  S41  1  -0.57183967  -0.26430864  -0.99571016  1.0
  S  S42  1  -0.42816033  -0.73569136  -0.00428984  1.0
  S  S43  1  -0.73187237  -0.08844805  -0.77384345  1.0
  S  S44  1  -0.26812763  -0.91155195  -0.22615655  1.0
