# generated using pymatgen
data_Si2Rh
_symmetry_space_group_name_H-M   'P 1'
_cell_length_a   6.96394203
_cell_length_b   6.96394203
_cell_length_c   8.06065798
_cell_angle_alpha   90.00000000
_cell_angle_beta   90.00000000
_cell_angle_gamma   70.26097630
_symmetry_Int_Tables_number   1
_chemical_formula_structural   Si2Rh
_chemical_formula_sum   'Si16 Rh8'
_cell_volume   367.94381094
_cell_formula_units_Z   8
loop_
 _symmetry_equiv_pos_site_id
 _symmetry_equiv_pos_as_xyz
  1  'x, y, z'
loop_
 _atom_site_type_symbol
 _atom_site_label
 _atom_site_symmetry_multiplicity
 _atom_site_fract_x
 _atom_site_fract_y
 _atom_site_fract_z
 _atom_site_occupancy
  Si  Si0  1  -0.37423059  1.12570380  0.49999256  1.0
  Si  Si1  1  0.12570380  0.62576941  0.50000744  1.0
  Si  Si2  1  -0.37429620  1.12576941  0.99999256  1.0
  Si  Si3  1  0.12576941  0.62570380  0.00000744  1.0
  Si  Si4  1  0.37423059  0.87429620  0.50000744  1.0
  Si  Si5  1  -0.12570380  1.37423059  0.49999256  1.0
  Si  Si6  1  0.37429620  0.87423059  0.00000744  1.0
  Si  Si7  1  -0.12576941  1.37429620  0.99999256  1.0
  Si  Si8  1  -0.37425881  0.62574147  0.25003633  1.0
  Si  Si9  1  -0.37425853  0.62574119  0.74996367  1.0
  Si  Si10  1  0.12574147  1.12574119  0.75003633  1.0
  Si  Si11  1  0.12574119  1.12574147  0.24996367  1.0
  Si  Si12  1  0.37425881  1.37425853  0.74996367  1.0
  Si  Si13  1  0.37425853  1.37425881  0.25003633  1.0
  Si  Si14  1  -0.12574147  0.87425881  0.24996367  1.0
  Si  Si15  1  -0.12574119  0.87425853  0.75003633  1.0
  Rh  Rh16  1  -0.24999900  0.75000100  0.50000000  1.0
  Rh  Rh17  1  0.25000100  1.25000100  0.00000000  1.0
  Rh  Rh18  1  0.24999900  1.24999900  0.50000000  1.0
  Rh  Rh19  1  -0.25000100  0.74999900  0.00000000  1.0
  Rh  Rh20  1  0.24997687  0.75002313  0.24998799  1.0
  Rh  Rh21  1  -0.24997687  1.24997687  0.75001201  1.0
  Rh  Rh22  1  0.25002313  0.74997687  0.74998799  1.0
  Rh  Rh23  1  -0.25002313  1.25002313  0.25001201  1.0
