# generated using pymatgen
data_B3H7CO
_symmetry_space_group_name_H-M   'P 1'
_cell_length_a   9.00789018
_cell_length_b   5.95551323
_cell_length_c   5.94582396
_cell_angle_alpha   76.84410523
_cell_angle_beta   77.55197533
_cell_angle_gamma   78.60122430
_symmetry_Int_Tables_number   1
_chemical_formula_structural   B3H7CO
_chemical_formula_sum   'B6 H14 C2 O2'
_cell_volume   299.57455288
_cell_formula_units_Z   2
loop_
 _symmetry_equiv_pos_site_id
 _symmetry_equiv_pos_as_xyz
  1  'x, y, z'
loop_
 _atom_site_type_symbol
 _atom_site_label
 _atom_site_symmetry_multiplicity
 _atom_site_fract_x
 _atom_site_fract_y
 _atom_site_fract_z
 _atom_site_occupancy
  B  B0  1  -0.67512818  -0.73243289  -0.15636406  1.0
  B  B1  1  -0.78184118  -0.62015822  -0.39915351  1.0
  B  B2  1  -0.77466081  -0.43129644  -0.21575913  1.0
  B  B3  1  -0.35652927  -0.27328498  -0.83170168  1.0
  B  B4  1  -0.25000572  -0.38470935  -0.58863130  1.0
  B  B5  1  -0.25698018  -0.57437585  -0.77137218  1.0
  O  O6  1  -0.84705614  -0.98234488  -0.80569264  1.0
  O  O7  1  -0.18419114  -0.02426339  -0.18259522  1.0
  H  H8  1  -0.43291505  -0.13771082  -0.71130248  1.0
  H  H9  1  -0.44314949  -0.34733756  -0.91672434  1.0
  H  H10  1  -0.15171646  -0.26445274  -0.62110970  1.0
  H  H11  1  -0.33231882  -0.40949576  -0.40021826  1.0
  H  H12  1  -0.16753001  -0.58913455  -0.61796068  1.0
  H  H13  1  -0.16424454  -0.60114520  -0.94586792  1.0
  H  H14  1  -0.34387036  -0.71329900  -0.69370340  1.0
  H  H15  1  -0.59853811  -0.86756854  -0.27706407  1.0
  H  H16  1  -0.58873169  -0.65838537  -0.07087614  1.0
  H  H17  1  -0.88005193  -0.74049785  -0.36701525  1.0
  H  H18  1  -0.69964053  -0.59454754  -0.58762725  1.0
  H  H19  1  -0.86708990  -0.40498558  -0.04087264  1.0
  H  H20  1  -0.68785623  -0.29223951  -0.29328781  1.0
  H  H21  1  0.13552665  -0.41612167  -0.36883908  1.0
  C  C22  1  -0.25789143  -0.13143211  -0.03258109  1.0
  C  C23  1  -0.77358948  -0.87478018  -0.95568015  1.0
