# generated using pymatgen
data_SrMnF6
_symmetry_space_group_name_H-M   'P 1'
_cell_length_a   4.77935008
_cell_length_b   4.77935008
_cell_length_c   4.77935008
_cell_angle_alpha   98.97957446
_cell_angle_beta   98.97957446
_cell_angle_gamma   98.97957446
_symmetry_Int_Tables_number   1
_chemical_formula_structural   SrMnF6
_chemical_formula_sum   'Sr1 Mn1 F6'
_cell_volume   104.67368873
_cell_formula_units_Z   1
loop_
 _symmetry_equiv_pos_site_id
 _symmetry_equiv_pos_as_xyz
  1  'x, y, z'
loop_
 _atom_site_type_symbol
 _atom_site_label
 _atom_site_symmetry_multiplicity
 _atom_site_fract_x
 _atom_site_fract_y
 _atom_site_fract_z
 _atom_site_occupancy
  Sr  Sr0  1  0.50000000  0.50000000  0.50000000  1.0
  Mn  Mn1  1  -0.00000000  -0.00000000  -0.00000000  1.0
  F  F2  1  1.27664756  0.27664756  -0.07005508  1.0
  F  F3  1  1.27664756  -0.07005508  0.27664756  1.0
  F  F4  1  1.07005508  0.72335244  -0.27664756  1.0
  F  F5  1  0.72335244  1.07005508  -0.27664756  1.0
  F  F6  1  0.72335244  0.72335244  0.07005508  1.0
  F  F7  1  0.92994492  0.27664756  0.27664756  1.0
