# generated using pymatgen
data_Zr4Ni2N
_symmetry_space_group_name_H-M   'P 1'
_cell_length_a   8.63658239
_cell_length_b   8.63658239
_cell_length_c   8.63658239
_cell_angle_alpha   60.00000000
_cell_angle_beta   60.00000000
_cell_angle_gamma   60.00000000
_symmetry_Int_Tables_number   1
_chemical_formula_structural   Zr4Ni2N
_chemical_formula_sum   'Zr16 Ni8 N4'
_cell_volume   455.52347541
_cell_formula_units_Z   4
loop_
 _symmetry_equiv_pos_site_id
 _symmetry_equiv_pos_as_xyz
  1  'x, y, z'
loop_
 _atom_site_type_symbol
 _atom_site_label
 _atom_site_symmetry_multiplicity
 _atom_site_fract_x
 _atom_site_fract_y
 _atom_site_fract_z
 _atom_site_occupancy
  Zr  Zr0  1  1.12500000  0.62500000  0.62500000  1.0
  Zr  Zr1  1  0.62500000  1.12500000  -0.37500000  1.0
  Zr  Zr2  1  -0.37500000  0.62500000  1.12500000  1.0
  Zr  Zr3  1  -0.37500000  0.62500000  0.62500000  1.0
  Zr  Zr4  1  0.81688918  0.81688918  -0.81688918  1.0
  Zr  Zr5  1  0.18311082  1.18311082  -0.18311082  1.0
  Zr  Zr6  1  0.81688918  -0.81688918  0.81688918  1.0
  Zr  Zr7  1  0.18311082  -0.18311082  0.18311082  1.0
  Zr  Zr8  1  -0.81688918  0.81688918  0.81688918  1.0
  Zr  Zr9  1  -0.18311082  0.18311082  0.18311082  1.0
  Zr  Zr10  1  0.43311082  1.43311082  0.06688918  1.0
  Zr  Zr11  1  0.06688918  0.06688918  0.43311082  1.0
  Zr  Zr12  1  0.43311082  1.06688918  0.43311082  1.0
  Zr  Zr13  1  0.06688918  1.43311082  0.06688918  1.0
  Zr  Zr14  1  0.06688918  1.43311082  0.43311082  1.0
  Zr  Zr15  1  0.43311082  1.06688918  0.06688918  1.0
  Ni  Ni16  1  -0.23090936  0.41030312  0.41030312  1.0
  Ni  Ni17  1  0.41030312  -0.23090936  0.41030312  1.0
  Ni  Ni18  1  0.41030312  1.41030312  -0.23090936  1.0
  Ni  Ni19  1  0.41030312  1.41030312  0.41030312  1.0
  Ni  Ni20  1  0.48090936  0.83969688  -0.16030312  1.0
  Ni  Ni21  1  0.83969688  0.48090936  0.83969688  1.0
  Ni  Ni22  1  0.83969688  0.83969688  -0.51909064  1.0
  Ni  Ni23  1  0.83969688  0.83969688  0.83969688  1.0
  N  N24  1  0.62500000  1.12500000  0.12500000  1.0
  N  N25  1  0.12500000  1.62500000  0.12500000  1.0
  N  N26  1  0.12500000  0.12500000  1.62500000  1.0
  N  N27  1  0.12500000  0.12500000  0.12500000  1.0
