# generated using pymatgen
data_K4Ti2H2O5F8
_symmetry_space_group_name_H-M   'P 1'
_cell_length_a   9.57203512
_cell_length_b   9.57203512
_cell_length_c   12.48498490
_cell_angle_alpha   62.17505092
_cell_angle_beta   117.82494908
_cell_angle_gamma   138.74591713
_symmetry_Int_Tables_number   1
_chemical_formula_structural   K4Ti2H2O5F8
_chemical_formula_sum   'K8 Ti4 H4 O10 F16'
_cell_volume   653.79029890
_cell_formula_units_Z   2
loop_
 _symmetry_equiv_pos_site_id
 _symmetry_equiv_pos_as_xyz
  1  'x, y, z'
loop_
 _atom_site_type_symbol
 _atom_site_label
 _atom_site_symmetry_multiplicity
 _atom_site_fract_x
 _atom_site_fract_y
 _atom_site_fract_z
 _atom_site_occupancy
  K  K0  1  0.57248176  -0.08129974  0.17650124  1.0
  K  K1  1  1.08129974  -0.57248176  0.67650124  1.0
  K  K2  1  0.91870026  0.57248176  0.32349876  1.0
  K  K3  1  1.42751824  0.08129974  0.82349876  1.0
  K  K4  1  0.31288913  0.16203727  0.11913126  1.0
  K  K5  1  0.83796273  0.68711087  0.61913126  1.0
  K  K6  1  1.16203727  -0.68711087  0.38086874  1.0
  K  K7  1  1.68711087  -0.16203727  0.88086874  1.0
  Ti  Ti8  1  0.49142377  -0.16138633  0.46925278  1.0
  Ti  Ti9  1  1.16138633  -0.49142377  0.96925278  1.0
  Ti  Ti10  1  0.83861367  0.49142377  0.03074722  1.0
  Ti  Ti11  1  1.50857623  0.16138633  0.53074722  1.0
  H  H12  1  2.04241120  0.12882994  0.19057060  1.0
  H  H13  1  0.87117006  -1.04241120  0.69057060  1.0
  H  H14  1  1.12882994  1.04241120  0.30942940  1.0
  H  H15  1  -0.04241120  -0.12882994  0.80942940  1.0
  O  O16  1  0.56209343  -0.27039245  0.42959694  1.0
  O  O17  1  1.27039245  -0.56209343  0.92959694  1.0
  O  O18  1  0.72960755  0.56209343  0.07040306  1.0
  O  O19  1  1.43790657  0.27039245  0.57040306  1.0
  O  O20  1  0.74241293  -0.04057986  0.43455083  1.0
  O  O21  1  1.04057986  -0.74241293  0.93455083  1.0
  O  O22  1  0.95942014  0.74241293  0.06544917  1.0
  O  O23  1  1.25758707  0.04057986  0.56544917  1.0
  O  O24  1  0.99281522  0.99281522  0.25000000  1.0
  O  O25  1  0.00718478  0.00718478  0.75000000  1.0
  F  F26  1  0.68743271  0.14749829  0.48496532  1.0
  F  F27  1  0.85250171  -0.68743271  0.98496532  1.0
  F  F28  1  1.14749829  0.68743271  0.01503468  1.0
  F  F29  1  1.31256729  -0.14749829  0.51503468  1.0
  F  F30  1  0.37313103  -0.09847466  0.30310907  1.0
  F  F31  1  1.09847466  -0.37313103  0.80310907  1.0
  F  F32  1  0.90152534  0.37313103  0.19689093  1.0
  F  F33  1  1.62686897  0.09847466  0.69689093  1.0
  F  F34  1  0.53931588  0.21204401  0.02084062  1.0
  F  F35  1  0.78795599  -0.53931588  0.52084062  1.0
  F  F36  1  1.21204401  0.53931588  0.47915938  1.0
  F  F37  1  1.46068412  -0.21204401  0.97915938  1.0
  F  F38  1  0.42391070  0.22472599  0.35508952  1.0
  F  F39  1  0.77527401  0.57608930  0.85508952  1.0
  F  F40  1  1.22472599  -0.57608930  0.14491048  1.0
  F  F41  1  1.57608930  -0.22472599  0.64491048  1.0
