# generated using pymatgen
data_K3NaOs2O9
_symmetry_space_group_name_H-M   'P 1'
_cell_length_a   6.07684564
_cell_length_b   6.07684564
_cell_length_c   14.53971856
_cell_angle_alpha   90.00000000
_cell_angle_beta   90.00000000
_cell_angle_gamma   120.00000000
_symmetry_Int_Tables_number   1
_chemical_formula_structural   K3NaOs2O9
_chemical_formula_sum   'K6 Na2 Os4 O18'
_cell_volume   464.98938770
_cell_formula_units_Z   2
loop_
 _symmetry_equiv_pos_site_id
 _symmetry_equiv_pos_as_xyz
  1  'x, y, z'
loop_
 _atom_site_type_symbol
 _atom_site_label
 _atom_site_symmetry_multiplicity
 _atom_site_fract_x
 _atom_site_fract_y
 _atom_site_fract_z
 _atom_site_occupancy
  K  K0  1  0.33333333  0.66666667  0.39261558  1.0
  K  K1  1  0.33333333  0.66666667  0.10738442  1.0
  K  K2  1  0.66666667  0.33333333  0.89261558  1.0
  K  K3  1  0.66666667  0.33333333  0.60738442  1.0
  K  K4  1  -0.00000000  -0.00000000  0.25000000  1.0
  K  K5  1  0.00000000  0.00000000  0.75000000  1.0
  Na  Na6  1  -0.00000000  -0.00000000  0.50000000  1.0
  Na  Na7  1  0.00000000  0.00000000  -0.00000000  1.0
  Os  Os8  1  0.33333333  0.66666667  0.84942415  1.0
  Os  Os9  1  0.33333333  0.66666667  0.65057585  1.0
  Os  Os10  1  0.66666667  0.33333333  0.34942415  1.0
  Os  Os11  1  0.66666667  0.33333333  0.15057585  1.0
  O  O12  1  0.18277191  0.81722809  0.90797304  1.0
  O  O13  1  0.18277191  0.81722809  0.59202696  1.0
  O  O14  1  0.18277191  0.36554383  0.90797304  1.0
  O  O15  1  0.18277191  0.36554383  0.59202696  1.0
  O  O16  1  0.81722809  0.18277191  0.40797304  1.0
  O  O17  1  0.81722809  0.18277191  0.09202696  1.0
  O  O18  1  0.81722809  0.63445617  0.40797304  1.0
  O  O19  1  0.81722809  0.63445617  0.09202696  1.0
  O  O20  1  0.63445617  0.81722809  0.90797304  1.0
  O  O21  1  0.63445617  0.81722809  0.59202696  1.0
  O  O22  1  0.36554383  0.18277191  0.40797304  1.0
  O  O23  1  0.36554383  0.18277191  0.09202696  1.0
  O  O24  1  0.53212403  0.46787597  0.25000000  1.0
  O  O25  1  0.53212403  0.06424806  0.25000000  1.0
  O  O26  1  0.46787597  0.53212403  0.75000000  1.0
  O  O27  1  0.46787597  0.93575194  0.75000000  1.0
  O  O28  1  0.93575194  0.46787597  0.25000000  1.0
  O  O29  1  0.06424806  0.53212403  0.75000000  1.0
