# generated using pymatgen
data_RbIO4
_symmetry_space_group_name_H-M   'P 1'
_cell_length_a   8.06290998
_cell_length_b   8.06290998
_cell_length_c   8.06290998
_cell_angle_alpha   135.63772047
_cell_angle_beta   135.63772047
_cell_angle_gamma   64.54092505
_symmetry_Int_Tables_number   1
_chemical_formula_structural   RbIO4
_chemical_formula_sum   'Rb2 I2 O8'
_cell_volume   252.68814525
_cell_formula_units_Z   2
loop_
 _symmetry_equiv_pos_site_id
 _symmetry_equiv_pos_as_xyz
  1  'x, y, z'
loop_
 _atom_site_type_symbol
 _atom_site_label
 _atom_site_symmetry_multiplicity
 _atom_site_fract_x
 _atom_site_fract_y
 _atom_site_fract_z
 _atom_site_occupancy
  Rb  Rb0  1  0.75000000  0.25000000  0.50000000  1.0
  Rb  Rb1  1  1.00000000  1.00000000  1.00000000  1.0
  I  I2  1  0.25000000  0.75000000  0.50000000  1.0
  I  I3  1  0.50000000  0.50000000  -0.00000000  1.0
  O  O4  1  1.45628468  1.35611054  1.66056465  1.0
  O  O5  1  0.69554590  0.79572003  0.33943535  1.0
  O  O6  1  0.54572003  0.70628468  0.60017413  1.0
  O  O7  1  1.10611054  0.94554590  1.39982587  1.0
  O  O8  1  0.29371532  0.89388946  0.83943535  1.0
  O  O9  1  1.05445410  0.45427997  1.16056465  1.0
  O  O10  1  1.20427997  0.54371532  0.89982587  1.0
  O  O11  1  0.64388946  1.30445410  1.10017413  1.0
