# generated using pymatgen
data_CdAuO2
_symmetry_space_group_name_H-M   'P 1'
_cell_length_a   5.57480140
_cell_length_b   4.11847451
_cell_length_c   6.07719795
_cell_angle_alpha   106.22692671
_cell_angle_beta   115.92931598
_cell_angle_gamma   87.11994324
_symmetry_Int_Tables_number   1
_chemical_formula_structural   CdAuO2
_chemical_formula_sum   'Cd2 Au2 O4'
_cell_volume   120.06664502
_cell_formula_units_Z   2
loop_
 _symmetry_equiv_pos_site_id
 _symmetry_equiv_pos_as_xyz
  1  'x, y, z'
loop_
 _atom_site_type_symbol
 _atom_site_label
 _atom_site_symmetry_multiplicity
 _atom_site_fract_x
 _atom_site_fract_y
 _atom_site_fract_z
 _atom_site_occupancy
  Cd  Cd0  1  0.27079605  0.27361328  -0.46910988  1.0
  Cd  Cd1  1  0.72920395  0.72638672  -0.53089012  1.0
  Au  Au2  1  0.00000000  0.50000000  0.00000000  1.0
  Au  Au3  1  0.50000000  -0.00000000  -0.00000000  1.0
  O  O4  1  0.71983671  0.28161450  -0.35909443  1.0
  O  O5  1  0.28016329  0.71838550  -0.64090557  1.0
  O  O6  1  0.16320674  0.67773596  -0.18967264  1.0
  O  O7  1  0.83679326  0.32226404  -0.81032736  1.0
