# generated using pymatgen
data_K2HgCl4
_symmetry_space_group_name_H-M   'P 1'
_cell_length_a   13.48472156
_cell_length_b   9.21078395
_cell_length_c   8.13772679
_cell_angle_alpha   90.00000000
_cell_angle_beta   90.00000000
_cell_angle_gamma   90.00000000
_symmetry_Int_Tables_number   1
_chemical_formula_structural   K2HgCl4
_chemical_formula_sum   'K8 Hg4 Cl16'
_cell_volume   1010.74519198
_cell_formula_units_Z   4
loop_
 _symmetry_equiv_pos_site_id
 _symmetry_equiv_pos_as_xyz
  1  'x, y, z'
loop_
 _atom_site_type_symbol
 _atom_site_label
 _atom_site_symmetry_multiplicity
 _atom_site_fract_x
 _atom_site_fract_y
 _atom_site_fract_z
 _atom_site_occupancy
  K  K0  1  0.50000000  0.00000000  0.50000000  1.0
  K  K1  1  0.00000000  0.50000000  0.00000000  1.0
  K  K2  1  0.50000000  0.50000000  0.50000000  1.0
  K  K3  1  0.00000000  0.00000000  0.00000000  1.0
  K  K4  1  0.50000000  0.00000000  0.00000000  1.0
  K  K5  1  0.00000000  0.50000000  0.50000000  1.0
  K  K6  1  0.50000000  0.50000000  0.00000000  1.0
  K  K7  1  0.00000000  0.00000000  0.50000000  1.0
  Hg  Hg8  1  0.73243138  0.75000000  0.74949634  1.0
  Hg  Hg9  1  0.23243138  0.75000000  0.75050366  1.0
  Hg  Hg10  1  0.26756862  0.25000000  0.25050366  1.0
  Hg  Hg11  1  0.76756862  0.25000000  0.24949634  1.0
  Cl  Cl12  1  0.93417306  0.75000000  0.74996141  1.0
  Cl  Cl13  1  0.43417306  0.75000000  0.75003859  1.0
  Cl  Cl14  1  0.06582694  0.25000000  0.25003859  1.0
  Cl  Cl15  1  0.56582694  0.25000000  0.24996141  1.0
  Cl  Cl16  1  0.69686329  -0.00109714  0.74964094  1.0
  Cl  Cl17  1  0.19686329  0.50109714  0.75035906  1.0
  Cl  Cl18  1  0.30313671  0.49890286  0.25035906  1.0
  Cl  Cl19  1  0.80313671  0.00109714  0.24964094  1.0
  Cl  Cl20  1  0.30313671  0.00109714  0.25035906  1.0
  Cl  Cl21  1  0.80313671  0.49890286  0.24964094  1.0
  Cl  Cl22  1  0.69686329  0.50109714  0.74964094  1.0
  Cl  Cl23  1  0.19686329  -0.00109714  0.75035906  1.0
  Cl  Cl24  1  0.53894502  0.75000000  0.24983033  1.0
  Cl  Cl25  1  0.03894502  0.75000000  0.25016967  1.0
  Cl  Cl26  1  0.46105498  0.25000000  0.75016967  1.0
  Cl  Cl27  1  0.96105498  0.25000000  0.74983033  1.0
