# generated using pymatgen
data_Rb2Ti4O9
_symmetry_space_group_name_H-M   'P 1'
_cell_length_a   9.93844317
_cell_length_b   9.93844317
_cell_length_c   12.16423562
_cell_angle_alpha   73.16748153
_cell_angle_beta   106.83251847
_cell_angle_gamma   157.82106319
_symmetry_Int_Tables_number   1
_chemical_formula_structural   Rb2Ti4O9
_chemical_formula_sum   'Rb4 Ti8 O18'
_cell_volume   433.36763539
_cell_formula_units_Z   2
loop_
 _symmetry_equiv_pos_site_id
 _symmetry_equiv_pos_as_xyz
  1  'x, y, z'
loop_
 _atom_site_type_symbol
 _atom_site_label
 _atom_site_symmetry_multiplicity
 _atom_site_fract_x
 _atom_site_fract_y
 _atom_site_fract_z
 _atom_site_occupancy
  Rb  Rb0  1  0.51823794  0.48176206  0.83441426  1.0
  Rb  Rb1  1  0.48176206  -0.48176206  0.16558574  1.0
  Rb  Rb2  1  0.58554226  0.41445774  0.58175859  1.0
  Rb  Rb3  1  0.41445774  -0.41445774  0.41824141  1.0
  Ti  Ti4  1  0.83339870  0.16660130  0.87705358  1.0
  Ti  Ti5  1  0.16660130  -0.16660130  0.12294642  1.0
  Ti  Ti6  1  0.87174665  0.12825335  0.64085772  1.0
  Ti  Ti7  1  0.12825335  -0.12825335  0.35914228  1.0
  Ti  Ti8  1  0.20504294  -0.20504294  0.89592285  1.0
  Ti  Ti9  1  0.79495706  0.20504294  0.10407715  1.0
  Ti  Ti10  1  0.75380498  0.24619502  0.33390832  1.0
  Ti  Ti11  1  0.24619502  -0.24619502  0.66609168  1.0
  O  O12  1  0.73059694  0.26940306  0.92124866  1.0
  O  O13  1  0.26940306  -0.26940306  0.07875134  1.0
  O  O14  1  0.81406659  0.18593341  0.47384199  1.0
  O  O15  1  0.18593341  -0.18593341  0.52615801  1.0
  O  O16  1  0.83382442  0.16617558  0.25718175  1.0
  O  O17  1  0.16617558  -0.16617558  0.74281825  1.0
  O  O18  1  0.90723300  0.09276700  0.81935916  1.0
  O  O19  1  0.09276700  -0.09276700  0.18064084  1.0
  O  O20  1  0.95652957  0.04347043  0.62420177  1.0
  O  O21  1  0.04347043  -0.04347043  0.37579823  1.0
  O  O22  1  0.30549659  -0.30549659  0.85960263  1.0
  O  O23  1  0.69450341  0.30549659  0.14039737  1.0
  O  O24  1  0.12834989  -0.12834989  0.96101193  1.0
  O  O25  1  0.87165011  0.12834989  0.03898807  1.0
  O  O26  1  0.76585297  0.23414703  0.69943193  1.0
  O  O27  1  0.23414703  -0.23414703  0.30056807  1.0
  O  O28  1  0.65544755  0.34455245  0.35577728  1.0
  O  O29  1  0.34455245  -0.34455245  0.64422272  1.0
