# generated using pymatgen
data_ZrCl4
_symmetry_space_group_name_H-M   'P 1'
_cell_length_a   6.34630109
_cell_length_b   8.27095153
_cell_length_c   13.48927652
_cell_angle_alpha   90.00000000
_cell_angle_beta   90.00000000
_cell_angle_gamma   90.00000000
_symmetry_Int_Tables_number   1
_chemical_formula_structural   ZrCl4
_chemical_formula_sum   'Zr4 Cl16'
_cell_volume   708.05143338
_cell_formula_units_Z   4
loop_
 _symmetry_equiv_pos_site_id
 _symmetry_equiv_pos_as_xyz
  1  'x, y, z'
loop_
 _atom_site_type_symbol
 _atom_site_label
 _atom_site_symmetry_multiplicity
 _atom_site_fract_x
 _atom_site_fract_y
 _atom_site_fract_z
 _atom_site_occupancy
  Zr  Zr0  1  0.42333273  0.34996590  0.49985568  1.0
  Zr  Zr1  1  0.57666727  0.65003410  0.99985568  1.0
  Zr  Zr2  1  0.92333273  0.65003410  0.49985568  1.0
  Zr  Zr3  1  0.07666727  0.34996590  0.99985568  1.0
  Cl  Cl4  1  0.56215047  0.16885357  0.61503046  1.0
  Cl  Cl5  1  0.43784953  0.83114643  0.11503046  1.0
  Cl  Cl6  1  0.06215047  0.83114643  0.61503046  1.0
  Cl  Cl7  1  0.93784953  0.16885357  0.11503046  1.0
  Cl  Cl8  1  0.09926882  0.40384186  0.60143736  1.0
  Cl  Cl9  1  0.90073118  0.59615814  0.10143736  1.0
  Cl  Cl10  1  0.59926882  0.59615814  0.60143736  1.0
  Cl  Cl11  1  0.40073118  0.40384186  0.10143736  1.0
  Cl  Cl12  1  0.28492094  0.16853525  0.38475079  1.0
  Cl  Cl13  1  0.71507906  0.83146475  0.88475079  1.0
  Cl  Cl14  1  0.78492094  0.83146475  0.38475079  1.0
  Cl  Cl15  1  0.21507906  0.16853525  0.88475079  1.0
  Cl  Cl16  1  0.74678596  0.40419441  0.39802571  1.0
  Cl  Cl17  1  0.25321404  0.59580559  0.89802571  1.0
  Cl  Cl18  1  0.24678596  0.59580559  0.39802571  1.0
  Cl  Cl19  1  0.75321404  0.40419441  0.89802571  1.0
