# generated using pymatgen
data_Tl2Cu(SO3)2
_symmetry_space_group_name_H-M   'P 1'
_cell_length_a   5.19563449
_cell_length_b   7.57870757
_cell_length_c   5.70812813
_cell_angle_alpha   69.44722116
_cell_angle_beta   62.92961933
_cell_angle_gamma   69.95693196
_symmetry_Int_Tables_number   1
_chemical_formula_structural   Tl2Cu(SO3)2
_chemical_formula_sum   'Tl2 Cu1 S2 O6'
_cell_volume   182.83428779
_cell_formula_units_Z   1
loop_
 _symmetry_equiv_pos_site_id
 _symmetry_equiv_pos_as_xyz
  1  'x, y, z'
loop_
 _atom_site_type_symbol
 _atom_site_label
 _atom_site_symmetry_multiplicity
 _atom_site_fract_x
 _atom_site_fract_y
 _atom_site_fract_z
 _atom_site_occupancy
  Tl  Tl0  1  -0.29633723  0.86204757  -0.76937287  1.0
  Tl  Tl1  1  0.29633723  0.13795243  -0.23062713  1.0
  Cu  Cu2  1  -0.50000000  0.50000000  0.00000000  1.0
  S  S3  1  0.11489899  0.60426927  -0.33410325  1.0
  S  S4  1  -0.11489899  0.39573073  -0.66589675  1.0
  O  O5  1  0.20421486  0.71905181  -0.62745054  1.0
  O  O6  1  -0.20421486  0.28094819  -0.37254946  1.0
  O  O7  1  0.24379573  0.68306567  -0.19804040  1.0
  O  O8  1  -0.24379573  0.31693433  -0.80195960  1.0
  O  O9  1  0.22883491  0.31691695  -0.80197501  1.0
  O  O10  1  -0.22883491  0.68308305  -0.19802499  1.0
