# generated using pymatgen
data_KPO3
_symmetry_space_group_name_H-M   'P 1'
_cell_length_a   10.51225869
_cell_length_b   4.62859804
_cell_length_c   14.26648131
_cell_angle_alpha   90.00000000
_cell_angle_beta   101.36077148
_cell_angle_gamma   90.00000000
_symmetry_Int_Tables_number   1
_chemical_formula_structural   KPO3
_chemical_formula_sum   'K8 P8 O24'
_cell_volume   680.56319863
_cell_formula_units_Z   8
loop_
 _symmetry_equiv_pos_site_id
 _symmetry_equiv_pos_as_xyz
  1  'x, y, z'
loop_
 _atom_site_type_symbol
 _atom_site_label
 _atom_site_symmetry_multiplicity
 _atom_site_fract_x
 _atom_site_fract_y
 _atom_site_fract_z
 _atom_site_occupancy
  K  K0  1  0.89724880  0.26644221  0.13094479  1.0
  K  K1  1  0.89724880  0.23355779  0.63094479  1.0
  K  K2  1  0.10275120  0.76644221  0.36905521  1.0
  K  K3  1  0.10275120  0.73355779  0.86905521  1.0
  K  K4  1  0.43250879  0.22321310  0.32878657  1.0
  K  K5  1  0.43250879  0.27678690  0.82878657  1.0
  K  K6  1  0.56749121  0.72321310  0.17121343  1.0
  K  K7  1  0.56749121  0.77678690  0.67121343  1.0
  P  P8  1  0.81111689  0.20526928  0.34673188  1.0
  P  P9  1  0.81111689  0.29473072  0.84673188  1.0
  P  P10  1  0.18888311  0.70526928  0.15326812  1.0
  P  P11  1  0.18888311  0.79473072  0.65326812  1.0
  P  P12  1  0.71545491  0.70670813  0.44376865  1.0
  P  P13  1  0.71545491  0.79329187  0.94376865  1.0
  P  P14  1  0.28454509  0.20670813  0.05623135  1.0
  P  P15  1  0.28454509  0.29329187  0.55623135  1.0
  O  O16  1  0.94583259  0.27714563  0.33295350  1.0
  O  O17  1  0.94583259  0.22285437  0.83295350  1.0
  O  O18  1  0.05416741  0.77714563  0.16704650  1.0
  O  O19  1  0.05416741  0.72285437  0.66704650  1.0
  O  O20  1  0.82259944  0.88432764  0.39541510  1.0
  O  O21  1  0.82259944  0.61567236  0.89541510  1.0
  O  O22  1  0.17740056  0.38432764  0.10458490  1.0
  O  O23  1  0.17740056  0.11567236  0.60458490  1.0
  O  O24  1  0.77710490  0.38333736  0.43842118  1.0
  O  O25  1  0.77710490  0.11666264  0.93842118  1.0
  O  O26  1  0.22289510  0.88333736  0.06157882  1.0
  O  O27  1  0.22289510  0.61666264  0.56157882  1.0
  O  O28  1  0.70013647  0.22314983  0.26212181  1.0
  O  O29  1  0.70013647  0.27685017  0.76212181  1.0
  O  O30  1  0.29986353  0.72314983  0.23787819  1.0
  O  O31  1  0.29986353  0.77685017  0.73787819  1.0
  O  O32  1  0.41660613  0.22724456  0.11966605  1.0
  O  O33  1  0.41660613  0.27275544  0.61966605  1.0
  O  O34  1  0.58339387  0.72724456  0.38033395  1.0
  O  O35  1  0.58339387  0.77275544  0.88033395  1.0
  O  O36  1  0.26471793  0.22432865  0.45140777  1.0
  O  O37  1  0.26471793  0.27567135  0.95140777  1.0
  O  O38  1  0.73528207  0.72432865  0.04859223  1.0
  O  O39  1  0.73528207  0.77567135  0.54859223  1.0
