# generated using pymatgen
data_P4Se5
_symmetry_space_group_name_H-M   'P 1'
_cell_length_a   13.56952254
_cell_length_b   6.85804499
_cell_length_c   11.79493943
_cell_angle_alpha   90.00000000
_cell_angle_beta   90.00000000
_cell_angle_gamma   90.00000000
_symmetry_Int_Tables_number   1
_chemical_formula_structural   P4Se5
_chemical_formula_sum   'P16 Se20'
_cell_volume   1097.64173486
_cell_formula_units_Z   4
loop_
 _symmetry_equiv_pos_site_id
 _symmetry_equiv_pos_as_xyz
  1  'x, y, z'
loop_
 _atom_site_type_symbol
 _atom_site_label
 _atom_site_symmetry_multiplicity
 _atom_site_fract_x
 _atom_site_fract_y
 _atom_site_fract_z
 _atom_site_occupancy
  P  P0  1  0.43871142  0.51007628  0.60766909  1.0
  P  P1  1  0.93871142  0.98992372  0.60766909  1.0
  P  P2  1  0.56128858  0.48992372  0.10766909  1.0
  P  P3  1  0.06128858  0.01007628  0.10766909  1.0
  P  P4  1  0.40183663  0.59756420  0.78752287  1.0
  P  P5  1  0.90183663  0.90243580  0.78752287  1.0
  P  P6  1  0.59816337  0.40243580  0.28752287  1.0
  P  P7  1  0.09816337  0.09756420  0.28752287  1.0
  P  P8  1  0.39054244  0.20251209  0.65519056  1.0
  P  P9  1  0.89054244  0.29748791  0.65519056  1.0
  P  P10  1  0.60945756  0.79748791  0.15519056  1.0
  P  P11  1  0.10945756  0.70251209  0.15519056  1.0
  P  P12  1  0.18597455  0.53958904  0.62610362  1.0
  P  P13  1  0.68597455  0.96041096  0.62610362  1.0
  P  P14  1  0.81402545  0.46041096  0.12610362  1.0
  P  P15  1  0.31402545  0.03958904  0.12610362  1.0
  Se  Se16  1  0.48516321  0.81277026  0.87757081  1.0
  Se  Se17  1  0.98516321  0.68722974  0.87757081  1.0
  Se  Se18  1  0.51483679  0.18722974  0.37757081  1.0
  Se  Se19  1  0.01483679  0.31277026  0.37757081  1.0
  Se  Se20  1  0.43098083  0.27953903  0.84182185  1.0
  Se  Se21  1  0.93098083  0.22046097  0.84182185  1.0
  Se  Se22  1  0.56901917  0.72046097  0.34182185  1.0
  Se  Se23  1  0.06901917  0.77953903  0.34182185  1.0
  Se  Se24  1  0.31398763  0.63727038  0.50879507  1.0
  Se  Se25  1  0.81398763  0.86272962  0.50879507  1.0
  Se  Se26  1  0.68601237  0.36272962  0.00879507  1.0
  Se  Se27  1  0.18601237  0.13727038  0.00879507  1.0
  Se  Se28  1  0.27782358  0.71477414  0.13663150  1.0
  Se  Se29  1  0.77782358  0.78522586  0.13663150  1.0
  Se  Se30  1  0.72217642  0.28522586  0.63663150  1.0
  Se  Se31  1  0.22217642  0.21477414  0.63663150  1.0
  Se  Se32  1  0.23696463  0.66970458  0.79549463  1.0
  Se  Se33  1  0.73696463  0.83029542  0.79549463  1.0
  Se  Se34  1  0.76303537  0.33029542  0.29549463  1.0
  Se  Se35  1  0.26303537  0.16970458  0.29549463  1.0
