# generated using pymatgen
data_Sn5(PO5)2
_symmetry_space_group_name_H-M   'P 1'
_cell_length_a   13.44998238
_cell_length_b   7.36482004
_cell_length_c   7.33077700
_cell_angle_alpha   61.54206663
_cell_angle_beta   85.74288970
_cell_angle_gamma   89.32507114
_symmetry_Int_Tables_number   1
_chemical_formula_structural   Sn5(PO5)2
_chemical_formula_sum   'Sn10 P4 O20'
_cell_volume   636.42635437
_cell_formula_units_Z   2
loop_
 _symmetry_equiv_pos_site_id
 _symmetry_equiv_pos_as_xyz
  1  'x, y, z'
loop_
 _atom_site_type_symbol
 _atom_site_label
 _atom_site_symmetry_multiplicity
 _atom_site_fract_x
 _atom_site_fract_y
 _atom_site_fract_z
 _atom_site_occupancy
  Sn  Sn0  1  -0.67256390  -0.18689372  -1.01145819  1.0
  Sn  Sn1  1  -0.32743610  -0.81310628  0.01145819  1.0
  Sn  Sn2  1  -0.63851190  -0.73162202  -0.93403786  1.0
  Sn  Sn3  1  -0.36148810  -0.26837798  -0.06596214  1.0
  Sn  Sn4  1  -0.88147064  -0.79308237  -0.67462870  1.0
  Sn  Sn5  1  -0.11852936  -0.20691763  -0.32537130  1.0
  Sn  Sn6  1  -0.37153717  -0.71289199  -0.55612471  1.0
  Sn  Sn7  1  -0.62846283  -0.28710801  -0.44387529  1.0
  Sn  Sn8  1  -0.88066592  -0.69500493  -0.18944154  1.0
  Sn  Sn9  1  -0.11933408  -0.30499507  -0.81055846  1.0
  P  P10  1  -0.10356197  -0.70497689  -0.92909221  1.0
  P  P11  1  -0.89643803  -0.29502311  -0.07090779  1.0
  P  P12  1  -0.62588430  -0.73403855  -0.48064114  1.0
  P  P13  1  -0.37411570  -0.26596145  -0.51935886  1.0
  O  O14  1  -0.79294585  -0.79036050  -0.93029336  1.0
  O  O15  1  -0.20705415  -0.20963950  -0.06970664  1.0
  O  O16  1  -0.99539134  -0.79542912  -0.91292612  1.0
  O  O17  1  -0.00460866  -0.20457088  -0.08707388  1.0
  O  O18  1  -0.35020240  -0.59443141  -0.88229215  1.0
  O  O19  1  -0.64979760  -0.40556859  -0.11770785  1.0
  O  O20  1  -0.18073071  -0.88479067  -0.87063459  1.0
  O  O21  1  -0.81926929  -0.11520933  -0.12936541  1.0
  O  O22  1  -0.88613798  -0.46029208  -0.84050050  1.0
  O  O23  1  -0.11386202  -0.53970792  -0.15949950  1.0
  O  O24  1  -0.11778291  -0.62013992  -0.77179144  1.0
  O  O25  1  -0.88221709  -0.37986008  -0.22820856  1.0
  O  O26  1  -0.69999577  -0.71160128  -0.64584291  1.0
  O  O27  1  -0.30000423  -0.28839872  -0.35415709  1.0
  O  O28  1  -0.52551375  -0.63171185  -0.60672125  1.0
  O  O29  1  -0.47448625  -0.36828815  -0.39327875  1.0
  O  O30  1  -0.66722123  -0.62076237  -0.35716386  1.0
  O  O31  1  -0.33277877  -0.37923763  -0.64283614  1.0
  O  O32  1  -0.61141579  -0.96676520  -0.32585880  1.0
  O  O33  1  -0.38858421  -0.03323480  -0.67414120  1.0
