# generated using pymatgen
data_Li2SeO4
_symmetry_space_group_name_H-M   'P 1'
_cell_length_a   8.77148682
_cell_length_b   8.77148682
_cell_length_c   8.77148682
_cell_angle_alpha   107.83591945
_cell_angle_beta   107.83591945
_cell_angle_gamma   107.83591945
_symmetry_Int_Tables_number   1
_chemical_formula_structural   Li2SeO4
_chemical_formula_sum   'Li12 Se6 O24'
_cell_volume   548.71719935
_cell_formula_units_Z   6
loop_
 _symmetry_equiv_pos_site_id
 _symmetry_equiv_pos_as_xyz
  1  'x, y, z'
loop_
 _atom_site_type_symbol
 _atom_site_label
 _atom_site_symmetry_multiplicity
 _atom_site_fract_x
 _atom_site_fract_y
 _atom_site_fract_z
 _atom_site_occupancy
  Li  Li0  1  0.62194288  0.40088820  0.22134019  1.0
  Li  Li1  1  1.40088820  0.22134019  -0.37805712  1.0
  Li  Li2  1  1.22134019  -0.37805712  0.40088820  1.0
  Li  Li3  1  1.37805712  0.59911180  -0.22134019  1.0
  Li  Li4  1  0.59911180  0.77865981  0.37805712  1.0
  Li  Li5  1  0.77865981  1.37805712  -0.40088820  1.0
  Li  Li6  1  1.10802811  0.70385568  -0.06481160  1.0
  Li  Li7  1  0.70385568  0.93518840  0.10802811  1.0
  Li  Li8  1  0.93518840  1.10802811  -0.29614432  1.0
  Li  Li9  1  0.89197189  0.29614432  0.06481161  1.0
  Li  Li10  1  1.29614432  0.06481161  -0.10802811  1.0
  Li  Li11  1  1.06481161  -0.10802811  0.29614432  1.0
  O  O12  1  1.07463282  0.74837420  -0.56796386  1.0
  O  O13  1  0.74837420  0.43203614  0.07463282  1.0
  O  O14  1  0.43203614  1.07463282  -0.25162580  1.0
  O  O15  1  0.92536718  0.25162580  0.56796386  1.0
  O  O16  1  1.25162580  0.56796386  -0.07463282  1.0
  O  O17  1  1.56796386  -0.07463282  0.25162580  1.0
  O  O18  1  0.80949069  0.52656562  0.47249296  1.0
  O  O19  1  1.52656562  0.47249296  -0.19050931  1.0
  O  O20  1  1.47249296  -0.19050931  0.52656562  1.0
  O  O21  1  1.19050931  0.47343438  -0.47249296  1.0
  O  O22  1  0.47343438  0.52750704  0.19050931  1.0
  O  O23  1  0.52750704  1.19050931  -0.52656562  1.0
  O  O24  1  0.85229383  0.86196326  0.53355403  1.0
  O  O25  1  0.86196326  1.53355403  -0.14770617  1.0
  O  O26  1  1.53355403  0.85229383  -0.13803674  1.0
  O  O27  1  1.14770617  0.13803674  -0.53355403  1.0
  O  O28  1  1.13803674  -0.53355403  0.14770617  1.0
  O  O29  1  0.46644597  0.14770617  0.13803674  1.0
  O  O30  1  1.09984737  0.81456916  -0.23417917  1.0
  O  O31  1  0.81456916  0.76582083  0.09984737  1.0
  O  O32  1  0.76582083  1.09984737  -0.18543084  1.0
  O  O33  1  0.90015263  0.18543084  0.23417917  1.0
  O  O34  1  1.18543084  0.23417917  -0.09984737  1.0
  O  O35  1  1.23417917  -0.09984737  0.18543084  1.0
  Se  Se36  1  0.95997982  0.73644391  -0.44838571  1.0
  Se  Se37  1  0.73644391  0.55161429  -0.04002018  1.0
  Se  Se38  1  0.55161429  0.95997982  -0.26355609  1.0
  Se  Se39  1  1.04002018  0.26355609  0.44838571  1.0
  Se  Se40  1  1.26355609  0.44838571  0.04002018  1.0
  Se  Se41  1  1.44838571  0.04002018  0.26355609  1.0
