# generated using pymatgen
data_CuBr
_symmetry_space_group_name_H-M   'P 1'
_cell_length_a   4.03847280
_cell_length_b   4.03847280
_cell_length_c   6.64360919
_cell_angle_alpha   90.00000000
_cell_angle_beta   90.00000000
_cell_angle_gamma   120.00000000
_symmetry_Int_Tables_number   1
_chemical_formula_structural   CuBr
_chemical_formula_sum   'Cu2 Br2'
_cell_volume   93.83590188
_cell_formula_units_Z   2
loop_
 _symmetry_equiv_pos_site_id
 _symmetry_equiv_pos_as_xyz
  1  'x, y, z'
loop_
 _atom_site_type_symbol
 _atom_site_label
 _atom_site_symmetry_multiplicity
 _atom_site_fract_x
 _atom_site_fract_y
 _atom_site_fract_z
 _atom_site_occupancy
  Cu  Cu0  1  0.33333333  0.66666667  0.00269968  1.0
  Cu  Cu1  1  0.66666667  0.33333333  0.50269968  1.0
  Br  Br2  1  0.33333333  0.66666667  0.37530032  1.0
  Br  Br3  1  0.66666667  0.33333333  0.87530032  1.0
