# generated using pymatgen
data_Lu3Ga5
_symmetry_space_group_name_H-M   'P 1'
_cell_length_a   11.24069624
_cell_length_b   9.54743430
_cell_length_c   5.99079217
_cell_angle_alpha   90.00000000
_cell_angle_beta   90.00000000
_cell_angle_gamma   90.00000000
_symmetry_Int_Tables_number   1
_chemical_formula_structural   Lu3Ga5
_chemical_formula_sum   'Lu12 Ga20'
_cell_volume   642.93067065
_cell_formula_units_Z   4
loop_
 _symmetry_equiv_pos_site_id
 _symmetry_equiv_pos_as_xyz
  1  'x, y, z'
loop_
 _atom_site_type_symbol
 _atom_site_label
 _atom_site_symmetry_multiplicity
 _atom_site_fract_x
 _atom_site_fract_y
 _atom_site_fract_z
 _atom_site_occupancy
  Lu  Lu0  1  0.64721307  0.49034858  0.10835368  1.0
  Lu  Lu1  1  0.64721307  0.00965142  0.10835368  1.0
  Lu  Lu2  1  0.14721307  0.49034858  0.39164632  1.0
  Lu  Lu3  1  0.14721307  0.00965142  0.39164632  1.0
  Lu  Lu4  1  0.35278693  0.99034858  0.89164632  1.0
  Lu  Lu5  1  0.35278693  0.50965142  0.89164632  1.0
  Lu  Lu6  1  0.85278693  0.99034858  0.60835368  1.0
  Lu  Lu7  1  0.85278693  0.50965142  0.60835368  1.0
  Lu  Lu8  1  0.92811722  0.25000000  0.15304216  1.0
  Lu  Lu9  1  0.42811722  0.25000000  0.34695784  1.0
  Lu  Lu10  1  0.07188278  0.75000000  0.84695784  1.0
  Lu  Lu11  1  0.57188278  0.75000000  0.65304216  1.0
  Ga  Ga12  1  0.74919154  0.25000000  0.82851383  1.0
  Ga  Ga13  1  0.24919154  0.25000000  0.67148617  1.0
  Ga  Ga14  1  0.25080846  0.75000000  0.17148617  1.0
  Ga  Ga15  1  0.75080846  0.75000000  0.32851383  1.0
  Ga  Ga16  1  0.90847582  0.94892981  0.12495317  1.0
  Ga  Ga17  1  0.90847582  0.55107019  0.12495317  1.0
  Ga  Ga18  1  0.40847582  0.94892981  0.37504683  1.0
  Ga  Ga19  1  0.40847582  0.55107019  0.37504683  1.0
  Ga  Ga20  1  0.09152418  0.44892981  0.87504683  1.0
  Ga  Ga21  1  0.09152418  0.05107019  0.87504683  1.0
  Ga  Ga22  1  0.59152418  0.44892981  0.62495317  1.0
  Ga  Ga23  1  0.59152418  0.05107019  0.62495317  1.0
  Ga  Ga24  1  0.99339796  0.25000000  0.62536635  1.0
  Ga  Ga25  1  0.49339796  0.25000000  0.87463365  1.0
  Ga  Ga26  1  0.00660204  0.75000000  0.37463365  1.0
  Ga  Ga27  1  0.50660204  0.75000000  0.12536635  1.0
  Ga  Ga28  1  0.70200604  0.25000000  0.39140669  1.0
  Ga  Ga29  1  0.20200604  0.25000000  0.10859331  1.0
  Ga  Ga30  1  0.29799396  0.75000000  0.60859331  1.0
  Ga  Ga31  1  0.79799396  0.75000000  0.89140669  1.0
