# generated using pymatgen
data_BeH8SO8
_symmetry_space_group_name_H-M   'P 1'
_cell_length_a   7.97710119
_cell_length_b   7.97710119
_cell_length_c   7.97710119
_cell_angle_alpha   120.34685417
_cell_angle_beta   120.34685417
_cell_angle_gamma   89.40027356
_symmetry_Int_Tables_number   1
_chemical_formula_structural   BeH8SO8
_chemical_formula_sum   'Be2 H16 S2 O16'
_cell_volume   357.03570769
_cell_formula_units_Z   2
loop_
 _symmetry_equiv_pos_site_id
 _symmetry_equiv_pos_as_xyz
  1  'x, y, z'
loop_
 _atom_site_type_symbol
 _atom_site_label
 _atom_site_symmetry_multiplicity
 _atom_site_fract_x
 _atom_site_fract_y
 _atom_site_fract_z
 _atom_site_occupancy
  Be  Be0  1  0.25000000  0.75000000  0.50000000  1.0
  Be  Be1  1  0.75000000  0.25000000  0.50000000  1.0
  H  H2  1  0.57864466  0.98902085  0.84043410  1.0
  H  H3  1  0.64858675  0.48902085  0.41037619  1.0
  H  H4  1  0.51097915  0.92135534  1.15956590  1.0
  H  H5  1  0.26178944  0.42135534  0.41037619  1.0
  H  H6  1  1.07864466  1.23821056  0.58962381  1.0
  H  H7  1  1.14858675  0.73821056  1.15956590  1.0
  H  H8  1  1.01097915  0.85141325  1.58962381  1.0
  H  H9  1  0.76178944  1.35141325  0.84043410  1.0
  H  H10  1  0.40437886  1.09838035  0.76884770  1.0
  H  H11  1  0.82953265  0.59838035  0.69400149  1.0
  H  H12  1  0.40161965  1.09562114  1.23115230  1.0
  H  H13  1  0.36446884  0.59562114  0.69400149  1.0
  H  H14  1  0.90437886  1.13553116  1.30599851  1.0
  H  H15  1  1.32953265  1.63553116  1.23115230  1.0
  H  H16  1  0.90161965  0.67046735  0.30599851  1.0
  H  H17  1  0.86446884  0.17046735  0.76884770  1.0
  S  S18  1  0.00000000  0.00000000  0.00000000  1.0
  S  S19  1  0.50000000  0.50000000  -0.00000000  1.0
  O  O20  1  0.83815621  1.05435713  1.04199197  1.0
  O  O21  1  1.51236516  1.55435713  1.21620091  1.0
  O  O22  1  0.44564287  0.66184379  0.95800803  1.0
  O  O23  1  1.20383576  1.16184379  1.21620091  1.0
  O  O24  1  1.33815621  1.29616424  1.78379909  1.0
  O  O25  1  1.01236516  1.79616424  0.95800803  1.0
  O  O26  1  0.94564287  0.98763484  1.78379909  1.0
  O  O27  1  0.70383576  1.48763484  1.04199197  1.0
  O  O28  1  0.42858426  0.96605260  0.74360810  1.0
  O  O29  1  0.72244451  0.46605260  0.53746834  1.0
  O  O30  1  0.53394740  1.07141574  1.25639190  1.0
  O  O31  1  0.31502383  0.57141574  0.53746834  1.0
  O  O32  1  0.92858426  1.18497617  1.46253166  1.0
  O  O33  1  1.22244451  0.68497617  1.25639190  1.0
  O  O34  1  1.03394740  0.77755549  1.46253166  1.0
  O  O35  1  0.81502383  0.27755549  0.74360810  1.0
