# generated using pymatgen
data_CaMn2O4
_symmetry_space_group_name_H-M   'P 1'
_cell_length_a   9.23093469
_cell_length_b   3.09448160
_cell_length_c   10.60606668
_cell_angle_alpha   90.00000000
_cell_angle_beta   90.00000000
_cell_angle_gamma   90.00000000
_symmetry_Int_Tables_number   1
_chemical_formula_structural   CaMn2O4
_chemical_formula_sum   'Ca4 Mn8 O16'
_cell_volume   302.96184452
_cell_formula_units_Z   4
loop_
 _symmetry_equiv_pos_site_id
 _symmetry_equiv_pos_as_xyz
  1  'x, y, z'
loop_
 _atom_site_type_symbol
 _atom_site_label
 _atom_site_symmetry_multiplicity
 _atom_site_fract_x
 _atom_site_fract_y
 _atom_site_fract_z
 _atom_site_occupancy
  Ca  Ca0  1  0.75438254  0.75000000  0.65490872  1.0
  Ca  Ca1  1  0.25438254  0.75000000  0.84509128  1.0
  Ca  Ca2  1  0.24561746  0.25000000  0.34509128  1.0
  Ca  Ca3  1  0.74561746  0.25000000  0.15490872  1.0
  Mn  Mn4  1  0.92096107  0.75000000  0.39433573  1.0
  Mn  Mn5  1  0.42096107  0.75000000  0.10566427  1.0
  Mn  Mn6  1  0.07903893  0.25000000  0.60566427  1.0
  Mn  Mn7  1  0.57903893  0.25000000  0.89433573  1.0
  Mn  Mn8  1  0.43455031  0.75000000  0.61173944  1.0
  Mn  Mn9  1  0.93455031  0.75000000  0.88826056  1.0
  Mn  Mn10  1  0.56544969  0.25000000  0.38826056  1.0
  Mn  Mn11  1  0.06544969  0.25000000  0.11173944  1.0
  O  O12  1  0.61294969  0.75000000  0.02406796  1.0
  O  O13  1  0.11294969  0.75000000  0.47593204  1.0
  O  O14  1  0.38705031  0.25000000  0.97593204  1.0
  O  O15  1  0.88705031  0.25000000  0.52406796  1.0
  O  O16  1  0.91501334  0.75000000  0.07135881  1.0
  O  O17  1  0.41501334  0.75000000  0.42864119  1.0
  O  O18  1  0.08498666  0.25000000  0.92864119  1.0
  O  O19  1  0.58498666  0.25000000  0.57135881  1.0
  O  O20  1  0.71977339  0.75000000  0.33597498  1.0
  O  O21  1  0.21977339  0.75000000  0.16402502  1.0
  O  O22  1  0.28022661  0.25000000  0.66402502  1.0
  O  O23  1  0.78022661  0.25000000  0.83597498  1.0
  O  O24  1  0.51774615  0.75000000  0.78214538  1.0
  O  O25  1  0.01774615  0.75000000  0.71785462  1.0
  O  O26  1  0.48225385  0.25000000  0.21785462  1.0
  O  O27  1  0.98225385  0.25000000  0.28214538  1.0
