# generated using pymatgen
data_Mo3C8Se13N2
_symmetry_space_group_name_H-M   'P 1'
_cell_length_a   10.25248426
_cell_length_b   10.25248426
_cell_length_c   6.56519839
_cell_angle_alpha   90.00000000
_cell_angle_beta   90.00000000
_cell_angle_gamma   120.00000000
_symmetry_Int_Tables_number   1
_chemical_formula_structural   Mo3C8Se13N2
_chemical_formula_sum   'Mo3 C8 Se13 N2'
_cell_volume   597.63594223
_cell_formula_units_Z   1
loop_
 _symmetry_equiv_pos_site_id
 _symmetry_equiv_pos_as_xyz
  1  'x, y, z'
loop_
 _atom_site_type_symbol
 _atom_site_label
 _atom_site_symmetry_multiplicity
 _atom_site_fract_x
 _atom_site_fract_y
 _atom_site_fract_z
 _atom_site_occupancy
  C  C0  1  0.56222740  0.36912116  -0.12494877  1.0
  C  C1  1  0.80689376  0.43777260  -0.12494877  1.0
  C  C2  1  0.63087884  0.19310624  -0.12494877  1.0
  C  C3  1  0.43777260  0.80689376  -0.12494877  1.0
  C  C4  1  0.36912116  0.56222740  -0.12494877  1.0
  C  C5  1  0.19310624  0.63087884  -0.12494877  1.0
  C  C6  1  0.66666667  0.33333333  0.76297158  1.0
  C  C7  1  0.33333333  0.66666667  0.76297158  1.0
  N  N8  1  0.66666667  0.33333333  0.00851504  1.0
  N  N9  1  0.33333333  0.66666667  0.00851504  1.0
  Mo  Mo10  1  0.84475998  0.84475998  0.59595408  1.0
  Mo  Mo11  1  -0.00000000  0.15524002  0.59595408  1.0
  Mo  Mo12  1  0.15524002  0.00000000  0.59595408  1.0
  Se  Se13  1  0.70993592  0.00000000  0.64651287  1.0
  Se  Se14  1  0.29006408  0.29006408  0.64651287  1.0
  Se  Se15  1  -0.00000000  0.70993592  0.64651287  1.0
  Se  Se16  1  0.80549944  0.00000000  0.32407599  1.0
  Se  Se17  1  0.19450056  0.19450056  0.32407599  1.0
  Se  Se18  1  -0.00000000  0.80549944  0.32407599  1.0
  Se  Se19  1  0.00000000  0.00000000  0.89473109  1.0
  Se  Se20  1  0.60329339  0.60329339  0.46777873  1.0
  Se  Se21  1  -0.00000000  0.39670661  0.46777873  1.0
  Se  Se22  1  0.39670661  0.00000000  0.46777873  1.0
  Se  Se23  1  0.61894537  0.61894537  0.81904108  1.0
  Se  Se24  1  -0.00000000  0.38105463  0.81904108  1.0
  Se  Se25  1  0.38105463  0.00000000  0.81904108  1.0
