# generated using pymatgen
data_TaSiPt
_symmetry_space_group_name_H-M   'P 1'
_cell_length_a   6.44748143
_cell_length_b   3.83437728
_cell_length_c   7.43022218
_cell_angle_alpha   90.00000000
_cell_angle_beta   90.00000000
_cell_angle_gamma   90.00000000
_symmetry_Int_Tables_number   1
_chemical_formula_structural   TaSiPt
_chemical_formula_sum   'Ta4 Si4 Pt4'
_cell_volume   183.69052003
_cell_formula_units_Z   4
loop_
 _symmetry_equiv_pos_site_id
 _symmetry_equiv_pos_as_xyz
  1  'x, y, z'
loop_
 _atom_site_type_symbol
 _atom_site_label
 _atom_site_symmetry_multiplicity
 _atom_site_fract_x
 _atom_site_fract_y
 _atom_site_fract_z
 _atom_site_occupancy
  Ta  Ta0  1  0.97448416  0.75000000  0.66336549  1.0
  Ta  Ta1  1  0.47448416  0.75000000  0.83663451  1.0
  Ta  Ta2  1  0.02551584  0.25000000  0.33663451  1.0
  Ta  Ta3  1  0.52551584  0.25000000  0.16336549  1.0
  Si  Si4  1  0.73042157  0.75000000  0.37467830  1.0
  Si  Si5  1  0.23042157  0.75000000  0.12532170  1.0
  Si  Si6  1  0.26957843  0.25000000  0.62532170  1.0
  Si  Si7  1  0.76957843  0.25000000  0.87467830  1.0
  Pt  Pt8  1  0.84664882  0.75000000  0.06869848  1.0
  Pt  Pt9  1  0.34664882  0.75000000  0.43130152  1.0
  Pt  Pt10  1  0.15335118  0.25000000  0.93130152  1.0
  Pt  Pt11  1  0.65335118  0.25000000  0.56869848  1.0
