# generated using pymatgen
data_La(Sb3Ru)4
_symmetry_space_group_name_H-M   'P 1'
_cell_length_a   8.13533192
_cell_length_b   8.13533192
_cell_length_c   8.13533192
_cell_angle_alpha   109.47122063
_cell_angle_beta   109.47122063
_cell_angle_gamma   109.47122063
_symmetry_Int_Tables_number   1
_chemical_formula_structural   La(Sb3Ru)4
_chemical_formula_sum   'La1 Sb12 Ru4'
_cell_volume   414.48034397
_cell_formula_units_Z   1
loop_
 _symmetry_equiv_pos_site_id
 _symmetry_equiv_pos_as_xyz
  1  'x, y, z'
loop_
 _atom_site_type_symbol
 _atom_site_label
 _atom_site_symmetry_multiplicity
 _atom_site_fract_x
 _atom_site_fract_y
 _atom_site_fract_z
 _atom_site_occupancy
  La  La0  1  -0.00000000  -0.00000000  -0.00000000  1.0
  Sb  Sb1  1  0.84130432  1.34065698  1.18196130  1.0
  Sb  Sb2  1  0.84130432  0.65934302  0.50064734  1.0
  Sb  Sb3  1  0.15869568  0.34065698  0.49935266  1.0
  Sb  Sb4  1  0.15869568  0.65934302  0.81803870  1.0
  Sb  Sb5  1  0.50064734  0.84130432  0.65934302  1.0
  Sb  Sb6  1  1.18196130  0.84130432  1.34065698  1.0
  Sb  Sb7  1  0.65934302  0.81803870  0.15869568  1.0
  Sb  Sb8  1  0.65934302  0.50064734  0.84130432  1.0
  Sb  Sb9  1  0.81803870  0.15869568  0.65934302  1.0
  Sb  Sb10  1  0.49935266  0.15869568  0.34065698  1.0
  Sb  Sb11  1  0.34065698  0.49935266  0.15869568  1.0
  Sb  Sb12  1  1.34065698  1.18196130  0.84130432  1.0
  Ru  Ru13  1  0.50000000  1.00000000  1.00000000  1.0
  Ru  Ru14  1  0.50000000  0.50000000  0.50000000  1.0
  Ru  Ru15  1  1.00000000  1.00000000  0.50000000  1.0
  Ru  Ru16  1  1.00000000  0.50000000  1.00000000  1.0
