# generated using pymatgen
data_Al13Os4
_symmetry_space_group_name_H-M   'P 1'
_cell_length_a   9.11497742
_cell_length_b   9.11497742
_cell_length_c   7.82033191
_cell_angle_alpha   64.94323895
_cell_angle_beta   115.05676105
_cell_angle_gamma   153.12673691
_symmetry_Int_Tables_number   1
_chemical_formula_structural   Al13Os4
_chemical_formula_sum   'Al13 Os4'
_cell_volume   264.38777693
_cell_formula_units_Z   1
loop_
 _symmetry_equiv_pos_site_id
 _symmetry_equiv_pos_as_xyz
  1  'x, y, z'
loop_
 _atom_site_type_symbol
 _atom_site_label
 _atom_site_symmetry_multiplicity
 _atom_site_fract_x
 _atom_site_fract_y
 _atom_site_fract_z
 _atom_site_occupancy
  Al  Al0  1  0.79297753  -0.79297753  0.58383838  1.0
  Al  Al1  1  1.20702247  -0.20702247  0.41616162  1.0
  Al  Al2  1  0.91473633  -0.91473633  0.93180611  1.0
  Al  Al3  1  1.08526367  -0.08526367  0.06819389  1.0
  Al  Al4  1  0.86970869  -0.86970869  0.34252018  1.0
  Al  Al5  1  1.13029131  -0.13029131  0.65747982  1.0
  Al  Al6  1  0.74035279  -0.74035279  0.88279465  1.0
  Al  Al7  1  1.25964721  -0.25964721  0.11720535  1.0
  Al  Al8  1  0.58825718  -0.58825718  0.86597541  1.0
  Al  Al9  1  1.41174282  -0.41174282  0.13402459  1.0
  Al  Al10  1  1.41249740  -0.41249740  0.70187499  1.0
  Al  Al11  1  0.58750260  -0.58750260  0.29812501  1.0
  Al  Al12  1  0.50000000  0.50000000  0.50000000  1.0
  Os  Os13  1  1.29447601  -0.29447601  0.79180173  1.0
  Os  Os14  1  0.70552399  -0.70552399  0.20819827  1.0
  Os  Os15  1  0.99150777  -0.99150777  0.69496402  1.0
  Os  Os16  1  1.00849223  -0.00849223  0.30503598  1.0
