# generated using pymatgen
data_Zn(Mo4O5)2
_symmetry_space_group_name_H-M   'P 1'
_cell_length_a   13.21486181
_cell_length_b   13.21486181
_cell_length_c   13.21486181
_cell_angle_alpha   154.07345262
_cell_angle_beta   154.07345262
_cell_angle_gamma   36.99285143
_symmetry_Int_Tables_number   1
_chemical_formula_structural   Zn(Mo4O5)2
_chemical_formula_sum   'Zn2 Mo16 O20'
_cell_volume   440.52894868
_cell_formula_units_Z   2
loop_
 _symmetry_equiv_pos_site_id
 _symmetry_equiv_pos_as_xyz
  1  'x, y, z'
loop_
 _atom_site_type_symbol
 _atom_site_label
 _atom_site_symmetry_multiplicity
 _atom_site_fract_x
 _atom_site_fract_y
 _atom_site_fract_z
 _atom_site_occupancy
  Zn  Zn0  1  0.00050236  0.00050236  -0.00000000  1.0
  Zn  Zn1  1  0.75050236  0.25050236  0.50000000  1.0
  Mo  Mo2  1  1.14572875  0.38411664  0.76161211  1.0
  Mo  Mo3  1  0.62250453  0.38411664  0.23838789  1.0
  Mo  Mo4  1  0.13411664  0.39572875  0.26161211  1.0
  Mo  Mo5  1  0.13411664  0.87250453  0.73838789  1.0
  Mo  Mo6  1  0.43411009  0.70784386  0.72626623  1.0
  Mo  Mo7  1  0.98157762  0.70784386  1.27373377  1.0
  Mo  Mo8  1  0.45784386  0.68411009  0.22626623  1.0
  Mo  Mo9  1  0.45784386  1.23157762  0.77373377  1.0
  Mo  Mo10  1  0.59675628  0.87979767  0.71695861  1.0
  Mo  Mo11  1  1.16283906  0.87979767  1.28304139  1.0
  Mo  Mo12  1  0.62979767  0.84675628  1.21695861  1.0
  Mo  Mo13  1  0.62979767  0.41283906  0.78304139  1.0
  Mo  Mo14  1  0.28064840  0.55689738  0.72375102  1.0
  Mo  Mo15  1  0.83314636  0.55689738  1.27624898  1.0
  Mo  Mo16  1  0.30689738  0.53064840  0.22375102  1.0
  Mo  Mo17  1  0.30689738  1.08314636  0.77624898  1.0
  O  O18  1  1.20284286  0.46720436  0.73563850  1.0
  O  O19  1  0.73156587  0.46720436  0.26436150  1.0
  O  O20  1  0.21720436  0.45284286  0.23563850  1.0
  O  O21  1  0.21720436  0.98156587  0.76436150  1.0
  O  O22  1  0.87452422  0.13311367  0.74141055  1.0
  O  O23  1  0.39170312  0.13311367  0.25858945  1.0
  O  O24  1  0.88311367  1.12452422  1.24141055  1.0
  O  O25  1  0.88311367  0.64170312  0.75858945  1.0
  O  O26  1  0.68512877  0.96146288  0.72366589  1.0
  O  O27  1  1.23779699  0.96146288  1.27633411  1.0
  O  O28  1  0.71146288  0.93512877  1.22366589  1.0
  O  O29  1  0.71146288  0.48779699  0.77633411  1.0
  O  O30  1  0.51898774  0.79665913  0.72232860  1.0
  O  O31  1  1.07433053  0.79665913  1.27767140  1.0
  O  O32  1  0.54665913  0.76898774  1.22232860  1.0
  O  O33  1  0.54665913  0.32433053  0.77767140  1.0
  O  O34  1  1.04126362  0.30295322  0.73831039  1.0
  O  O35  1  0.56464283  0.30295322  0.26168961  1.0
  O  O36  1  0.05295322  0.29126362  0.23831039  1.0
  O  O37  1  0.05295322  0.81464283  0.76168961  1.0
