# generated using pymatgen
data_Te4O9
_symmetry_space_group_name_H-M   'P 1'
_cell_length_a   7.56830368
_cell_length_b   7.56830368
_cell_length_c   7.56830368
_cell_angle_alpha   78.77745074
_cell_angle_beta   78.77745074
_cell_angle_gamma   78.77745074
_symmetry_Int_Tables_number   1
_chemical_formula_structural   Te4O9
_chemical_formula_sum   'Te8 O18'
_cell_volume   411.51440173
_cell_formula_units_Z   2
loop_
 _symmetry_equiv_pos_site_id
 _symmetry_equiv_pos_as_xyz
  1  'x, y, z'
loop_
 _atom_site_type_symbol
 _atom_site_label
 _atom_site_symmetry_multiplicity
 _atom_site_fract_x
 _atom_site_fract_y
 _atom_site_fract_z
 _atom_site_occupancy
  Te  Te0  1  0.83969072  0.59563904  -0.70766368  1.0
  Te  Te1  1  0.40436096  0.70766368  -0.83969072  1.0
  Te  Te2  1  0.70766368  0.16030928  -0.59563904  1.0
  Te  Te3  1  0.16030928  0.40436096  -0.29233632  1.0
  Te  Te4  1  0.59563904  0.29233632  -0.16030928  1.0
  Te  Te5  1  0.29233632  0.83969072  -0.40436096  1.0
  Te  Te6  1  0.81666019  0.81666019  -0.18333981  1.0
  Te  Te7  1  1.18333981  1.18333981  0.18333981  1.0
  O  O8  1  0.71461391  0.04211962  -0.06382018  1.0
  O  O9  1  0.95788038  0.06382018  -0.71461391  1.0
  O  O10  1  1.06382018  -0.71461391  -0.04211962  1.0
  O  O11  1  0.28538609  -0.04211962  0.06382018  1.0
  O  O12  1  1.04211962  -0.06382018  -0.28538609  1.0
  O  O13  1  0.93617982  -0.28538609  0.04211962  1.0
  O  O14  1  0.70679969  0.42203973  -0.77171415  1.0
  O  O15  1  0.57796027  0.77171415  -0.70679969  1.0
  O  O16  1  0.77171415  0.29320031  -0.42203973  1.0
  O  O17  1  0.29320031  0.57796027  -0.22828585  1.0
  O  O18  1  0.42203973  0.22828585  -0.29320031  1.0
  O  O19  1  0.22828585  0.70679969  -0.57796027  1.0
  O  O20  1  0.58741551  0.71340347  -0.08310960  1.0
  O  O21  1  1.28659653  1.08310960  0.41258449  1.0
  O  O22  1  1.08310960  1.41258449  0.28659653  1.0
  O  O23  1  1.41258449  1.28659653  0.08310960  1.0
  O  O24  1  0.71340347  0.91689040  -0.41258449  1.0
  O  O25  1  0.91689040  0.58741551  -0.28659653  1.0
