# generated using pymatgen
data_Mo3S3I
_symmetry_space_group_name_H-M   'P 1'
_cell_length_a   6.61265959
_cell_length_b   6.61265959
_cell_length_c   6.61265959
_cell_angle_alpha   94.22262925
_cell_angle_beta   94.22262925
_cell_angle_gamma   94.22262925
_symmetry_Int_Tables_number   1
_chemical_formula_structural   Mo3S3I
_chemical_formula_sum   'Mo6 S6 I2'
_cell_volume   286.67593413
_cell_formula_units_Z   2
loop_
 _symmetry_equiv_pos_site_id
 _symmetry_equiv_pos_as_xyz
  1  'x, y, z'
loop_
 _atom_site_type_symbol
 _atom_site_label
 _atom_site_symmetry_multiplicity
 _atom_site_fract_x
 _atom_site_fract_y
 _atom_site_fract_z
 _atom_site_occupancy
  Mo  Mo0  1  0.72302407  0.90746283  0.05161000  1.0
  Mo  Mo1  1  1.09253717  -0.05161000  0.27697593  1.0
  Mo  Mo2  1  0.94839000  0.27697593  0.09253717  1.0
  Mo  Mo3  1  1.27697593  0.09253717  -0.05161000  1.0
  Mo  Mo4  1  0.90746283  1.05161000  -0.27697593  1.0
  Mo  Mo5  1  1.05161000  0.72302407  -0.09253717  1.0
  S  S6  1  0.88041918  0.63390853  0.21241799  1.0
  S  S7  1  1.36609147  -0.21241799  0.11958082  1.0
  S  S8  1  0.78758201  0.11958082  0.36609147  1.0
  S  S9  1  1.11958082  0.36609147  -0.21241799  1.0
  S  S10  1  0.63390853  1.21241799  -0.11958082  1.0
  S  S11  1  1.21241799  0.88041918  -0.36609147  1.0
  I  I12  1  0.67759050  0.67759050  0.67759050  1.0
  I  I13  1  0.32240950  0.32240950  0.32240950  1.0
