# generated using pymatgen
data_HfMnGa2
_symmetry_space_group_name_H-M   'P 1'
_cell_length_a   10.04933084
_cell_length_b   8.43472902
_cell_length_c   9.02748397
_cell_angle_alpha   90.00000000
_cell_angle_beta   90.00000000
_cell_angle_gamma   90.00000000
_symmetry_Int_Tables_number   1
_chemical_formula_structural   HfMnGa2
_chemical_formula_sum   'Hf12 Mn12 Ga24'
_cell_volume   765.20007671
_cell_formula_units_Z   12
loop_
 _symmetry_equiv_pos_site_id
 _symmetry_equiv_pos_as_xyz
  1  'x, y, z'
loop_
 _atom_site_type_symbol
 _atom_site_label
 _atom_site_symmetry_multiplicity
 _atom_site_fract_x
 _atom_site_fract_y
 _atom_site_fract_z
 _atom_site_occupancy
  Hf  Hf0  1  0.45205152  0.97577025  0.83060403  1.0
  Hf  Hf1  1  0.45205152  0.52422975  0.83060403  1.0
  Hf  Hf2  1  0.95205152  0.97577025  0.66939597  1.0
  Hf  Hf3  1  0.95205152  0.52422975  0.66939597  1.0
  Hf  Hf4  1  0.54794848  0.47577025  0.16939597  1.0
  Hf  Hf5  1  0.54794848  0.02422975  0.16939597  1.0
  Hf  Hf6  1  0.04794848  0.47577025  0.33060403  1.0
  Hf  Hf7  1  0.04794848  0.02422975  0.33060403  1.0
  Hf  Hf8  1  0.17994121  0.75000000  0.83759464  1.0
  Hf  Hf9  1  0.67994121  0.75000000  0.66240536  1.0
  Hf  Hf10  1  0.82005879  0.25000000  0.16240536  1.0
  Hf  Hf11  1  0.32005879  0.25000000  0.33759464  1.0
  Mn  Mn12  1  0.25078906  0.00072218  0.58040360  1.0
  Mn  Mn13  1  0.25078906  0.49927782  0.58040360  1.0
  Mn  Mn14  1  0.75078906  0.00072218  0.91959640  1.0
  Mn  Mn15  1  0.75078906  0.49927782  0.91959640  1.0
  Mn  Mn16  1  0.74921094  0.50072218  0.41959640  1.0
  Mn  Mn17  1  0.74921094  -0.00072218  0.41959640  1.0
  Mn  Mn18  1  0.24921094  0.50072218  0.08040360  1.0
  Mn  Mn19  1  0.24921094  -0.00072218  0.08040360  1.0
  Mn  Mn20  1  0.50000000  0.00000000  0.50000000  1.0
  Mn  Mn21  1  0.50000000  0.50000000  0.50000000  1.0
  Mn  Mn22  1  0.00000000  0.00000000  0.00000000  1.0
  Mn  Mn23  1  0.00000000  0.50000000  0.00000000  1.0
  Ga  Ga24  1  0.18137777  0.41968321  0.82917223  1.0
  Ga  Ga25  1  0.18137777  0.08031679  0.82917223  1.0
  Ga  Ga26  1  0.68137777  0.41968321  0.67082777  1.0
  Ga  Ga27  1  0.68137777  0.08031679  0.67082777  1.0
  Ga  Ga28  1  0.81862223  0.91968321  0.17082777  1.0
  Ga  Ga29  1  0.81862223  0.58031679  0.17082777  1.0
  Ga  Ga30  1  0.31862223  0.91968321  0.32917223  1.0
  Ga  Ga31  1  0.31862223  0.58031679  0.32917223  1.0
  Ga  Ga32  1  0.39545523  0.75000000  0.61324891  1.0
  Ga  Ga33  1  0.89545523  0.75000000  0.88675109  1.0
  Ga  Ga34  1  0.60454477  0.25000000  0.38675109  1.0
  Ga  Ga35  1  0.10454477  0.25000000  0.11324891  1.0
  Ga  Ga36  1  0.38178247  0.75000000  0.06508810  1.0
  Ga  Ga37  1  0.88178247  0.75000000  0.43491190  1.0
  Ga  Ga38  1  0.61821753  0.25000000  0.93491190  1.0
  Ga  Ga39  1  0.11821753  0.25000000  0.56508810  1.0
  Ga  Ga40  1  0.12750201  0.75000000  0.51739826  1.0
  Ga  Ga41  1  0.62750201  0.75000000  0.98260174  1.0
  Ga  Ga42  1  0.87249799  0.25000000  0.48260174  1.0
  Ga  Ga43  1  0.37249799  0.25000000  0.01739826  1.0
  Ga  Ga44  1  0.09600371  0.75000000  0.14197635  1.0
  Ga  Ga45  1  0.59600371  0.75000000  0.35802365  1.0
  Ga  Ga46  1  0.90399629  0.25000000  0.85802365  1.0
  Ga  Ga47  1  0.40399629  0.25000000  0.64197635  1.0
