# generated using pymatgen
data_NbGePt
_symmetry_space_group_name_H-M   'P 1'
_cell_length_a   6.49217816
_cell_length_b   3.96361602
_cell_length_c   7.57124678
_cell_angle_alpha   90.00000000
_cell_angle_beta   90.00000000
_cell_angle_gamma   90.00000000
_symmetry_Int_Tables_number   1
_chemical_formula_structural   NbGePt
_chemical_formula_sum   'Nb4 Ge4 Pt4'
_cell_volume   194.82711807
_cell_formula_units_Z   4
loop_
 _symmetry_equiv_pos_site_id
 _symmetry_equiv_pos_as_xyz
  1  'x, y, z'
loop_
 _atom_site_type_symbol
 _atom_site_label
 _atom_site_symmetry_multiplicity
 _atom_site_fract_x
 _atom_site_fract_y
 _atom_site_fract_z
 _atom_site_occupancy
  Nb  Nb0  1  0.97143874  0.75000000  0.67032096  1.0
  Nb  Nb1  1  0.47143874  0.75000000  0.82967904  1.0
  Nb  Nb2  1  0.02856126  0.25000000  0.32967904  1.0
  Nb  Nb3  1  0.52856126  0.25000000  0.17032096  1.0
  Ge  Ge4  1  0.73806367  0.75000000  0.37539151  1.0
  Ge  Ge5  1  0.23806367  0.75000000  0.12460849  1.0
  Ge  Ge6  1  0.26193633  0.25000000  0.62460849  1.0
  Ge  Ge7  1  0.76193633  0.25000000  0.87539151  1.0
  Pt  Pt8  1  0.84617064  0.75000000  0.06391984  1.0
  Pt  Pt9  1  0.34617064  0.75000000  0.43608016  1.0
  Pt  Pt10  1  0.15382936  0.25000000  0.93608016  1.0
  Pt  Pt11  1  0.65382936  0.25000000  0.56391984  1.0
