# generated using pymatgen
data_CsBiO2
_symmetry_space_group_name_H-M   'P 1'
_cell_length_a   6.45266660
_cell_length_b   6.45266660
_cell_length_c   6.08794999
_cell_angle_alpha   68.74176754
_cell_angle_beta   111.25823246
_cell_angle_gamma   81.96102206
_symmetry_Int_Tables_number   1
_chemical_formula_structural   CsBiO2
_chemical_formula_sum   'Cs2 Bi2 O4'
_cell_volume   209.14423743
_cell_formula_units_Z   2
loop_
 _symmetry_equiv_pos_site_id
 _symmetry_equiv_pos_as_xyz
  1  'x, y, z'
loop_
 _atom_site_type_symbol
 _atom_site_label
 _atom_site_symmetry_multiplicity
 _atom_site_fract_x
 _atom_site_fract_y
 _atom_site_fract_z
 _atom_site_occupancy
  Cs  Cs0  1  0.85795149  -0.14204851  0.75000000  1.0
  Cs  Cs1  1  1.14204851  0.14204851  0.25000000  1.0
  Bi  Bi2  1  1.41880950  0.41880950  0.75000000  1.0
  Bi  Bi3  1  0.58119050  -0.41880950  0.25000000  1.0
  O  O4  1  0.37662712  -0.26861027  0.78782189  1.0
  O  O5  1  1.26861027  0.62337288  0.28782189  1.0
  O  O6  1  0.73138973  -0.62337288  0.71217811  1.0
  O  O7  1  1.62337288  0.26861027  0.21217811  1.0
