# generated using pymatgen
data_Gd11In9Pd4
_symmetry_space_group_name_H-M   'P 1'
_cell_length_a   13.34562135
_cell_length_b   13.34562135
_cell_length_c   3.73623789
_cell_angle_alpha   90.00000000
_cell_angle_beta   90.00000000
_cell_angle_gamma   112.79506533
_symmetry_Int_Tables_number   1
_chemical_formula_structural   Gd11In9Pd4
_chemical_formula_sum   'Gd11 In9 Pd4'
_cell_volume   613.47136299
_cell_formula_units_Z   1
loop_
 _symmetry_equiv_pos_site_id
 _symmetry_equiv_pos_as_xyz
  1  'x, y, z'
loop_
 _atom_site_type_symbol
 _atom_site_label
 _atom_site_symmetry_multiplicity
 _atom_site_fract_x
 _atom_site_fract_y
 _atom_site_fract_z
 _atom_site_occupancy
  Gd  Gd0  1  -0.06961609  1.58717985  0.00000000  1.0
  Gd  Gd1  1  0.58717985  0.93038391  0.00000000  1.0
  Gd  Gd2  1  -0.58717985  1.06961609  0.00000000  1.0
  Gd  Gd3  1  0.06961609  0.41282015  0.00000000  1.0
  Gd  Gd4  1  0.15997177  0.84002823  0.00000000  1.0
  Gd  Gd5  1  -0.15997177  1.15997177  0.00000000  1.0
  Gd  Gd6  1  0.37276016  0.62723984  0.00000000  1.0
  Gd  Gd7  1  -0.37276016  1.37276016  0.00000000  1.0
  Gd  Gd8  1  0.69104433  0.69104433  0.00000000  1.0
  Gd  Gd9  1  0.30895567  0.30895567  0.00000000  1.0
  Gd  Gd10  1  0.00000000  0.00000000  0.00000000  1.0
  In  In11  1  0.15906388  0.63226231  0.50000000  1.0
  In  In12  1  -0.36773769  1.15906388  0.50000000  1.0
  In  In13  1  0.36773769  0.84093612  0.50000000  1.0
  In  In14  1  -0.15906388  1.36773769  0.50000000  1.0
  In  In15  1  -0.07460089  1.78310966  0.50000000  1.0
  In  In16  1  0.78310966  0.92539911  0.50000000  1.0
  In  In17  1  -0.78310966  1.07460089  0.50000000  1.0
  In  In18  1  0.07460089  0.21689034  0.50000000  1.0
  In  In19  1  0.50000000  0.50000000  0.50000000  1.0
  Pd  Pd20  1  -0.24614334  1.55137311  0.50000000  1.0
  Pd  Pd21  1  0.55137311  0.75385666  0.50000000  1.0
  Pd  Pd22  1  -0.55137311  1.24614334  0.50000000  1.0
  Pd  Pd23  1  0.24614334  0.44862689  0.50000000  1.0
