# generated using pymatgen
data_Cs2Zr(SiO3)3
_symmetry_space_group_name_H-M   'P 1'
_cell_length_a   7.32285332
_cell_length_b   7.32285332
_cell_length_c   10.41150692
_cell_angle_alpha   90.00000000
_cell_angle_beta   90.00000000
_cell_angle_gamma   120.00000000
_symmetry_Int_Tables_number   1
_chemical_formula_structural   Cs2Zr(SiO3)3
_chemical_formula_sum   'Cs4 Zr2 Si6 O18'
_cell_volume   483.50936949
_cell_formula_units_Z   2
loop_
 _symmetry_equiv_pos_site_id
 _symmetry_equiv_pos_as_xyz
  1  'x, y, z'
loop_
 _atom_site_type_symbol
 _atom_site_label
 _atom_site_symmetry_multiplicity
 _atom_site_fract_x
 _atom_site_fract_y
 _atom_site_fract_z
 _atom_site_occupancy
  Cs  Cs0  1  0.33333333  0.66666667  0.43634121  1.0
  Cs  Cs1  1  0.33333333  0.66666667  0.06365879  1.0
  Cs  Cs2  1  0.66666667  0.33333333  0.93634121  1.0
  Cs  Cs3  1  0.66666667  0.33333333  0.56365879  1.0
  Zr  Zr4  1  -0.00000000  -0.00000000  0.50000000  1.0
  Zr  Zr5  1  0.00000000  0.00000000  0.00000000  1.0
  Si  Si6  1  0.76624852  0.61089317  0.25000000  1.0
  Si  Si7  1  0.61089317  0.84464465  0.75000000  1.0
  Si  Si8  1  0.84464465  0.23375148  0.25000000  1.0
  Si  Si9  1  0.38910683  0.15535535  0.25000000  1.0
  Si  Si10  1  0.23375148  0.38910683  0.75000000  1.0
  Si  Si11  1  0.15535535  0.76624852  0.75000000  1.0
  O  O12  1  0.80557319  0.74075452  0.38246672  1.0
  O  O13  1  0.80557319  0.74075452  0.11753328  1.0
  O  O14  1  0.74075452  0.93518133  0.88246672  1.0
  O  O15  1  0.74075452  0.93518133  0.61753328  1.0
  O  O16  1  0.93518133  0.19442681  0.38246672  1.0
  O  O17  1  0.93518133  0.19442681  0.11753328  1.0
  O  O18  1  0.25924548  0.06481867  0.38246672  1.0
  O  O19  1  0.25924548  0.06481867  0.11753328  1.0
  O  O20  1  0.19442681  0.25924548  0.88246672  1.0
  O  O21  1  0.19442681  0.25924548  0.61753328  1.0
  O  O22  1  0.06481867  0.80557319  0.88246672  1.0
  O  O23  1  0.06481867  0.80557319  0.61753328  1.0
  O  O24  1  0.51245071  0.41852958  0.25000000  1.0
  O  O25  1  0.41852958  0.90607887  0.75000000  1.0
  O  O26  1  0.90607887  0.48754929  0.25000000  1.0
  O  O27  1  0.58147042  0.09392113  0.25000000  1.0
  O  O28  1  0.48754929  0.58147042  0.75000000  1.0
  O  O29  1  0.09392113  0.51245071  0.75000000  1.0
