# generated using pymatgen
data_CaH4(ClO)2
_symmetry_space_group_name_H-M   'P 1'
_cell_length_a   5.99065280
_cell_length_b   7.63496425
_cell_length_c   12.34330898
_cell_angle_alpha   90.00000000
_cell_angle_beta   90.00000000
_cell_angle_gamma   90.00000000
_symmetry_Int_Tables_number   1
_chemical_formula_structural   CaH4(ClO)2
_chemical_formula_sum   'Ca4 H16 Cl8 O8'
_cell_volume   564.56344941
_cell_formula_units_Z   4
loop_
 _symmetry_equiv_pos_site_id
 _symmetry_equiv_pos_as_xyz
  1  'x, y, z'
loop_
 _atom_site_type_symbol
 _atom_site_label
 _atom_site_symmetry_multiplicity
 _atom_site_fract_x
 _atom_site_fract_y
 _atom_site_fract_z
 _atom_site_occupancy
  Ca  Ca0  1  0.50000000  0.16738708  0.75000000  1.0
  Ca  Ca1  1  0.50000000  0.83261292  0.25000000  1.0
  Ca  Ca2  1  0.00000000  0.66738708  0.75000000  1.0
  Ca  Ca3  1  0.00000000  0.33261292  0.25000000  1.0
  H  H4  1  0.24679804  0.14244173  0.53585725  1.0
  H  H5  1  0.24679804  0.85755827  0.03585725  1.0
  H  H6  1  0.74679804  0.64244173  0.96414275  1.0
  H  H7  1  0.74679804  0.35755827  0.46414275  1.0
  H  H8  1  0.75320196  0.14244173  0.96414275  1.0
  H  H9  1  0.75320196  0.85755827  0.46414275  1.0
  H  H10  1  0.25320196  0.64244173  0.53585725  1.0
  H  H11  1  0.25320196  0.35755827  0.03585725  1.0
  H  H12  1  0.09013997  0.23602157  0.62025553  1.0
  H  H13  1  0.09013997  0.76397843  0.12025553  1.0
  H  H14  1  0.59013997  0.73602157  0.87974447  1.0
  H  H15  1  0.59013997  0.26397843  0.37974447  1.0
  H  H16  1  0.90986003  0.23602157  0.87974447  1.0
  H  H17  1  0.90986003  0.76397843  0.37974447  1.0
  H  H18  1  0.40986003  0.73602157  0.62025553  1.0
  H  H19  1  0.40986003  0.26397843  0.12025553  1.0
  Cl  Cl20  1  0.21430194  0.39484087  0.85976636  1.0
  Cl  Cl21  1  0.21430194  0.60515913  0.35976636  1.0
  Cl  Cl22  1  0.71430194  0.89484087  0.64023364  1.0
  Cl  Cl23  1  0.71430194  0.10515913  0.14023364  1.0
  Cl  Cl24  1  0.78569806  0.39484087  0.64023364  1.0
  Cl  Cl25  1  0.78569806  0.60515913  0.14023364  1.0
  Cl  Cl26  1  0.28569806  0.89484087  0.85976636  1.0
  Cl  Cl27  1  0.28569806  0.10515913  0.35976636  1.0
  O  O28  1  0.23448448  0.17521975  0.61275616  1.0
  O  O29  1  0.23448448  0.82478025  0.11275616  1.0
  O  O30  1  0.73448448  0.67521975  0.88724384  1.0
  O  O31  1  0.73448448  0.32478025  0.38724384  1.0
  O  O32  1  0.76551552  0.17521975  0.88724384  1.0
  O  O33  1  0.76551552  0.82478025  0.38724384  1.0
  O  O34  1  0.26551552  0.67521975  0.61275616  1.0
  O  O35  1  0.26551552  0.32478025  0.11275616  1.0
