# generated using pymatgen
data_La2C2N4O
_symmetry_space_group_name_H-M   'P 1'
_cell_length_a   7.48147550
_cell_length_b   7.48147550
_cell_length_c   6.15755941
_cell_angle_alpha   76.63757723
_cell_angle_beta   103.36242277
_cell_angle_gamma   130.34950402
_symmetry_Int_Tables_number   1
_chemical_formula_structural   La2C2N4O
_chemical_formula_sum   'La4 C4 N8 O2'
_cell_volume   254.00535998
_cell_formula_units_Z   2
loop_
 _symmetry_equiv_pos_site_id
 _symmetry_equiv_pos_as_xyz
  1  'x, y, z'
loop_
 _atom_site_type_symbol
 _atom_site_label
 _atom_site_symmetry_multiplicity
 _atom_site_fract_x
 _atom_site_fract_y
 _atom_site_fract_z
 _atom_site_occupancy
  La  La0  1  0.68487604  -0.11400479  0.92402262  1.0
  La  La1  1  1.11400479  0.31512396  0.42402262  1.0
  La  La2  1  0.88599521  0.68487604  0.57597738  1.0
  La  La3  1  0.31512396  0.11400479  0.07597738  1.0
  C  C4  1  0.57239541  -0.12303024  0.38824326  1.0
  C  C5  1  1.12303024  0.42760459  0.88824326  1.0
  C  C6  1  0.87696976  0.57239541  0.11175674  1.0
  C  C7  1  0.42760459  0.12303024  0.61175674  1.0
  N  N8  1  0.63063293  0.04656733  0.24527532  1.0
  N  N9  1  0.95343267  0.36936707  0.74527532  1.0
  N  N10  1  1.04656733  0.63063293  0.25472468  1.0
  N  N11  1  0.36936707  -0.04656733  0.75472468  1.0
  N  N12  1  0.47535385  0.29080225  0.46824669  1.0
  N  N13  1  0.70919775  0.52464615  0.96824669  1.0
  N  N14  1  1.29080225  0.47535385  0.03175331  1.0
  N  N15  1  0.52464615  -0.29080225  0.53175331  1.0
  O  O16  1  0.97360686  0.97360686  0.25000000  1.0
  O  O17  1  0.02639314  0.02639314  0.75000000  1.0
