# generated using pymatgen
data_Lu2Hf3Ge4
_symmetry_space_group_name_H-M   'P 1'
_cell_length_a   7.34650888
_cell_length_b   7.34650888
_cell_length_c   13.38412334
_cell_angle_alpha   90.00000000
_cell_angle_beta   90.00000000
_cell_angle_gamma   90.00000000
_symmetry_Int_Tables_number   1
_chemical_formula_structural   Lu2Hf3Ge4
_chemical_formula_sum   'Lu8 Hf12 Ge16'
_cell_volume   722.35710016
_cell_formula_units_Z   4
loop_
 _symmetry_equiv_pos_site_id
 _symmetry_equiv_pos_as_xyz
  1  'x, y, z'
loop_
 _atom_site_type_symbol
 _atom_site_label
 _atom_site_symmetry_multiplicity
 _atom_site_fract_x
 _atom_site_fract_y
 _atom_site_fract_z
 _atom_site_occupancy
  Lu  Lu0  1  0.50032734  0.83879112  0.03049784  1.0
  Lu  Lu1  1  1.00032734  0.66120888  0.71950216  1.0
  Lu  Lu2  1  0.16120888  0.49967266  0.46950216  1.0
  Lu  Lu3  1  0.66120888  1.00032734  0.28049784  1.0
  Lu  Lu4  1  0.49967266  0.16120888  0.53049784  1.0
  Lu  Lu5  1  -0.00032734  0.33879112  0.21950216  1.0
  Lu  Lu6  1  0.83879112  0.50032734  0.96950216  1.0
  Lu  Lu7  1  0.33879112  -0.00032734  0.78049784  1.0
  Hf  Hf8  1  0.33028713  0.66971287  0.25000000  1.0
  Hf  Hf9  1  0.83028713  0.83028713  0.50000000  1.0
  Hf  Hf10  1  0.66971287  0.33028713  0.75000000  1.0
  Hf  Hf11  1  0.16971287  0.16971287  0.00000000  1.0
  Hf  Hf12  1  0.34222062  0.49734985  0.87452612  1.0
  Hf  Hf13  1  0.84222062  1.00265015  0.87547388  1.0
  Hf  Hf14  1  0.50265015  0.65777938  0.62547388  1.0
  Hf  Hf15  1  1.00265015  0.84222062  0.12452612  1.0
  Hf  Hf16  1  0.65777938  0.50265015  0.37452612  1.0
  Hf  Hf17  1  0.15777938  -0.00265015  0.37547388  1.0
  Hf  Hf18  1  0.49734985  0.34222062  0.12547388  1.0
  Hf  Hf19  1  -0.00265015  0.15777938  0.62452612  1.0
  Ge  Ge20  1  0.19862011  0.53269031  0.06896580  1.0
  Ge  Ge21  1  0.69862011  0.96730969  0.68103420  1.0
  Ge  Ge22  1  0.46730969  0.80137989  0.43103420  1.0
  Ge  Ge23  1  0.96730969  0.69862011  0.31896580  1.0
  Ge  Ge24  1  0.80137989  0.46730969  0.56896580  1.0
  Ge  Ge25  1  0.30137989  0.03269031  0.18103420  1.0
  Ge  Ge26  1  0.53269031  0.19862011  0.93103420  1.0
  Ge  Ge27  1  0.03269031  0.30137989  0.81896580  1.0
  Ge  Ge28  1  0.13520843  0.80092817  0.92460017  1.0
  Ge  Ge29  1  0.63520843  0.69907183  0.82539983  1.0
  Ge  Ge30  1  0.19907183  0.86479157  0.57539983  1.0
  Ge  Ge31  1  0.69907183  0.63520843  0.17460017  1.0
  Ge  Ge32  1  0.86479157  0.19907183  0.42460017  1.0
  Ge  Ge33  1  0.36479157  0.30092817  0.32539983  1.0
  Ge  Ge34  1  0.80092817  0.13520843  0.07539983  1.0
  Ge  Ge35  1  0.30092817  0.36479157  0.67460017  1.0
